# generated using pymatgen
data_Cu9Ni4C69
_symmetry_space_group_name_H-M   'P 1'
_cell_length_a   17.90978914
_cell_length_b   8.96017773
_cell_length_c   22.01791276
_cell_angle_alpha   90.17564892
_cell_angle_beta   90.02093922
_cell_angle_gamma   120.06578317
_symmetry_Int_Tables_number   1
_chemical_formula_structural   Cu9Ni4C69
_chemical_formula_sum   'Cu27 Ni12 C207'
_cell_volume   3057.89466778
_cell_formula_units_Z   3
loop_
 _symmetry_equiv_pos_site_id
 _symmetry_equiv_pos_as_xyz
  1  'x, y, z'
loop_
 _atom_site_type_symbol
 _atom_site_label
 _atom_site_symmetry_multiplicity
 _atom_site_fract_x
 _atom_site_fract_y
 _atom_site_fract_z
 _atom_site_occupancy
  C  C0  1  0.81815135  0.00557287  0.25311730  1
  C  C1  1  0.17757806  0.35955376  0.25316065  1
  C  C2  1  0.68851592  0.36973737  0.25228410  1
  C  C3  1  0.99768868  0.62966923  0.24850002  1
  C  C4  1  0.50141622  0.63772895  0.25127773  1
  C  C5  1  0.31758372  0.62922080  0.75099397  1
  C  C6  1  0.99942477  0.36185416  0.74680665  1
  C  C7  1  0.49818083  0.36646147  0.74622082  1
  C  C8  1  0.18755616  0.00770824  0.74968784  1
  C  C9  1  0.68201296  0.00032291  0.75026820  1
  C  C10  1  0.14905949  0.32731058  0.58267628  1
  C  C11  1  0.64946758  0.33008262  0.58186990  1
  C  C12  1  0.33538749  0.97870743  0.58575684  1
  C  C13  1  0.83337361  0.96896263  0.58231514  1
  C  C14  1  0.14610027  0.96719969  0.08186058  1
  C  C15  1  0.65153001  0.97228903  0.08064007  1
  C  C16  1  0.33347213  0.69452984  0.08212520  1
  C  C17  1  0.83539982  0.69270481  0.08584610  1
  C  C18  1  0.48182236  0.67442835  0.91493849  1
  C  C19  1  0.98154568  0.67161053  0.91982699  1
  C  C20  1  0.34904931  0.03003738  0.91132703  1
  C  C21  1  0.84819065  0.02886142  0.91260358  1
  C  C22  1  0.16945860  0.29791535  0.91222838  1
  C  C23  1  0.66709015  0.29361301  0.91303067  1
  C  C24  1  0.48366523  0.29606044  0.42249395  1
  C  C25  1  0.97976365  0.28798488  0.41825761  1
  C  C26  1  0.16673313  0.04077161  0.41543654  1
  C  C27  1  0.67187970  0.04408735  0.41646235  1
  C  C28  1  0.34867467  0.66740040  0.41543125  1
  C  C29  1  0.84834088  0.66524529  0.41766608  1
  C  C30  1  0.99913330  0.99457104  0.50025221  1
  C  C31  1  0.50374761  0.00657289  0.50193957  1
  C  C32  1  0.00220678  0.99964267  0.00102939  1
  C  C33  1  0.50256210  0.00346388  0.99766992  1
  C  C34  1  0.33088485  0.33461246  0.82952212  1
  C  C35  1  0.82779379  0.33315672  0.83079731  1
  C  C36  1  0.32844187  0.32065298  0.33490708  1
  C  C37  1  0.83065318  0.32750797  0.33314178  1
  C  C38  1  0.16046647  0.65820474  0.16790117  1
  C  C39  1  0.66437418  0.65805500  0.16770800  1
  C  C40  1  0.16329469  0.66900597  0.66716045  1
  C  C41  1  0.66333331  0.66347377  0.66543274  1
  C  C42  1  0.99827551  0.01175215  0.64255176  1
  C  C43  1  0.50624844  0.01103194  0.65142943  1
  C  C44  1  0.00531733  0.00162371  0.15199575  1
  C  C45  1  0.50475334  0.98614130  0.14693807  1
  C  C46  1  0.82721818  0.32353511  0.68185382  1
  C  C47  1  0.32921732  0.34785070  0.18665800  1
  C  C48  1  0.16453880  0.66872875  0.01919127  1
  C  C49  1  0.66714073  0.66717119  0.01923769  1
  C  C50  1  0.16585776  0.66616311  0.52017553  1
  C  C51  1  0.67205569  0.65926709  0.52431043  1
  C  C52  1  0.17664334  0.67381512  0.30957044  1
  C  C53  1  0.67787072  0.68136853  0.80759377  1
  Ni  Ni54  1  0.99851773  0.01323292  0.34838640  1
  Ni  Ni55  1  0.50223853  0.00477796  0.35193719  1
  Ni  Ni56  1  0.00164129  0.99666785  0.84891972  1
  Ni  Ni57  1  0.49922248  0.98540562  0.84656847  1
  Ni  Ni58  1  0.33569828  0.31989663  0.68834947  1
  Ni  Ni59  1  0.83618039  0.35165353  0.18856305  1
  Ni  Ni60  1  0.32445547  0.34230846  0.98147829  1
  Ni  Ni61  1  0.82275134  0.34270082  0.98295732  1
  Ni  Ni62  1  0.32411652  0.30493086  0.48331256  1
  Ni  Ni63  1  0.82588097  0.32155226  0.48560785  1
  Ni  Ni64  1  0.68266050  0.68607879  0.31616594  1
  Ni  Ni65  1  0.18178959  0.67851726  0.81357719  1
  Cu  Cu66  1  0.14775170  0.00031160  0.25273845  1
  Cu  Cu67  1  0.64718642  0.99655390  0.25317664  1
  Cu  Cu68  1  0.35888671  0.72006102  0.25070573  1
  Cu  Cu69  1  0.85619657  0.71307644  0.25143407  1
  Cu  Cu70  1  0.99802080  0.29230274  0.25010027  1
  Cu  Cu71  1  0.14487855  0.29322546  0.75136961  1
  Cu  Cu72  1  0.64787764  0.29433556  0.75363059  1
  Cu  Cu73  1  0.49837141  0.70464254  0.74994399  1
  Cu  Cu74  1  0.35620143  0.99965382  0.75127241  1
  Cu  Cu75  1  0.85954657  0.00577163  0.75122791  1
  Cu  Cu76  1  0.47699338  0.33616268  0.58285803  1
  Cu  Cu77  1  0.97822851  0.34327867  0.58249554  1
  Cu  Cu78  1  0.18624423  0.03881681  0.58474981  1
  Cu  Cu79  1  0.68229013  0.03299201  0.58154219  1
  Cu  Cu80  1  0.83871052  0.62181095  0.58123379  1
  Cu  Cu81  1  0.47855693  0.61447119  0.08233684  1
  Cu  Cu82  1  0.97738004  0.61856217  0.08269194  1
  Cu  Cu83  1  0.18254236  0.33267227  0.08187618  1
  Cu  Cu84  1  0.68519791  0.33362922  0.08503385  1
  Cu  Cu85  1  0.31441632  0.66961122  0.91722793  1
  Cu  Cu86  1  0.81350944  0.66943801  0.91561470  1
  Cu  Cu87  1  0.16779882  0.95971306  0.91479962  1
  Cu  Cu88  1  0.66833832  0.96192432  0.91708282  1
  Cu  Cu89  1  0.31354151  0.95752284  0.41630726  1
  Cu  Cu90  1  0.81470398  0.96341365  0.41787674  1
  Cu  Cu91  1  0.16801985  0.37434379  0.41696943  1
  Cu  Cu92  1  0.66674457  0.37511952  0.41416866  1
  C  C93  1  0.49714987  0.28604078  0.24949441  1
  C  C94  1  0.99819543  0.70773871  0.75028062  1
  C  C95  1  0.33491892  0.62405991  0.58214736  1
  C  C96  1  0.33574174  0.04961854  0.08269271  1
  C  C97  1  0.83528697  0.04629316  0.08220983  1
  C  C98  1  0.02167403  0.37833798  0.91647966  1
  C  C99  1  0.52163590  0.37859810  0.91715516  1
  C  C100  1  0.02321940  0.66613879  0.41582824  1
  C  C101  1  0.52224974  0.66598717  0.41654545  1
  C  C102  1  0.10697972  0.04514213  0.31119513  1
  C  C103  1  0.60308164  0.03878926  0.31025302  1
  C  C104  1  0.41914609  0.79730363  0.31033885  1
  C  C105  1  0.91783442  0.79819103  0.31088812  1
  C  C106  1  0.48379149  0.18701946  0.30638020  1
  C  C107  1  0.97862878  0.17694379  0.31114341  1
  C  C108  1  0.10460309  0.16961397  0.81159488  1
  C  C109  1  0.60490586  0.16995668  0.81253920  1
  C  C110  1  0.47789734  0.77819645  0.81203634  1
  C  C111  1  0.98512231  0.78057590  0.80816355  1
  C  C112  1  0.41608478  0.03529053  0.81185980  1
  C  C113  1  0.91801338  0.03975113  0.81207605  1
  C  C114  1  0.40116272  0.96618401  0.69124531  1
  C  C115  1  0.90262500  0.97416923  0.69092613  1
  C  C116  1  0.08124941  0.19734563  0.69246014  1
  C  C117  1  0.58546462  0.20609541  0.69283856  1
  C  C118  1  0.01280856  0.82066923  0.69818496  1
  C  C119  1  0.51883320  0.84348066  0.69453339  1
  C  C120  1  0.40201699  0.83260972  0.18935202  1
  C  C121  1  0.90135377  0.83574435  0.19080719  1
  C  C122  1  0.01899551  0.19522367  0.19392584  1
  C  C123  1  0.51107866  0.20039600  0.19664694  1
  C  C124  1  0.08599478  0.96608814  0.19177644  1
  C  C125  1  0.58262532  0.96393766  0.19245263  1
  C  C126  1  0.43604344  0.36679533  0.64379796  1
  C  C127  1  0.93332340  0.36477226  0.64422143  1
  C  C128  1  0.24942222  0.12262802  0.64324651  1
  C  C129  1  0.74724092  0.12591393  0.64137712  1
  C  C130  1  0.31848490  0.51718300  0.63665937  1
  C  C131  1  0.81700158  0.48960767  0.63903938  1
  C  C132  1  0.43161141  0.50043707  0.14345531  1
  C  C133  1  0.93728651  0.50634892  0.14348835  1
  C  C134  1  0.32107702  0.13152550  0.13613258  1
  C  C135  1  0.81851464  0.12016032  0.13676577  1
  C  C136  1  0.24896548  0.36719672  0.14108359  1
  C  C137  1  0.74790130  0.37215214  0.14340567  1
  C  C138  1  0.22391848  0.28658881  0.02396579  1
  C  C139  1  0.72010534  0.28157155  0.02420022  1
  C  C140  1  0.41715381  0.53197669  0.02317502  1
  C  C141  1  0.91753115  0.53304848  0.02148409  1
  C  C142  1  0.34762231  0.14767783  0.02631620  1
  C  C143  1  0.84599289  0.14677462  0.02658124  1
  C  C144  1  0.22171749  0.15897380  0.52349817  1
  C  C145  1  0.72201739  0.15785451  0.52291131  1
  C  C146  1  0.34566219  0.54444661  0.52630441  1
  C  C147  1  0.85196395  0.54008551  0.51953597  1
  C  C148  1  0.41658828  0.29833160  0.52158293  1
  C  C149  1  0.91827353  0.29970823  0.52274871  1
  C  C150  1  0.26332145  0.69488040  0.97625321  1
  C  C151  1  0.76536347  0.69762871  0.97576866  1
  C  C152  1  0.07820474  0.46443897  0.97048158  1
  C  C153  1  0.57792339  0.46515784  0.97141492  1
  C  C154  1  0.15153521  0.83287261  0.97487525  1
  C  C155  1  0.65231892  0.83321871  0.97641391  1
  C  C156  1  0.26594041  0.83316322  0.47556246  1
  C  C157  1  0.76388681  0.83175681  0.47520489  1
  C  C158  1  0.15239539  0.47161255  0.47582593  1
  C  C159  1  0.64967780  0.46666936  0.47390281  1
  C  C160  1  0.07867745  0.69217448  0.47037017  1
  C  C161  1  0.57737204  0.69250833  0.46949790  1
  C  C162  1  0.06344788  0.64082255  0.36083240  1
  C  C163  1  0.55830285  0.63547621  0.35979692  1
  C  C164  1  0.24732183  0.85926854  0.35894069  1
  C  C165  1  0.75314689  0.88870052  0.35711403  1
  C  C166  1  0.18271498  0.50009649  0.35775787  1
  C  C167  1  0.67956269  0.49412390  0.35391099  1
  C  C168  1  0.05900133  0.48302116  0.86134416  1
  C  C169  1  0.55925453  0.48315469  0.86228368  1
  C  C170  1  0.18197724  0.86623845  0.85563975  1
  C  C171  1  0.68279712  0.86522159  0.85846654  1
  C  C172  1  0.25142856  0.62090439  0.85822478  1
  C  C173  1  0.74656080  0.63358823  0.85946098  1
  C  C174  1  0.01607875  0.82371773  0.41362783  1
  C  C175  1  0.51375958  0.82414334  0.41325267  1
  C  C176  1  0.40806709  0.97218999  0.41013319  1
  C  C177  1  0.90816230  0.97005657  0.41384031  1
  C  C178  1  0.08204430  0.18274417  0.41330445  1
  C  C179  1  0.57863491  0.18151995  0.41137605  1
  C  C180  1  0.01502238  0.20605285  0.91462411  1
  C  C181  1  0.51453678  0.20675135  0.91503716  1
  C  C182  1  0.08072596  0.97809124  0.91235649  1
  C  C183  1  0.58237382  0.98152215  0.91408009  1
  C  C184  1  0.40808954  0.84737932  0.91486797  1
  C  C185  1  0.90866594  0.84368425  0.91085647  1
  C  C186  1  0.48643989  0.16000613  0.58828308  1
  C  C187  1  0.98908633  0.16837173  0.58868844  1
  C  C188  1  0.09132557  0.02086424  0.59334207  1
  C  C189  1  0.58914867  0.02263363  0.59060902  1
  C  C190  1  0.40980307  0.80042204  0.58675958  1
  C  C191  1  0.91824468  0.81852238  0.59047898  1
  C  C192  1  0.48668692  0.81017874  0.08881346  1
  C  C193  1  0.98750980  0.81378420  0.08746029  1
  C  C194  1  0.41032575  0.02197095  0.08876454  1
  C  C195  1  0.91004702  0.01922774  0.08684907  1
  C  C196  1  0.08974888  0.15822209  0.09003694  1
  C  C197  1  0.58839383  0.16043654  0.09371355  1
  C  C198  1  0.34516281  0.16983715  0.74849070  1
  C  C199  1  0.84719070  0.17545079  0.74589467  1
  C  C200  1  0.24111544  0.31807023  0.74256082  1
  C  C201  1  0.74162048  0.30721994  0.74430111  1
  C  C202  1  0.41212306  0.51650892  0.74234771  1
  C  C203  1  0.92184043  0.53265565  0.74551215  1
  C  C204  1  0.34740157  0.52227809  0.24417397  1
  C  C205  1  0.84495339  0.52052729  0.24761667  1
  C  C206  1  0.42030139  0.30787581  0.24353876  1
  C  C207  1  0.91181577  0.30739506  0.24192740  1
  C  C208  1  0.24301764  0.17408752  0.24036831  1
  C  C209  1  0.74142441  0.16452870  0.24203791  1
  C  C210  1  0.32513869  0.49760118  0.92140104  1
  C  C211  1  0.82217657  0.49569100  0.91949458  1
  C  C212  1  0.43428545  0.35699297  0.92417771  1
  C  C213  1  0.93431287  0.35551881  0.92334443  1
  C  C214  1  0.25720743  0.14786130  0.92295112  1
  C  C215  1  0.75864352  0.14962519  0.92357819  1
  C  C216  1  0.32210663  0.14853511  0.41888702  1
  C  C217  1  0.82594631  0.15672799  0.42314171  1
  C  C218  1  0.25824392  0.36725887  0.42256267  1
  C  C219  1  0.75418347  0.36077589  0.41929761  1
  C  C220  1  0.43364631  0.51297238  0.42177580  1
  C  C221  1  0.93712937  0.51139595  0.42032977  1
  C  C222  1  0.18188175  0.51401281  0.07721267  1
  C  C223  1  0.67976500  0.51066658  0.07506794  1
  C  C224  1  0.07778926  0.65301063  0.07511882  1
  C  C225  1  0.57801123  0.65320315  0.07811792  1
  C  C226  1  0.25510620  0.87250296  0.07929858  1
  C  C227  1  0.75474980  0.86723845  0.07783835  1
  C  C228  1  0.18062624  0.85008748  0.57452562  1
  C  C229  1  0.67923928  0.84863747  0.57645778  1
  C  C230  1  0.25440843  0.64145416  0.57789502  1
  C  C231  1  0.74954366  0.63851714  0.57816921  1
  C  C232  1  0.07822863  0.50629200  0.57724848  1
  C  C233  1  0.57587641  0.50080138  0.57534646  1
  C  C234  1  0.15120335  0.82219818  0.25708012  1
  C  C235  1  0.64871919  0.81446291  0.25595068  1
  C  C236  1  0.25996886  0.68452725  0.25384040  1
  C  C237  1  0.75926130  0.69318256  0.25225700  1
  C  C238  1  0.08519277  0.48367443  0.25637657  1
  C  C239  1  0.57515297  0.46120359  0.25328708  1
  C  C240  1  0.14838730  0.48180840  0.75644152  1
  C  C241  1  0.65052000  0.47943635  0.75827119  1
  C  C242  1  0.07690798  0.68987661  0.75511951  1
  C  C243  1  0.58551825  0.68754132  0.75698649  1
  C  C244  1  0.25901910  0.82562159  0.75198624  1
  C  C245  1  0.76102874  0.83539560  0.75476708  1
