# generated using pymatgen
data_Cu(NiC8)2
_symmetry_space_group_name_H-M   'P 1'
_cell_length_a   8.91858913
_cell_length_b   8.86529260
_cell_length_c   22.71345408
_cell_angle_alpha   90.04718085
_cell_angle_beta   90.00000000
_cell_angle_gamma   120.19906940
_symmetry_Int_Tables_number   1
_chemical_formula_structural   Cu(NiC8)2
_chemical_formula_sum   'Cu6 Ni12 C96'
_cell_volume   1552.13028736
_cell_formula_units_Z   6
loop_
 _symmetry_equiv_pos_site_id
 _symmetry_equiv_pos_as_xyz
  1  'x, y, z'
loop_
 _atom_site_type_symbol
 _atom_site_label
 _atom_site_symmetry_multiplicity
 _atom_site_fract_x
 _atom_site_fract_y
 _atom_site_fract_z
 _atom_site_occupancy
  C  C0  1  0.99552699  0.63093741  0.24652716  1
  C  C1  1  0.63541146  0.63093607  0.74652712  1
  C  C2  1  0.66219357  0.96426931  0.57986124  1
  C  C3  1  0.30207689  0.96426989  0.07986117  1
  C  C4  1  0.32885677  0.29760310  0.91319412  1
  C  C5  1  0.96874414  0.29760387  0.41319423  1
  C  C6  1  0.99819419  0.98466603  0.49521131  1
  C  C7  1  0.98647271  0.98466708  0.99521075  1
  C  C8  1  0.66486178  0.31800015  0.82854391  1
  C  C9  1  0.65313815  0.31799962  0.32854449  1
  C  C10  1  0.33152781  0.65133246  0.16187798  1
  C  C11  1  0.31980401  0.65133195  0.66187797  1
  C  C12  1  0.00054475  0.00839188  0.64786428  1
  C  C13  1  0.00784588  0.00838963  0.14786349  1
  C  C14  1  0.66720918  0.34172332  0.98119727  1
  C  C15  1  0.67451566  0.34172545  0.48119802  1
  C  C16  1  0.33387343  0.67505653  0.31453098  1
  C  C17  1  0.34118284  0.67505666  0.81453101  1
  C  C18  1  0.00026638  0.99713138  0.35127314  1
  C  C19  1  0.99686286  0.99712794  0.85127255  1
  C  C20  1  0.66693171  0.33046197  0.68460592  1
  C  C21  1  0.66353128  0.33046401  0.18460584  1
  C  C22  1  0.33359503  0.66379466  0.01793991  1
  C  C23  1  0.33020076  0.66379607  0.51794059  1
  Ni  Ni24  1  0.29636378  0.00934325  0.25154035  1
  Ni  Ni25  1  0.99534521  0.29028933  0.25315408  1
  Ni  Ni26  1  0.29494560  0.29029175  0.75315406  1
  Ni  Ni27  1  0.71297550  0.00934044  0.75153903  1
  Ni  Ni28  1  0.96303258  0.34267486  0.58487294  1
  Ni  Ni29  1  0.66201485  0.62362636  0.58648768  1
  Ni  Ni30  1  0.96160882  0.62362543  0.08648764  1
  Ni  Ni31  1  0.37964536  0.34267699  0.08487215  1
  Ni  Ni32  1  0.62969916  0.67600889  0.91820538  1
  Ni  Ni33  1  0.32868235  0.95695758  0.91982114  1
  Ni  Ni34  1  0.62827645  0.95695610  0.41982120  1
  Ni  Ni35  1  0.04631061  0.67600957  0.41820748  1
  Cu  Cu36  1  0.70887959  0.70835529  0.25074813  1
  Cu  Cu37  1  -0.00052728  0.70835357  0.75074786  1
  Cu  Cu38  1  0.37554520  0.04168857  0.58408161  1
  Cu  Cu39  1  0.66614355  0.04168832  0.08408191  1
  Cu  Cu40  1  0.04221370  0.37502275  0.91741487  1
  Cu  Cu41  1  0.33281185  0.37502473  0.41741484  1
  C  C42  1  0.20261409  0.02405375  0.30428660  1
  C  C43  1  0.81631528  0.78952230  0.30248728  1
  C  C44  1  0.97375407  0.18501806  0.30815125  1
  C  C45  1  0.21126361  0.18501776  0.80815115  1
  C  C46  1  0.97320648  0.78952342  0.80248714  1
  C  C47  1  0.82143902  0.02405438  0.80428661  1
  C  C48  1  0.78990156  0.96667058  0.69449163  1
  C  C49  1  0.17823501  0.20142594  0.69752598  1
  C  C50  1  0.02951135  0.81782145  0.69700207  1
  C  C51  1  0.78830994  0.81782113  0.19700205  1
  C  C52  1  0.02319047  0.20142679  0.19752579  1
  C  C53  1  0.17676793  0.96666980  0.19449140  1
  C  C54  1  0.86928462  0.35739142  0.63762292  1
  C  C55  1  0.48298218  0.12285832  0.63582337  1
  C  C56  1  0.64042157  0.51835575  0.64148777  1
  C  C57  1  0.87793244  0.51835628  0.14148762  1
  C  C58  1  0.63987488  0.12285747  0.13582335  1
  C  C59  1  0.48810588  0.35739144  0.13762354  1
  C  C60  1  0.45657085  0.30000723  0.02782832  1
  C  C61  1  0.84490220  0.53476205  0.03086198  1
  C  C62  1  0.69617884  0.15115866  0.03033864  1
  C  C63  1  0.45497815  0.15115931  0.53033888  1
  C  C64  1  0.68985866  0.53476098  0.53086229  1
  C  C65  1  0.84343590  0.30000769  0.52782807  1
  C  C66  1  0.53595170  0.69072266  0.97095558  1
  C  C67  1  0.14965031  0.45619098  0.96915552  1
  C  C68  1  0.30708897  0.85168547  0.97481955  1
  C  C69  1  0.54459862  0.85168524  0.47481980  1
  C  C70  1  0.30654247  0.45619072  0.46915568  1
  C  C71  1  0.15477251  0.69072201  0.47095496  1
  C  C72  1  0.12323849  0.63333886  0.36115972  1
  C  C73  1  0.51156965  0.86809344  0.36419403  1
  C  C74  1  0.36284549  0.48448878  0.36367047  1
  C  C75  1  0.12164513  0.48448846  0.86367024  1
  C  C76  1  0.35652544  0.86809366  0.86419392  1
  C  C77  1  0.51010195  0.63333918  0.86116019  1
  C  C78  1  0.01966521  0.82951901  0.40920999  1
  C  C79  1  0.81277673  0.98936192  0.41103263  1
  C  C80  1  0.17721396  0.20202191  0.41003996  1
  C  C81  1  0.02480604  0.20202293  0.91003995  1
  C  C82  1  0.17658394  0.98936220  0.91103279  1
  C  C83  1  0.80985237  0.82951815  0.90920981  1
  C  C84  1  0.97135150  0.16658518  0.58955024  1
  C  C85  1  0.19959689  0.02311273  0.58967211  1
  C  C86  1  0.83237830  0.81045398  0.59021290  1
  C  C87  1  0.97807446  0.81045409  0.09021252  1
  C  C88  1  0.82351623  0.02311220  0.08967268  1
  C  C89  1  0.19523338  0.16658640  0.08954999  1
  C  C90  1  0.68633377  0.16285552  0.74254659  1
  C  C91  1  0.47944500  0.32269807  0.74436941  1
  C  C92  1  0.84388301  0.53535928  0.74337641  1
  C  C93  1  0.69147576  0.53535935  0.24337680  1
  C  C94  1  0.84325123  0.32269820  0.24436929  1
  C  C95  1  0.47652063  0.16285477  0.24254662  1
  C  C96  1  0.63802074  0.49992603  0.92288651  1
  C  C97  1  0.86626505  0.35645067  0.92300896  1
  C  C98  1  0.49904660  0.14379060  0.92354904  1
  C  C99  1  0.64474364  0.14379117  0.42354909  1
  C  C100  1  0.49018293  0.35645092  0.42300860  1
  C  C101  1  0.86190321  0.49992488  0.42288682  1
  C  C102  1  0.35300045  0.49618532  0.07587879  1
  C  C103  1  0.14611434  0.65603081  0.07770167  1
  C  C104  1  0.51054998  0.86868930  0.07670905  1
  C  C105  1  0.35814174  0.86868821  0.57670867  1
  C  C106  1  0.50991957  0.65603040  0.57770163  1
  C  C107  1  0.14318741  0.49618692  0.57587894  1
  C  C108  1  0.30468873  0.83325467  0.25621855  1
  C  C109  1  0.53293282  0.68978080  0.25634063  1
  C  C110  1  0.16571510  0.47712339  0.25688049  1
  C  C111  1  0.31140987  0.47712270  0.75688082  1
  C  C112  1  0.15685028  0.68978108  0.75634041  1
  C  C113  1  0.52856833  0.83325460  0.75621848  1
