# generated using pymatgen
data_Cu2NiC14
_symmetry_space_group_name_H-M   'P 1'
_cell_length_a   5.15209997
_cell_length_b   5.45378790
_cell_length_c   7.47145600
_cell_angle_alpha   90.00000000
_cell_angle_beta   90.00000000
_cell_angle_gamma   90.36163708
_symmetry_Int_Tables_number   1
_chemical_formula_structural   Cu2NiC14
_chemical_formula_sum   'Cu2 Ni1 C14'
_cell_volume   209.93222931
_cell_formula_units_Z   1
loop_
 _symmetry_equiv_pos_site_id
 _symmetry_equiv_pos_as_xyz
  1  'x, y, z'
loop_
 _atom_site_type_symbol
 _atom_site_label
 _atom_site_symmetry_multiplicity
 _atom_site_fract_x
 _atom_site_fract_y
 _atom_site_fract_z
 _atom_site_occupancy
  Ni  Ni0  1  0.98162100  0.06788000  0.75000000  1
  Cu  Cu1  1  0.49287000  0.00129800  0.49442100  1
  Cu  Cu2  1  0.49287000  0.00129800  0.00557900  1
  C  C3  1  0.99683600  0.51321500  0.49610400  1
  C  C4  1  0.99683600  0.51321500  0.00389600  1
  C  C5  1  0.32495200  0.70219100  0.44746300  1
  C  C6  1  0.19995800  0.19584200  0.04330600  1
  C  C7  1  0.70678000  0.27605800  0.93894000  1
  C  C8  1  0.81642900  0.82165200  0.56415700  1
  C  C9  1  0.19995800  0.19584200  0.45669400  1
  C  C10  1  0.81642900  0.82165200  0.93584300  1
  C  C11  1  0.87119400  0.52829600  0.25000000  1
  C  C12  1  0.32495200  0.70219100  0.05253700  1
  C  C13  1  0.37628800  0.97802500  0.75000000  1
  C  C14  1  0.70678000  0.27605800  0.56106000  1
  C  C15  1  0.10493900  0.44547700  0.75000000  1
  C  C16  1  0.57780900  0.02231200  0.25000000  1
