# generated using pymatgen
data_Cu2(NiC5)3
_symmetry_space_group_name_H-M   'P 1'
_cell_length_a   10.95559721
_cell_length_b   10.95559721
_cell_length_c   10.95559721
_cell_angle_alpha   109.47122063
_cell_angle_beta   109.47122063
_cell_angle_gamma   109.47122063
_symmetry_Int_Tables_number   1
_chemical_formula_structural   Cu2(NiC5)3
_chemical_formula_sum   'Cu8 Ni12 C60'
_cell_volume   1012.24649072
_cell_formula_units_Z   4
loop_
 _symmetry_equiv_pos_site_id
 _symmetry_equiv_pos_as_xyz
  1  'x, y, z'
loop_
 _atom_site_type_symbol
 _atom_site_label
 _atom_site_symmetry_multiplicity
 _atom_site_fract_x
 _atom_site_fract_y
 _atom_site_fract_z
 _atom_site_occupancy
  Ni  Ni0  1  0.25000000  0.37500000  0.12500000  1
  Ni  Ni1  1  0.37500000  0.75000000  0.12500000  1
  Ni  Ni2  1  0.12500000  0.25000000  0.37500000  1
  Ni  Ni3  1  0.37500000  0.12500000  0.25000000  1
  Ni  Ni4  1  0.12500000  0.37500000  0.75000000  1
  Ni  Ni5  1  0.75000000  0.12500000  0.37500000  1
  Ni  Ni6  1  0.75000000  0.62500000  0.87500000  1
  Ni  Ni7  1  0.62500000  0.25000000  0.87500000  1
  Ni  Ni8  1  0.87500000  0.75000000  0.62500000  1
  Ni  Ni9  1  0.62500000  0.87500000  0.75000000  1
  Ni  Ni10  1  0.87500000  0.62500000  0.25000000  1
  Ni  Ni11  1  0.25000000  0.87500000  0.62500000  1
  Cu  Cu12  1  0.00000000  0.00000000  0.00000000  1
  Cu  Cu13  1  0.00000000  0.50000000  0.00000000  1
  Cu  Cu14  1  0.00000000  0.00000000  0.50000000  1
  Cu  Cu15  1  0.50000000  0.00000000  0.00000000  1
  Cu  Cu16  1  0.00000000  0.50000000  0.50000000  1
  Cu  Cu17  1  0.50000000  0.00000000  0.50000000  1
  Cu  Cu18  1  0.50000000  0.50000000  0.00000000  1
  Cu  Cu19  1  0.50000000  0.50000000  0.50000000  1
  C  C20  1  0.25000000  0.62500000  0.37500000  1
  C  C21  1  0.62500000  0.75000000  0.37500000  1
  C  C22  1  0.87500000  0.25000000  0.12500000  1
  C  C23  1  0.12500000  0.87500000  0.25000000  1
  C  C24  1  0.37500000  0.62500000  0.75000000  1
  C  C25  1  0.75000000  0.37500000  0.62500000  1
  C  C26  1  0.87500000  0.12500000  0.75000000  1
  C  C27  1  0.12500000  0.75000000  0.87500000  1
  C  C28  1  0.62500000  0.37500000  0.25000000  1
  C  C29  1  0.37500000  0.25000000  0.62500000  1
  C  C30  1  0.75000000  0.87500000  0.12500000  1
  C  C31  1  0.25000000  0.12500000  0.87500000  1
  C  C32  1  0.79260000  0.41330400  0.81047500  1
  C  C33  1  0.08669600  0.87929600  0.39717100  1
  C  C34  1  0.68952500  0.10282900  0.98212500  1
  C  C35  1  0.70740000  0.51787500  0.62070400  1
  C  C36  1  0.70740000  0.68952500  0.08669600  1
  C  C37  1  0.51787500  0.62070400  0.70740000  1
  C  C38  1  0.10282900  0.62070400  0.41330400  1
  C  C39  1  0.62070400  0.70740000  0.51787500  1
  C  C40  1  0.39717100  0.81047500  0.51787500  1
  C  C41  1  0.87929600  0.98212500  0.79260000  1
  C  C42  1  0.98212500  0.79260000  0.87929600  1
  C  C43  1  0.08669600  0.70740000  0.68952500  1
  C  C44  1  0.62070400  0.41330400  0.10282900  1
  C  C45  1  0.51787500  0.39717100  0.81047500  1
  C  C46  1  0.68952500  0.08669600  0.70740000  1
  C  C47  1  0.41330400  0.10282900  0.62070400  1
  C  C48  1  0.81047500  0.51787500  0.39717100  1
  C  C49  1  0.39717100  0.08669600  0.87929600  1
  C  C50  1  0.10282900  0.98212500  0.68952500  1
  C  C51  1  0.60282900  0.18952500  0.48212500  1
  C  C52  1  0.98212500  0.68952500  0.10282900  1
  C  C53  1  0.81047500  0.79260000  0.41330400  1
  C  C54  1  0.87929600  0.39717100  0.08669600  1
  C  C55  1  0.79260000  0.87929600  0.98212500  1
  C  C56  1  0.20740000  0.58669600  0.18952500  1
  C  C57  1  0.91330400  0.12070400  0.60282900  1
  C  C58  1  0.31047500  0.89717100  0.01787500  1
  C  C59  1  0.29260000  0.48212500  0.37929600  1
  C  C60  1  0.29260000  0.31047500  0.91330400  1
  C  C61  1  0.48212500  0.37929600  0.29260000  1
  C  C62  1  0.89717100  0.37929600  0.58669600  1
  C  C63  1  0.37929600  0.29260000  0.48212500  1
  C  C64  1  0.20740000  0.12070400  0.01787500  1
  C  C65  1  0.12070400  0.60282900  0.91330400  1
  C  C66  1  0.18952500  0.20740000  0.58669600  1
  C  C67  1  0.58669600  0.18952500  0.20740000  1
  C  C68  1  0.01787500  0.31047500  0.89717100  1
  C  C69  1  0.89717100  0.01787500  0.31047500  1
  C  C70  1  0.60282900  0.91330400  0.12070400  1
  C  C71  1  0.18952500  0.48212500  0.60282900  1
  C  C72  1  0.58669600  0.89717100  0.37929600  1
  C  C73  1  0.31047500  0.91330400  0.29260000  1
  C  C74  1  0.48212500  0.60282900  0.18952500  1
  C  C75  1  0.37929600  0.58669600  0.89717100  1
  C  C76  1  0.91330400  0.29260000  0.31047500  1
  C  C77  1  0.01787500  0.20740000  0.12070400  1
  C  C78  1  0.12070400  0.01787500  0.20740000  1
  C  C79  1  0.41330400  0.81047500  0.79260000  1
