# generated using pymatgen
data_CuNi2C35
_symmetry_space_group_name_H-M   'P 1'
_cell_length_a   8.95511600
_cell_length_b   8.91818285
_cell_length_c   22.56102072
_cell_angle_alpha   89.89000244
_cell_angle_beta   89.87426577
_cell_angle_gamma   120.22037023
_symmetry_Int_Tables_number   1
_chemical_formula_structural   CuNi2C35
_chemical_formula_sum   'Cu3 Ni6 C105'
_cell_volume   1556.91382921
_cell_formula_units_Z   3
loop_
 _symmetry_equiv_pos_site_id
 _symmetry_equiv_pos_as_xyz
  1  'x, y, z'
loop_
 _atom_site_type_symbol
 _atom_site_label
 _atom_site_symmetry_multiplicity
 _atom_site_fract_x
 _atom_site_fract_y
 _atom_site_fract_z
 _atom_site_occupancy
  C  C0  1  0.99396466  0.62917188  0.24096855  1
  C  C1  1  0.99219861  0.35427009  0.76044509  1
  C  C2  1  0.36907139  0.99351362  0.75319980  1
  C  C3  1  0.65876021  0.97580332  0.59047440  1
  C  C4  1  0.67693846  0.68454204  0.07636194  1
  C  C5  1  0.33873622  0.03740321  0.42172070  1
  C  C6  1  0.01634288  0.00298968  0.49861986  1
  C  C7  1  0.01872822  0.99746605  0.00226640  1
  C  C8  1  0.66621730  0.33499889  0.84430410  1
  C  C9  1  0.66651587  0.33323305  0.33053335  1
  C  C10  1  0.31885999  0.66176536  0.16598016  1
  C  C11  1  0.35095515  0.67551466  0.66937794  1
  C  C12  1  0.98444732  0.99782890  0.85360115  1
  C  C13  1  0.99945135  0.99579176  0.64654497  1
  C  C14  1  0.00425342  0.00157127  0.14936884  1
  C  C15  1  0.65745048  0.32035588  0.68258202  1
  C  C16  1  0.31739413  0.66773170  0.01946958  1
  C  C17  1  0.33034604  0.66924887  0.51707084  1
  Ni  Ni18  1  0.99602752  0.00421841  0.34784939  1
  Ni  Ni19  1  0.67493652  0.33143861  0.17456923  1
  Ni  Ni20  1  0.67984493  0.34582737  0.98944677  1
  Ni  Ni21  1  0.65394016  0.33094367  0.48629469  1
  Ni  Ni22  1  0.33796207  0.66233251  0.31676168  1
  Ni  Ni23  1  0.36381893  0.68797854  0.82086610  1
  Cu  Cu24  1  0.69983337  0.99530431  0.74687235  1
  Cu  Cu25  1  0.36225184  0.03248172  0.57901365  1
  Cu  Cu26  1  0.96204399  0.62981708  0.08765040  1
  C  C27  1  0.30166693  0.00307549  0.25360619  1
  C  C28  1  0.70011146  0.70362906  0.25179884  1
  C  C29  1  0.99967070  0.29805138  0.25316234  1
  C  C30  1  0.29208893  0.29364963  0.75082084  1
  C  C31  1  0.99633757  0.70278256  0.75137386  1
  C  C32  1  0.96278494  0.33613431  0.58259941  1
  C  C33  1  0.66668251  0.62729127  0.58082264  1
  C  C34  1  0.66582672  0.03607647  0.08286002  1
  C  C35  1  0.37278713  0.33211632  0.08247257  1
  C  C36  1  0.62820055  0.65834784  0.91841433  1
  C  C37  1  0.03886722  0.37448892  0.91278430  1
  C  C38  1  0.33773089  0.97394493  0.91484834  1
  C  C39  1  0.63335979  0.96265333  0.41522273  1
  C  C40  1  0.33314229  0.37010720  0.41429382  1
  C  C41  1  0.03170366  0.66306632  0.41389805  1
  C  C42  1  0.22765284  0.02341676  0.31040605  1
  C  C43  1  0.81332374  0.79239561  0.30349380  1
  C  C44  1  0.99094625  0.20365485  0.30800482  1
  C  C45  1  0.21477957  0.18018314  0.80359071  1
  C  C46  1  0.98346907  0.78963820  0.80525093  1
  C  C47  1  0.83415430  0.02876041  0.80171275  1
  C  C48  1  0.78695550  0.98097001  0.68509865  1
  C  C49  1  0.18627657  0.20661141  0.69754537  1
  C  C50  1  0.02557196  0.81396726  0.69843755  1
  C  C51  1  0.78578953  0.80345002  0.19611551  1
  C  C52  1  0.01221105  0.20795273  0.19978155  1
  C  C53  1  0.18225464  0.98130375  0.20347560  1
  C  C54  1  0.88808717  0.36007957  0.63872578  1
  C  C55  1  0.48752659  0.12597980  0.63756410  1
  C  C56  1  0.65441556  0.52801162  0.63479509  1
  C  C57  1  0.88982548  0.52802951  0.15026614  1
  C  C58  1  0.63032365  0.10504838  0.13697809  1
  C  C59  1  0.47885377  0.35920808  0.13586372  1
  C  C60  1  0.44156452  0.29585037  0.02879861  1
  C  C61  1  0.82625654  0.54687961  0.03365594  1
  C  C62  1  0.68538227  0.13608915  0.02901549  1
  C  C63  1  0.44632039  0.13762181  0.51794198  1
  C  C64  1  0.69338012  0.55264369  0.52693709  1
  C  C65  1  0.85360259  0.31509673  0.53135621  1
  C  C66  1  0.54509262  0.67677879  0.97271731  1
  C  C67  1  0.14623676  0.47005266  0.96447114  1
  C  C68  1  0.31932246  0.85775160  0.96511926  1
  C  C69  1  0.54998550  0.86433991  0.47168410  1
  C  C70  1  0.32133193  0.45881872  0.46838639  1
  C  C71  1  0.14998173  0.68509325  0.46492353  1
  C  C72  1  0.10759097  0.64340102  0.35798105  1
  C  C73  1  0.51798884  0.87232816  0.36455515  1
  C  C74  1  0.34288477  0.46629320  0.36022280  1
  C  C75  1  0.12120622  0.46945968  0.85663847  1
  C  C76  1  0.35210681  0.89777392  0.85739990  1
  C  C77  1  0.52858491  0.64423432  0.86445430  1
  C  C78  1  0.02725887  0.82918409  0.41312834  1
  C  C79  1  0.80406410  0.97474431  0.41134588  1
  C  C80  1  0.17694326  0.19029483  0.41417227  1
  C  C81  1  0.02888386  0.20104818  0.91274764  1
  C  C82  1  0.17802573  0.98745112  0.91364619  1
  C  C83  1  0.80437889  0.81989422  0.91460509  1
  C  C84  1  0.97288052  0.17399034  0.58639278  1
  C  C85  1  0.17031371  0.00634582  0.58779405  1
  C  C86  1  0.81522828  0.80918151  0.58505882  1
  C  C87  1  0.98462537  0.82813196  0.09274673  1
  C  C88  1  0.82455688  0.02079543  0.08944062  1
  C  C89  1  0.19202986  0.18743630  0.09074153  1
  C  C90  1  0.68642160  0.17663766  0.74630973  1
  C  C91  1  0.46798586  0.31699232  0.74447283  1
  C  C92  1  0.83731350  0.53114210  0.74602591  1
  C  C93  1  0.68141841  0.52860356  0.24905887  1
  C  C94  1  0.84287568  0.31549375  0.25069818  1
  C  C95  1  0.47479950  0.15466986  0.24468273  1
  C  C96  1  0.64720515  0.50392112  0.92066527  1
  C  C97  1  0.86383820  0.35006221  0.91743407  1
  C  C98  1  0.49283822  0.14612241  0.92166825  1
  C  C99  1  0.65076764  0.13782872  0.41781193  1
  C  C100  1  0.49026560  0.35167377  0.41606996  1
  C  C101  1  0.85851513  0.51056385  0.42265312  1
  C  C102  1  0.36662091  0.49743956  0.07572846  1
  C  C103  1  0.15529035  0.65452696  0.07728699  1
  C  C104  1  0.51922190  0.85147335  0.07671607  1
  C  C105  1  0.35633916  0.84196900  0.57702195  1
  C  C106  1  0.50656595  0.64074754  0.57816348  1
  C  C107  1  0.13995491  0.48647316  0.57747302  1
  C  C108  1  0.30497222  0.83614617  0.25456816  1
  C  C109  1  0.52977248  0.69295810  0.25532971  1
  C  C110  1  0.15636502  0.47781448  0.25293943  1
  C  C111  1  0.29864054  0.46148622  0.75627481  1
  C  C112  1  0.14766740  0.67652735  0.75460538  1
  C  C113  1  0.50363286  0.83073648  0.75329759  1
