# generated using pymatgen
data_Cu2NiC4
_symmetry_space_group_name_H-M   'P 1'
_cell_length_a   5.71957395
_cell_length_b   5.71957395
_cell_length_c   9.30037119
_cell_angle_alpha   72.09187346
_cell_angle_beta   72.09187346
_cell_angle_gamma   60.00000056
_symmetry_Int_Tables_number   1
_chemical_formula_structural   Cu2NiC4
_chemical_formula_sum   'Cu2 Ni1 C4'
_cell_volume   246.31852296
_cell_formula_units_Z   1
loop_
 _symmetry_equiv_pos_site_id
 _symmetry_equiv_pos_as_xyz
  1  'x, y, z'
loop_
 _atom_site_type_symbol
 _atom_site_label
 _atom_site_symmetry_multiplicity
 _atom_site_fract_x
 _atom_site_fract_y
 _atom_site_fract_z
 _atom_site_occupancy
  C  C0  1  0.62387800  0.62387800  0.12836600  1
  C  C1  1  0.37612200  0.37612200  0.87163400  1
  C  C2  1  0.20854300  0.20854300  0.37437100  1
  C  C3  1  0.79145700  0.79145700  0.62562900  1
  Ni  Ni4  1  0.00000000  0.00000000  0.00000000  1
  Cu  Cu5  1  0.91986700  0.91986700  0.24039900  1
  Cu  Cu6  1  0.08013300  0.08013300  0.75960100  1
