# generated using pymatgen
data_Cu3NiC
_symmetry_space_group_name_H-M   'P 1'
_cell_length_a   4.26780100
_cell_length_b   16.12663100
_cell_length_c   33.81257200
_cell_angle_alpha   90.00000000
_cell_angle_beta   90.00000000
_cell_angle_gamma   90.00000000
_symmetry_Int_Tables_number   1
_chemical_formula_structural   Cu3NiC
_chemical_formula_sum   'Cu48 Ni16 C16'
_cell_volume   2327.15878557
_cell_formula_units_Z   16
loop_
 _symmetry_equiv_pos_site_id
 _symmetry_equiv_pos_as_xyz
  1  'x, y, z'
loop_
 _atom_site_type_symbol
 _atom_site_label
 _atom_site_symmetry_multiplicity
 _atom_site_fract_x
 _atom_site_fract_y
 _atom_site_fract_z
 _atom_site_occupancy
  C  C0  1  0.25387800  0.31456100  0.32668700  1
  C  C1  1  0.75387800  0.18543900  0.67331300  1
  C  C2  1  0.74612200  0.81456100  0.17331300  1
  C  C3  1  0.24612200  0.68543900  0.82668700  1
  C  C4  1  0.73780600  0.88080500  0.04645900  1
  C  C5  1  0.23780600  0.61919500  0.95354100  1
  C  C6  1  0.26219400  0.38080500  0.45354100  1
  C  C7  1  0.76219400  0.11919500  0.54645900  1
  C  C8  1  0.21257600  0.53301600  0.07694400  1
  C  C9  1  0.71257600  0.96698400  0.92305600  1
  C  C10  1  0.78742400  0.03301600  0.42305600  1
  C  C11  1  0.28742400  0.46698400  0.57694400  1
  C  C12  1  0.77074900  0.95408400  0.29357300  1
  C  C13  1  0.27074900  0.54591600  0.70642700  1
  C  C14  1  0.22925100  0.45408400  0.20642700  1
  C  C15  1  0.72925100  0.04591600  0.79357300  1
  Ni  Ni16  1  0.76242900  0.70163100  0.60932400  1
  Ni  Ni17  1  0.26242900  0.79836900  0.39067600  1
  Ni  Ni18  1  0.23757100  0.20163100  0.89067600  1
  Ni  Ni19  1  0.73757100  0.29836900  0.10932400  1
  Ni  Ni20  1  0.75754100  0.62956000  0.48462000  1
  Ni  Ni21  1  0.25754100  0.87044000  0.51538000  1
  Ni  Ni22  1  0.24245900  0.12956000  0.01538000  1
  Ni  Ni23  1  0.74245900  0.37044000  0.98462000  1
  Ni  Ni24  1  0.27209400  0.69893400  0.27145100  1
  Ni  Ni25  1  0.77209400  0.80106600  0.72854900  1
  Ni  Ni26  1  0.72790600  0.19893400  0.22854900  1
  Ni  Ni27  1  0.22790600  0.30106600  0.77145100  1
  Ni  Ni28  1  0.76125000  0.55307200  0.36102200  1
  Ni  Ni29  1  0.26125000  0.94692800  0.63897800  1
  Ni  Ni30  1  0.23875000  0.05307200  0.13897800  1
  Ni  Ni31  1  0.73875000  0.44692800  0.86102200  1
  Cu  Cu32  1  0.89016000  0.30573800  0.59197200  1
  Cu  Cu33  1  0.39016000  0.19426200  0.40802800  1
  Cu  Cu34  1  0.10984000  0.80573800  0.90802800  1
  Cu  Cu35  1  0.60984000  0.69426200  0.09197200  1
  Cu  Cu36  1  0.70316100  0.36122800  0.72232200  1
  Cu  Cu37  1  0.20316100  0.13877200  0.27767800  1
  Cu  Cu38  1  0.29683900  0.86122800  0.77767800  1
  Cu  Cu39  1  0.79683900  0.63877200  0.22232200  1
  Cu  Cu40  1  0.76135300  0.63973900  0.75932900  1
  Cu  Cu41  1  0.26135300  0.86026100  0.24067100  1
  Cu  Cu42  1  0.23864700  0.13973900  0.74067100  1
  Cu  Cu43  1  0.73864700  0.36026100  0.25932900  1
  Cu  Cu44  1  0.26091000  0.33181800  0.64690200  1
  Cu  Cu45  1  0.76091000  0.16818200  0.35309800  1
  Cu  Cu46  1  0.73909000  0.83181800  0.85309800  1
  Cu  Cu47  1  0.23909000  0.66818200  0.14690200  1
  Cu  Cu48  1  0.77530300  0.54067600  0.63682700  1
  Cu  Cu49  1  0.27530300  0.95932400  0.36317300  1
  Cu  Cu50  1  0.22469700  0.04067600  0.86317300  1
  Cu  Cu51  1  0.24696000  0.27185300  0.53582400  1
  Cu  Cu52  1  0.72469700  0.45932400  0.13682700  1
  Cu  Cu53  1  0.26447600  0.52195900  0.30809200  1
  Cu  Cu54  1  0.23552400  0.47804100  0.80809200  1
  Cu  Cu55  1  0.73552400  0.02195900  0.19190800  1
  Cu  Cu56  1  0.77187600  0.46888500  0.50822500  1
  Cu  Cu57  1  0.27187600  0.03111500  0.49177500  1
  Cu  Cu58  1  0.22812400  0.96888500  0.99177500  1
  Cu  Cu59  1  0.72812400  0.53111500  0.00822500  1
  Cu  Cu60  1  0.73573100  0.60659100  0.88549100  1
  Cu  Cu61  1  0.23573100  0.89340900  0.11450900  1
  Cu  Cu62  1  0.26426900  0.10659100  0.61450900  1
  Cu  Cu63  1  0.76426900  0.39340900  0.38549100  1
  Cu  Cu64  1  0.78527400  0.75485100  0.33465200  1
  Cu  Cu65  1  0.28527400  0.74514900  0.66534800  1
  Cu  Cu66  1  0.21472600  0.25485100  0.16534800  1
  Cu  Cu67  1  0.71472600  0.24514900  0.83465200  1
  Cu  Cu68  1  0.27066600  0.60515300  0.42727400  1
  Cu  Cu69  1  0.77066600  0.89484700  0.57272600  1
  Cu  Cu70  1  0.72933400  0.10515300  0.07272600  1
  Cu  Cu71  1  0.22933400  0.39484700  0.92727400  1
  Cu  Cu72  1  0.28096400  0.66908800  0.54772300  1
  Cu  Cu73  1  0.78096400  0.83091200  0.45227700  1
  Cu  Cu74  1  0.71903600  0.16908800  0.95227700  1
  Cu  Cu75  1  0.21903600  0.33091200  0.04772300  1
  Cu  Cu76  1  0.25304000  0.72814700  0.03582400  1
  Cu  Cu77  1  0.75304000  0.77185300  0.96417600  1
  Cu  Cu78  1  0.74696000  0.22814700  0.46417600  1
  Cu  Cu79  1  0.76447600  0.97804100  0.69190800  1
