# generated using pymatgen
data_CuNi2C3
_symmetry_space_group_name_H-M   'P 1'
_cell_length_a   9.14660951
_cell_length_b   9.14660951
_cell_length_c   9.14660955
_cell_angle_alpha   72.02381728
_cell_angle_beta   72.02381728
_cell_angle_gamma   72.02381624
_symmetry_Int_Tables_number   1
_chemical_formula_structural   CuNi2C3
_chemical_formula_sum   'Cu3 Ni6 C9'
_cell_volume   672.79674440
_cell_formula_units_Z   3
loop_
 _symmetry_equiv_pos_site_id
 _symmetry_equiv_pos_as_xyz
  1  'x, y, z'
loop_
 _atom_site_type_symbol
 _atom_site_label
 _atom_site_symmetry_multiplicity
 _atom_site_fract_x
 _atom_site_fract_y
 _atom_site_fract_z
 _atom_site_occupancy
  Ni  Ni0  1  0.55425600  0.32732400  0.88825600  1
  Ni  Ni1  1  0.88825600  0.55425600  0.32732400  1
  Ni  Ni2  1  0.32732400  0.88825600  0.55425600  1
  Ni  Ni3  1  0.44574400  0.67267600  0.11174400  1
  Ni  Ni4  1  0.11174400  0.44574400  0.67267600  1
  Ni  Ni5  1  0.67267600  0.11174400  0.44574400  1
  Cu  Cu6  1  0.00000000  0.00000000  0.00000000  1
  Cu  Cu7  1  0.84359900  0.84359900  0.84359900  1
  Cu  Cu8  1  0.15640100  0.15640100  0.15640100  1
  C  C9  1  0.66934500  0.91010000  0.15145600  1
  C  C10  1  0.15145600  0.66934500  0.91010000  1
  C  C11  1  0.91010000  0.15145600  0.66934500  1
  C  C12  1  0.33065500  0.08990000  0.84854400  1
  C  C13  1  0.84854400  0.33065500  0.08990000  1
  C  C14  1  0.08990000  0.84854400  0.33065500  1
  C  C15  1  0.70474900  0.70474900  0.70474900  1
  C  C16  1  0.29525100  0.29525100  0.29525100  1
  C  C17  1  0.50000000  0.50000000  0.50000000  1
