# generated using pymatgen
data_Cu2NiC
_symmetry_space_group_name_H-M   'P 1'
_cell_length_a   5.77491600
_cell_length_b   6.35623600
_cell_length_c   7.82489000
_cell_angle_alpha   90.00000000
_cell_angle_beta   90.00000000
_cell_angle_gamma   90.00000000
_symmetry_Int_Tables_number   1
_chemical_formula_structural   Cu2NiC
_chemical_formula_sum   'Cu8 Ni4 C4'
_cell_volume   287.22611650
_cell_formula_units_Z   4
loop_
 _symmetry_equiv_pos_site_id
 _symmetry_equiv_pos_as_xyz
  1  'x, y, z'
loop_
 _atom_site_type_symbol
 _atom_site_label
 _atom_site_symmetry_multiplicity
 _atom_site_fract_x
 _atom_site_fract_y
 _atom_site_fract_z
 _atom_site_occupancy
  C  C0  1  0.45603800  0.75668800  0.80981300  1
  C  C1  1  0.54396200  0.25668800  0.19018700  1
  C  C2  1  0.04396200  0.25668800  0.80981300  1
  C  C3  1  0.95603800  0.75668800  0.19018700  1
  Ni  Ni4  1  0.25372400  0.38574600  0.90270900  1
  Ni  Ni5  1  0.24627600  0.88574600  0.90270900  1
  Ni  Ni6  1  0.75372400  0.38574600  0.09729100  1
  Ni  Ni7  1  0.74627600  0.88574600  0.09729100  1
  Cu  Cu8  1  0.12812600  0.96961000  0.27018300  1
  Cu  Cu9  1  0.62812600  0.96961000  0.72981700  1
  Cu  Cu10  1  0.87187400  0.46961000  0.72981700  1
  Cu  Cu11  1  0.37187400  0.46961000  0.27018300  1
  Cu  Cu12  1  0.84058800  0.70595600  0.39548500  1
  Cu  Cu13  1  0.15941200  0.20595600  0.60451500  1
  Cu  Cu14  1  0.65941200  0.20595600  0.39548500  1
  Cu  Cu15  1  0.34058800  0.70595600  0.60451500  1
