# generated using pymatgen
data_CuNi2C15
_symmetry_space_group_name_H-M   'P 1'
_cell_length_a   8.61502820
_cell_length_b   8.68279132
_cell_length_c   22.43371145
_cell_angle_alpha   88.93021928
_cell_angle_beta   90.00000000
_cell_angle_gamma   119.74216985
_symmetry_Int_Tables_number   1
_chemical_formula_structural   CuNi2C15
_chemical_formula_sum   'Cu6 Ni12 C90'
_cell_volume   1456.69918268
_cell_formula_units_Z   6
loop_
 _symmetry_equiv_pos_site_id
 _symmetry_equiv_pos_as_xyz
  1  'x, y, z'
loop_
 _atom_site_type_symbol
 _atom_site_label
 _atom_site_symmetry_multiplicity
 _atom_site_fract_x
 _atom_site_fract_y
 _atom_site_fract_z
 _atom_site_occupancy
  C  C0  1  0.98202803  0.99154991  0.50096047  1
  C  C1  1  0.00952188  0.99154991  0.00096047  1
  C  C2  1  0.64869503  0.32488291  0.83429347  1
  C  C3  1  0.67618888  0.32488291  0.33429347  1
  C  C4  1  0.31536103  0.65821691  0.16762747  1
  C  C5  1  0.34285488  0.65821691  0.66762747  1
  C  C6  1  0.99425171  0.00359600  0.64626715  1
  C  C7  1  0.00934429  0.00359600  0.14626715  1
  C  C8  1  0.66091871  0.33692900  0.97960015  1
  C  C9  1  0.67601129  0.33692900  0.47960015  1
  C  C10  1  0.32758471  0.67026300  0.31293415  1
  C  C11  1  0.34267729  0.67026300  0.81293415  1
  C  C12  1  0.00332001  0.00509499  0.35297244  1
  C  C13  1  0.00177498  0.00509499  0.85297244  1
  C  C14  1  0.66998701  0.33842799  0.68630544  1
  C  C15  1  0.66844198  0.33842799  0.18630544  1
  C  C16  1  0.33665301  0.67176199  0.01963944  1
  C  C17  1  0.33510798  0.67176199  0.51963944  1
  Ni  Ni18  1  0.30231846  0.01711234  0.24950984  1
  Ni  Ni19  1  0.98735390  0.28410680  0.24940482  1
  Ni  Ni20  1  0.29675289  0.28410680  0.74940482  1
  Ni  Ni21  1  0.71479388  0.01711234  0.74950984  1
  Ni  Ni22  1  0.96898546  0.35044534  0.58284284  1
  Ni  Ni23  1  0.65402090  0.61743980  0.58273782  1
  Ni  Ni24  1  0.96341989  0.61743980  0.08273782  1
  Ni  Ni25  1  0.38146088  0.35044534  0.08284284  1
  Ni  Ni26  1  0.63565146  0.68377934  0.91617684  1
  Ni  Ni27  1  0.32068690  0.95077380  0.91607182  1
  Ni  Ni28  1  0.63008589  0.95077380  0.41607182  1
  Ni  Ni29  1  0.04812688  0.68377934  0.41617684  1
  Cu  Cu30  1  0.71378509  0.70004569  0.25060398  1
  Cu  Cu31  1  0.98626060  0.70004569  0.75060398  1
  Cu  Cu32  1  0.38045209  0.03337869  0.58393698  1
  Cu  Cu33  1  0.65292760  0.03337869  0.08393698  1
  Cu  Cu34  1  0.04711809  0.36671269  0.91727098  1
  Cu  Cu35  1  0.31959360  0.36671269  0.41727098  1
  C  C36  1  0.20862210  0.04236660  0.30631193  1
  C  C37  1  0.82262612  0.78364326  0.30452611  1
  C  C38  1  0.95583537  0.16401472  0.30765083  1
  C  C39  1  0.20817935  0.16401472  0.80765083  1
  C  C40  1  0.96101714  0.78364326  0.80452611  1
  C  C41  1  0.83374451  0.04236660  0.80631193  1
  C  C42  1  0.78181383  0.97584014  0.69364979  1
  C  C43  1  0.19392963  0.20616292  0.69338355  1
  C  C44  1  0.02052492  0.80366595  0.69524405  1
  C  C45  1  0.78314103  0.80366595  0.19524405  1
  C  C46  1  0.01223329  0.20616292  0.19338355  1
  C  C47  1  0.19402631  0.97584014  0.19364979  1
  C  C48  1  0.87528910  0.37569960  0.63964493  1
  C  C49  1  0.48929312  0.11697626  0.63785911  1
  C  C50  1  0.62250237  0.49734772  0.64098383  1
  C  C51  1  0.87484635  0.49734772  0.14098383  1
  C  C52  1  0.62768414  0.11697626  0.13785911  1
  C  C53  1  0.50041151  0.37569960  0.13964493  1
  C  C54  1  0.44848083  0.30917314  0.02698279  1
  C  C55  1  0.86059663  0.53949592  0.02671655  1
  C  C56  1  0.68719192  0.13699895  0.02857705  1
  C  C57  1  0.44980803  0.13699895  0.52857705  1
  C  C58  1  0.67890029  0.53949592  0.52671655  1
  C  C59  1  0.86069331  0.30917314  0.52698279  1
  C  C60  1  0.54195510  0.70903360  0.97297893  1
  C  C61  1  0.15595912  0.45031026  0.97119311  1
  C  C62  1  0.28916837  0.83068172  0.97431783  1
  C  C63  1  0.54151235  0.83068172  0.47431783  1
  C  C64  1  0.29435014  0.45031026  0.47119311  1
  C  C65  1  0.16707751  0.70903360  0.47297893  1
  C  C66  1  0.11514683  0.64250714  0.36031679  1
  C  C67  1  0.52726263  0.87282992  0.36005055  1
  C  C68  1  0.35385792  0.47033295  0.36191105  1
  C  C69  1  0.11647403  0.47033295  0.86191105  1
  C  C70  1  0.34556629  0.87282992  0.86005055  1
  C  C71  1  0.52735931  0.64250714  0.86031679  1
  C  C72  1  0.04967596  0.86623732  0.40992237  1
  C  C73  1  0.81865997  0.96200241  0.41118063  1
  C  C74  1  0.14714743  0.19312255  0.41322489  1
  C  C75  1  0.04597512  0.19312255  0.91322489  1
  C  C76  1  0.14334244  0.96200241  0.91118063  1
  C  C77  1  0.81656136  0.86623732  0.90992237  1
  C  C78  1  0.01347936  0.20063440  0.58791326  1
  C  C79  1  0.19449163  -0.00288346  0.58924144  1
  C  C80  1  0.81624056  0.80368746  0.58803244  1
  C  C81  1  0.98744690  0.80368746  0.08803244  1
  C  C82  1  0.80262490  -0.00288346  0.08924144  1
  C  C83  1  0.18715504  0.20063440  0.08791326  1
  C  C84  1  0.71634296  0.19957032  0.74325537  1
  C  C85  1  0.48532697  0.29533541  0.74451363  1
  C  C86  1  0.81381443  0.52645555  0.74655789  1
  C  C87  1  0.71264212  0.52645555  0.24655789  1
  C  C88  1  0.81000944  0.29533541  0.24451363  1
  C  C89  1  0.48322836  0.19957032  0.24325537  1
  C  C90  1  0.68014636  0.53396740  0.92124626  1
  C  C91  1  0.86115863  0.33044954  0.92257444  1
  C  C92  1  0.48290756  0.13702046  0.92136544  1
  C  C93  1  0.65411390  0.13702046  0.42136544  1
  C  C94  1  0.46929190  0.33044954  0.42257444  1
  C  C95  1  0.85382204  0.53396740  0.42124626  1
  C  C96  1  0.38300896  0.53290432  0.07658937  1
  C  C97  1  0.15199297  0.62866941  0.07784763  1
  C  C98  1  0.48048043  0.85978955  0.07989189  1
  C  C99  1  0.37930812  0.85978955  0.57989189  1
  C  C100  1  0.47667544  0.62866941  0.57784763  1
  C  C101  1  0.14989436  0.53290432  0.57658937  1
  C  C102  1  0.34681236  0.86730140  0.25458026  1
  C  C103  1  0.52782463  0.66378354  0.25590844  1
  C  C104  1  0.14957356  0.47035446  0.25469944  1
  C  C105  1  0.32077990  0.47035446  0.75469944  1
  C  C106  1  0.13595790  0.66378354  0.75590844  1
  C  C107  1  0.52048804  0.86730140  0.75458026  1
