# generated using pymatgen
data_Cu2Ni2C33
_symmetry_space_group_name_H-M   'P 1'
_cell_length_a   17.17794383
_cell_length_b   8.59298194
_cell_length_c   22.08595793
_cell_angle_alpha   89.81073536
_cell_angle_beta   89.79444035
_cell_angle_gamma   120.14081526
_symmetry_Int_Tables_number   1
_chemical_formula_structural   Cu2Ni2C33
_chemical_formula_sum   'Cu12 Ni12 C198'
_cell_volume   2819.25004839
_cell_formula_units_Z   6
loop_
 _symmetry_equiv_pos_site_id
 _symmetry_equiv_pos_as_xyz
  1  'x, y, z'
loop_
 _atom_site_type_symbol
 _atom_site_label
 _atom_site_symmetry_multiplicity
 _atom_site_fract_x
 _atom_site_fract_y
 _atom_site_fract_z
 _atom_site_occupancy
  C  C0  1  0.81744316  0.99638968  0.24763188  1
  C  C1  1  0.99652042  0.63280310  0.25298306  1
  C  C2  1  0.31629940  0.64541589  0.74914632  1
  C  C3  1  0.81458652  0.63781494  0.74677419  1
  C  C4  1  0.99723357  0.36365126  0.75120521  1
  C  C5  1  0.68954122  0.99954058  0.74919100  1
  C  C6  1  0.99842160  0.99839864  0.49882211  1
  C  C7  1  0.50226950  0.00223495  0.49664177  1
  C  C8  1  0.00114097  0.00157526  0.00119095  1
  C  C9  1  0.49987017  0.99982095  0.00117321  1
  C  C10  1  0.33506479  0.31239933  0.83496932  1
  C  C11  1  0.83399419  0.32527986  0.83730538  1
  C  C12  1  0.33460639  0.33513930  0.33141068  1
  C  C13  1  0.82784425  0.34382906  0.33509533  1
  C  C14  1  0.17386517  0.66936608  0.16669126  1
  C  C15  1  0.66548690  0.65560419  0.16804913  1
  C  C16  1  0.17265715  0.68774934  0.66466735  1
  C  C17  1  0.66766332  0.66770722  0.66347319  1
  Ni  Ni18  1  0.99776811  0.98763541  0.35134600  1
  Ni  Ni19  1  0.99878809  0.00600116  0.85344299  1
  Ni  Ni20  1  0.49318039  0.00849443  0.85301210  1
  Ni  Ni21  1  0.99408206  0.99546499  0.64714598  1
  Ni  Ni22  1  0.49446381  0.99627837  0.64674158  1
  Ni  Ni23  1  0.99402709  0.99275023  0.15020780  1
  Ni  Ni24  1  0.49985104  0.00157184  0.15050265  1
  Ni  Ni25  1  0.33378742  0.31711923  0.68513373  1
  Ni  Ni26  1  0.33364239  0.33241482  0.48136538  1
  Ni  Ni27  1  0.16696681  0.66715831  0.01662496  1
  Ni  Ni28  1  0.66576108  0.66711720  0.01681463  1
  Ni  Ni29  1  0.66588898  0.65389346  0.31400664  1
  Cu  Cu30  1  0.49783891  0.99848583  0.35185390  1
  Cu  Cu31  1  0.83411635  0.32254490  0.68037208  1
  Cu  Cu32  1  0.33362329  0.33532096  0.18145407  1
  Cu  Cu33  1  0.82867513  0.34691812  0.18296249  1
  Cu  Cu34  1  0.33333483  0.33284700  0.98638022  1
  Cu  Cu35  1  0.83313784  0.33293402  0.98570821  1
  Cu  Cu36  1  0.83171610  0.33216176  0.48251606  1
  Cu  Cu37  1  0.16431847  0.66220925  0.51522680  1
  Cu  Cu38  1  0.66939515  0.66962752  0.51638544  1
  Cu  Cu39  1  0.17626037  0.67395762  0.31954423  1
  Cu  Cu40  1  0.17579710  0.69152908  0.81495791  1
  Cu  Cu41  1  0.66878670  0.66997958  0.81639923  1
  C  C42  1  0.85278775  0.70877112  0.25179029  1
  C  C43  1  0.35782723  0.00823437  0.74818610  1
  C  C44  1  0.85719444  0.00090849  0.75111985  1
  C  C45  1  0.14351795  0.00535204  0.24987998  1
  C  C46  1  0.64152363  0.99338405  0.25024734  1
  C  C47  1  0.35572889  0.71099184  0.24850604  1
  C  C48  1  0.00478943  0.28532628  0.25004448  1
  C  C49  1  0.49984095  0.29071331  0.25006277  1
  C  C50  1  0.14354692  0.27679515  0.74821464  1
  C  C51  1  0.63763306  0.27960606  0.75003405  1
  C  C52  1  0.00237034  0.72367135  0.75005307  1
  C  C53  1  0.49752404  0.71274969  0.74847390  1
  C  C54  1  0.47530900  0.32919040  0.58364043  1
  C  C55  1  0.98458822  0.33096637  0.58423377  1
  C  C56  1  0.18826566  0.04969220  0.58442847  1
  C  C57  1  0.67853488  0.03309630  0.58519184  1
  C  C58  1  0.33606483  0.61675951  0.58492710  1
  C  C59  1  0.83629526  0.63396692  0.58550891  1
  C  C60  1  0.48545547  0.63780330  0.08294777  1
  C  C61  1  0.98662058  0.63733161  0.08285352  1
  C  C62  1  0.33323877  0.03037114  0.08341919  1
  C  C63  1  0.83329360  0.03148427  0.08305697  1
  C  C64  1  0.18091732  0.33214245  0.08327790  1
  C  C65  1  0.67987712  0.33284035  0.08207931  1
  C  C66  1  0.31447321  0.66862112  0.91701074  1
  C  C67  1  0.81485894  0.66945253  0.91720767  1
  C  C68  1  0.02356631  0.37537642  0.91573394  1
  C  C69  1  0.52291095  0.37522598  0.91696135  1
  C  C70  1  0.16346741  0.95947969  0.91752560  1
  C  C71  1  0.66304607  0.95877667  0.91621381  1
  C  C72  1  0.31492012  0.96943358  0.42008746  1
  C  C73  1  0.81482175  0.95918793  0.41316721  1
  C  C74  1  0.16662521  0.36234166  0.41691017  1
  C  C75  1  0.66552393  0.37496224  0.41639103  1
  C  C76  1  0.01903269  0.67156929  0.41480093  1
  C  C77  1  0.51982315  0.66097996  0.41689706  1
  C  C78  1  0.10209519  0.02952001  0.30534025  1
  C  C79  1  0.60535075  0.02882497  0.30460219  1
  C  C80  1  0.40631965  0.78654068  0.30408192  1
  C  C81  1  0.92016803  0.80568596  0.30816994  1
  C  C82  1  0.48514443  0.18499658  0.30486198  1
  C  C83  1  0.99291042  0.17608659  0.30492316  1
  C  C84  1  0.10684933  0.16980150  0.80459282  1
  C  C85  1  0.59825238  0.16362227  0.80519275  1
  C  C86  1  0.48285044  0.79299910  0.80398290  1
  C  C87  1  0.99136456  0.80946305  0.80535687  1
  C  C88  1  0.41624673  0.03447791  0.80947439  1
  C  C89  1  0.92250676  0.03789726  0.80959138  1
  C  C90  1  0.40370596  0.96406894  0.69077056  1
  C  C91  1  0.90326536  0.96510924  0.69251107  1
  C  C92  1  0.08734791  0.19050695  0.69463470  1
  C  C93  1  0.58711267  0.19274995  0.69456612  1
  C  C94  1  0.01640577  0.83129385  0.69446326  1
  C  C95  1  0.51680269  0.83036993  0.69442122  1
  C  C96  1  0.40194325  0.82660170  0.19399989  1
  C  C97  1  0.89739850  0.83992776  0.19215069  1
  C  C98  1  0.01741478  0.20389816  0.19449006  1
  C  C99  1  0.51581049  0.20698057  0.19520030  1
  C  C100  1  0.08666192  0.97800376  0.19534789  1
  C  C101  1  0.58701547  0.97150470  0.19505001  1
  C  C102  1  0.43193124  0.35622264  0.63778564  1
  C  C103  1  0.94785840  0.36208859  0.64110752  1
  C  C104  1  0.24413429  0.13739499  0.63863556  1
  C  C105  1  0.73096739  0.10780100  0.64164587  1
  C  C106  1  0.32451089  0.50755916  0.64092391  1
  C  C107  1  0.82228197  0.52892916  0.64242238  1
  C  C108  1  0.44871848  0.52430854  0.13716888  1
  C  C109  1  0.95122523  0.52700976  0.13851059  1
  C  C110  1  0.31326516  0.10336940  0.13748972  1
  C  C111  1  0.81596216  0.10391573  0.13890912  1
  C  C112  1  0.23742452  0.37138678  0.13728381  1
  C  C113  1  0.73527241  0.37195179  0.13647243  1
  C  C114  1  0.21843157  0.29508811  0.02887713  1
  C  C115  1  0.71704618  0.29444513  0.02807929  1
  C  C116  1  0.42945051  0.56409693  0.02872910  1
  C  C117  1  0.92880913  0.55946072  0.02978169  1
  C  C118  1  0.35288617  0.14246228  0.02877066  1
  C  C119  1  0.84966212  0.14518143  0.02934088  1
  C  C120  1  0.23051144  0.16156455  0.52944473  1
  C  C121  1  0.71935831  0.14654911  0.53134848  1
  C  C122  1  0.34797378  0.52914980  0.53030859  1
  C  C123  1  0.85028528  0.55142331  0.53177452  1
  C  C124  1  0.41924725  0.30138572  0.52909614  1
  C  C125  1  0.92702533  0.29738870  0.53126678  1
  C  C126  1  0.26865911  0.69741749  0.96996323  1
  C  C127  1  0.76823971  0.69659705  0.96989837  1
  C  C128  1  0.08099304  0.46742456  0.96930989  1
  C  C129  1  0.58001240  0.46444468  0.97106082  1
  C  C130  1  0.14944835  0.84230357  0.97155487  1
  C  C131  1  0.65023245  0.84029816  0.96956487  1
  C  C132  1  0.27314494  0.85486227  0.47369928  1
  C  C133  1  0.77919555  0.85331994  0.46900769  1
  C  C134  1  0.14792670  0.43624400  0.47119334  1
  C  C135  1  0.65233604  0.45195246  0.47217121  1
  C  C136  1  0.07364964  0.70148393  0.46917805  1
  C  C137  1  0.57275104  0.69024067  0.47191816  1
  C  C138  1  0.05893855  0.64406988  0.35867902  1
  C  C139  1  0.56282006  0.63263212  0.36214103  1
  C  C140  1  0.26175275  0.90041665  0.36400790  1
  C  C141  1  0.75604493  0.86856316  0.35947537  1
  C  C142  1  0.18640603  0.47441504  0.36196192  1
  C  C143  1  0.67646398  0.48862088  0.36185564  1
  C  C144  1  0.06154508  0.47751790  0.85890057  1
  C  C145  1  0.56130257  0.47997371  0.86136057  1
  C  C146  1  0.17829378  0.88597104  0.86208531  1
  C  C147  1  0.67806293  0.88671556  0.85952981  1
  C  C148  1  0.26303986  0.63701841  0.86067995  1
  C  C149  1  0.76447581  0.63910106  0.86036937  1
  C  C150  1  0.01280148  0.83955406  0.40940460  1
  C  C151  1  0.50724266  0.81724126  0.41008496  1
  C  C152  1  0.40508805  0.99040115  0.41443754  1
  C  C153  1  0.90689337  0.98261434  0.40526056  1
  C  C154  1  0.08573415  0.18062473  0.40750366  1
  C  C155  1  0.58559271  0.19453084  0.41086986  1
  C  C156  1  0.01900089  0.19580390  0.91271875  1
  C  C157  1  0.51851518  0.19564333  0.91320572  1
  C  C158  1  0.07921964  0.97142149  0.91168157  1
  C  C159  1  0.57910803  0.97027574  0.91093281  1
  C  C160  1  0.40525334  0.83675521  0.91244861  1
  C  C161  1  0.90552538  0.83672528  0.91277960  1
  C  C162  1  0.48339686  0.16437954  0.58951450  1
  C  C163  1  0.99394350  0.16703134  0.59104573  1
  C  C164  1  0.09814027  0.03341187  0.59146059  1
  C  C165  1  0.58796493  0.01966389  0.59269607  1
  C  C166  1  0.41973593  0.79610111  0.58906787  1
  C  C167  1  0.92149865  0.81476031  0.59010843  1
  C  C168  1  0.49639144  0.82066043  0.09256545  1
  C  C169  1  0.99793643  0.82039923  0.09143145  1
  C  C170  1  0.41418679  0.00986335  0.09318739  1
  C  C171  1  0.91587806  0.01564469  0.08930171  1
  C  C172  1  0.08959422  0.17077925  0.09301288  1
  C  C173  1  0.58858287  0.17028802  0.09243480  1
  C  C174  1  0.34757760  0.18628742  0.74091709  1
  C  C175  1  0.84580316  0.17984080  0.74849398  1
  C  C176  1  0.23694168  0.31003615  0.74070083  1
  C  C177  1  0.73055551  0.30670620  0.74709843  1
  C  C178  1  0.41307443  0.53620159  0.74080016  1
  C  C179  1  0.91760851  0.54555112  0.74712770  1
  C  C180  1  0.34557843  0.53066532  0.24203263  1
  C  C181  1  0.84702207  0.51438071  0.24733103  1
  C  C182  1  0.42028795  0.31157936  0.24212009  1
  C  C183  1  0.92108408  0.29630277  0.24585663  1
  C  C184  1  0.23369726  0.16501051  0.24494199  1
  C  C185  1  0.73507340  0.14528547  0.24247656  1
  C  C186  1  0.32597876  0.51137958  0.92504035  1
  C  C187  1  0.82579860  0.51108889  0.92505136  1
  C  C188  1  0.43183832  0.34947983  0.92398132  1
  C  C189  1  0.93261395  0.35045887  0.92303210  1
  C  C190  1  0.24263795  0.14025747  0.92494662  1
  C  C191  1  0.74281596  0.13888596  0.92381015  1
  C  C192  1  0.32321525  0.15103381  0.42845359  1
  C  C193  1  0.82282345  0.13842280  0.41692908  1
  C  C194  1  0.24892944  0.34527614  0.42642827  1
  C  C195  1  0.74861300  0.36322057  0.41849243  1
  C  C196  1  0.42832777  0.49311456  0.42357118  1
  C  C197  1  0.92837167  0.51150241  0.42047750  1
  C  C198  1  0.17133072  0.49561330  0.07301346  1
  C  C199  1  0.67004125  0.49529288  0.07220828  1
  C  C200  1  0.07743619  0.65578893  0.07247748  1
  C  C201  1  0.57694085  0.65795240  0.07287424  1
  C  C202  1  0.25214068  0.84704392  0.07331291  1
  C  C203  1  0.75190307  0.84822996  0.07346818  1
  C  C204  1  0.17937567  0.87085637  0.57992971  1
  C  C205  1  0.66801152  0.85273811  0.57904587  1
  C  C206  1  0.25635093  0.63680487  0.58070118  1
  C  C207  1  0.75686690  0.65713464  0.58065935  1
  C  C208  1  0.07497393  0.49270211  0.57821354  1
  C  C209  1  0.56510509  0.48925714  0.57939995  1
  C  C210  1  0.14881463  0.83751760  0.25348547  1
  C  C211  1  0.64682615  0.82462884  0.25612317  1
  C  C212  1  0.26612473  0.69886205  0.25052475  1
  C  C213  1  0.75409695  0.69525789  0.25996557  1
  C  C214  1  0.08275666  0.47011604  0.25384277  1
  C  C215  1  0.58268215  0.47252413  0.25575882  1
  C  C216  1  0.14918467  0.45458626  0.75301708  1
  C  C217  1  0.64483955  0.45695648  0.75413430  1
  C  C218  1  0.07818726  0.69004866  0.75349572  1
  C  C219  1  0.57577686  0.68781443  0.75355908  1
  C  C220  1  0.25893765  0.82396950  0.75050732  1
  C  C221  1  0.75605372  0.82180160  0.75288858  1
