# generated using pymatgen
data_CuNiC10
_symmetry_space_group_name_H-M   'P 1'
_cell_length_a   8.71881939
_cell_length_b   8.68927664
_cell_length_c   22.53611196
_cell_angle_alpha   90.39651179
_cell_angle_beta   90.25774850
_cell_angle_gamma   119.96487790
_symmetry_Int_Tables_number   1
_chemical_formula_structural   CuNiC10
_chemical_formula_sum   'Cu9 Ni9 C90'
_cell_volume   1479.02601092
_cell_formula_units_Z   9
loop_
 _symmetry_equiv_pos_site_id
 _symmetry_equiv_pos_as_xyz
  1  'x, y, z'
loop_
 _atom_site_type_symbol
 _atom_site_label
 _atom_site_symmetry_multiplicity
 _atom_site_fract_x
 _atom_site_fract_y
 _atom_site_fract_z
 _atom_site_occupancy
  C  C0  1  0.99284526  0.99098322  0.49730805  1
  C  C1  1  0.00164936  0.99355022  0.00075085  1
  C  C2  1  0.66157985  0.32518880  0.83092997  1
  C  C3  1  0.66677368  0.32620827  0.33489161  1
  C  C4  1  0.32612032  0.66212429  0.17201261  1
  C  C5  1  0.33799766  0.66265815  0.66391200  1
  C  C6  1  0.00308625  0.00686688  0.35574618  1
  C  C7  1  0.01564586  0.01378380  0.85046908  1
  C  C8  1  0.98314593  0.00160343  0.64604595  1
  C  C9  1  0.01185423  0.99704886  0.15053882  1
  C  C10  1  0.64851211  0.33126218  0.68847833  1
  C  C11  1  0.68501121  0.33631224  0.19336386  1
  C  C12  1  0.66318244  0.33722374  0.98017154  1
  C  C13  1  0.68268020  0.34921096  0.47516396  1
  C  C14  1  0.31768757  0.67667081  0.02151736  1
  C  C15  1  0.35148670  0.68231170  0.51696981  1
  C  C16  1  0.31674617  0.67760599  0.31233934  1
  C  C17  1  0.35047500  0.68423850  0.80810428  1
  Ni  Ni18  1  0.29303396  0.00672522  0.25193616  1
  Ni  Ni19  1  0.01118105  0.28821020  0.25093002  1
  Ni  Ni20  1  0.28488179  0.29073013  0.74826042  1
  Ni  Ni21  1  0.71855463  0.01041250  0.75083101  1
  Ni  Ni22  1  0.66464067  0.62188627  0.58305454  1
  Ni  Ni23  1  0.94926303  0.62404833  0.08443848  1
  Ni  Ni24  1  0.33125470  0.95907518  0.91545965  1
  Ni  Ni25  1  0.62493259  0.95858142  0.41484230  1
  Ni  Ni26  1  0.05028690  0.67505277  0.41799954  1
  Cu  Cu27  1  0.71209140  0.71291083  0.24969250  1
  Cu  Cu28  1  0.00019540  0.71229464  0.74979776  1
  Cu  Cu29  1  0.95471293  0.33595818  0.58388694  1
  Cu  Cu30  1  0.37589481  0.04500309  0.58304905  1
  Cu  Cu31  1  0.66723445  0.04545292  0.08260174  1
  Cu  Cu32  1  0.37885164  0.33612925  0.08304884  1
  Cu  Cu33  1  0.62071356  0.66771061  0.91752054  1
  Cu  Cu34  1  0.04447755  0.37966397  0.91684742  1
  Cu  Cu35  1  0.33522631  0.38148973  0.41666141  1
  C  C36  1  0.19531796  0.03274266  0.30829137  1
  C  C37  1  0.82164080  0.78887454  0.30333875  1
  C  C38  1  0.96640160  0.16180312  0.30823878  1
  C  C39  1  0.20068479  0.16589796  0.80806311  1
  C  C40  1  0.97221640  0.79277342  0.80425813  1
  C  C41  1  0.83752607  0.02730588  0.80955682  1
  C  C42  1  0.80028097  0.96508760  0.69223164  1
  C  C43  1  0.16216149  0.19092712  0.69109104  1
  C  C44  1  0.03083147  0.82104553  0.69656140  1
  C  C45  1  0.79457506  0.82027787  0.19529410  1
  C  C46  1  0.02395831  0.18723404  0.19018569  1
  C  C47  1  0.16692736  0.96640065  0.19145839  1
  C  C48  1  0.87020041  0.35653416  0.63752940  1
  C  C49  1  0.48692493  0.12546680  0.63811697  1
  C  C50  1  0.64148131  0.49701215  0.64135642  1
  C  C51  1  0.85592516  0.49556874  0.14055114  1
  C  C52  1  0.63264621  0.12096915  0.13622301  1
  C  C53  1  0.48643222  0.36168767  0.13589592  1
  C  C54  1  0.46070429  0.30536836  0.02830617  1
  C  C55  1  0.82855582  0.52011141  0.02496272  1
  C  C56  1  0.68751051  0.15358015  0.02894111  1
  C  C57  1  0.45980569  0.15191783  0.53038936  1
  C  C58  1  0.69223999  0.52180875  0.52588875  1
  C  C59  1  0.84533136  0.30278799  0.52951168  1
  C  C60  1  0.53525403  0.68882835  0.97103885  1
  C  C61  1  0.15477300  0.46097254  0.97131846  1
  C  C62  1  0.30506784  0.83265747  0.97417723  1
  C  C63  1  0.53476119  0.83335011  0.47459920  1
  C  C64  1  0.30877433  0.46242051  0.47108211  1
  C  C65  1  0.17101292  0.69324413  0.47646237  1
  C  C66  1  0.13027581  0.63085388  0.35847241  1
  C  C67  1  0.49655677  0.85758733  0.35819504  1
  C  C68  1  0.36369223  0.48637420  0.36293829  1
  C  C69  1  0.12374783  0.48515075  0.86389432  1
  C  C70  1  0.36107243  0.85788049  0.85934571  1
  C  C71  1  0.51158907  0.63482306  0.86306558  1
  C  C72  1  0.02745816  0.84573388  0.40982621  1
  C  C73  1  0.81930880  0.97917822  0.40905331  1
  C  C74  1  0.17425972  0.20304166  0.41286974  1
  C  C75  1  0.02447632  0.19907077  0.91280698  1
  C  C76  1  0.15242039  0.97279500  0.91002776  1
  C  C77  1  0.79805614  0.82403505  0.91195728  1
  C  C78  1  0.97200397  0.17178710  0.58850475  1
  C  C79  1  0.19948184  0.02602677  0.59025613  1
  C  C80  1  0.84534359  0.81626879  0.59141457  1
  C  C81  1  0.97185552  0.82019359  0.08832361  1
  C  C82  1  0.82523392  0.02744648  0.08709567  1
  C  C83  1  0.20041895  0.17572857  0.08629714  1
  C  C84  1  0.69783501  0.18244395  0.74146695  1
  C  C85  1  0.48197719  0.31179059  0.74304778  1
  C  C86  1  0.84244341  0.53355363  0.74421363  1
  C  C87  1  0.69401546  0.53320692  0.24229599  1
  C  C88  1  0.83266766  0.30971407  0.24229608  1
  C  C89  1  0.48504464  0.18200854  0.23862217  1
  C  C90  1  0.63735619  0.50363567  0.92306161  1
  C  C91  1  0.86471116  0.35887070  0.92412432  1
  C  C92  1  0.50864039  0.15279649  0.92652647  1
  C  C93  1  0.63555692  0.14886331  0.42736242  1
  C  C94  1  0.49172031  0.35698696  0.42359768  1
  C  C95  1  0.85306806  0.49540199  0.42425844  1
  C  C96  1  0.36317835  0.49643696  0.07404008  1
  C  C97  1  0.14615450  0.63923262  0.07493099  1
  C  C98  1  0.50751406  0.86316540  0.07494649  1
  C  C99  1  0.35944918  0.86560216  0.57935753  1
  C  C100  1  0.48727809  0.63942761  0.57734299  1
  C  C101  1  0.13234339  0.49217392  0.57858003  1
  C  C102  1  0.31375572  0.83061979  0.25493327  1
  C  C103  1  0.53540394  0.69198631  0.25427813  1
  C  C104  1  0.18557561  0.48128362  0.25614929  1
  C  C105  1  0.30277636  0.48327111  0.76097293  1
  C  C106  1  0.15899469  0.69183740  0.75704298  1
  C  C107  1  0.52145760  0.83087074  0.75771523  1
