# generated using pymatgen
data_Cu2NiC14
_symmetry_space_group_name_H-M   'P 1'
_cell_length_a   3.87667775
_cell_length_b   5.88462048
_cell_length_c   11.56587879
_cell_angle_alpha   101.16199870
_cell_angle_beta   90.00000108
_cell_angle_gamma   70.76820124
_symmetry_Int_Tables_number   1
_chemical_formula_structural   Cu2NiC14
_chemical_formula_sum   'Cu2 Ni1 C14'
_cell_volume   243.83308066
_cell_formula_units_Z   1
loop_
 _symmetry_equiv_pos_site_id
 _symmetry_equiv_pos_as_xyz
  1  'x, y, z'
loop_
 _atom_site_type_symbol
 _atom_site_label
 _atom_site_symmetry_multiplicity
 _atom_site_fract_x
 _atom_site_fract_y
 _atom_site_fract_z
 _atom_site_occupancy
  C  C0  1  0.14932486  0.70135029  0.94154938  1
  C  C1  1  0.17895191  0.64209619  0.61759483  1
  C  C2  1  0.85067514  0.29864971  0.05845062  1
  C  C3  1  0.82104809  0.35790381  0.38240517  1
  Ni  Ni4  1  0.50000000  -0.00000000  0.50000000  1
  Cu  Cu5  1  0.13427872  0.73144356  0.23197872  1
  Cu  Cu6  1  0.86572128  0.26855644  0.76802128  1
  C  C7  1  0.02468330  0.95063240  0.37764178  1
  C  C8  1  0.02299068  0.95401765  0.12193098  1
  C  C9  1  0.72819220  0.54361559  0.92271757  1
  C  C10  1  0.66548236  0.66903529  0.53530241  1
  C  C11  1  0.29425217  0.41149566  0.75258465  1
  C  C12  1  0.70574783  0.58850434  0.24741535  1
  C  C13  1  0.27180780  0.45638441  0.07728243  1
  C  C14  1  0.33451764  0.33096471  0.46469759  1
  C  C15  1  0.97531670  0.04936760  0.62235822  1
  C  C16  1  0.97700932  0.04598235  0.87806902  1
