# generated using pymatgen
data_Cu3Ni3C31
_symmetry_space_group_name_H-M   'P 1'
_cell_length_a   9.33440288
_cell_length_b   9.36509385
_cell_length_c   24.40605045
_cell_angle_alpha   89.81058847
_cell_angle_beta   90.24840251
_cell_angle_gamma   120.37397579
_symmetry_Int_Tables_number   1
_chemical_formula_structural   Cu3Ni3C31
_chemical_formula_sum   'Cu9 Ni9 C93'
_cell_volume   1840.65923846
_cell_formula_units_Z   3
loop_
 _symmetry_equiv_pos_site_id
 _symmetry_equiv_pos_as_xyz
  1  'x, y, z'
loop_
 _atom_site_type_symbol
 _atom_site_label
 _atom_site_symmetry_multiplicity
 _atom_site_fract_x
 _atom_site_fract_y
 _atom_site_fract_z
 _atom_site_occupancy
  Ni  Ni0  1  0.64948971  0.64920184  0.75211344  1
  Ni  Ni1  1  0.30171005  0.95822927  0.08055104  1
  Ni  Ni2  1  0.33736709  0.02208358  0.41655827  1
  Ni  Ni3  1  0.97952208  0.99852188  0.50159688  1
  Ni  Ni4  1  0.98621709  0.99812169  0.99896366  1
  Ni  Ni5  1  0.66506232  0.32040117  0.83536496  1
  Ni  Ni6  1  0.66332086  0.33202306  0.32952274  1
  Ni  Ni7  1  0.33026043  0.66198926  0.16900625  1
  Ni  Ni8  1  0.31780558  0.65694572  0.66492122  1
  Cu  Cu9  1  0.99972982  0.00256561  0.35193940  1
  Cu  Cu10  1  0.00740347  0.00538897  0.85272221  1
  Cu  Cu11  1  0.99520493  0.00238418  0.65027540  1
  Cu  Cu12  1  0.99783333  0.99951303  0.14307996  1
  Cu  Cu13  1  0.67076062  0.32805942  0.68729770  1
  Cu  Cu14  1  0.66393188  0.33004810  0.18439591  1
  Cu  Cu15  1  0.33565046  0.65716704  0.01560838  1
  Cu  Cu16  1  0.33616487  0.65601662  0.51662708  1
  Cu  Cu17  1  0.33334136  0.67255437  0.32282172  1
  C  C18  1  0.67022186  0.33812239  0.97821828  1
  C  C19  1  0.67878269  0.34672238  0.48473544  1
  C  C20  1  0.32648828  0.66532669  0.82225665  1
  C  C21  1  0.30070630  0.99432698  0.25040666  1
  C  C22  1  0.30203145  0.32238119  0.75434462  1
  C  C23  1  0.01616953  0.70275189  0.75428693  1
  C  C24  1  0.67832290  0.97839001  0.75614849  1
  C  C25  1  0.95235416  0.32556984  0.57982713  1
  C  C26  1  0.67638350  0.62532825  0.58248032  1
  C  C27  1  0.95112023  0.62338569  0.07692985  1
  C  C28  1  0.67126227  0.05497292  0.07565554  1
  C  C29  1  0.38175052  0.32521879  0.07654282  1
  C  C30  1  0.61993850  0.64672500  0.91541224  1
  C  C31  1  0.02554475  0.38124365  0.91669390  1
  C  C32  1  0.35520242  0.97056151  0.91895646  1
  C  C33  1  0.63887041  0.99127718  0.42259607  1
  C  C34  1  0.35116716  0.36042512  0.42005177  1
  C  C35  1  0.02143743  0.65853608  0.42056310  1
  C  C36  1  0.69283328  0.69797543  0.25034402  1
  C  C37  1  0.00550290  0.30759228  0.24992126  1
  C  C38  1  0.37401383  0.04703710  0.57757485  1
  C  C39  1  0.20817450  0.99797650  0.30260355  1
  C  C40  1  0.78417110  0.78614849  0.30023458  1
  C  C41  1  0.99704971  0.21424534  0.29975537  1
  C  C42  1  0.22359708  0.20909013  0.80320088  1
  C  C43  1  0.98134633  0.78580648  0.80177452  1
  C  C44  1  0.79261253  0.00513623  0.80418687  1
  C  C45  1  0.74369118  0.93491153  0.70369080  1
  C  C46  1  0.20082201  0.25092185  0.70112376  1
  C  C47  1  0.05221207  0.80428875  0.70102136  1
  C  C48  1  0.78118529  0.79296202  0.20043324  1
  C  C49  1  0.00647807  0.21739190  0.20001496  1
  C  C50  1  0.20281218  0.99042875  0.19739882  1
  C  C51  1  0.86878330  0.33081329  0.63281451  1
  C  C52  1  0.46239985  0.12553702  0.62888132  1
  C  C53  1  0.66713968  0.53871247  0.63679440  1
  C  C54  1  0.87136769  0.53319069  0.13002034  1
  C  C55  1  0.65892783  0.13179315  0.12928767  1
  C  C56  1  0.46948851  0.33509421  0.13031227  1
  C  C57  1  0.49352766  0.32824237  0.02590294  1
  C  C58  1  0.84142684  0.51360025  0.02545966  1
  C  C59  1  0.67562691  0.16821920  0.02513557  1
  C  C60  1  0.47414612  0.14961721  0.52877756  1
  C  C61  1  0.67228311  0.50770406  0.53312862  1
  C  C62  1  0.83964203  0.32693640  0.52977418  1
  C  C63  1  0.54960543  0.67465501  0.96717144  1
  C  C64  1  0.12180218  0.45109346  0.96887111  1
  C  C65  1  0.32922335  0.87871346  0.97247365  1
  C  C66  1  0.55103553  0.87857358  0.47112479  1
  C  C67  1  0.31836878  0.43843272  0.46926459  1
  C  C68  1  0.13914310  0.69062749  0.46834729  1
  C  C69  1  0.08350127  0.61790001  0.36789555  1
  C  C70  1  0.52600984  0.92431030  0.37079237  1
  C  C71  1  0.38255959  0.46230973  0.36751773  1
  C  C72  1  0.13239339  0.50279276  0.86737703  1
  C  C73  1  0.36839096  0.86090726  0.87007373  1
  C  C74  1  0.49982457  0.62729335  0.86523290  1
  C  C75  1  0.99920915  0.80966933  0.41433706  1
  C  C76  1  0.81409099  0.02050753  0.41531248  1
  C  C77  1  0.20943740  0.17776963  0.41477444  1
  C  C78  1  0.99358654  0.20752479  0.90644930  1
  C  C79  1  0.21196790  0.00055933  0.90780377  1
  C  C80  1  0.79581504  0.78845559  0.90592728  1
  C  C81  1  0.95899824  0.16479523  0.57605286  1
  C  C82  1  0.21104093  0.03813565  0.57591958  1
  C  C83  1  0.83926744  0.79276858  0.57768945  1
  C  C84  1  0.96233368  0.79484098  0.07368118  1
  C  C85  1  0.82837280  0.04125570  0.07301701  1
  C  C86  1  0.21789588  0.15452775  0.07297391  1
  C  C87  1  0.64454615  0.12127617  0.74955750  1
  C  C88  1  0.48567456  0.36681385  0.74838732  1
  C  C89  1  0.86356260  0.52643489  0.74874731  1
  C  C90  1  0.67976922  0.53352619  0.25102811  1
  C  C91  1  0.85761187  0.32734857  0.25073958  1
  C  C92  1  0.47521234  0.15207697  0.25163166  1
  C  C93  1  0.62792718  0.48127478  0.92376498  1
  C  C94  1  0.85297046  0.37472028  0.92227535  1
  C  C95  1  0.52110702  0.14594961  0.92343302  1
  C  C96  1  0.65009889  0.16409103  0.43428041  1
  C  C97  1  0.51005877  0.34398103  0.43257623  1
  C  C98  1  0.84371878  0.50339538  0.43411337  1
  C  C99  1  0.35224436  0.47047003  0.07471056  1
  C  C100  1  0.12931989  0.65405712  0.07455226  1
  C  C101  1  0.50881217  0.88707257  0.07255209  1
  C  C102  1  0.35539008  0.88149137  0.57492800  1
  C  C103  1  0.52232133  0.64220907  0.57713742  1
  C  C104  1  0.12308531  0.48218616  0.57637368  1
  C  C105  1  0.31670724  0.83656084  0.25134555  1
  C  C106  1  0.52492750  0.67918976  0.25032801  1
  C  C107  1  0.15946063  0.47256271  0.25001378  1
  C  C108  1  0.31333081  0.49563856  0.76831522  1
  C  C109  1  0.17281129  0.68508275  0.77035593  1
  C  C110  1  0.50506567  0.81501765  0.76973177  1
