# generated using pymatgen
data_Cu3Ni3C31
_symmetry_space_group_name_H-M   'P 1'
_cell_length_a   9.15253758
_cell_length_b   9.13813109
_cell_length_c   23.34157752
_cell_angle_alpha   89.79726377
_cell_angle_beta   90.14541160
_cell_angle_gamma   120.03029328
_symmetry_Int_Tables_number   1
_chemical_formula_structural   Cu3Ni3C31
_chemical_formula_sum   'Cu9 Ni9 C93'
_cell_volume   1690.14591275
_cell_formula_units_Z   3
loop_
 _symmetry_equiv_pos_site_id
 _symmetry_equiv_pos_as_xyz
  1  'x, y, z'
loop_
 _atom_site_type_symbol
 _atom_site_label
 _atom_site_symmetry_multiplicity
 _atom_site_fract_x
 _atom_site_fract_y
 _atom_site_fract_z
 _atom_site_occupancy
  C  C0  1  0.65593043  0.95936373  0.58108540  1
  C  C1  1  0.29647669  0.95404785  0.07868730  1
  C  C2  1  0.03562219  0.34390057  0.08080074  1
  C  C3  1  0.02526525  0.00022605  0.49446112  1
  C  C4  1  0.97394790  0.97594632  0.99313718  1
  C  C5  1  0.66214300  0.33242536  0.83108818  1
  C  C6  1  0.67127011  0.33709423  0.32984223  1
  C  C7  1  0.35354355  0.67812709  0.16549742  1
  C  C8  1  0.31469883  0.65971059  0.66607380  1
  C  C9  1  0.99851419  0.99951468  0.35184654  1
  C  C10  1  0.00152470  0.00057811  0.85125515  1
  C  C11  1  0.02338232  0.00393856  0.64824085  1
  C  C12  1  0.97849888  0.98194462  0.14882660  1
  C  C13  1  0.66222254  0.33452705  0.68774738  1
  C  C14  1  0.67089179  0.33899084  0.18752384  1
  C  C15  1  0.34223022  0.66964979  0.01454933  1
  C  C16  1  0.32503178  0.66209139  0.51688366  1
  C  C17  1  0.67848456  0.33845401  0.97601952  1
  C  C18  1  0.65727149  0.32770215  0.47533564  1
  C  C19  1  0.33026986  0.66609231  0.32445052  1
  C  C20  1  0.33644389  0.66913832  0.82475657  1
  Ni  Ni21  1  0.37657764  0.04565404  0.58084128  1
  Ni  Ni22  1  0.95843715  0.62737038  0.07996760  1
  Ni  Ni23  1  0.66882118  0.04899590  0.08104183  1
  Ni  Ni24  1  0.62895846  0.65604811  0.91844809  1
  Ni  Ni25  1  0.03371481  0.37243904  0.92043118  1
  Ni  Ni26  1  0.34518287  0.97345321  0.92057488  1
  Ni  Ni27  1  0.62551646  0.96698841  0.42101900  1
  Ni  Ni28  1  0.34043614  0.37423133  0.41918714  1
  Ni  Ni29  1  0.02773304  0.65472272  0.41917709  1
  Cu  Cu30  1  0.30302308  0.98641922  0.25239866  1
  Cu  Cu31  1  0.67892449  0.69511253  0.25520394  1
  Cu  Cu32  1  0.01540993  0.31823969  0.25222271  1
  Cu  Cu33  1  0.30293597  0.31914795  0.75432831  1
  Cu  Cu34  1  0.01472869  0.69637471  0.75446137  1
  Cu  Cu35  1  0.68353534  0.98592391  0.75169322  1
  Cu  Cu36  1  0.94772229  0.32783740  0.58047840  1
  Cu  Cu37  1  0.67193920  0.62646169  0.57916294  1
  Cu  Cu38  1  0.37565850  0.32820843  0.08052040  1
  C  C39  1  0.20924704  0.00299016  0.29961139  1
  C  C40  1  0.78705903  0.78159290  0.30363927  1
  C  C41  1  0.99733156  0.20683324  0.29960945  1
  C  C42  1  0.21880956  0.21178193  0.80332137  1
  C  C43  1  0.99346725  0.78140347  0.80326338  1
  C  C44  1  0.79416612  0.00365421  0.79918470  1
  C  C45  1  0.74541449  0.95911645  0.69634427  1
  C  C46  1  0.20796269  0.25195210  0.70050732  1
  C  C47  1  0.04372148  0.79181823  0.70045121  1
  C  C48  1  0.74391936  0.78830345  0.20075972  1
  C  C49  1  0.04000474  0.25513512  0.19673013  1
  C  C50  1  0.21451313  0.95983625  0.19677475  1
  C  C51  1  0.86777127  0.34092311  0.63279308  1
  C  C52  1  0.47971736  0.13719564  0.63303163  1
  C  C53  1  0.66588448  0.53629525  0.63171528  1
  C  C54  1  0.86869543  0.52616366  0.13261259  1
  C  C55  1  0.65197903  0.13584363  0.13356484  1
  C  C56  1  0.46843139  0.34403262  0.13323483  1
  C  C57  1  0.47206100  0.32329766  0.02861193  1
  C  C58  1  0.84424832  0.52090049  0.02455376  1
  C  C59  1  0.67441659  0.16413537  0.02572246  1
  C  C60  1  0.48791319  0.16296365  0.52534298  1
  C  C61  1  0.67718870  0.52805921  0.52713502  1
  C  C62  1  0.84406381  0.32541366  0.52829802  1
  C  C63  1  0.55511572  0.67862683  0.97242326  1
  C  C64  1  0.12148167  0.44054605  0.97670698  1
  C  C65  1  0.32103621  0.88140639  0.97661450  1
  C  C66  1  0.55751383  0.87662560  0.47681377  1
  C  C67  1  0.32034372  0.44976082  0.47265437  1
  C  C68  1  0.12721657  0.67930353  0.47248166  1
  C  C69  1  0.13235360  0.63170512  0.36587481  1
  C  C70  1  0.49443417  0.86079538  0.36990888  1
  C  C71  1  0.36463094  0.49898311  0.36610882  1
  C  C72  1  0.14106436  0.50244167  0.86968378  1
  C  C73  1  0.36678814  0.86190545  0.86959256  1
  C  C74  1  0.50238273  0.63482840  0.86560916  1
  C  C75  1  0.99573153  0.79793312  0.40682403  1
  C  C76  1  0.80091152  0.00235479  0.40790883  1
  C  C77  1  0.20119232  0.19647184  0.40757407  1
  C  C78  1  0.99827081  0.19668003  0.90803368  1
  C  C79  1  0.20136636  0.00271524  0.90734466  1
  C  C80  1  0.80428802  0.79892791  0.90691849  1
  C  C81  1  0.94302678  0.16204079  0.57880091  1
  C  C82  1  0.20612162  0.03697867  0.57611954  1
  C  C83  1  0.82604339  0.79684585  0.57700947  1
  C  C84  1  0.97932943  0.80490952  0.07669473  1
  C  C85  1  0.83965319  0.05389897  0.07821855  1
  C  C86  1  0.21073100  0.16485380  0.08034225  1
  C  C87  1  0.65530528  0.13149924  0.75042225  1
  C  C88  1  0.47791212  0.35111901  0.75094785  1
  C  C89  1  0.87128495  0.52174561  0.75063555  1
  C  C90  1  0.64748288  0.52031995  0.25224501  1
  C  C91  1  0.87086100  0.34783437  0.25153579  1
  C  C92  1  0.47656752  0.13171354  0.25134345  1
  C  C93  1  0.62782820  0.48224234  0.92092385  1
  C  C94  1  0.85800923  0.37162664  0.92085281  1
  C  C95  1  0.51768560  0.14641813  0.92095541  1
  C  C96  1  0.62846661  0.14407470  0.42206773  1
  C  C97  1  0.51538150  0.37299456  0.42219406  1
  C  C98  1  0.85459681  0.48200674  0.42189011  1
  C  C99  1  0.34046668  0.46903007  0.07775124  1
  C  C100  1  0.13246008  0.63968511  0.07702066  1
  C  C101  1  0.51297945  0.87383167  0.07710177  1
  C  C102  1  0.36914480  0.87497924  0.57752338  1
  C  C103  1  0.52228371  0.64739081  0.57733574  1
  C  C104  1  0.12018652  0.46938280  0.57762779  1
  C  C105  1  0.31718510  0.82702207  0.26253082  1
  C  C106  1  0.50770383  0.68421336  0.26375785  1
  C  C107  1  0.17516380  0.49039740  0.26194448  1
  C  C108  1  0.31455099  0.49111409  0.76314026  1
  C  C109  1  0.17464528  0.68346129  0.76364707  1
  C  C110  1  0.50991506  0.82702365  0.76226194  1
