# generated using pymatgen
data_Cu2NiC12
_symmetry_space_group_name_H-M   'P 1'
_cell_length_a   6.47073200
_cell_length_b   7.70018200
_cell_length_c   10.67747300
_cell_angle_alpha   90.00000000
_cell_angle_beta   90.00000000
_cell_angle_gamma   90.00000000
_symmetry_Int_Tables_number   1
_chemical_formula_structural   Cu2NiC12
_chemical_formula_sum   'Cu8 Ni4 C48'
_cell_volume   532.01378447
_cell_formula_units_Z   4
loop_
 _symmetry_equiv_pos_site_id
 _symmetry_equiv_pos_as_xyz
  1  'x, y, z'
loop_
 _atom_site_type_symbol
 _atom_site_label
 _atom_site_symmetry_multiplicity
 _atom_site_fract_x
 _atom_site_fract_y
 _atom_site_fract_z
 _atom_site_occupancy
  C  C0  1  0.38019600  0.82562100  0.32617500  1
  C  C1  1  0.88019600  0.17437900  0.67382500  1
  C  C2  1  0.11980400  0.32562100  0.17382500  1
  C  C3  1  0.61980400  0.67437900  0.82617500  1
  C  C4  1  0.61980400  0.17437900  0.67382500  1
  C  C5  1  0.11980400  0.82562100  0.32617500  1
  C  C6  1  0.88019600  0.67437900  0.82617500  1
  C  C7  1  0.38019600  0.32562100  0.17382500  1
  C  C8  1  0.75000000  0.09516700  0.79734000  1
  C  C9  1  0.25000000  0.90483300  0.20266000  1
  C  C10  1  0.75000000  0.59516700  0.70266000  1
  C  C11  1  0.25000000  0.40483300  0.29734000  1
  C  C12  1  0.75000000  0.98224000  0.65639700  1
  C  C13  1  0.25000000  0.01776000  0.34360300  1
  C  C14  1  0.75000000  0.16990600  0.38748500  1
  C  C15  1  0.75000000  0.48224000  0.84360300  1
  C  C16  1  0.37968900  0.66917300  0.53732500  1
  C  C17  1  0.87968900  0.33082700  0.46267500  1
  C  C18  1  0.12031100  0.16917300  0.96267500  1
  C  C19  1  0.62031100  0.83082700  0.03732500  1
  C  C20  1  0.62031100  0.33082700  0.46267500  1
  C  C21  1  0.12031100  0.66917300  0.53732500  1
  C  C22  1  0.87968900  0.83082700  0.03732500  1
  C  C23  1  0.37968900  0.16917300  0.96267500  1
  C  C24  1  0.75000000  0.37659600  0.32807200  1
  C  C25  1  0.25000000  0.62340400  0.67192800  1
  C  C26  1  0.75000000  0.87659600  0.17192800  1
  C  C27  1  0.25000000  0.12340400  0.82807200  1
  C  C28  1  0.25000000  0.33009400  0.88748500  1
  C  C29  1  0.75000000  0.66990600  0.11251500  1
  C  C30  1  0.25000000  0.83009400  0.61251500  1
  C  C31  1  0.25000000  0.51776000  0.15639700  1
  Ni  Ni32  1  0.75000000  0.77002500  0.43083000  1
  Ni  Ni33  1  0.25000000  0.22997500  0.56917000  1
  Ni  Ni34  1  0.75000000  0.27002500  0.06917000  1
  Ni  Ni35  1  0.25000000  0.72997500  0.93083000  1
  Cu  Cu36  1  0.75000000  0.10349500  0.70121400  1
  Cu  Cu37  1  0.25000000  0.89650500  0.29878600  1
  Cu  Cu38  1  0.75000000  0.60349500  0.79878600  1
  Cu  Cu39  1  0.25000000  0.39650500  0.20121400  1
  Cu  Cu40  1  0.75000000  0.30238200  0.40883400  1
  Cu  Cu41  1  0.25000000  0.69761800  0.59116600  1
  Cu  Cu42  1  0.75000000  0.80238200  0.09116600  1
  Cu  Cu43  1  0.25000000  0.19761800  0.90883400  1
  C  C44  1  0.44002700  0.32938800  0.60569100  1
  C  C45  1  0.94002700  0.67061200  0.39430900  1
  C  C46  1  0.05997300  0.82938800  0.89430900  1
  C  C47  1  0.55997300  0.17061200  0.10569100  1
  C  C48  1  0.55997300  0.67061200  0.39430900  1
  C  C49  1  0.05997300  0.32938800  0.60569100  1
  C  C50  1  0.94002700  0.17061200  0.10569100  1
  C  C51  1  0.44002700  0.82938800  0.89430900  1
  C  C52  1  0.75000000  0.79323900  0.56986400  1
  C  C53  1  0.25000000  0.20676100  0.43013600  1
  C  C54  1  0.75000000  0.29323900  0.93013600  1
  C  C55  1  0.25000000  0.70676100  0.06986400  1
  C  C56  1  0.75000000  0.94000400  0.36383900  1
  C  C57  1  0.25000000  0.05999600  0.63616100  1
  C  C58  1  0.75000000  0.44000400  0.13616100  1
  C  C59  1  0.25000000  0.55999600  0.86383900  1
