# generated using pymatgen
data_CuNi11C7
_symmetry_space_group_name_H-M   'P 1'
_cell_length_a   10.19652784
_cell_length_b   7.71471888
_cell_length_c   2.90855000
_cell_angle_alpha   89.99889380
_cell_angle_beta   89.99914564
_cell_angle_gamma   110.04127731
_symmetry_Int_Tables_number   1
_chemical_formula_structural   CuNi11C7
_chemical_formula_sum   'Cu1 Ni11 C7'
_cell_volume   214.94173970
_cell_formula_units_Z   1
loop_
 _symmetry_equiv_pos_site_id
 _symmetry_equiv_pos_as_xyz
  1  'x, y, z'
loop_
 _atom_site_type_symbol
 _atom_site_label
 _atom_site_symmetry_multiplicity
 _atom_site_fract_x
 _atom_site_fract_y
 _atom_site_fract_z
 _atom_site_occupancy
  C  C0  1  0.16598900  0.33520200  0.51194000  1
  C  C1  1  0.99328100  0.94497600  0.01216600  1
  C  C2  1  0.33918200  0.14877300  0.51213400  1
  C  C3  1  0.99495500  0.52352300  0.51215900  1
  C  C4  1  0.66516000  0.37228100  0.01204300  1
  C  C5  1  0.34224900  0.72174600  0.01207700  1
  C  C6  1  0.66661700  0.80788800  0.51192800  1
  Ni  Ni7  1  0.12451700  0.05297800  0.51215700  1
  Ni  Ni8  1  0.02486900  0.36221500  0.01208100  1
  Ni  Ni9  1  0.30709200  0.30744700  0.01202500  1
  Ni  Ni10  1  0.98977900  0.67861400  0.01214100  1
  Ni  Ni11  1  0.53622100  0.28079400  0.51206100  1
  Ni  Ni12  1  0.20940100  0.61757400  0.51210200  1
  Ni  Ni13  1  0.46756900  0.73234100  0.51203100  1
  Ni  Ni14  1  0.79614800  0.40110400  0.51204100  1
  Ni  Ni15  1  0.66765300  0.65054400  0.01192900  1
  Ni  Ni16  1  0.34758700  0.99360500  0.01211100  1
  Ni  Ni17  1  0.86519000  0.92080400  0.51209900  1
  Cu  Cu18  1  0.66529300  0.98091900  0.01194500  1
