# generated using pymatgen
data_CuNi7C4
_symmetry_space_group_name_H-M   'P 1'
_cell_length_a   3.90063101
_cell_length_b   11.12386830
_cell_length_c   4.14246200
_cell_angle_alpha   90.00000000
_cell_angle_beta   90.00000000
_cell_angle_gamma   79.89646833
_symmetry_Int_Tables_number   1
_chemical_formula_structural   CuNi7C4
_chemical_formula_sum   'Cu1 Ni7 C4'
_cell_volume   176.95449311
_cell_formula_units_Z   1
loop_
 _symmetry_equiv_pos_site_id
 _symmetry_equiv_pos_as_xyz
  1  'x, y, z'
loop_
 _atom_site_type_symbol
 _atom_site_label
 _atom_site_symmetry_multiplicity
 _atom_site_fract_x
 _atom_site_fract_y
 _atom_site_fract_z
 _atom_site_occupancy
  C  C0  1  0.72051000  0.55942100  0.50000000  1
  C  C1  1  0.17700900  0.64626600  0.00000000  1
  C  C2  1  0.82276900  0.35471700  0.00000000  1
  C  C3  1  0.99911200  0.00178400  0.00000000  1
  Ni  Ni4  1  0.09346100  0.81303300  0.00000000  1
  Ni  Ni5  1  0.18750200  0.62531600  0.50000000  1
  Ni  Ni6  1  0.70656000  0.58722100  0.00000000  1
  Ni  Ni7  1  0.29229300  0.41561600  0.00000000  1
  Ni  Ni8  1  0.81041800  0.37935400  0.50000000  1
  Ni  Ni9  1  0.90626700  0.18757200  0.00000000  1
  Ni  Ni10  1  0.50107100  0.99782500  0.00000000  1
  Cu  Cu11  1  0.99969400  0.00062400  0.50000000  1
