# generated using pymatgen
data_Cu5NiC31
_symmetry_space_group_name_H-M   'P 1'
_cell_length_a   8.91077258
_cell_length_b   8.87834920
_cell_length_c   23.11611780
_cell_angle_alpha   89.99522988
_cell_angle_beta   90.03853768
_cell_angle_gamma   119.86395554
_symmetry_Int_Tables_number   1
_chemical_formula_structural   Cu5NiC31
_chemical_formula_sum   'Cu15 Ni3 C93'
_cell_volume   1585.93991348
_cell_formula_units_Z   3
loop_
 _symmetry_equiv_pos_site_id
 _symmetry_equiv_pos_as_xyz
  1  'x, y, z'
loop_
 _atom_site_type_symbol
 _atom_site_label
 _atom_site_symmetry_multiplicity
 _atom_site_fract_x
 _atom_site_fract_y
 _atom_site_fract_z
 _atom_site_occupancy
  C  C0  1  0.36686376  0.00079085  0.74941110  1
  C  C1  1  0.66423624  0.97039996  0.58529500  1
  C  C2  1  0.66962620  0.69553195  0.08240662  1
  C  C3  1  0.01365144  0.00088652  0.49975476  1
  C  C4  1  0.00966647  0.00552016  0.99918336  1
  C  C5  1  0.67641093  0.33932327  0.83401842  1
  C  C6  1  0.66665331  0.33329267  0.33329158  1
  C  C7  1  0.32028234  0.66544599  0.16728212  1
  C  C8  1  0.32828884  0.65532934  0.66655510  1
  C  C9  1  0.99955466  0.99970660  0.35323914  1
  C  C10  1  0.99366006  0.00026513  0.85357396  1
  C  C11  1  0.00245823  0.99882036  0.64732573  1
  C  C12  1  0.00647223  0.00292924  0.14756155  1
  C  C13  1  0.66987122  0.33285739  0.68584519  1
  C  C14  1  0.67198981  0.33498705  0.18713819  1
  C  C15  1  0.66925718  0.33554436  0.98032013  1
  C  C16  1  0.66070496  0.33136791  0.47932268  1
  C  C17  1  0.32434640  0.66663649  0.01937468  1
  C  C18  1  0.32794529  0.66533628  0.51880081  1
  C  C19  1  0.33379838  0.66696397  0.31343744  1
  C  C20  1  0.33754015  0.66488253  0.81439193  1
  Ni  Ni21  1  0.70778020  0.00003582  0.74894397  1
  Ni  Ni22  1  0.37201041  0.04168826  0.58329915  1
  Ni  Ni23  1  0.95914995  0.62438849  0.08387398  1
  Cu  Cu24  1  0.29110053  0.00055257  0.25080383  1
  Cu  Cu25  1  0.70910848  0.71014695  0.24960732  1
  Cu  Cu26  1  0.00031030  0.29045243  0.25066985  1
  Cu  Cu27  1  0.28866663  0.29000903  0.75029800  1
  Cu  Cu28  1  0.99887120  0.70906561  0.75147474  1
  Cu  Cu29  1  0.95747957  0.33498855  0.58263740  1
  Cu  Cu30  1  0.66648249  0.62339987  0.58266544  1
  Cu  Cu31  1  0.66685321  0.04319672  0.08350106  1
  Cu  Cu32  1  0.37788601  0.33241421  0.08298553  1
  Cu  Cu33  1  0.62454564  0.66574087  0.91826999  1
  Cu  Cu34  1  0.04256874  0.37576859  0.91646711  1
  Cu  Cu35  1  0.33326412  0.95937329  0.91554802  1
  Cu  Cu36  1  0.62441524  0.95669267  0.41693076  1
  Cu  Cu37  1  0.33277489  0.37630781  0.41600724  1
  Cu  Cu38  1  0.04222802  0.66613319  0.41581703  1
  C  C39  1  0.20146622  0.02399350  0.30418055  1
  C  C40  1  0.82372072  0.80017937  0.30270370  1
  C  C41  1  0.97680992  0.17785706  0.30428698  1
  C  C42  1  0.20702207  0.17241025  0.80362641  1
  C  C43  1  0.97672377  0.79820733  0.80502431  1
  C  C44  1  0.82893133  0.02621272  0.80494768  1
  C  C45  1  0.79103178  0.97163223  0.69000420  1
  C  C46  1  0.17792394  0.20399036  0.69609814  1
  C  C47  1  0.03459435  0.82623876  0.69753812  1
  C  C48  1  0.79191281  0.81827725  0.19420980  1
  C  C49  1  0.02552096  0.20509972  0.19640164  1
  C  C50  1  0.17884595  0.97433869  0.19651466  1
  C  C51  1  0.87450755  0.36369254  0.63717364  1
  C  C52  1  0.49301002  0.12594621  0.64137931  1
  C  C53  1  0.64165891  0.51397803  0.63707778  1
  C  C54  1  0.86476610  0.50486530  0.14028083  1
  C  C55  1  0.63655695  0.12607138  0.13734369  1
  C  C56  1  0.49260586  0.36307104  0.13672130  1
  C  C57  1  0.46063516  0.30320165  0.02876498  1
  C  C58  1  0.83246796  0.53567211  0.02792678  1
  C  C59  1  0.69149922  0.15425734  0.02947235  1
  C  C60  1  0.47135154  0.16246278  0.52754428  1
  C  C61  1  0.69469256  0.53857600  0.52896457  1
  C  C62  1  0.84158222  0.30480365  0.52946047  1
  C  C63  1  0.54270898  0.69083200  0.97344697  1
  C  C64  1  0.15468720  0.46361800  0.97039390  1
  C  C65  1  0.31007469  0.84437664  0.96885598  1
  C  C66  1  0.54170060  0.84867511  0.47231418  1
  C  C67  1  0.30774273  0.46162524  0.47028781  1
  C  C68  1  0.15450198  0.69247810  0.47010137  1
  C  C69  1  0.13200527  0.64278310  0.36247436  1
  C  C70  1  0.50958615  0.86651006  0.36393441  1
  C  C71  1  0.35651694  0.48884256  0.36236854  1
  C  C72  1  0.12848593  0.48706782  0.86256067  1
  C  C73  1  0.35633785  0.87346097  0.86043680  1
  C  C74  1  0.51094071  0.64322650  0.86470385  1
  C  C75  1  0.02472334  0.83010181  0.40934940  1
  C  C76  1  0.80504393  0.97446017  0.40949578  1
  C  C77  1  0.17128521  0.19432078  0.40920612  1
  C  C78  1  0.02694894  0.19490015  0.91123907  1
  C  C79  1  0.17044538  0.97680143  0.91030341  1
  C  C80  1  0.80608291  0.82733892  0.91099842  1
  C  C81  1  0.96741228  0.16655223  0.58957465  1
  C  C82  1  0.18089729  0.01943539  0.58840428  1
  C  C83  1  0.82453371  0.80923643  0.58885958  1
  C  C84  1  0.96878855  0.81331834  0.09046909  1
  C  C85  1  0.82750427  0.02061355  0.09087226  1
  C  C86  1  0.19546727  0.17520506  0.09038492  1
  C  C87  1  0.67982023  0.16962397  0.74535721  1
  C  C88  1  0.46955590  0.30724746  0.74302461  1
  C  C89  1  0.83750101  0.53035435  0.74404725  1
  C  C90  1  0.68802003  0.52693604  0.24406770  1
  C  C91  1  0.83591782  0.30686407  0.24503155  1
  C  C92  1  0.47135266  0.16222932  0.24397658  1
  C  C93  1  0.64019926  0.50016881  0.92212341  1
  C  C94  1  0.86057856  0.35514705  0.92315977  1
  C  C95  1  0.49671413  0.13891676  0.92249909  1
  C  C96  1  0.64519948  0.13968601  0.42249676  1
  C  C97  1  0.49704495  0.35953808  0.42153998  1
  C  C98  1  0.86208107  0.50443283  0.42263841  1
  C  C99  1  0.36883104  0.50160496  0.07551627  1
  C  C100  1  0.15065695  0.64653313  0.07770336  1
  C  C101  1  0.51091851  0.85659733  0.07584368  1
  C  C102  1  0.36545235  0.85394596  0.57633213  1
  C  C103  1  0.50613645  0.64678417  0.57546716  1
  C  C104  1  0.13927169  0.49312054  0.57606824  1
  C  C105  1  0.30872521  0.83666096  0.25726742  1
  C  C106  1  0.52834333  0.69222498  0.25710890  1
  C  C107  1  0.16198806  0.47233606  0.25741627  1
  C  C108  1  0.30630626  0.47003180  0.75720740  1
  C  C109  1  0.16425135  0.69436931  0.75816421  1
  C  C110  1  0.51073399  0.83332348  0.75659676  1
