# generated using pymatgen
data_Cu12NiC65
_symmetry_space_group_name_H-M   'P 1'
_cell_length_a   18.04665603
_cell_length_b   9.02825853
_cell_length_c   22.75131410
_cell_angle_alpha   90.01008763
_cell_angle_beta   89.98556703
_cell_angle_gamma   120.03283127
_symmetry_Int_Tables_number   1
_chemical_formula_structural   Cu12NiC65
_chemical_formula_sum   'Cu36 Ni3 C195'
_cell_volume   3209.17986416
_cell_formula_units_Z   3
loop_
 _symmetry_equiv_pos_site_id
 _symmetry_equiv_pos_as_xyz
  1  'x, y, z'
loop_
 _atom_site_type_symbol
 _atom_site_label
 _atom_site_symmetry_multiplicity
 _atom_site_fract_x
 _atom_site_fract_y
 _atom_site_fract_z
 _atom_site_occupancy
  C  C0  1  0.81691818  0.00699570  0.24865126  1
  C  C1  1  0.18386039  0.36623427  0.24959603  1
  C  C2  1  0.68525599  0.36397164  0.24814074  1
  C  C3  1  0.99669964  0.62724777  0.24857624  1
  C  C4  1  0.31709112  0.62743090  0.74900007  1
  C  C5  1  0.81737918  0.62754442  0.74866964  1
  C  C6  1  0.99639769  0.36531250  0.74839595  1
  C  C7  1  0.49622026  0.36478899  0.74846255  1
  C  C8  1  0.18623360  0.00710001  0.74901513  1
  C  C9  1  0.68639739  0.00754880  0.74872034  1
  C  C10  1  0.15266358  0.33623137  0.58387866  1
  C  C11  1  0.65342701  0.33619928  0.58364763  1
  C  C12  1  0.33284863  0.97069489  0.58374812  1
  C  C13  1  0.83327851  0.97208479  0.58358682  1
  C  C14  1  0.65149891  0.96941816  0.08422907  1
  C  C15  1  0.83217852  0.69347367  0.08357812  1
  C  C16  1  0.01598234  0.33657529  0.08308801  1
  C  C17  1  0.48380506  0.30030430  0.41646595  1
  C  C18  1  0.99989638  0.99520770  0.49793297  1
  C  C19  1  0.50072417  0.99151685  0.49859275  1
  C  C20  1  0.00293272  0.00010035  0.99797838  1
  C  C21  1  0.49717272  0.00010882  0.99962329  1
  C  C22  1  0.33313261  0.33325682  0.83447141  1
  C  C23  1  0.83350779  0.33331570  0.83367901  1
  C  C24  1  0.33332031  0.33354160  0.33244411  1
  C  C25  1  0.83313442  0.33266236  0.33324587  1
  C  C26  1  0.17127129  0.67698379  0.16486868  1
  C  C27  1  0.66177039  0.66059057  0.16620560  1
  C  C28  1  0.16399898  0.66656215  0.66581944  1
  C  C29  1  0.66423799  0.66691350  0.66569584  1
  C  C30  1  0.00018108  0.00018804  0.35611019  1
  C  C31  1  0.49920971  0.99581579  0.35344956  1
  C  C32  1  0.00024759  0.00058791  0.85687964  1
  C  C33  1  0.49977855  0.99945572  0.85689266  1
  C  C34  1  0.99989985  0.99596884  0.64609919  1
  C  C35  1  0.50040787  0.99651473  0.64614271  1
  C  C36  1  0.00361373  0.00049945  0.14577292  1
  C  C37  1  0.49643428  0.99862226  0.14525270  1
  C  C38  1  0.33636732  0.33341458  0.18600275  1
  C  C39  1  0.33304446  0.33242016  0.97850638  1
  C  C40  1  0.83349040  0.33433504  0.97768967  1
  C  C41  1  0.33048493  0.33460433  0.47882791  1
  C  C42  1  0.83420728  0.33396368  0.47774187  1
  C  C43  1  0.17044045  0.67371104  0.02003180  1
  C  C44  1  0.66300592  0.65997198  0.01868073  1
  C  C45  1  0.16402016  0.66604252  0.51795248  1
  C  C46  1  0.66555372  0.66852134  0.51832553  1
  C  C47  1  0.16939315  0.67148091  0.31391714  1
  C  C48  1  0.66427764  0.66631474  0.31357114  1
  C  C49  1  0.16681165  0.66672382  0.81629652  1
  C  C50  1  0.66671231  0.66645643  0.81588183  1
  Ni  Ni51  1  0.33370599  0.33415697  0.68372568  1
  Ni  Ni52  1  0.83374576  0.33431264  0.68332721  1
  Ni  Ni53  1  0.83256393  0.33292803  0.18371508  1
  Cu  Cu54  1  0.14602895  0.00070617  0.25103318  1
  Cu  Cu55  1  0.64248413  0.99617705  0.24963024  1
  Cu  Cu56  1  0.35611686  0.71077773  0.24982657  1
  Cu  Cu57  1  0.85572713  0.71262162  0.25075382  1
  Cu  Cu58  1  0.00044387  0.28912008  0.25100950  1
  Cu  Cu59  1  0.49823436  0.28685720  0.25031829  1
  Cu  Cu60  1  0.14372362  0.28895655  0.75098882  1
  Cu  Cu61  1  0.64374186  0.28863872  0.75110991  1
  Cu  Cu62  1  0.00065521  0.71180297  0.75170712  1
  Cu  Cu63  1  0.50061398  0.71180623  0.75166640  1
  Cu  Cu64  1  0.35548644  0.99885106  0.75115094  1
  Cu  Cu65  1  0.85556633  0.99913489  0.75125125  1
  Cu  Cu66  1  0.47952392  0.33708044  0.58289733  1
  Cu  Cu67  1  0.97938254  0.33683445  0.58330408  1
  Cu  Cu68  1  0.18658985  0.03852468  0.58327942  1
  Cu  Cu69  1  0.68744266  0.04076926  0.58273415  1
  Cu  Cu70  1  0.33409065  0.62571480  0.58305844  1
  Cu  Cu71  1  0.83434115  0.62420867  0.58256172  1
  Cu  Cu72  1  0.47659463  0.62113376  0.08241313  1
  Cu  Cu73  1  0.98042278  0.62521196  0.08273099  1
  Cu  Cu74  1  0.33307000  0.04581267  0.08260636  1
  Cu  Cu75  1  0.83291091  0.04108436  0.08267854  1
  Cu  Cu76  1  0.19126871  0.33607980  0.08325521  1
  Cu  Cu77  1  0.68634316  0.33258972  0.08283606  1
  Cu  Cu78  1  0.31214324  0.66472141  0.91715533  1
  Cu  Cu79  1  0.81174699  0.66643679  0.91746638  1
  Cu  Cu80  1  0.02190733  0.37757285  0.91812670  1
  Cu  Cu81  1  0.51973707  0.37429816  0.91641789  1
  Cu  Cu82  1  0.16729306  0.95818811  0.91733881  1
  Cu  Cu83  1  0.66702054  0.95802053  0.91732245  1
  Cu  Cu84  1  0.31152416  0.95655024  0.41729162  1
  Cu  Cu85  1  0.81166136  0.95685785  0.41631987  1
  Cu  Cu86  1  0.16629003  0.37681967  0.41629005  1
  Cu  Cu87  1  0.66838605  0.37690774  0.41612166  1
  Cu  Cu88  1  0.02122951  0.66595658  0.41552317  1
  Cu  Cu89  1  0.52104611  0.66985997  0.41675097  1
  C  C90  1  0.09900858  0.03388760  0.30654873  1
  C  C91  1  0.59464503  0.02745500  0.30631360  1
  C  C92  1  0.41638627  0.80467993  0.30726786  1
  C  C93  1  0.91933698  0.81048874  0.30624722  1
  C  C94  1  0.48517127  0.17048561  0.30913952  1
  C  C95  1  0.98667794  0.16283866  0.30643976  1
  C  C96  1  0.09509152  0.16256179  0.80623108  1
  C  C97  1  0.59506762  0.16235269  0.80624972  1
  C  C98  1  0.48624172  0.80921580  0.80675336  1
  C  C99  1  0.98611693  0.80940500  0.80676734  1
  C  C100  1  0.41878617  0.02764419  0.80624926  1
  C  C101  1  0.91863293  0.02725899  0.80637332  1
  C  C102  1  0.39958084  0.96397435  0.69192916  1
  C  C103  1  0.89939686  0.96387569  0.69203625  1
  C  C104  1  0.08236944  0.20086947  0.69180636  1
  C  C105  1  0.58234964  0.20116068  0.69183803  1
  C  C106  1  0.01811946  0.83874809  0.69364420  1
  C  C107  1  0.51813496  0.83867467  0.69364738  1
  C  C108  1  0.40183016  0.83421753  0.19310206  1
  C  C109  1  0.90012354  0.83619751  0.19208397  1
  C  C110  1  0.01808827  0.20062244  0.19233793  1
  C  C111  1  0.51735245  0.19672148  0.19410568  1
  C  C112  1  0.08200723  0.96517462  0.19374834  1
  C  C113  1  0.58360999  0.96865046  0.19128305  1
  C  C114  1  0.44554202  0.37225391  0.64318795  1
  C  C115  1  0.94633124  0.37275642  0.64394757  1
  C  C116  1  0.24318213  0.10594865  0.64212729  1
  C  C117  1  0.74276339  0.10503672  0.64242737  1
  C  C118  1  0.30877239  0.51213663  0.64192542  1
  C  C119  1  0.80851274  0.51289375  0.64218041  1
  C  C120  1  0.43155578  0.49991891  0.14036785  1
  C  C121  1  0.94670066  0.51399681  0.14234940  1
  C  C122  1  0.31854620  0.13813018  0.14057922  1
  C  C123  1  0.80971971  0.10569267  0.14225351  1
  C  C124  1  0.24841875  0.36250271  0.14265449  1
  C  C125  1  0.74329177  0.38212986  0.14204973  1
  C  C126  1  0.23573258  0.30286384  0.02660994  1
  C  C127  1  0.73462827  0.29881809  0.02714268  1
  C  C128  1  0.41602844  0.52845756  0.02597390  1
  C  C129  1  0.91463914  0.53188333  0.02714833  1
  C  C130  1  0.34839343  0.16823354  0.02607828  1
  C  C131  1  0.85119456  0.17100178  0.02711986  1
  C  C132  1  0.23435148  0.16920445  0.52712673  1
  C  C133  1  0.73409553  0.17005464  0.52700024  1
  C  C134  1  0.34850891  0.52909459  0.52639465  1
  C  C135  1  0.84838555  0.52842838  0.52627211  1
  C  C136  1  0.41660274  0.29850062  0.52520819  1
  C  C137  1  0.91469856  0.29757210  0.52726102  1
  C  C138  1  0.26446587  0.69607044  0.97281978  1
  C  C139  1  0.76532519  0.69566113  0.97458917  1
  C  C140  1  0.08252020  0.46854123  0.97526415  1
  C  C141  1  0.58320497  0.47068194  0.97226120  1
  C  C142  1  0.15213982  0.83160499  0.97289803  1
  C  C143  1  0.65209144  0.83623600  0.97467313  1
  C  C144  1  0.26673875  0.83726625  0.47497899  1
  C  C145  1  0.76614666  0.83605737  0.47422397  1
  C  C146  1  0.15281686  0.46768969  0.47445152  1
  C  C147  1  0.64986846  0.46568687  0.47340503  1
  C  C148  1  0.08342733  0.69561750  0.47233551  1
  C  C149  1  0.58272414  0.69570688  0.47314261  1
  C  C150  1  0.06790913  0.63715347  0.35778344  1
  C  C151  1  0.56719891  0.63229696  0.36065387  1
  C  C152  1  0.24984777  0.86265977  0.36026360  1
  C  C153  1  0.75041060  0.86313921  0.35858320  1
  C  C154  1  0.18154185  0.49791528  0.35838087  1
  C  C155  1  0.68080468  0.49743394  0.35832414  1
  C  C156  1  0.06746436  0.49746337  0.85878693  1
  C  C157  1  0.56738337  0.49718910  0.85821850  1
  C  C158  1  0.18116920  0.86534553  0.85823394  1
  C  C159  1  0.68122644  0.86473277  0.85875100  1
  C  C160  1  0.25160630  0.63755847  0.85823885  1
  C  C161  1  0.75121617  0.63746480  0.85866877  1
  C  C162  1  0.01284783  0.83655118  0.40840367  1
  C  C163  1  0.51178556  0.83832656  0.40929915  1
  C  C164  1  0.40754634  0.98259747  0.40960781  1
  C  C165  1  0.90594517  0.97514097  0.40854356  1
  C  C166  1  0.08212734  0.18817953  0.40897655  1
  C  C167  1  0.57979790  0.19129519  0.40892355  1
  C  C168  1  0.01239834  0.18924089  0.90863266  1
  C  C169  1  0.51274919  0.18864364  0.90849369  1
  C  C170  1  0.08188428  0.97475232  0.90859942  1
  C  C171  1  0.58199031  0.97494780  0.90864395  1
  C  C172  1  0.40545283  0.83623752  0.90841393  1
  C  C173  1  0.90550492  0.83625211  0.90886465  1
  C  C174  1  0.48877332  0.16229929  0.58905033  1
  C  C175  1  0.98901445  0.16250276  0.58941357  1
  C  C176  1  0.09353835  0.02943807  0.58941716  1
  C  C177  1  0.59344495  0.02889242  0.58972624  1
  C  C178  1  0.41788435  0.81929367  0.58936141  1
  C  C179  1  0.91756151  0.81914360  0.58962502  1
  C  C180  1  0.49081797  0.81461545  0.09117137  1
  C  C181  1  0.98572500  0.81318416  0.08991807  1
  C  C182  1  0.41774102  0.02497733  0.09206512  1
  C  C183  1  0.91969288  0.02321740  0.08941816  1
  C  C184  1  0.09348495  0.16753472  0.09187969  1
  C  C185  1  0.59295050  0.15714108  0.08940038  1
  C  C186  1  0.34531119  0.16575362  0.74800610  1
  C  C187  1  0.84511401  0.16563988  0.74811340  1
  C  C188  1  0.23734718  0.30878330  0.74771909  1
  C  C189  1  0.73742163  0.30893853  0.74774685  1
  C  C190  1  0.41686772  0.52530903  0.74800039  1
  C  C191  1  0.91675366  0.52531819  0.74805752  1
  C  C192  1  0.34189344  0.51765834  0.24276108  1
  C  C193  1  0.84594391  0.52555586  0.24820233  1
  C  C194  1  0.41466851  0.30958996  0.24270668  1
  C  C195  1  0.91655842  0.30803982  0.24809086  1
  C  C196  1  0.23834849  0.17388809  0.24265983  1
  C  C197  1  0.73654241  0.16511027  0.24831794  1
  C  C198  1  0.32071997  0.49523443  0.92430015  1
  C  C199  1  0.82032315  0.49576962  0.92464531  1
  C  C200  1  0.42693147  0.35847513  0.92405256  1
  C  C201  1  0.92738818  0.35922240  0.92485923  1
  C  C202  1  0.25207934  0.14556601  0.92425113  1
  C  C203  1  0.75235957  0.14553530  0.92476955  1
  C  C204  1  0.32400797  0.14901222  0.42442172  1
  C  C205  1  0.82050889  0.14466436  0.42496058  1
  C  C206  1  0.25204367  0.35866097  0.42442974  1
  C  C207  1  0.75237495  0.35750254  0.42423961  1
  C  C208  1  0.42881513  0.49268634  0.42451546  1
  C  C209  1  0.92760449  0.49574216  0.42474747  1
  C  C210  1  0.17523021  0.49922105  0.07618445  1
  C  C211  1  0.67837564  0.50498193  0.07286805  1
  C  C212  1  0.07424082  0.64242076  0.07315315  1
  C  C213  1  0.57411690  0.64919494  0.07569305  1
  C  C214  1  0.24876772  0.85494505  0.07550114  1
  C  C215  1  0.74892576  0.84858328  0.07352165  1
  C  C216  1  0.17852649  0.85136197  0.57306731  1
  C  C217  1  0.67836041  0.85161600  0.57307751  1
  C  C218  1  0.24984712  0.64972439  0.57306767  1
  C  C219  1  0.74987375  0.64942582  0.57276374  1
  C  C220  1  0.07732281  0.49836959  0.57367644  1
  C  C221  1  0.57740162  0.49836424  0.57345216  1
  C  C222  1  0.15102053  0.82489523  0.25745764  1
  C  C223  1  0.65420207  0.82723496  0.25804307  1
  C  C224  1  0.25958214  0.68612679  0.25807600  1
  C  C225  1  0.76052443  0.69643343  0.25720930  1
  C  C226  1  0.08778271  0.47881248  0.25720793  1
  C  C227  1  0.58653770  0.47462804  0.25817103  1
  C  C228  1  0.15122028  0.47882442  0.75699497  1
  C  C229  1  0.65123817  0.47871948  0.75707489  1
  C  C230  1  0.08817688  0.69732891  0.75702786  1
  C  C231  1  0.58820255  0.69747571  0.75709226  1
  C  C232  1  0.26052142  0.82359514  0.75690144  1
  C  C233  1  0.76052041  0.82359618  0.75710483  1
