# generated using pymatgen
data_Cu2NiC6
_symmetry_space_group_name_H-M   'P 1'
_cell_length_a   3.78402800
_cell_length_b   3.78402800
_cell_length_c   9.80355200
_cell_angle_alpha   90.00000000
_cell_angle_beta   90.00000000
_cell_angle_gamma   90.00000000
_symmetry_Int_Tables_number   1
_chemical_formula_structural   Cu2NiC6
_chemical_formula_sum   'Cu2 Ni1 C6'
_cell_volume   140.37576609
_cell_formula_units_Z   1
loop_
 _symmetry_equiv_pos_site_id
 _symmetry_equiv_pos_as_xyz
  1  'x, y, z'
loop_
 _atom_site_type_symbol
 _atom_site_label
 _atom_site_symmetry_multiplicity
 _atom_site_fract_x
 _atom_site_fract_y
 _atom_site_fract_z
 _atom_site_occupancy
  C  C0  1  0.75000100  0.75000100  0.41326400  1
  C  C1  1  0.24999900  0.24999900  0.67700400  1
  Ni  Ni2  1  0.75000000  0.75000000  0.11178800  1
  Cu  Cu3  1  0.75000100  0.75000100  0.86693400  1
  Cu  Cu4  1  0.24999900  0.24999900  0.08715200  1
  C  C5  1  0.24999900  0.75000100  0.00543100  1
  C  C6  1  0.75000100  0.24999900  0.00543100  1
  C  C7  1  0.75000100  0.75000100  0.68218400  1
  C  C8  1  0.24999900  0.24999900  0.28247900  1
