# generated using pymatgen
data_Cu4NiC8
_symmetry_space_group_name_H-M   'P 1'
_cell_length_a   6.99781137
_cell_length_b   7.01127784
_cell_length_c   6.98933499
_cell_angle_alpha   60.08125484
_cell_angle_beta   60.08607087
_cell_angle_gamma   60.10922616
_symmetry_Int_Tables_number   1
_chemical_formula_structural   Cu4NiC8
_chemical_formula_sum   'Cu4 Ni1 C8'
_cell_volume   242.98889527
_cell_formula_units_Z   1
loop_
 _symmetry_equiv_pos_site_id
 _symmetry_equiv_pos_as_xyz
  1  'x, y, z'
loop_
 _atom_site_type_symbol
 _atom_site_label
 _atom_site_symmetry_multiplicity
 _atom_site_fract_x
 _atom_site_fract_y
 _atom_site_fract_z
 _atom_site_occupancy
  Ni  Ni0  1  0.62732300  0.62265700  0.62704300  1
  Cu  Cu1  1  0.48708800  0.03849900  0.48683400  1
  Cu  Cu2  1  0.04351300  0.48689100  0.48408500  1
  Cu  Cu3  1  0.48407500  0.48668800  0.04381200  1
  Cu  Cu4  1  0.48602000  0.48792000  0.48586500  1
  C  C5  1  0.75536100  0.75693100  0.75561500  1
  C  C6  1  0.26792800  0.26516300  0.70060800  1
  C  C7  1  0.26582900  0.70355600  0.26613900  1
  C  C8  1  0.70075800  0.26501100  0.26804900  1
  C  C9  1  0.26669100  0.26414100  0.26698300  1
  C  C10  1  0.75408600  0.75501400  0.23560200  1
  C  C11  1  0.23637700  0.75456900  0.75408900  1
  C  C12  1  0.75495100  0.23296200  0.75527600  1
