# generated using pymatgen
data_Cu2Ni2C33
_symmetry_space_group_name_H-M   'P 1'
_cell_length_a   8.92798040
_cell_length_b   8.88365204
_cell_length_c   22.94476939
_cell_angle_alpha   90.01802271
_cell_angle_beta   90.04774182
_cell_angle_gamma   119.80021068
_symmetry_Int_Tables_number   1
_chemical_formula_structural   Cu2Ni2C33
_chemical_formula_sum   'Cu6 Ni6 C99'
_cell_volume   1579.17261058
_cell_formula_units_Z   3
loop_
 _symmetry_equiv_pos_site_id
 _symmetry_equiv_pos_as_xyz
  1  'x, y, z'
loop_
 _atom_site_type_symbol
 _atom_site_label
 _atom_site_symmetry_multiplicity
 _atom_site_fract_x
 _atom_site_fract_y
 _atom_site_fract_z
 _atom_site_occupancy
  C  C0  1  0.99915029  0.63400794  0.25112159  1
  C  C1  1  0.66527975  0.96493642  0.58422502  1
  C  C2  1  0.66751589  0.69947931  0.08223598  1
  C  C3  1  0.01066011  0.99967126  0.50037842  1
  C  C4  1  0.00752186  0.00701847  0.99850863  1
  C  C5  1  0.66812154  0.33458847  0.83324135  1
  C  C6  1  0.66105813  0.32807124  0.33379794  1
  C  C7  1  0.33332229  0.66666550  0.16666962  1
  C  C8  1  0.32622690  0.66413477  0.66765192  1
  Ni  Ni9  1  0.00621958  0.99641654  0.64776615  1
  Ni  Ni10  1  0.00081135  0.00097965  0.14565749  1
  Ni  Ni11  1  0.66588844  0.33235939  0.18753024  1
  Ni  Ni12  1  0.32586666  0.66373095  0.01790691  1
  Ni  Ni13  1  0.32948828  0.66931304  0.51918912  1
  Ni  Ni14  1  0.34018264  0.66994167  0.31566449  1
  Cu  Cu15  1  0.99380078  0.99372953  0.35523189  1
  Cu  Cu16  1  0.99058574  0.99433440  0.85354271  1
  Cu  Cu17  1  0.66626512  0.33026986  0.68971381  1
  Cu  Cu18  1  0.67297377  0.33925316  0.97709920  1
  Cu  Cu19  1  0.66408922  0.33239175  0.47794870  1
  Cu  Cu20  1  0.33240784  0.66544315  0.81312077  1
  C  C21  1  0.70521424  0.71017748  0.24883347  1
  C  C22  1  0.00109428  0.70874620  0.75055869  1
  C  C23  1  0.70894150  0.99641272  0.74861201  1
  C  C24  1  0.37562627  0.04694984  0.58326289  1
  C  C25  1  0.96076872  0.62270532  0.08422225  1
  C  C26  1  0.62108219  0.66708109  0.91760585  1
  C  C27  1  0.04488558  0.37498239  0.91571877  1
  C  C28  1  0.62472537  0.95783409  0.41816460  1
  C  C29  1  0.04168228  0.66514158  0.41535603  1
  C  C30  1  0.28788622  0.00152420  0.25117139  1
  C  C31  1  0.00103095  0.28786409  0.25062441  1
  C  C32  1  0.28778603  0.28809183  0.75091087  1
  C  C33  1  0.95209773  0.33562304  0.58376952  1
  C  C34  1  0.66597269  0.61787907  0.58382687  1
  C  C35  1  0.66588742  0.04603033  0.08245023  1
  C  C36  1  0.37935224  0.33177833  0.08186149  1
  C  C37  1  0.33275050  0.95703134  0.91557784  1
  C  C38  1  0.33198031  0.37460938  0.41712904  1
  C  C39  1  0.19869302  0.02677123  0.30513551  1
  C  C40  1  0.83788091  0.81077427  0.30465732  1
  C  C41  1  0.98009655  0.17509895  0.30466566  1
  C  C42  1  0.20443257  0.17392818  0.80467087  1
  C  C43  1  0.97417054  0.80514612  0.80696583  1
  C  C44  1  0.83512738  0.02932710  0.80528815  1
  C  C45  1  0.79094252  0.96953644  0.68935937  1
  C  C46  1  0.17775975  0.20965101  0.69580699  1
  C  C47  1  0.03545695  0.82780241  0.69326535  1
  C  C48  1  0.79786439  0.82450288  0.19063587  1
  C  C49  1  0.02703244  0.20438751  0.19577590  1
  C  C50  1  0.17399055  0.97200514  0.19656742  1
  C  C51  1  0.86239384  0.35944308  0.63841466  1
  C  C52  1  0.50424965  0.14510786  0.63944662  1
  C  C53  1  0.64659666  0.50623344  0.63799975  1
  C  C54  1  0.86852591  0.50870311  0.14246504  1
  C  C55  1  0.63958513  0.12904633  0.13734134  1
  C  C56  1  0.49287186  0.36118087  0.13655302  1
  C  C57  1  0.46886063  0.30671483  0.02776626  1
  C  C58  1  0.82807295  0.52170880  0.02812325  1
  C  C59  1  0.68659568  0.15902228  0.02831021  1
  C  C60  1  0.47970784  0.16874833  0.52699159  1
  C  C61  1  0.69104618  0.53074450  0.52913973  1
  C  C62  1  0.83625313  0.31002154  0.52967996  1
  C  C63  1  0.54607025  0.70110873  0.97718950  1
  C  C64  1  0.15980555  0.46111726  0.97336106  1
  C  C65  1  0.30153995  0.84531338  0.97030388  1
  C  C66  1  0.54685030  0.84294913  0.47695115  1
  C  C67  1  0.30162104  0.45520769  0.47165275  1
  C  C68  1  0.16186072  0.69805616  0.47234943  1
  C  C69  1  0.11815347  0.63071172  0.35594795  1
  C  C70  1  0.50597388  0.87273484  0.36117790  1
  C  C71  1  0.36529409  0.48745840  0.36276453  1
  C  C72  1  0.13608080  0.50036274  0.85956474  1
  C  C73  1  0.36208574  0.86915206  0.86195728  1
  C  C74  1  0.49909837  0.64019541  0.86115094  1
  C  C75  1  0.02400994  0.84081424  0.40743575  1
  C  C76  1  0.82005904  0.98672132  0.40695178  1
  C  C77  1  0.17381558  0.19221142  0.40742910  1
  C  C78  1  0.02524368  0.18411517  0.90650049  1
  C  C79  1  0.17435728  0.98005464  0.90642897  1
  C  C80  1  0.81606469  0.83331008  0.90716772  1
  C  C81  1  0.95918256  0.16618026  0.58871691  1
  C  C82  1  0.18781717  0.03080939  0.58672327  1
  C  C83  1  0.82492905  0.80262032  0.58847112  1
  C  C84  1  0.96550469  0.80983805  0.08690729  1
  C  C85  1  0.83038990  0.02868666  0.08728258  1
  C  C86  1  0.19899056  0.17294749  0.08794808  1
  C  C87  1  0.68870068  0.17123582  0.74226496  1
  C  C88  1  0.47137860  0.31035569  0.74184941  1
  C  C89  1  0.82670528  0.51867698  0.74169158  1
  C  C90  1  0.70065436  0.52308516  0.24625090  1
  C  C91  1  0.83648548  0.30527458  0.24587239  1
  C  C92  1  0.46821249  0.16024066  0.24521918  1
  C  C93  1  0.63925249  0.49111021  0.92430396  1
  C  C94  1  0.84972026  0.35056235  0.92514740  1
  C  C95  1  0.49624943  0.13761497  0.92420231  1
  C  C96  1  0.64884365  0.15270198  0.42652374  1
  C  C97  1  0.49504365  0.35514259  0.42541690  1
  C  C98  1  0.84718946  0.50107965  0.42703728  1
  C  C99  1  0.37069242  0.50102542  0.07650812  1
  C  C100  1  0.15088864  0.64597760  0.07838440  1
  C  C101  1  0.51023295  0.86084131  0.07687609  1
  C  C102  1  0.37094909  0.86019847  0.57928284  1
  C  C103  1  0.50339705  0.63667086  0.57876638  1
  C  C104  1  0.13248515  0.49447538  0.57830179  1
  C  C105  1  0.29647479  0.83219973  0.25667938  1
  C  C106  1  0.51534043  0.68744509  0.25508809  1
  C  C107  1  0.15693929  0.47294837  0.25626113  1
  C  C108  1  0.31121153  0.47191792  0.75921493  1
  C  C109  1  0.16940731  0.68498387  0.75995503  1
  C  C110  1  0.51767353  0.83011981  0.76034985  1
