# generated using pymatgen
data_Cu2Ni9C7
_symmetry_space_group_name_H-M   'P 1'
_cell_length_a   3.96671632
_cell_length_b   7.83507540
_cell_length_c   7.86864894
_cell_angle_alpha   84.06165005
_cell_angle_beta   75.40065560
_cell_angle_gamma   75.33669763
_symmetry_Int_Tables_number   1
_chemical_formula_structural   Cu2Ni9C7
_chemical_formula_sum   'Cu2 Ni9 C7'
_cell_volume   228.74432533
_cell_formula_units_Z   1
loop_
 _symmetry_equiv_pos_site_id
 _symmetry_equiv_pos_as_xyz
  1  'x, y, z'
loop_
 _atom_site_type_symbol
 _atom_site_label
 _atom_site_symmetry_multiplicity
 _atom_site_fract_x
 _atom_site_fract_y
 _atom_site_fract_z
 _atom_site_occupancy
  C  C0  1  0.73239384  0.43667706  0.09853525  1
  C  C1  1  0.33229843  0.11132034  0.22408381  1
  C  C2  1  0.67056522  0.87457949  0.78428908  1
  C  C3  1  0.38036907  0.67472269  0.56453916  1
  C  C4  1  0.62129591  0.29661274  0.46079543  1
  C  C5  1  0.00981433  0.20878509  0.77158724  1
  C  C6  1  0.00583776  0.75776462  0.23055886  1
  Ni  Ni7  1  0.79959328  0.18504794  0.21576549  1
  Ni  Ni8  1  0.19518172  0.85400606  0.75563050  1
  Ni  Ni9  1  0.13998542  0.27347427  0.44655389  1
  Ni  Ni10  1  0.86133157  0.71578334  0.56155453  1
  Ni  Ni11  1  0.49934293  0.00758951  0.99372464  1
  Ni  Ni12  1  0.56239081  0.54208396  0.33313443  1
  Ni  Ni13  1  0.44220109  0.45044339  0.66515444  1
  Ni  Ni14  1  0.36998059  0.90432368  0.35571414  1
  Ni  Ni15  1  0.63706125  0.09140042  0.63447809  1
  Cu  Cu16  1  0.26954659  0.38754429  0.07336352  1
  Cu  Cu17  1  0.70414319  0.64450811  0.94720451  1
