# generated using pymatgen
data_Cu4NiC
_symmetry_space_group_name_H-M   'P 1'
_cell_length_a   4.95682100
_cell_length_b   6.75433100
_cell_length_c   8.47943000
_cell_angle_alpha   90.00000000
_cell_angle_beta   90.00000000
_cell_angle_gamma   90.00000000
_symmetry_Int_Tables_number   1
_chemical_formula_structural   Cu4NiC
_chemical_formula_sum   'Cu16 Ni4 C4'
_cell_volume   283.89139900
_cell_formula_units_Z   4
loop_
 _symmetry_equiv_pos_site_id
 _symmetry_equiv_pos_as_xyz
  1  'x, y, z'
loop_
 _atom_site_type_symbol
 _atom_site_label
 _atom_site_symmetry_multiplicity
 _atom_site_fract_x
 _atom_site_fract_y
 _atom_site_fract_z
 _atom_site_occupancy
  C  C0  1  0.50000000  0.50000000  0.50000000  1
  C  C1  1  0.00000000  0.50000000  0.00000000  1
  C  C2  1  0.50000000  0.00000000  0.50000000  1
  C  C3  1  0.00000000  0.00000000  0.00000000  1
  Ni  Ni4  1  0.94750400  0.75000000  0.68224000  1
  Ni  Ni5  1  0.44750400  0.25000000  0.81776000  1
  Ni  Ni6  1  0.05249600  0.25000000  0.31776000  1
  Ni  Ni7  1  0.55249600  0.75000000  0.18224000  1
  Cu  Cu8  1  0.19071500  0.43384600  0.36859500  1
  Cu  Cu9  1  0.69071500  0.56615400  0.13140500  1
  Cu  Cu10  1  0.80928500  0.93384600  0.63140500  1
  Cu  Cu11  1  0.30928500  0.06615400  0.86859500  1
  Cu  Cu12  1  0.80928500  0.56615400  0.63140500  1
  Cu  Cu13  1  0.30928500  0.43384600  0.86859500  1
  Cu  Cu14  1  0.19071500  0.06615400  0.36859500  1
  Cu  Cu15  1  0.69071500  0.93384600  0.13140500  1
  Cu  Cu16  1  0.27033700  0.75000000  0.13104300  1
  Cu  Cu17  1  0.77033700  0.25000000  0.36895700  1
  Cu  Cu18  1  0.72966300  0.25000000  0.86895700  1
  Cu  Cu19  1  0.22966300  0.75000000  0.63104300  1
  Cu  Cu20  1  0.56992400  0.75000000  0.36429800  1
  Cu  Cu21  1  0.06992400  0.25000000  0.13570200  1
  Cu  Cu22  1  0.43007600  0.25000000  0.63570200  1
  Cu  Cu23  1  0.93007600  0.75000000  0.86429800  1
