# generated using pymatgen
data_Cu5(NiC8)2
_symmetry_space_group_name_H-M   'P 1'
_cell_length_a   11.10897500
_cell_length_b   11.10897500
_cell_length_c   7.80901000
_cell_angle_alpha   90.00000000
_cell_angle_beta   90.00000000
_cell_angle_gamma   90.00000000
_symmetry_Int_Tables_number   1
_chemical_formula_structural   Cu5(NiC8)2
_chemical_formula_sum   'Cu20 Ni8 C64'
_cell_volume   963.70465732
_cell_formula_units_Z   4
loop_
 _symmetry_equiv_pos_site_id
 _symmetry_equiv_pos_as_xyz
  1  'x, y, z'
loop_
 _atom_site_type_symbol
 _atom_site_label
 _atom_site_symmetry_multiplicity
 _atom_site_fract_x
 _atom_site_fract_y
 _atom_site_fract_z
 _atom_site_occupancy
  C  C0  1  0.50000000  0.50000000  0.50000000  1
  C  C1  1  0.00000000  0.00000000  0.50000000  1
  C  C2  1  0.75000000  0.25000000  0.00000000  1
  C  C3  1  0.75000000  0.75000000  0.00000000  1
  C  C4  1  0.25000000  0.25000000  0.00000000  1
  C  C5  1  0.25000000  0.75000000  0.00000000  1
  C  C6  1  0.00000000  0.50000000  0.46484600  1
  C  C7  1  0.50000000  0.00000000  0.53515400  1
  C  C8  1  0.38977200  0.50000000  0.88829500  1
  C  C9  1  0.00000000  0.11022800  0.88829500  1
  C  C10  1  0.00000000  0.88977200  0.88829500  1
  C  C11  1  0.61022800  0.50000000  0.88829500  1
  C  C12  1  0.11022800  0.00000000  0.11170500  1
  C  C13  1  0.88977200  0.00000000  0.11170500  1
  C  C14  1  0.50000000  0.38977200  0.11170500  1
  C  C15  1  0.50000000  0.61022800  0.11170500  1
  C  C16  1  0.77170900  0.50000000  0.47268500  1
  C  C17  1  0.00000000  0.72829100  0.47268500  1
  C  C18  1  0.00000000  0.27170900  0.47268500  1
  C  C19  1  0.22829100  0.50000000  0.47268500  1
  C  C20  1  0.72829100  0.00000000  0.52731500  1
  C  C21  1  0.27170900  0.00000000  0.52731500  1
  C  C22  1  0.50000000  0.77170900  0.52731500  1
  C  C23  1  0.50000000  0.22829100  0.52731500  1
  C  C24  1  0.83507500  0.50000000  0.96930400  1
  C  C25  1  0.00000000  0.66492500  0.96930400  1
  C  C26  1  0.00000000  0.33507500  0.96930400  1
  C  C27  1  0.16492500  0.50000000  0.96930400  1
  C  C28  1  0.66492500  0.00000000  0.03069600  1
  C  C29  1  0.33507500  0.00000000  0.03069600  1
  C  C30  1  0.50000000  0.83507500  0.03069600  1
  C  C31  1  0.50000000  0.16492500  0.03069600  1
  C  C32  1  0.88394100  0.38394100  0.24736400  1
  C  C33  1  0.88394100  0.61605900  0.24736400  1
  C  C34  1  0.11605900  0.38394100  0.24736400  1
  C  C35  1  0.11605900  0.61605900  0.24736400  1
  C  C36  1  0.61605900  0.88394100  0.75263600  1
  C  C37  1  0.38394100  0.11605900  0.75263600  1
  C  C38  1  0.38394100  0.88394100  0.75263600  1
  C  C39  1  0.61605900  0.11605900  0.75263600  1
  C  C40  1  0.88993300  0.38993300  0.69758800  1
  C  C41  1  0.88993300  0.61006700  0.69758800  1
  C  C42  1  0.11006700  0.38993300  0.69758800  1
  C  C43  1  0.11006700  0.61006700  0.69758800  1
  C  C44  1  0.61006700  0.88993300  0.30241200  1
  C  C45  1  0.38993300  0.11006700  0.30241200  1
  C  C46  1  0.38993300  0.88993300  0.30241200  1
  C  C47  1  0.61006700  0.11006700  0.30241200  1
  C  C48  1  0.33846200  0.32568700  0.33574100  1
  C  C49  1  0.82568700  0.16153800  0.33574100  1
  C  C50  1  0.17431300  0.83846200  0.33574100  1
  C  C51  1  0.66153800  0.67431300  0.33574100  1
  C  C52  1  0.16153800  0.82568700  0.66425900  1
  C  C53  1  0.83846200  0.17431300  0.66425900  1
  C  C54  1  0.32568700  0.33846200  0.66425900  1
  C  C55  1  0.67431300  0.66153800  0.66425900  1
  C  C56  1  0.16153800  0.17431300  0.66425900  1
  C  C57  1  0.67431300  0.33846200  0.66425900  1
  C  C58  1  0.32568700  0.66153800  0.66425900  1
  C  C59  1  0.83846200  0.82568700  0.66425900  1
  C  C60  1  0.33846200  0.67431300  0.33574100  1
  C  C61  1  0.66153800  0.32568700  0.33574100  1
  C  C62  1  0.17431300  0.16153800  0.33574100  1
  C  C63  1  0.82568700  0.83846200  0.33574100  1
  Ni  Ni64  1  0.31767400  0.50000000  0.17476900  1
  Ni  Ni65  1  0.00000000  0.18232600  0.17476900  1
  Ni  Ni66  1  0.00000000  0.81767400  0.17476900  1
  Ni  Ni67  1  0.68232600  0.50000000  0.17476900  1
  Ni  Ni68  1  0.18232600  0.00000000  0.82523100  1
  Ni  Ni69  1  0.81767400  0.00000000  0.82523100  1
  Ni  Ni70  1  0.50000000  0.31767400  0.82523100  1
  Ni  Ni71  1  0.50000000  0.68232600  0.82523100  1
  Cu  Cu72  1  0.00000000  0.50000000  0.10577900  1
  Cu  Cu73  1  0.50000000  0.00000000  0.89422100  1
  Cu  Cu74  1  0.00000000  0.50000000  0.85025100  1
  Cu  Cu75  1  0.50000000  0.00000000  0.14974900  1
  Cu  Cu76  1  0.74370900  0.50000000  0.73517200  1
  Cu  Cu77  1  0.00000000  0.75629100  0.73517200  1
  Cu  Cu78  1  0.00000000  0.24370900  0.73517200  1
  Cu  Cu79  1  0.25629100  0.50000000  0.73517200  1
  Cu  Cu80  1  0.75629100  0.00000000  0.26482800  1
  Cu  Cu81  1  0.24370900  0.00000000  0.26482800  1
  Cu  Cu82  1  0.50000000  0.74370900  0.26482800  1
  Cu  Cu83  1  0.50000000  0.25629100  0.26482800  1
  Cu  Cu84  1  0.81392900  0.31392900  0.48124400  1
  Cu  Cu85  1  0.81392900  0.68607100  0.48124400  1
  Cu  Cu86  1  0.18607100  0.31392900  0.48124400  1
  Cu  Cu87  1  0.18607100  0.68607100  0.48124400  1
  Cu  Cu88  1  0.68607100  0.81392900  0.51875600  1
  Cu  Cu89  1  0.31392900  0.18607100  0.51875600  1
  Cu  Cu90  1  0.31392900  0.81392900  0.51875600  1
  Cu  Cu91  1  0.68607100  0.18607100  0.51875600  1
