# generated using pymatgen
data_Cu4Ni8C7
_symmetry_space_group_name_H-M   'P 1'
_cell_length_a   4.90676725
_cell_length_b   4.89989533
_cell_length_c   8.68769549
_cell_angle_alpha   89.45122925
_cell_angle_beta   89.27800658
_cell_angle_gamma   100.44224998
_symmetry_Int_Tables_number   1
_chemical_formula_structural   Cu4Ni8C7
_chemical_formula_sum   'Cu4 Ni8 C7'
_cell_volume   205.38456266
_cell_formula_units_Z   1
loop_
 _symmetry_equiv_pos_site_id
 _symmetry_equiv_pos_as_xyz
  1  'x, y, z'
loop_
 _atom_site_type_symbol
 _atom_site_label
 _atom_site_symmetry_multiplicity
 _atom_site_fract_x
 _atom_site_fract_y
 _atom_site_fract_z
 _atom_site_occupancy
  C  C0  1  0.00013900  0.50004400  0.33327500  1
  C  C1  1  0.98488200  0.01009100  0.00654400  1
  C  C2  1  0.99994100  0.00007500  0.33329200  1
  C  C3  1  0.01504000  0.98992700  0.65998900  1
  C  C4  1  0.52757600  0.46455500  0.15975400  1
  C  C5  1  0.49997900  0.49998400  0.83322500  1
  C  C6  1  0.47262500  0.53514600  0.50682500  1
  Ni  Ni7  1  0.15846700  0.80466300  0.48589000  1
  Ni  Ni8  1  0.31457300  0.30231700  0.33618300  1
  Ni  Ni9  1  0.31803900  0.28665500  0.99878500  1
  Ni  Ni10  1  0.30310100  0.31267900  0.66838700  1
  Ni  Ni11  1  0.68185400  0.71330100  0.66775000  1
  Ni  Ni12  1  0.69692900  0.68731000  0.99818700  1
  Ni  Ni13  1  0.68546800  0.69760300  0.33030900  1
  Ni  Ni14  1  0.84148000  0.19545300  0.18065000  1
  Cu  Cu15  1  0.17037600  0.77310300  0.16556700  1
  Cu  Cu16  1  0.17877000  0.81831600  0.83261800  1
  Cu  Cu17  1  0.82112200  0.18167600  0.83394800  1
  Cu  Cu18  1  0.82963900  0.22710500  0.50096600  1
