# generated using pymatgen
data_CuNi2C15
_symmetry_space_group_name_H-M   'P 1'
_cell_length_a   8.95345967
_cell_length_b   8.94092546
_cell_length_c   23.13745965
_cell_angle_alpha   90.22214638
_cell_angle_beta   90.00000000
_cell_angle_gamma   120.04638509
_symmetry_Int_Tables_number   1
_chemical_formula_structural   CuNi2C15
_chemical_formula_sum   'Cu6 Ni12 C90'
_cell_volume   1603.29014652
_cell_formula_units_Z   6
loop_
 _symmetry_equiv_pos_site_id
 _symmetry_equiv_pos_as_xyz
  1  'x, y, z'
loop_
 _atom_site_type_symbol
 _atom_site_label
 _atom_site_symmetry_multiplicity
 _atom_site_fract_x
 _atom_site_fract_y
 _atom_site_fract_z
 _atom_site_occupancy
  C  C0  1  0.01993772  0.01165161  0.49797955  1
  C  C1  1  0.99171388  0.01165161  0.99797955  1
  C  C2  1  0.68660472  0.34498461  0.83131255  1
  C  C3  1  0.65838088  0.34498461  0.33131255  1
  C  C4  1  0.35327072  0.67831861  0.16464655  1
  C  C5  1  0.32504688  0.67831861  0.66464655  1
  C  C6  1  0.01194578  0.99175661  0.35521601  1
  C  C7  1  0.97981082  0.99175661  0.85521601  1
  C  C8  1  0.67861278  0.32508961  0.68854901  1
  C  C9  1  0.64647782  0.32508961  0.18854901  1
  C  C10  1  0.34527878  0.65842361  0.02188301  1
  C  C11  1  0.31314382  0.65842361  0.52188301  1
  C  C12  1  0.99702901  0.99262090  0.64514294  1
  C  C13  1  0.99559189  0.99262090  0.14514294  1
  C  C14  1  0.66369601  0.32595390  0.97847594  1
  C  C15  1  0.66225889  0.32595390  0.47847594  1
  C  C16  1  0.33036201  0.65928790  0.31180994  1
  C  C17  1  0.32892489  0.65928790  0.81180994  1
  Ni  Ni18  1  0.28628788  0.99057326  0.24943150  1
  Ni  Ni19  1  0.71001749  0.71294624  0.25071869  1
  Ni  Ni20  1  0.00292875  0.71294624  0.75071869  1
  Ni  Ni21  1  0.70428538  0.99057326  0.74943150  1
  Ni  Ni22  1  0.95295488  0.32390626  0.58276450  1
  Ni  Ni23  1  0.37668449  0.04627924  0.58405169  1
  Ni  Ni24  1  0.66959575  0.04627924  0.08405169  1
  Ni  Ni25  1  0.37095238  0.32390626  0.08276450  1
  Ni  Ni26  1  0.61962088  0.65724026  0.91609850  1
  Ni  Ni27  1  0.04335049  0.37961324  0.91738569  1
  Ni  Ni28  1  0.33626175  0.37961324  0.41738569  1
  Ni  Ni29  1  0.03761838  0.65724026  0.41609850  1
  Cu  Cu30  1  0.00387634  0.28868215  0.24973634  1
  Cu  Cu31  1  0.28480581  0.28868215  0.74973634  1
  Cu  Cu32  1  0.67054334  0.62201515  0.58306934  1
  Cu  Cu33  1  0.95147281  0.62201515  0.08306934  1
  Cu  Cu34  1  0.33720934  0.95534915  0.91640334  1
  Cu  Cu35  1  0.61813881  0.95534915  0.41640334  1
  C  C36  1  0.20432494  0.02740295  0.30607132  1
  C  C37  1  0.82092154  0.81138183  0.30701309  1
  C  C38  1  0.97897895  0.18852328  0.30188239  1
  C  C39  1  0.20954433  0.18852328  0.80188239  1
  C  C40  1  0.99046029  0.81138183  0.80701309  1
  C  C41  1  0.82307801  0.02740295  0.80607132  1
  C  C42  1  0.80814984  0.97204111  0.69292145  1
  C  C43  1  0.17644070  0.20619862  0.69694308  1
  C  C44  1  0.02962481  0.83544546  0.69291234  1
  C  C45  1  0.80582065  0.83544546  0.19291234  1
  C  C46  1  0.02975792  0.20619862  0.19694308  1
  C  C47  1  0.16389127  0.97204111  0.19292145  1
  C  C48  1  0.87099194  0.36073595  0.63940432  1
  C  C49  1  0.48758854  0.14471483  0.64034609  1
  C  C50  1  0.64564595  0.52185628  0.63521539  1
  C  C51  1  0.87621133  0.52185628  0.13521539  1
  C  C52  1  0.65712729  0.14471483  0.14034609  1
  C  C53  1  0.48974501  0.36073595  0.13940432  1
  C  C54  1  0.47481684  0.30537411  0.02625445  1
  C  C55  1  0.84310770  0.53953162  0.03027608  1
  C  C56  1  0.69629181  0.16877846  0.02624534  1
  C  C57  1  0.47248765  0.16877846  0.52624534  1
  C  C58  1  0.69642492  0.53953162  0.53027608  1
  C  C59  1  0.83055827  0.30537411  0.52625445  1
  C  C60  1  0.53765794  0.69406995  0.97273832  1
  C  C61  1  0.15425454  0.47804883  0.97368009  1
  C  C62  1  0.31231195  0.85519028  0.96854939  1
  C  C63  1  0.54287733  0.85519028  0.46854939  1
  C  C64  1  0.32379329  0.47804883  0.47368009  1
  C  C65  1  0.15641101  0.69406995  0.47273832  1
  C  C66  1  0.14148284  0.63870811  0.35958845  1
  C  C67  1  0.50977370  0.87286562  0.36361008  1
  C  C68  1  0.36295781  0.50211246  0.35957934  1
  C  C69  1  0.13915365  0.50211246  0.85957934  1
  C  C70  1  0.36309092  0.87286562  0.86361008  1
  C  C71  1  0.49722427  0.63870811  0.85958845  1
  C  C72  1  0.00779785  0.82199387  0.41240521  1
  C  C73  1  0.79384052  0.98620251  0.40901786  1
  C  C74  1  0.16232753  0.19353737  0.41123492  1
  C  C75  1  0.03120984  0.19353737  0.91123492  1
  C  C76  1  0.19236199  0.98620251  0.90901786  1
  C  C77  1  0.81419602  0.82199387  0.91240521  1
  C  C78  1  0.96563689  0.14785768  0.59149941  1
  C  C79  1  0.18235367  0.02480719  0.59186354  1
  C  C80  1  0.83430328  0.79637737  0.58801036  1
  C  C81  1  0.96207409  0.79637737  0.08801036  1
  C  C82  1  0.84245352  0.02480719  0.09186354  1
  C  C83  1  0.18222079  0.14785768  0.09149941  1
  C  C84  1  0.67446485  0.15532687  0.74573821  1
  C  C85  1  0.46050752  0.31953551  0.74235086  1
  C  C86  1  0.82899453  0.52687037  0.74456792  1
  C  C87  1  0.69787684  0.52687037  0.24456792  1
  C  C88  1  0.85902899  0.31953551  0.24235086  1
  C  C89  1  0.48086302  0.15532687  0.24573821  1
  C  C90  1  0.63230389  0.48119068  0.92483241  1
  C  C91  1  0.84902067  0.35814019  0.92519654  1
  C  C92  1  0.50097028  0.12971037  0.92134336  1
  C  C93  1  0.62874109  0.12971037  0.42134336  1
  C  C94  1  0.50912052  0.35814019  0.42519654  1
  C  C95  1  0.84888779  0.48119068  0.42483241  1
  C  C96  1  0.34113085  0.48866087  0.07907221  1
  C  C97  1  0.12717352  0.65286951  0.07568486  1
  C  C98  1  0.49566053  0.86020437  0.07790192  1
  C  C99  1  0.36454284  0.86020437  0.57790192  1
  C  C100  1  0.52569499  0.65286951  0.57568486  1
  C  C101  1  0.14752902  0.48866087  0.57907221  1
  C  C102  1  0.29896989  0.81452468  0.25816641  1
  C  C103  1  0.51568667  0.69147419  0.25853054  1
  C  C104  1  0.16763628  0.46304437  0.25467736  1
  C  C105  1  0.29540709  0.46304437  0.75467736  1
  C  C106  1  0.17578652  0.69147419  0.75853054  1
  C  C107  1  0.51555379  0.81452468  0.75816641  1
