# generated using pymatgen
data_Cu4NiC8
_symmetry_space_group_name_H-M   'P 1'
_cell_length_a   3.02780119
_cell_length_b   5.17546197
_cell_length_c   9.26344006
_cell_angle_alpha   90.23112094
_cell_angle_beta   90.00000000
_cell_angle_gamma   90.00000000
_symmetry_Int_Tables_number   1
_chemical_formula_structural   Cu4NiC8
_chemical_formula_sum   'Cu4 Ni1 C8'
_cell_volume   145.15942500
_cell_formula_units_Z   1
loop_
 _symmetry_equiv_pos_site_id
 _symmetry_equiv_pos_as_xyz
  1  'x, y, z'
loop_
 _atom_site_type_symbol
 _atom_site_label
 _atom_site_symmetry_multiplicity
 _atom_site_fract_x
 _atom_site_fract_y
 _atom_site_fract_z
 _atom_site_occupancy
  Ni  Ni0  1  0.75000000  0.43709704  0.93042441  1
  Cu  Cu1  1  0.25000000  0.55632648  0.35799539  1
  Cu  Cu2  1  0.25000000  0.94021499  0.85592586  1
  Cu  Cu3  1  0.75000000  0.42558708  0.62838838  1
  Cu  Cu4  1  0.75000000  0.04597106  0.15439053  1
  C  C5  1  0.25000000  0.58652163  0.76469735  1
  C  C6  1  0.25000000  0.87000351  0.24589875  1
  C  C7  1  0.75000000  0.38517602  0.25629581  1
  C  C8  1  0.75000000  0.14110150  0.76508472  1
  C  C9  1  0.25000000  0.29756520  0.51481438  1
  C  C10  1  0.25000000  0.22374555  0.01956975  1
  C  C11  1  0.75000000  0.68798773  0.48279413  1
  C  C12  1  0.75000000  0.80548223  0.97996856  1
