# generated using pymatgen
data_Cu4NiC12
_symmetry_space_group_name_H-M   'P 1'
_cell_length_a   5.31776788
_cell_length_b   5.31771935
_cell_length_c   8.92694829
_cell_angle_alpha   74.16625641
_cell_angle_beta   92.18996573
_cell_angle_gamma   62.86955961
_symmetry_Int_Tables_number   1
_chemical_formula_structural   Cu4NiC12
_chemical_formula_sum   'Cu4 Ni1 C12'
_cell_volume   212.20458934
_cell_formula_units_Z   1
loop_
 _symmetry_equiv_pos_site_id
 _symmetry_equiv_pos_as_xyz
  1  'x, y, z'
loop_
 _atom_site_type_symbol
 _atom_site_label
 _atom_site_symmetry_multiplicity
 _atom_site_fract_x
 _atom_site_fract_y
 _atom_site_fract_z
 _atom_site_occupancy
  Ni  Ni0  1  0.65849200  0.73967400  0.90366900  1
  Cu  Cu1  1  0.77273600  0.46184900  0.26733800  1
  Cu  Cu2  1  0.48238200  0.01220300  0.51223900  1
  Cu  Cu3  1  0.27160700  0.51214400  0.73406000  1
  Cu  Cu4  1  0.03555800  0.00370300  0.01974600  1
  C  C5  1  0.87635500  0.33169900  0.08118400  1
  C  C6  1  0.40602900  0.79081200  0.07991000  1
  C  C7  1  0.45851800  0.74486600  0.70451000  1
  C  C8  1  0.42313900  0.28336500  0.59569300  1
  C  C9  1  0.07860300  0.21285500  0.40113100  1
  C  C10  1  0.90602500  0.79678800  0.57945200  1
  C  C11  1  0.92197500  0.75865300  0.18032100  1
  C  C12  1  0.55908300  0.71857000  0.39397600  1
  C  C13  1  0.55720200  0.24785000  0.31249200  1
  C  C14  1  0.61104200  0.14914800  0.90251700  1
  C  C15  1  0.05092800  0.71420000  0.89120700  1
  C  C16  1  0.06782700  0.25912500  0.81912600  1
