# generated using pymatgen
data_Cu12NiC5
_symmetry_space_group_name_H-M   'P 1'
_cell_length_a   17.20048500
_cell_length_b   7.22520900
_cell_length_c   8.47155495
_cell_angle_alpha   73.45992043
_cell_angle_beta   90.00000000
_cell_angle_gamma   90.00000000
_symmetry_Int_Tables_number   1
_chemical_formula_structural   Cu12NiC5
_chemical_formula_sum   'Cu24 Ni2 C10'
_cell_volume   1009.25543969
_cell_formula_units_Z   2
loop_
 _symmetry_equiv_pos_site_id
 _symmetry_equiv_pos_as_xyz
  1  'x, y, z'
loop_
 _atom_site_type_symbol
 _atom_site_label
 _atom_site_symmetry_multiplicity
 _atom_site_fract_x
 _atom_site_fract_y
 _atom_site_fract_z
 _atom_site_occupancy
  C  C0  1  0.35336300  0.77746000  0.34906900  1
  C  C1  1  0.85336300  0.22254000  0.65093100  1
  C  C2  1  0.93793500  0.77986700  0.01774700  1
  C  C3  1  0.43793500  0.22013300  0.98225300  1
  C  C4  1  0.07090700  0.29315000  0.44167800  1
  C  C5  1  0.57090700  0.70685000  0.55832200  1
  C  C6  1  0.76139000  0.66354500  0.28681100  1
  C  C7  1  0.26139000  0.33645500  0.71318900  1
  C  C8  1  0.13901800  0.87876800  0.10272400  1
  C  C9  1  0.63901800  0.12123200  0.89727600  1
  Ni  Ni10  1  0.85012800  0.21623700  0.15894700  1
  Ni  Ni11  1  0.35012800  0.78376300  0.84105300  1
  Cu  Cu12  1  0.78769800  0.00972400  0.42395100  1
  Cu  Cu13  1  0.54583200  0.95129600  0.21225200  1
  Cu  Cu14  1  0.72047200  0.38822100  0.08104700  1
  Cu  Cu15  1  0.22047200  0.61177900  0.91895300  1
  Cu  Cu16  1  0.98098000  0.04824900  0.24677600  1
  Cu  Cu17  1  0.48098000  0.95175100  0.75322400  1
  Cu  Cu18  1  0.91141500  0.42499500  0.89378500  1
  Cu  Cu19  1  0.28769800  0.99027600  0.57604900  1
  Cu  Cu20  1  0.44893500  0.21639900  0.51744100  1
  Cu  Cu21  1  0.41141500  0.57500500  0.10621500  1
  Cu  Cu22  1  0.75193400  0.63455700  0.83203700  1
  Cu  Cu23  1  0.25193400  0.36544300  0.16796300  1
  Cu  Cu24  1  0.94893500  0.78360100  0.48255900  1
  Cu  Cu25  1  0.18772300  0.60558500  0.42206800  1
  Cu  Cu26  1  0.66193600  0.15579000  0.43585800  1
  Cu  Cu27  1  0.16193600  0.84421000  0.56414200  1
  Cu  Cu28  1  0.04362300  0.31209900  0.90464600  1
  Cu  Cu29  1  0.54362300  0.68790100  0.09535400  1
  Cu  Cu30  1  0.78074300  0.90353500  0.93463000  1
  Cu  Cu31  1  0.28074300  0.09646500  0.06537000  1
  Cu  Cu32  1  0.92784700  0.52590900  0.36280400  1
  Cu  Cu33  1  0.42784700  0.47409100  0.63719600  1
  Cu  Cu34  1  0.68772300  0.39441500  0.57793200  1
  Cu  Cu35  1  0.04583200  0.04870400  0.78774800  1
