# generated using pymatgen
data_CuNiC11
_symmetry_space_group_name_H-M   'P 1'
_cell_length_a   6.57623654
_cell_length_b   6.57623688
_cell_length_c   6.69857943
_cell_angle_alpha   73.71081988
_cell_angle_beta   106.28917802
_cell_angle_gamma   146.09650278
_symmetry_Int_Tables_number   1
_chemical_formula_structural   CuNiC11
_chemical_formula_sum   'Cu1 Ni1 C11'
_cell_volume   154.48642048
_cell_formula_units_Z   1
loop_
 _symmetry_equiv_pos_site_id
 _symmetry_equiv_pos_as_xyz
  1  'x, y, z'
loop_
 _atom_site_type_symbol
 _atom_site_label
 _atom_site_symmetry_multiplicity
 _atom_site_fract_x
 _atom_site_fract_y
 _atom_site_fract_z
 _atom_site_occupancy
  Ni  Ni0  1  0.18254800  0.81745200  0.02120700  1
  C  C1  1  0.40449900  0.59550100  0.28724400  1
  C  C2  1  0.59374600  0.40625400  0.69195900  1
  C  C3  1  0.29802900  0.70197100  0.68738100  1
  Cu  Cu4  1  0.70381600  0.29618400  0.32411400  1
  C  C5  1  0.13407100  0.86592900  0.71143500  1
  C  C6  1  0.24961400  0.75038600  0.34404400  1
  C  C7  1  0.34869600  0.65130400  0.01181400  1
  C  C8  1  0.44598200  0.55401800  0.63548900  1
  C  C9  1  0.55014300  0.44985700  0.35985400  1
  C  C10  1  0.63951200  0.36048800  0.99375300  1
  C  C11  1  0.75279800  0.24720200  0.65276500  1
  C  C12  1  0.88404700  0.11595300  0.30893800  1
