# generated using pymatgen
data_Cu2Ni2C3
_symmetry_space_group_name_H-M   'P 1'
_cell_length_a   5.80191709
_cell_length_b   17.83705208
_cell_length_c   5.80191989
_cell_angle_alpha   99.35997899
_cell_angle_beta   90.00951753
_cell_angle_gamma   80.64464641
_symmetry_Int_Tables_number   1
_chemical_formula_structural   Cu2Ni2C3
_chemical_formula_sum   'Cu8 Ni8 C12'
_cell_volume   584.34839701
_cell_formula_units_Z   4
loop_
 _symmetry_equiv_pos_site_id
 _symmetry_equiv_pos_as_xyz
  1  'x, y, z'
loop_
 _atom_site_type_symbol
 _atom_site_label
 _atom_site_symmetry_multiplicity
 _atom_site_fract_x
 _atom_site_fract_y
 _atom_site_fract_z
 _atom_site_occupancy
  C  C0  1  0.29738800  0.40525000  0.70265300  1
  C  C1  1  0.79735600  0.40525000  0.20262100  1
  C  C2  1  0.54738900  0.90525000  0.95265300  1
  C  C3  1  0.04735900  0.90525000  0.45262200  1
  C  C4  1  0.45261300  0.09474900  0.04734600  1
  C  C5  1  0.95264100  0.09474900  0.54737900  1
  C  C6  1  0.70264400  0.59475000  0.29737800  1
  C  C7  1  0.20261200  0.59475000  0.79734900  1
  C  C8  1  0.49999700  0.00000000  0.49999800  1
  C  C9  1  0.25000200  0.50000100  0.25000300  1
  C  C10  1  0.99999900  0.00000000  0.99999900  1
  C  C11  1  0.75000200  0.50000100  0.75000200  1
  Ni  Ni12  1  0.41377200  0.17256600  0.58623800  1
  Ni  Ni13  1  0.91378700  0.17256400  0.08622000  1
  Ni  Ni14  1  0.66378100  0.67256400  0.83621400  1
  Ni  Ni15  1  0.16376300  0.67256600  0.33623200  1
  Ni  Ni16  1  0.33623200  0.32743300  0.16376300  1
  Ni  Ni17  1  0.83621100  0.32743600  0.66377900  1
  Ni  Ni18  1  0.58623400  0.82743300  0.41376800  1
  Ni  Ni19  1  0.08621900  0.82743600  0.91378700  1
  Cu  Cu20  1  0.25000100  0.00000200  0.25000200  1
  Cu  Cu21  1  0.74999900  0.00000300  0.74999900  1
  Cu  Cu22  1  0.50000100  0.49999800  0.50000100  1
  Cu  Cu23  1  0.00000200  0.50000000  0.00000300  1
  Cu  Cu24  1  0.75001000  0.99997500  0.24998600  1
  Cu  Cu25  1  0.24998700  0.00002800  0.75001200  1
  Cu  Cu26  1  0.99998700  0.50002400  0.50001300  1
  Cu  Cu27  1  0.50001400  0.49997300  0.99998600  1
