# generated using pymatgen
data_CuNiC7
_symmetry_space_group_name_H-M   'P 1'
_cell_length_a   13.01261700
_cell_length_b   9.79262400
_cell_length_c   12.21006801
_cell_angle_alpha   71.54533163
_cell_angle_beta   90.00000000
_cell_angle_gamma   90.00000000
_symmetry_Int_Tables_number   1
_chemical_formula_structural   CuNiC7
_chemical_formula_sum   'Cu16 Ni16 C112'
_cell_volume   1475.88735582
_cell_formula_units_Z   16
loop_
 _symmetry_equiv_pos_site_id
 _symmetry_equiv_pos_as_xyz
  1  'x, y, z'
loop_
 _atom_site_type_symbol
 _atom_site_label
 _atom_site_symmetry_multiplicity
 _atom_site_fract_x
 _atom_site_fract_y
 _atom_site_fract_z
 _atom_site_occupancy
  C  C0  1  0.07264100  0.44927900  0.91564800  1
  C  C1  1  0.57264100  0.55072100  0.58435200  1
  C  C2  1  0.92735900  0.55072100  0.08435200  1
  C  C3  1  0.42735900  0.44927900  0.41564800  1
  C  C4  1  0.06935900  0.52943700  0.60122000  1
  C  C5  1  0.56935900  0.47056300  0.89878000  1
  C  C6  1  0.93064100  0.47056300  0.39878000  1
  C  C7  1  0.43064100  0.52943700  0.10122000  1
  C  C8  1  0.17985000  0.95717500  0.92208500  1
  C  C9  1  0.67985000  0.04282500  0.57791500  1
  C  C10  1  0.82015000  0.04282500  0.07791500  1
  C  C11  1  0.32015000  0.95717500  0.42208500  1
  C  C12  1  0.17697900  0.02988000  0.60914400  1
  C  C13  1  0.67697900  0.97012000  0.89085600  1
  C  C14  1  0.82302100  0.97012000  0.39085600  1
  C  C15  1  0.32302100  0.02988000  0.10914400  1
  C  C16  1  0.02113300  0.80906700  0.18805200  1
  C  C17  1  0.52113300  0.19093300  0.31194800  1
  C  C18  1  0.97886700  0.19093300  0.81194800  1
  C  C19  1  0.47886700  0.80906700  0.68805200  1
  C  C20  1  0.00126000  0.21363300  0.30341800  1
  C  C21  1  0.50126000  0.78636700  0.19658200  1
  C  C22  1  0.99874000  0.78636700  0.69658200  1
  C  C23  1  0.49874000  0.21363300  0.80341800  1
  C  C24  1  0.23081300  0.69498600  0.31777800  1
  C  C25  1  0.73081300  0.30501400  0.18222200  1
  C  C26  1  0.76918700  0.30501400  0.68222200  1
  C  C27  1  0.26918700  0.69498600  0.81777800  1
  C  C28  1  0.25071700  0.29154300  0.19482000  1
  C  C29  1  0.75071700  0.70845700  0.30518000  1
  C  C30  1  0.74928300  0.70845700  0.80518000  1
  C  C31  1  0.24928300  0.29154300  0.69482000  1
  Ni  Ni32  1  0.07733100  0.88547500  0.42519000  1
  Ni  Ni33  1  0.57733100  0.11452500  0.07481000  1
  Ni  Ni34  1  0.92266900  0.11452500  0.57481000  1
  Ni  Ni35  1  0.42266900  0.88547500  0.92519000  1
  Ni  Ni36  1  0.07047400  0.12110100  0.07476800  1
  Ni  Ni37  1  0.57047400  0.87889900  0.42523200  1
  Ni  Ni38  1  0.92952600  0.87889900  0.92523200  1
  Ni  Ni39  1  0.42952600  0.12110100  0.57476800  1
  Ni  Ni40  1  0.17455300  0.61846500  0.07461800  1
  Ni  Ni41  1  0.67455300  0.38153500  0.42538200  1
  Ni  Ni42  1  0.82544700  0.38153500  0.92538200  1
  Ni  Ni43  1  0.32544700  0.61846500  0.57461800  1
  Ni  Ni44  1  0.17873900  0.37956800  0.42237100  1
  Ni  Ni45  1  0.67873900  0.62043200  0.07762900  1
  Ni  Ni46  1  0.82126100  0.62043200  0.57762900  1
  Ni  Ni47  1  0.32126100  0.37956800  0.92237100  1
  Cu  Cu48  1  0.95986100  0.53988500  0.75934300  1
  Cu  Cu49  1  0.45986100  0.46011500  0.74065700  1
  Cu  Cu50  1  0.04013900  0.46011500  0.24065700  1
  Cu  Cu51  1  0.54013900  0.53988500  0.25934300  1
  Cu  Cu52  1  0.07811600  0.27266900  0.63570600  1
  Cu  Cu53  1  0.57811600  0.72733100  0.86429400  1
  Cu  Cu54  1  0.92188400  0.72733100  0.36429400  1
  Cu  Cu55  1  0.42188400  0.27266900  0.13570600  1
  Cu  Cu56  1  0.17031200  0.77093400  0.64448000  1
  Cu  Cu57  1  0.67031200  0.22906600  0.85552000  1
  Cu  Cu58  1  0.82968800  0.22906600  0.35552000  1
  Cu  Cu59  1  0.32968800  0.77093400  0.14448000  1
  Cu  Cu60  1  0.29011900  0.04027000  0.76382600  1
  Cu  Cu61  1  0.79011900  0.95973000  0.73617400  1
  Cu  Cu62  1  0.70988100  0.95973000  0.23617400  1
  Cu  Cu63  1  0.20988100  0.04027000  0.26382600  1
  C  C64  1  0.11402500  0.83039200  0.32439700  1
  C  C65  1  0.61402500  0.16960800  0.17560300  1
  C  C66  1  0.88597500  0.16960800  0.67560300  1
  C  C67  1  0.38597500  0.83039200  0.82439700  1
  C  C68  1  0.04714400  0.75634300  0.53161000  1
  C  C69  1  0.54714400  0.24365700  0.96839000  1
  C  C70  1  0.95285600  0.24365700  0.46839000  1
  C  C71  1  0.45285600  0.75634300  0.03161000  1
  C  C72  1  0.01553300  0.01360200  0.62071200  1
  C  C73  1  0.51553300  0.98639800  0.87928800  1
  C  C74  1  0.98446700  0.98639800  0.37928800  1
  C  C75  1  0.48446700  0.01360200  0.12071200  1
  C  C76  1  0.16490900  0.97254400  0.45848100  1
  C  C77  1  0.66490900  0.02745600  0.04151900  1
  C  C78  1  0.83509100  0.02745600  0.54151900  1
  C  C79  1  0.33509100  0.97254400  0.95848100  1
  C  C80  1  0.09328400  0.20080900  0.16302400  1
  C  C81  1  0.59328400  0.79919100  0.33697600  1
  C  C82  1  0.90671600  0.79919100  0.83697600  1
  C  C83  1  0.40671600  0.20080900  0.66302400  1
  C  C84  1  0.05239500  0.23253200  0.95286900  1
  C  C85  1  0.55239500  0.76746800  0.54713100  1
  C  C86  1  0.94760500  0.76746800  0.04713100  1
  C  C87  1  0.44760500  0.23253200  0.45286900  1
  C  C88  1  0.02560500  0.97739600  0.88514900  1
  C  C89  1  0.52560500  0.02260400  0.61485100  1
  C  C90  1  0.97439500  0.02260400  0.11485100  1
  C  C91  1  0.47439500  0.97739600  0.38514900  1
  C  C92  1  0.16009500  0.01793900  0.06745400  1
  C  C93  1  0.66009500  0.98206100  0.43254600  1
  C  C94  1  0.83990500  0.98206100  0.93254600  1
  C  C95  1  0.33990500  0.01793900  0.56745400  1
  C  C96  1  0.14181600  0.68116200  0.17199800  1
  C  C97  1  0.64181600  0.31883800  0.32800200  1
  C  C98  1  0.85818400  0.31883800  0.82800200  1
  C  C99  1  0.35818400  0.68116200  0.67199800  1
  C  C100  1  0.20281400  0.74151500  0.96220700  1
  C  C101  1  0.70281400  0.25848500  0.53779300  1
  C  C102  1  0.79718600  0.25848500  0.03779300  1
  C  C103  1  0.29718600  0.74151500  0.46220700  1
  C  C104  1  0.23205500  0.51788100  0.61724800  1
  C  C105  1  0.73205500  0.48211900  0.88275200  1
  C  C106  1  0.76794500  0.48211900  0.38275200  1
  C  C107  1  0.26794500  0.51788100  0.11724800  1
  C  C108  1  0.08391300  0.53249500  0.04685500  1
  C  C109  1  0.58391300  0.46750500  0.45314500  1
  C  C110  1  0.91608700  0.46750500  0.95314500  1
  C  C111  1  0.41608700  0.53249500  0.54685500  1
  C  C112  1  0.15324900  0.31140700  0.32677900  1
  C  C113  1  0.65324900  0.68859300  0.17322100  1
  C  C114  1  0.84675100  0.68859300  0.67322100  1
  C  C115  1  0.34675100  0.31140700  0.82677900  1
  C  C116  1  0.20248700  0.25810200  0.53641200  1
  C  C117  1  0.70248700  0.74189800  0.96358800  1
  C  C118  1  0.79751300  0.74189800  0.46358800  1
  C  C119  1  0.29751300  0.25810200  0.03641200  1
  C  C120  1  0.22625600  0.48104600  0.88227400  1
  C  C121  1  0.72625600  0.51895400  0.61772600  1
  C  C122  1  0.77374400  0.51895400  0.11772600  1
  C  C123  1  0.27374400  0.48104600  0.38227400  1
  C  C124  1  0.09001600  0.47841600  0.44040600  1
  C  C125  1  0.59001600  0.52158400  0.05959400  1
  C  C126  1  0.90998400  0.52158400  0.55959400  1
  C  C127  1  0.40998400  0.47841600  0.94040600  1
  C  C128  1  0.03249200  0.56702200  0.75483900  1
  C  C129  1  0.53249200  0.43297800  0.74516100  1
  C  C130  1  0.96750800  0.43297800  0.24516100  1
  C  C131  1  0.46750800  0.56702200  0.25483900  1
  C  C132  1  0.08250200  0.31167900  0.70009300  1
  C  C133  1  0.58250200  0.68832100  0.79990700  1
  C  C134  1  0.91749800  0.68832100  0.29990700  1
  C  C135  1  0.41749800  0.31167900  0.20009300  1
  C  C136  1  0.16253900  0.81068400  0.70807200  1
  C  C137  1  0.66253900  0.18931600  0.79192800  1
  C  C138  1  0.83746100  0.18931600  0.29192800  1
  C  C139  1  0.33746100  0.81068400  0.20807200  1
  C  C140  1  0.21860400  0.07251700  0.75931700  1
  C  C141  1  0.71860400  0.92748300  0.74068300  1
  C  C142  1  0.78139600  0.92748300  0.24068300  1
  C  C143  1  0.28139600  0.07251700  0.25931700  1
