# generated using pymatgen
data_Cu7Ni5C62
_symmetry_space_group_name_H-M   'P 1'
_cell_length_a   18.32671282
_cell_length_b   9.13861552
_cell_length_c   23.46162686
_cell_angle_alpha   89.96683302
_cell_angle_beta   89.64366656
_cell_angle_gamma   119.95315093
_symmetry_Int_Tables_number   1
_chemical_formula_structural   Cu7Ni5C62
_chemical_formula_sum   'Cu21 Ni15 C186'
_cell_volume   3404.44435396
_cell_formula_units_Z   3
loop_
 _symmetry_equiv_pos_site_id
 _symmetry_equiv_pos_as_xyz
  1  'x, y, z'
loop_
 _atom_site_type_symbol
 _atom_site_label
 _atom_site_symmetry_multiplicity
 _atom_site_fract_x
 _atom_site_fract_y
 _atom_site_fract_z
 _atom_site_occupancy
  C  C0  1  0.99580965  0.62137976  0.25367901  1
  C  C1  1  0.50092302  0.62253738  0.25094195  1
  C  C2  1  0.00074069  0.38461212  0.74848894  1
  C  C3  1  0.49621412  0.36168335  0.75032501  1
  C  C4  1  0.66463512  0.31002273  0.92460785  1
  C  C5  1  0.16517854  0.00964690  0.43395907  1
  C  C6  1  0.00112846  0.99830836  0.51197324  1
  C  C7  1  0.49910444  0.98234071  0.49939166  1
  C  C8  1  0.00095091  0.01126225  0.99202291  1
  C  C9  1  0.50184766  0.00796312  0.00804515  1
  C  C10  1  0.32961708  0.31990014  0.84187118  1
  C  C11  1  0.82877383  0.32918397  0.82172037  1
  C  C12  1  0.34395269  0.35089141  0.33009268  1
  C  C13  1  0.82440482  0.33271029  0.34731003  1
  C  C14  1  0.18996490  0.65859768  0.16089138  1
  C  C15  1  0.67291858  0.65362473  0.15796792  1
  C  C16  1  0.17523498  0.69689716  0.66000056  1
  C  C17  1  0.68518778  0.69344868  0.66811877  1
  C  C18  1  0.99154498  0.98550500  0.36209051  1
  C  C19  1  0.49617820  0.00509452  0.85796237  1
  C  C20  1  0.31877071  0.33573956  0.67437787  1
  C  C21  1  0.82433542  0.31109588  0.68312412  1
  C  C22  1  0.33060128  0.34749514  0.18060490  1
  C  C23  1  0.81672360  0.30348054  0.17419544  1
  C  C24  1  0.83331588  0.32085710  0.99351434  1
  C  C25  1  0.33497317  0.35214072  0.49649457  1
  C  C26  1  0.16852967  0.66353981  0.31431877  1
  C  C27  1  0.67529933  0.65234045  0.31515669  1
  C  C28  1  0.17739670  0.70079727  0.81481432  1
  C  C29  1  0.66557776  0.65552356  0.81039635  1
  C  C30  1  0.49851475  0.02240189  0.35114180  1
  C  C31  1  0.99829973  0.97392754  0.85004415  1
  C  C32  1  0.99833406  0.97732548  0.65272302  1
  C  C33  1  0.51485347  0.00182834  0.64024025  1
  C  C34  1  0.00647371  0.02196198  0.13660840  1
  C  C35  1  0.49626728  0.01878678  0.15100325  1
  C  C36  1  0.32278875  0.31008427  0.98322289  1
  C  C37  1  0.82306415  0.33705946  0.48389060  1
  C  C38  1  0.16167202  0.66338511  0.01373220  1
  C  C39  1  0.66069906  0.65191994  0.02212854  1
  C  C40  1  0.16036388  0.67036878  0.52460129  1
  C  C41  1  0.66112732  0.65620684  0.51570348  1
  Ni  Ni42  1  0.36404664  0.73106072  0.25113250  1
  Ni  Ni43  1  0.49765353  0.29126634  0.25021744  1
  Ni  Ni44  1  0.64070293  0.28448233  0.74681274  1
  Ni  Ni45  1  0.00051840  0.70712602  0.75019799  1
  Ni  Ni46  1  0.86443946  0.99731590  0.75122619  1
  Ni  Ni47  1  0.16758726  0.01693363  0.57931493  1
  Ni  Ni48  1  0.68627623  0.02148679  0.57965017  1
  Ni  Ni49  1  0.33403448  0.67006910  0.58362361  1
  Ni  Ni50  1  0.82997615  0.00135185  0.08292728  1
  Ni  Ni51  1  0.18636151  0.35087651  0.08127894  1
  Ni  Ni52  1  0.66754088  0.32109850  0.07884231  1
  Ni  Ni53  1  0.51295220  0.37989316  0.92208387  1
  Ni  Ni54  1  0.16160792  0.96450711  0.92085790  1
  Ni  Ni55  1  0.66215460  0.35917444  0.42034962  1
  Ni  Ni56  1  0.01475795  0.64406692  0.42080070  1
  Cu  Cu57  1  0.13870517  0.99720353  0.24581717  1
  Cu  Cu58  1  0.63603566  0.00561883  0.25275771  1
  Cu  Cu59  1  0.85953689  0.71383673  0.24083060  1
  Cu  Cu60  1  -0.00005231  0.28763722  0.24252093  1
  Cu  Cu61  1  0.13641436  0.26777484  0.75308048  1
  Cu  Cu62  1  0.49840055  0.70872846  0.74281614  1
  Cu  Cu63  1  0.35651943  0.00491690  0.74132170  1
  Cu  Cu64  1  0.49781066  0.33797800  0.58549858  1
  Cu  Cu65  1  0.98504743  0.33166100  0.57992236  1
  Cu  Cu66  1  0.82884627  0.63608849  0.57792336  1
  Cu  Cu67  1  0.48652740  0.64202333  0.07960326  1
  Cu  Cu68  1  0.99791950  0.65769331  0.08739407  1
  Cu  Cu69  1  0.32859008  0.02149353  0.07892664  1
  Cu  Cu70  1  0.30967920  0.64824683  0.92564154  1
  Cu  Cu71  1  0.81988768  0.67661024  0.91996066  1
  Cu  Cu72  1  0.02217422  0.36910069  0.91663484  1
  Cu  Cu73  1  0.66761340  0.96093856  0.92155976  1
  Cu  Cu74  1  0.32050322  0.96739358  0.41903826  1
  Cu  Cu75  1  0.80885661  0.97087997  0.42502032  1
  Cu  Cu76  1  0.16941899  0.36930324  0.42202348  1
  Cu  Cu77  1  0.52019580  0.67406399  0.41583668  1
  C  C78  1  0.10041575  -0.00006175  0.30174876  1
  C  C79  1  0.59219116  0.01072858  0.30554298  1
  C  C80  1  0.42009517  0.84112875  0.30831407  1
  C  C81  1  0.89600139  0.79059012  0.29736755  1
  C  C82  1  0.50148655  0.18632896  0.30813550  1
  C  C83  1  0.99901067  0.20182394  0.29587409  1
  C  C84  1  0.09238649  0.17391630  0.80585670  1
  C  C85  1  0.59966280  0.20551892  0.80977727  1
  C  C86  1  0.49340641  0.78840942  0.79603197  1
  C  C87  1  0.00371054  0.81901322  0.80829864  1
  C  C88  1  0.38988541  0.99625150  0.79848381  1
  C  C89  1  0.92081656  0.99693082  0.80851046  1
  C  C90  1  0.41073614  0.01324208  0.69464933  1
  C  C91  1  0.91875112  0.99907658  0.69296658  1
  C  C92  1  0.09314730  0.17780271  0.69979152  1
  C  C93  1  0.58294379  0.15170139  0.69444339  1
  C  C94  1  0.00245662  0.82006769  0.69338398  1
  C  C95  1  0.49413751  0.79900432  0.69130661  1
  C  C96  1  0.41750494  0.83538526  0.19262226  1
  C  C97  1  0.91459324  0.81625886  0.19401673  1
  C  C98  1  0.99896401  0.18757481  0.19193360  1
  C  C99  1  0.49984858  0.18299171  0.19346038  1
  C  C100  1  0.08968122  0.00785222  0.19782714  1
  C  C101  1  0.59274050  0.00837353  0.19969160  1
  C  C102  1  0.45985304  0.36596096  0.63693363  1
  C  C103  1  0.96306251  0.37522046  0.63578118  1
  C  C104  1  0.23414839  0.09734132  0.63097791  1
  C  C105  1  0.73583772  0.06340304  0.63847266  1
  C  C106  1  0.30477071  0.54069733  0.63762269  1
  C  C107  1  0.80928061  0.53877147  0.63062541  1
  C  C108  1  0.46356189  0.55310163  0.13630330  1
  C  C109  1  0.96035627  0.55448996  0.13921167  1
  C  C110  1  0.30949199  0.08168399  0.13227354  1
  C  C111  1  0.80720232  0.07199006  0.13978826  1
  C  C112  1  0.23324226  0.39908792  0.14121547  1
  C  C113  1  0.73263613  0.37374440  0.13177506  1
  C  C114  1  0.24124290  0.31273928  0.03363007  1
  C  C115  1  0.70495583  0.28714946  0.02050460  1
  C  C116  1  0.42663839  0.53764712  0.03586329  1
  C  C117  1  0.94246285  0.58705613  0.03781340  1
  C  C118  1  0.34271794  0.13925118  0.03091729  1
  C  C119  1  0.86226636  0.13521798  0.03074043  1
  C  C120  1  0.20512595  0.12401130  0.52038579  1
  C  C121  1  0.74309904  0.17150418  0.53192565  1
  C  C122  1  0.36281550  0.59664625  0.52983637  1
  C  C123  1  0.84263505  0.54587727  0.52934941  1
  C  C124  1  0.44406507  0.30507603  0.53521144  1
  C  C125  1  0.92650890  0.31811403  0.53497547  1
  C  C126  1  0.25367350  0.66105621  0.96921527  1
  C  C127  1  0.77714269  0.69329977  0.97086540  1
  C  C128  1  0.07471845  0.47004001  0.96694078  1
  C  C129  1  0.58843408  0.51367880  0.96661873  1
  C  C130  1  0.15317806  0.82525421  0.97105683  1
  C  C131  1  0.67472603  0.87163742  0.97153654  1
  C  C132  1  0.27789446  0.86414450  0.46933019  1
  C  C133  1  0.75444477  0.84635963  0.46809764  1
  C  C134  1  0.17375347  0.47130690  0.47009335  1
  C  C135  1  0.65219174  0.47834922  0.47024763  1
  C  C136  1  0.09099351  0.66756050  0.46484880  1
  C  C137  1  0.57202622  0.67632550  0.46552563  1
  C  C138  1  0.04092625  0.62231527  0.35514648  1
  C  C139  1  0.55962606  0.66202640  0.36141435  1
  C  C140  1  0.26921572  0.89207830  0.36669745  1
  C  C141  1  0.77427307  0.91504840  0.36730397  1
  C  C142  1  0.16891102  0.44637804  0.36614782  1
  C  C143  1  0.69232747  0.46642553  0.36117303  1
  C  C144  1  0.06205009  0.46031476  0.86295356  1
  C  C145  1  0.53708158  0.45638911  0.85753139  1
  C  C146  1  0.19126583  0.91691234  0.86210925  1
  C  C147  1  0.66707714  0.87977269  0.86739145  1
  C  C148  1  0.27300746  0.63053026  0.86857869  1
  C  C149  1  0.76913626  0.64879071  0.86820572  1
  C  C150  1  0.01610213  0.82753152  0.42489637  1
  C  C151  1  0.51493865  0.83035272  0.41629380  1
  C  C152  1  0.40520356  0.98072438  0.41223556  1
  C  C153  1  0.89343850  0.98588838  0.42967453  1
  C  C154  1  0.09087474  0.19792835  0.42601861  1
  C  C155  1  0.57728014  0.17304169  0.41118662  1
  C  C156  1  0.01686571  0.20242274  0.91748438  1
  C  C157  1  0.51442437  0.20187877  0.92884919  1
  C  C158  1  0.07665062  0.98002354  0.91336991  1
  C  C159  1  0.58941428  0.97403487  0.92730895  1
  C  C160  1  0.39263161  0.80212810  0.93042427  1
  C  C161  1  0.90484390  0.83300192  0.91377961  1
  C  C162  1  0.51347786  0.19498359  0.59196808  1
  C  C163  1  0.99135622  0.17675065  0.58354694  1
  C  C164  1  0.07642631  0.00401159  0.59441187  1
  C  C165  1  0.59147434  0.00605416  0.58714568  1
  C  C166  1  0.41760178  0.85503517  0.59839894  1
  C  C167  1  0.90629378  0.80523633  0.58376540  1
  C  C168  1  0.49242104  0.80884694  0.08416407  1
  C  C169  1  0.01383716  0.83392769  0.09598736  1
  C  C170  1  0.40627783  0.00790908  0.08564111  1
  C  C171  1  0.91683188  0.98474968  0.09726385  1
  C  C172  1  0.08958858  0.17540132  0.09009334  1
  C  C173  1  0.57651744  0.15128230  0.09517646  1
  C  C174  1  0.35019575  0.16266151  0.74371106  1
  C  C175  1  0.86574768  0.17588588  0.75337238  1
  C  C176  1  0.22275549  0.29340391  0.75497640  1
  C  C177  1  0.73479452  0.31206315  0.74729689  1
  C  C178  1  0.42603205  0.53062779  0.74354925  1
  C  C179  1  0.91822803  0.52413677  0.75229352  1
  C  C180  1  0.36230436  0.55104010  0.25297276  1
  C  C181  1  0.85358131  0.54444842  0.24257742  1
  C  C182  1  0.41434797  0.30684921  0.25224108  1
  C  C183  1  0.92564276  0.31260866  0.24276408  1
  C  C184  1  0.22636206  0.13954929  0.24569341  1
  C  C185  1  0.72268848  0.15343425  0.25485071  1
  C  C186  1  0.31832880  0.49664433  0.93487269  1
  C  C187  1  0.83086919  0.52610963  0.92455339  1
  C  C188  1  0.41834409  0.35205194  0.93977212  1
  C  C189  1  0.93837601  0.35409841  0.92119849  1
  C  C190  1  0.24529129  0.15065896  0.93783683  1
  C  C191  1  0.74073186  0.13960445  0.91840851  1
  C  C192  1  0.33066408  0.13914858  0.42310944  1
  C  C193  1  0.81858598  0.14062598  0.43326955  1
  C  C194  1  0.24234077  0.33786842  0.41841935  1
  C  C195  1  0.74589211  0.33960743  0.43673142  1
  C  C196  1  0.43537219  0.52115654  0.41900356  1
  C  C197  1  0.91974674  0.48515886  0.43697383  1
  C  C198  1  0.16602519  0.50158012  0.06199172  1
  C  C199  1  0.65235498  0.48453104  0.06881035  1
  C  C200  1  0.08090007  0.66861711  0.07652932  1
  C  C201  1  0.57434146  0.67228291  0.06740437  1
  C  C202  1  0.25612880  0.84865877  0.06655324  1
  C  C203  1  0.74850569  0.81628736  0.06867964  1
  C  C204  1  0.15161841  0.82173378  0.56947620  1
  C  C205  1  0.66625276  0.83167211  0.55794706  1
  C  C206  1  0.24932209  0.68328620  0.56714981  1
  C  C207  1  0.75597827  0.66320126  0.56454018  1
  C  C208  1  0.07386846  0.47643341  0.56673795  1
  C  C209  1  0.58117901  0.49726560  0.57540718  1
  C  C210  1  0.13759255  0.83226480  0.24117171  1
  C  C211  1  0.64002945  0.84679339  0.25205122  1
  C  C212  1  0.27104526  0.71201521  0.24894457  1
  C  C213  1  0.77494402  0.69689581  0.23586252  1
  C  C214  1  0.07687242  0.45860656  0.23831542  1
  C  C215  1  0.58141929  0.47901211  0.24726058  1
  C  C216  1  0.13938604  0.43308677  0.75219334  1
  C  C217  1  0.63533370  0.45676926  0.73737684  1
  C  C218  1  0.08527573  0.68972172  0.74701780  1
  C  C219  1  0.57721310  0.70005018  0.73954778  1
  C  C220  1  0.27117400  0.85302735  0.73538055  1
  C  C221  1  0.77241837  0.83148875  0.74931021  1
