# generated using pymatgen
data_Cu5NiC28
_symmetry_space_group_name_H-M   'P 1'
_cell_length_a   9.24485679
_cell_length_b   9.29874700
_cell_length_c   23.88613638
_cell_angle_alpha   90.10529013
_cell_angle_beta   90.04719057
_cell_angle_gamma   119.86328926
_symmetry_Int_Tables_number   1
_chemical_formula_structural   Cu5NiC28
_chemical_formula_sum   'Cu15 Ni3 C84'
_cell_volume   1780.72224844
_cell_formula_units_Z   3
loop_
 _symmetry_equiv_pos_site_id
 _symmetry_equiv_pos_as_xyz
  1  'x, y, z'
loop_
 _atom_site_type_symbol
 _atom_site_label
 _atom_site_symmetry_multiplicity
 _atom_site_fract_x
 _atom_site_fract_y
 _atom_site_fract_z
 _atom_site_occupancy
  C  C0  1  0.99233144  0.00236880  0.36761954  1
  C  C1  1  0.00205653  0.00262666  0.86338987  1
  C  C2  1  0.68115205  0.33771729  0.68025943  1
  C  C3  1  0.65546655  0.33585013  0.18364748  1
  C  C4  1  0.65272284  0.32921570  0.98793415  1
  C  C5  1  0.33100707  0.66383126  0.80230178  1
  C  C6  1  -0.00011808  0.00622060  0.63796686  1
  C  C7  1  0.00727968  0.00636118  0.14947133  1
  C  C8  1  0.67538673  0.32224973  0.47867165  1
  C  C9  1  0.33331798  0.66234776  0.02434398  1
  C  C10  1  0.33752263  0.66958012  0.52264235  1
  C  C11  1  0.34050653  0.67494431  0.31444223  1
  Ni  Ni12  1  0.96698806  0.33402036  0.57923332  1
  Ni  Ni13  1  0.35247341  0.33061870  0.08420201  1
  Ni  Ni14  1  0.59746627  0.95179597  0.41923570  1
  Cu  Cu15  1  0.27576432  0.97673929  0.25139946  1
  Cu  Cu16  1  0.70170578  0.72117969  0.25155141  1
  Cu  Cu17  1  0.01762460  0.29651573  0.25028588  1
  Cu  Cu18  1  0.27521767  0.27350561  0.74390610  1
  Cu  Cu19  1  -0.00049413  0.72721452  0.74485288  1
  Cu  Cu20  1  0.72401722  0.99759173  0.74456549  1
  Cu  Cu21  1  0.36531557  0.03502655  0.57904393  1
  Cu  Cu22  1  0.67016086  0.63554864  0.57974462  1
  Cu  Cu23  1  0.98299084  0.65354427  0.08461438  1
  Cu  Cu24  1  0.67081392  0.01672091  0.08446798  1
  Cu  Cu25  1  0.61117374  0.66779618  0.92069488  1
  Cu  Cu26  1  0.05439682  0.39137552  0.92123716  1
  Cu  Cu27  1  0.33552517  0.94302359  0.92046217  1
  Cu  Cu28  1  0.35874312  0.40816397  0.41945316  1
  Cu  Cu29  1  0.04842048  0.64409391  0.41915579  1
  C  C30  1  0.20431952  0.00835127  0.30120936  1
  C  C31  1  0.80517577  0.79765429  0.30134328  1
  C  C32  1  0.98731522  0.19443034  0.30068959  1
  C  C33  1  0.19942853  0.18521318  0.79683759  1
  C  C34  1  0.99127813  0.80657801  0.79768137  1
  C  C35  1  0.81440303  0.01233880  0.79728426  1
  C  C36  1  0.82035962  0.99079995  0.69515041  1
  C  C37  1  0.17081132  0.17631734  0.69456406  1
  C  C38  1  0.00600194  0.82730840  0.69524473  1
  C  C39  1  0.78090492  0.82617223  0.20142758  1
  C  C40  1  0.03822934  0.20575426  0.20084965  1
  C  C41  1  0.16655994  0.95450369  0.20141548  1
  C  C42  1  0.89849558  0.37881153  0.63474210  1
  C  C43  1  0.46589846  0.09219731  0.63020013  1
  C  C44  1  0.62657778  0.53463280  0.63068179  1
  C  C45  1  0.91688462  0.53829132  0.13211410  1
  C  C46  1  0.62531587  0.08561128  0.13225264  1
  C  C47  1  0.48040929  0.37652895  0.13656202  1
  C  C48  1  0.42870494  0.28378638  0.03059433  1
  C  C49  1  0.87373107  0.58761059  0.03534399  1
  C  C50  1  0.71768392  0.12725606  0.03569018  1
  C  C51  1  0.44836041  0.15407165  0.53236155  1
  C  C52  1  0.70279131  0.55313471  0.53268522  1
  C  C53  1  0.82772938  0.30012010  0.52850063  1
  C  C54  1  0.51421402  0.67488527  0.96949293  1
  C  C55  1  0.15919633  0.49005286  0.96982592  1
  C  C56  1  0.32925243  0.84264008  0.96963397  1
  C  C57  1  0.49903829  0.83478760  0.47162039  1
  C  C58  1  0.33240135  0.48850560  0.46875278  1
  C  C59  1  0.15297754  0.66477229  0.46828018  1
  C  C60  1  0.12435290  0.61768997  0.36729521  1
  C  C61  1  0.48419403  0.85759066  0.36200155  1
  C  C62  1  0.37501988  0.50600212  0.36725970  1
  C  C63  1  0.12993665  0.47877713  0.86805416  1
  C  C64  1  0.34291239  0.86283863  0.86765864  1
  C  C65  1  0.52124110  0.65366514  0.86783508  1
  C  C66  1  0.03364410  0.79318225  0.41371693  1
  C  C67  1  0.78006969  0.97230234  0.41326304  1
  C  C68  1  0.21156638  0.24206422  0.41361339  1
  C  C69  1  0.05006226  0.22992554  0.92196536  1
  C  C70  1  0.18121493  0.95414271  0.92117625  1
  C  C71  1  0.77303234  0.82427294  0.92133708  1
  C  C72  1  0.98200884  0.16639438  0.59250134  1
  C  C73  1  0.19744670  0.01911430  0.58860760  1
  C  C74  1  0.82229686  0.80186348  0.59032830  1
  C  C75  1  0.00157248  0.81775381  0.10012914  1
  C  C76  1  0.81194579  0.98918566  0.09988685  1
  C  C77  1  0.17059881  0.17205524  0.10279564  1
  C  C78  1  0.69980811  0.14123205  0.73996341  1
  C  C79  1  0.44133731  0.29379994  0.73812814  1
  C  C80  1  0.85045982  0.56180063  0.74156032  1
  C  C81  1  0.67680022  0.55338112  0.24320838  1
  C  C82  1  0.87712433  0.32364101  0.23829334  1
  C  C83  1  0.44618420  0.11308699  0.24070799  1
  C  C84  1  0.63544130  0.52408496  0.92597067  1
  C  C85  1  0.88761856  0.36977042  0.92744379  1
  C  C86  1  0.48496371  0.10837447  0.92437698  1
  C  C87  1  0.61353312  0.13558189  0.43059015  1
  C  C88  1  0.51187889  0.39812291  0.42781299  1
  C  C89  1  0.87980575  0.49406290  0.42673116  1
  C  C90  1  0.32511856  0.48735650  0.06847457  1
  C  C91  1  0.15360617  0.68391268  0.07070214  1
  C  C92  1  0.52569706  0.85087357  0.07010460  1
  C  C93  1  0.33401060  0.86583425  0.56562765  1
  C  C94  1  0.53022392  0.66633131  0.56682932  1
  C  C95  1  0.14939015  0.48362844  0.56143273  1
  C  C96  1  0.27967520  0.81705783  0.25888603  1
  C  C97  1  0.53223911  0.70663465  0.25998980  1
  C  C98  1  0.17436577  0.45919896  0.25771431  1
  C  C99  1  0.28026738  0.43532880  0.74353738  1
  C  C100  1  0.15391004  0.71598289  0.74452354  1
  C  C101  1  0.56203908  0.84119348  0.74413623  1
