# generated using pymatgen
data_Cu3Ni9C70
_symmetry_space_group_name_H-M   'P 1'
_cell_length_a   18.48482218
_cell_length_b   9.21323861
_cell_length_c   22.52762879
_cell_angle_alpha   89.98084358
_cell_angle_beta   89.55884754
_cell_angle_gamma   119.96411585
_symmetry_Int_Tables_number   1
_chemical_formula_structural   Cu3Ni9C70
_chemical_formula_sum   'Cu9 Ni27 C210'
_cell_volume   3323.63025883
_cell_formula_units_Z   3
loop_
 _symmetry_equiv_pos_site_id
 _symmetry_equiv_pos_as_xyz
  1  'x, y, z'
loop_
 _atom_site_type_symbol
 _atom_site_label
 _atom_site_symmetry_multiplicity
 _atom_site_fract_x
 _atom_site_fract_y
 _atom_site_fract_z
 _atom_site_occupancy
  C  C0  1  0.82464194  0.01554658  0.25601675  1
  C  C1  1  0.17512142  0.35230837  0.25528475  1
  C  C2  1  0.69221454  0.36875471  0.25230041  1
  C  C3  1  0.00027366  0.62974653  0.24704841  1
  C  C4  1  0.49572697  0.63704902  0.24647856  1
  C  C5  1  0.32303901  0.63110551  0.75196393  1
  C  C6  1  0.99319771  0.35117684  0.73797022  1
  C  C7  1  0.50119809  0.37209719  0.74391080  1
  C  C8  1  0.18985349  0.01418552  0.74779882  1
  C  C9  1  0.68219438  0.00643910  0.74934177  1
  C  C10  1  0.14518987  0.31817451  0.58127789  1
  C  C11  1  0.65409219  0.32411704  0.58122487  1
  C  C12  1  0.33842932  0.99147612  0.58897762  1
  C  C13  1  0.83427112  0.97464029  0.58335695  1
  C  C14  1  0.14946465  0.98188225  0.08134199  1
  C  C15  1  0.64901236  0.97169693  0.07746140  1
  C  C16  1  0.33392980  0.68933891  0.08198600  1
  C  C17  1  0.83865271  0.68729180  0.08937720  1
  C  C18  1  0.47904233  0.67418102  0.91626094  1
  C  C19  1  0.97797662  0.67673179  0.92633024  1
  C  C20  1  0.34295132  0.02295145  0.90639992  1
  C  C21  1  0.84431625  0.02372265  0.90744353  1
  C  C22  1  0.17462368  0.29733607  0.91092566  1
  C  C23  1  0.66875585  0.28456350  0.91103380  1
  C  C24  1  0.48312771  0.28863087  0.43029968  1
  C  C25  1  0.97687057  0.27912114  0.42097870  1
  C  C26  1  0.16732492  0.05349883  0.41513324  1
  C  C27  1  0.67613183  0.05212244  0.41770639  1
  C  C28  1  0.34644905  0.66745808  0.41232980  1
  C  C29  1  0.84380651  0.66316225  0.41986802  1
  C  C30  1  0.99644505  0.98987655  0.50542076  1
  C  C31  1  0.50758432  0.01220086  0.50865016  1
  C  C32  1  0.00444239  0.99869551  0.00674350  1
  C  C33  1  0.50359074  0.00040797  0.00080588  1
  C  C34  1  0.32847558  0.33471052  0.82497357  1
  C  C35  1  0.82025941  0.33121918  0.82325682  1
  C  C36  1  0.31980942  0.30430954  0.33146425  1
  C  C37  1  0.82811311  0.32222941  0.33161063  1
  C  C38  1  0.15550537  0.65163721  0.16700538  1
  C  C39  1  0.66302572  0.65467425  0.16401652  1
  C  C40  1  0.16167649  0.66965145  0.66322354  1
  C  C41  1  0.65908487  0.66117666  0.66414019  1
  C  C42  1  0.00279354  0.00775518  0.35155246  1
  C  C43  1  0.49928018  0.00439088  0.35168282  1
  C  C44  1  0.99831569  0.99526353  0.84951008  1
  C  C45  1  0.50295194  0.99743640  0.85017994  1
  C  C46  1  0.33664006  0.32782401  0.67851403  1
  C  C47  1  0.83730829  0.34579406  0.17902771  1
  C  C48  1  0.33076889  0.33737227  0.98807942  1
  C  C49  1  0.82471912  0.33677303  0.98463010  1
  C  C50  1  0.32641756  0.31462815  0.48486324  1
  C  C51  1  0.83104212  0.33285795  0.49062136  1
  C  C52  1  0.67314453  0.67556956  0.31318383  1
  C  C53  1  0.17231907  0.66838375  0.81090919  1
  C  C54  1  0.99677392  0.00993543  0.64646841  1
  C  C55  1  0.51376794  0.02226792  0.65786901  1
  C  C56  1  0.01251730  0.00580657  0.15761994  1
  C  C57  1  0.50320081  0.98806323  0.14965285  1
  C  C58  1  0.82575840  0.31967135  0.67600526  1
  C  C59  1  0.32723709  0.35103030  0.18185316  1
  C  C60  1  0.16854066  0.67420608  0.02001685  1
  C  C61  1  0.66504264  0.66289997  0.01934397  1
  C  C62  1  0.16377851  0.66529795  0.51975706  1
  C  C63  1  0.67869743  0.66223860  0.52613282  1
  C  C64  1  0.17855936  0.67235293  0.30697258  1
  C  C65  1  0.67985117  0.68845143  0.80499672  1
  Ni  Ni66  1  0.15776055  0.00420191  0.25103325  1
  Ni  Ni67  1  0.64734578  0.99560338  0.24922837  1
  Ni  Ni68  1  0.35406381  0.70554424  0.24878654  1
  Ni  Ni69  1  0.85521526  0.71010884  0.24807312  1
  Ni  Ni70  1  0.00351128  0.30093302  0.25259799  1
  Ni  Ni71  1  0.14477315  0.29275393  0.74805120  1
  Ni  Ni72  1  0.65774500  0.31215577  0.75221983  1
  Ni  Ni73  1  0.50375607  0.70665037  0.75305314  1
  Ni  Ni74  1  0.35515876  0.00057044  0.74839251  1
  Ni  Ni75  1  0.85428797  0.01442355  0.74969551  1
  Ni  Ni76  1  0.49113019  0.33005272  0.58177316  1
  Ni  Ni77  1  0.98456119  0.34012102  0.58494081  1
  Ni  Ni78  1  0.17213672  0.01432494  0.58371163  1
  Ni  Ni79  1  0.67697133  0.01914315  0.58337059  1
  Ni  Ni80  1  0.84060402  0.63824744  0.58260941  1
  Ni  Ni81  1  0.48532716  0.63220463  0.08567296  1
  Ni  Ni82  1  0.99119522  0.65174729  0.08170985  1
  Ni  Ni83  1  0.17741587  0.33630974  0.08398982  1
  Ni  Ni84  1  0.67098975  0.32907481  0.08423167  1
  Ni  Ni85  1  0.31492464  0.66990849  0.92053146  1
  Ni  Ni86  1  0.80493155  0.66481054  0.91527874  1
  Ni  Ni87  1  0.16691744  0.96037384  0.91705177  1
  Ni  Ni88  1  0.66785789  0.94797651  0.91640662  1
  Ni  Ni89  1  0.30475955  0.94611198  0.41580980  1
  Ni  Ni90  1  0.81495885  0.96237856  0.42079930  1
  Ni  Ni91  1  0.16824595  0.38782348  0.41641107  1
  Ni  Ni92  1  0.66741982  0.37274736  0.41733121  1
  Cu  Cu93  1  0.49236405  0.28895184  0.24562479  1
  Cu  Cu94  1  0.99324283  0.69514616  0.74706677  1
  Cu  Cu95  1  0.33221085  0.64484913  0.58070798  1
  Cu  Cu96  1  0.33483217  0.03382878  0.08451240  1
  Cu  Cu97  1  0.83305637  0.02029663  0.08075424  1
  Cu  Cu98  1  0.02219075  0.37792762  0.92099600  1
  Cu  Cu99  1  0.52650296  0.38655323  0.91693586  1
  Cu  Cu100  1  0.02793749  0.66488805  0.41495131  1
  Cu  Cu101  1  0.52057397  0.66531476  0.41906761  1
  C  C102  1  0.12804915  0.06148522  0.31034389  1
  C  C103  1  0.60978404  0.02713995  0.31029268  1
  C  C104  1  0.40854156  0.76611563  0.30880183  1
  C  C105  1  0.90512131  0.78758456  0.30944111  1
  C  C106  1  0.48244896  0.20438784  0.30400169  1
  C  C107  1  0.98623986  0.20086479  0.31499791  1
  C  C108  1  0.11109280  0.19633284  0.81216503  1
  C  C109  1  0.62391768  0.19861502  0.81237794  1
  C  C110  1  0.48558933  0.76801944  0.81633918  1
  C  C111  1  0.98465281  0.76112621  0.80608702  1
  C  C112  1  0.40245024  0.01946195  0.81120034  1
  C  C113  1  0.90614660  0.05032749  0.81122511  1
  C  C114  1  0.41301309  0.99253238  0.69313100  1
  C  C115  1  0.90598871  0.99365437  0.69444128  1
  C  C116  1  0.08220252  0.16809506  0.69574176  1
  C  C117  1  0.59082504  0.21057711  0.69722912  1
  C  C118  1  0.00142097  0.80902679  0.69916334  1
  C  C119  1  0.51870537  0.85249628  0.70301553  1
  C  C120  1  0.40402245  0.82507075  0.19187700  1
  C  C121  1  0.91239871  0.83254368  0.19152585  1
  C  C122  1  0.01850565  0.18589948  0.20161605  1
  C  C123  1  0.49934067  0.19025923  0.19736287  1
  C  C124  1  0.09123707  0.97334954  0.19591873  1
  C  C125  1  0.58395572  0.99280111  0.19470608  1
  C  C126  1  0.45229151  0.36521186  0.64063049  1
  C  C127  1  0.93101211  0.35617667  0.64108796  1
  C  C128  1  0.23806043  0.09055120  0.63853842  1
  C  C129  1  0.74708770  0.13045789  0.63687948  1
  C  C130  1  0.31876852  0.53849864  0.63361142  1
  C  C131  1  0.82148812  0.48715854  0.63122729  1
  C  C132  1  0.42935424  0.50488669  0.14107966  1
  C  C133  1  0.95367958  0.53948352  0.14088381  1
  C  C134  1  0.32424375  0.12990426  0.13246581  1
  C  C135  1  0.81866460  0.09854444  0.13365354  1
  C  C136  1  0.24930962  0.36693567  0.13701036  1
  C  C137  1  0.73576118  0.37952812  0.13915972  1
  C  C138  1  0.21256075  0.28563850  0.02581524  1
  C  C139  1  0.70728364  0.27327623  0.02676703  1
  C  C140  1  0.43052413  0.56846947  0.02600293  1
  C  C141  1  0.92837040  0.56558977  0.02454186  1
  C  C142  1  0.34804399  0.12095923  0.02661747  1
  C  C143  1  0.84111678  0.12056262  0.02693935  1
  C  C144  1  0.21021979  0.14067593  0.52588010  1
  C  C145  1  0.70960990  0.13781282  0.52447816  1
  C  C146  1  0.34063838  0.56190271  0.52684296  1
  C  C147  1  0.85836614  0.58460514  0.51850195  1
  C  C148  1  0.42743917  0.28671972  0.52481802  1
  C  C149  1  0.93074313  0.29349029  0.52478992  1
  C  C150  1  0.25589338  0.67084289  0.97741357  1
  C  C151  1  0.75205180  0.66826666  0.97503621  1
  C  C152  1  0.07607812  0.47381780  0.97144922  1
  C  C153  1  0.57554314  0.47923622  0.97038799  1
  C  C154  1  0.16524496  0.83747944  0.97318936  1
  C  C155  1  0.66157230  0.83454409  0.97627591  1
  C  C156  1  0.25227397  0.83623500  0.47480214  1
  C  C157  1  0.75758447  0.84024240  0.47716123  1
  C  C158  1  0.16238574  0.48971605  0.47546763  1
  C  C159  1  0.66744732  0.49025206  0.47353217  1
  C  C160  1  0.07595968  0.67082862  0.46894363  1
  C  C161  1  0.57407471  0.67758619  0.46847611  1
  C  C162  1  0.06824362  0.65417727  0.36001022  1
  C  C163  1  0.55342613  0.64543355  0.36088669  1
  C  C164  1  0.24949111  0.84361251  0.35706377  1
  C  C165  1  0.76304697  0.88726331  0.35904685  1
  C  C166  1  0.17227629  0.49744798  0.35636102  1
  C  C167  1  0.66862596  0.46138006  0.35419216  1
  C  C168  1  0.05581526  0.46733489  0.86417033  1
  C  C169  1  0.56408903  0.47818999  0.86173083  1
  C  C170  1  0.17108647  0.87551873  0.85492611  1
  C  C171  1  0.67246419  0.84716571  0.85721119  1
  C  C172  1  0.26178479  0.63965626  0.85979407  1
  C  C173  1  0.74884867  0.65466874  0.85752621  1
  C  C174  1  0.02311337  0.82144002  0.41655142  1
  C  C175  1  0.51266300  0.81976834  0.41867870  1
  C  C176  1  0.39611635  0.95940596  0.41670558  1
  C  C177  1  0.90367142  0.96164474  0.42359707  1
  C  C178  1  0.08679698  0.20024445  0.42046950  1
  C  C179  1  0.58034740  0.18928162  0.42325664  1
  C  C180  1  0.01665226  0.21096359  0.92107827  1
  C  C181  1  0.52217306  0.22079302  0.91874204  1
  C  C182  1  0.08096714  0.97177837  0.92313775  1
  C  C183  1  0.58614225  0.97201838  0.92090692  1
  C  C184  1  0.40285851  0.84760471  0.92478463  1
  C  C185  1  0.89654900  0.83456600  0.91748142  1
  C  C186  1  0.50086175  0.16128544  0.59071917  1
  C  C187  1  0.99627219  0.17302206  0.59576381  1
  C  C188  1  0.08172826  0.00163939  0.59556859  1
  C  C189  1  0.58735712  0.00608259  0.59906750  1
  C  C190  1  0.40483774  0.81370082  0.58564938  1
  C  C191  1  0.91263324  0.82785128  0.59866901  1
  C  C192  1  0.49422410  0.82185900  0.09591248  1
  C  C193  1  0.00118956  0.84000095  0.08946993  1
  C  C194  1  0.40456099  0.00064322  0.09289066  1
  C  C195  1  0.90519717  0.99710674  0.08560275  1
  C  C196  1  0.08828061  0.17026538  0.09838872  1
  C  C197  1  0.57792519  0.16235944  0.09610545  1
  C  C198  1  0.34268396  0.16392784  0.74635450  1
  C  C199  1  0.83929066  0.17512161  0.73973768  1
  C  C200  1  0.24007797  0.32780557  0.74101305  1
  C  C201  1  0.74668048  0.32189339  0.73584389  1
  C  C202  1  0.42163610  0.52555514  0.74204727  1
  C  C203  1  0.92082336  0.52346581  0.74195272  1
  C  C204  1  0.33942415  0.51063149  0.23854438  1
  C  C205  1  0.84231245  0.52178343  0.24541429  1
  C  C206  1  0.41968409  0.31631105  0.23976679  1
  C  C207  1  0.92134223  0.31692422  0.24175926  1
  C  C208  1  0.24855320  0.17071689  0.23145881  1
  C  C209  1  0.74118830  0.15116648  0.24105519  1
  C  C210  1  0.32850587  0.50756777  0.92270434  1
  C  C211  1  0.81441667  0.49639263  0.91525091  1
  C  C212  1  0.44062610  0.36089877  0.92235910  1
  C  C213  1  0.93681605  0.35437296  0.92743742  1
  C  C214  1  0.25322894  0.14188828  0.92065479  1
  C  C215  1  0.75475487  0.13062896  0.91665211  1
  C  C216  1  0.31365256  0.13267605  0.41450324  1
  C  C217  1  0.82839513  0.15170508  0.42300543  1
  C  C218  1  0.25531253  0.38005080  0.41559312  1
  C  C219  1  0.75228589  0.35794805  0.41799837  1
  C  C220  1  0.43457364  0.51650891  0.42412514  1
  C  C221  1  0.94296136  0.51588767  0.41810672  1
  C  C222  1  0.17832566  0.51459127  0.07982427  1
  C  C223  1  0.66510546  0.49943239  0.07170008  1
  C  C224  1  0.08635439  0.67784252  0.07183810  1
  C  C225  1  0.58127785  0.66741979  0.08098413  1
  C  C226  1  0.25489102  0.86545981  0.08237759  1
  C  C227  1  0.75465085  0.84894232  0.07718411  1
  C  C228  1  0.16539284  0.83112166  0.57108914  1
  C  C229  1  0.67758900  0.84286104  0.57957068  1
  C  C230  1  0.25412501  0.65899854  0.57752787  1
  C  C231  1  0.75179184  0.64643344  0.58117472  1
  C  C232  1  0.08104551  0.49852746  0.57911769  1
  C  C233  1  0.58508368  0.49257609  0.57144916  1
  C  C234  1  0.15647552  0.82580321  0.25584353  1
  C  C235  1  0.64052557  0.81282890  0.24358834  1
  C  C236  1  0.25909251  0.67731437  0.25260121  1
  C  C237  1  0.76409162  0.70066916  0.24292437  1
  C  C238  1  0.08921148  0.48770680  0.25374571  1
  C  C239  1  0.57042835  0.45670139  0.24579891  1
  C  C240  1  0.14025550  0.46549541  0.74321282  1
  C  C241  1  0.65651412  0.48922457  0.75668788  1
  C  C242  1  0.07146396  0.68324767  0.74731297  1
  C  C243  1  0.58962584  0.69163568  0.75435860  1
  C  C244  1  0.26396807  0.82792853  0.74258616  1
  C  C245  1  0.75994644  0.84412348  0.75339357  1
