# generated using pymatgen
data_Cu6NiC24
_symmetry_space_group_name_H-M   'P 1'
_cell_length_a   5.44970988
_cell_length_b   5.16384324
_cell_length_c   15.82839448
_cell_angle_alpha   90.35639519
_cell_angle_beta   101.10047114
_cell_angle_gamma   90.32445872
_symmetry_Int_Tables_number   1
_chemical_formula_structural   Cu6NiC24
_chemical_formula_sum   'Cu6 Ni1 C24'
_cell_volume   437.08120651
_cell_formula_units_Z   1
loop_
 _symmetry_equiv_pos_site_id
 _symmetry_equiv_pos_as_xyz
  1  'x, y, z'
loop_
 _atom_site_type_symbol
 _atom_site_label
 _atom_site_symmetry_multiplicity
 _atom_site_fract_x
 _atom_site_fract_y
 _atom_site_fract_z
 _atom_site_occupancy
  Ni  Ni0  1  0.66545900  0.98807600  0.11776200  1
  Cu  Cu1  1  0.00675100  0.02371100  0.98463600  1
  Cu  Cu2  1  0.15614600  0.49123000  0.33870800  1
  Cu  Cu3  1  0.27542800  0.02437500  0.66270000  1
  Cu  Cu4  1  0.46911900  0.49214600  0.98113700  1
  Cu  Cu5  1  0.65313400  0.04359400  0.34248000  1
  Cu  Cu6  1  0.77703400  0.47992000  0.66292400  1
  C  C7  1  0.02002800  0.20140600  0.63851100  1
  C  C8  1  0.19235100  0.30922800  0.96408200  1
  C  C9  1  0.38435400  0.21697600  0.32028800  1
  C  C10  1  0.52039400  0.30021600  0.63841700  1
  C  C11  1  0.86765000  0.26768600  0.32002900  1
  C  C12  1  0.14999100  0.72135100  0.69565100  1
  C  C13  1  0.00284600  0.10782900  0.10071400  1
  C  C14  1  0.21962800  0.42238800  0.45054900  1
  C  C15  1  0.39533800  0.11247500  0.77159100  1
  C  C16  1  0.10209100  0.56838700  0.22539200  1
  C  C17  1  0.31127200  0.89878600  0.56185700  1
  C  C18  1  0.47860200  0.65883100  0.88462700  1
  C  C19  1  0.68953100  0.21450000  0.95251300  1
  C  C20  1  0.32426400  0.82097100  0.03202600  1
  C  C21  1  0.45316400  0.71840600  0.35721200  1
  C  C22  1  0.65234200  0.78271500  0.69526100  1
  C  C23  1  0.55421700  0.34459900  0.09654000  1
  C  C24  1  0.72066700  0.06655400  0.45569000  1
  C  C25  1  0.89598200  0.39361300  0.77159200  1
  C  C26  1  0.60825400  0.89295200  0.22498800  1
  C  C27  1  0.81425300  0.59684900  0.56156100  1
  C  C28  1  0.97194100  0.84108400  0.88947900  1
  C  C29  1  0.77534500  0.73475700  0.03176800  1
  C  C30  1  0.95194800  0.77689200  0.35860600  1
