# generated using pymatgen
data_Cu(NiC2)6
_symmetry_space_group_name_H-M   'P 1'
_cell_length_a   6.32853568
_cell_length_b   6.32853568
_cell_length_c   6.32853541
_cell_angle_alpha   98.72077404
_cell_angle_beta   98.72077404
_cell_angle_gamma   98.72077373
_symmetry_Int_Tables_number   1
_chemical_formula_structural   Cu(NiC2)6
_chemical_formula_sum   'Cu1 Ni6 C12'
_cell_volume   243.64678103
_cell_formula_units_Z   1
loop_
 _symmetry_equiv_pos_site_id
 _symmetry_equiv_pos_as_xyz
  1  'x, y, z'
loop_
 _atom_site_type_symbol
 _atom_site_label
 _atom_site_symmetry_multiplicity
 _atom_site_fract_x
 _atom_site_fract_y
 _atom_site_fract_z
 _atom_site_occupancy
  Ni  Ni0  1  0.85957100  0.39308500  0.68110300  1
  Ni  Ni1  1  0.14042900  0.60691500  0.31889700  1
  Ni  Ni2  1  0.60691500  0.31889700  0.14042900  1
  Ni  Ni3  1  0.39308500  0.68110300  0.85957100  1
  Ni  Ni4  1  0.68110300  0.85957100  0.39308500  1
  Ni  Ni5  1  0.31889700  0.14042900  0.60691500  1
  Cu  Cu6  1  0.00000000  0.00000000  0.00000000  1
  C  C7  1  0.30064200  0.08624800  0.95933000  1
  C  C8  1  0.04067000  0.69935800  0.91375200  1
  C  C9  1  0.08624800  0.95933000  0.30064200  1
  C  C10  1  0.82426800  0.58109600  0.40453100  1
  C  C11  1  0.59546900  0.17573200  0.41890400  1
  C  C12  1  0.58109600  0.40453100  0.82426800  1
  C  C13  1  0.40453100  0.82426800  0.58109600  1
  C  C14  1  0.95933000  0.30064200  0.08624800  1
  C  C15  1  0.91375200  0.04067000  0.69935800  1
  C  C16  1  0.41890400  0.59546900  0.17573200  1
  C  C17  1  0.69935800  0.91375200  0.04067000  1
  C  C18  1  0.17573200  0.41890400  0.59546900  1
