# generated using pymatgen
data_Cu2NiC33
_symmetry_space_group_name_H-M   'P 1'
_cell_length_a   8.56176611
_cell_length_b   8.54827794
_cell_length_c   22.11415697
_cell_angle_alpha   89.94955681
_cell_angle_beta   89.56089765
_cell_angle_gamma   120.11868586
_symmetry_Int_Tables_number   1
_chemical_formula_structural   Cu2NiC33
_chemical_formula_sum   'Cu6 Ni3 C99'
_cell_volume   1399.91973654
_cell_formula_units_Z   3
loop_
 _symmetry_equiv_pos_site_id
 _symmetry_equiv_pos_as_xyz
  1  'x, y, z'
loop_
 _atom_site_type_symbol
 _atom_site_label
 _atom_site_symmetry_multiplicity
 _atom_site_fract_x
 _atom_site_fract_y
 _atom_site_fract_z
 _atom_site_occupancy
  C  C0  1  0.00247370  0.00197027  0.49825218  1
  C  C1  1  0.99734354  0.99091861  0.99925497  1
  C  C2  1  0.66752524  0.31565126  0.82529354  1
  C  C3  1  0.65047447  0.32157860  0.33591642  1
  C  C4  1  0.31675857  0.66968036  0.16550640  1
  C  C5  1  0.34114062  0.67266060  0.66450032  1
  C  C6  1  0.01405525  0.00484233  0.35148372  1
  C  C7  1  0.99684908  0.00139059  0.85245733  1
  C  C8  1  0.66636478  0.32828437  0.68532199  1
  C  C9  1  0.66287446  0.33079159  0.48366311  1
  C  C10  1  0.32431918  0.66749929  0.02393382  1
  C  C11  1  0.33499365  0.67045687  0.52182237  1
  Ni  Ni12  1  0.30057094  0.00167015  0.25122439  1
  Ni  Ni13  1  0.71003484  0.00327887  0.75378156  1
  Ni  Ni14  1  0.94967562  0.62032989  0.08571075  1
  Cu  Cu15  1  0.98488832  0.99394804  0.65023717  1
  Cu  Cu16  1  0.01046608  0.97897309  0.15075605  1
  Cu  Cu17  1  0.66950528  0.32753455  0.18648431  1
  Cu  Cu18  1  0.67626147  0.34810113  0.98110825  1
  Cu  Cu19  1  0.33353417  0.68161208  0.31758160  1
  Cu  Cu20  1  0.33979928  0.67210299  0.81032854  1
  C  C21  1  0.70628151  0.70669116  0.25041796  1
  C  C22  1  0.00200746  0.28675349  0.24848527  1
  C  C23  1  0.28669572  0.29242557  0.75082951  1
  C  C24  1  0.00398052  0.71213562  0.75140810  1
  C  C25  1  0.96217932  0.32741220  0.58478491  1
  C  C26  1  0.36014159  0.03873362  0.58651016  1
  C  C27  1  0.67442645  0.63264635  0.58485857  1
  C  C28  1  0.67682703  0.05036855  0.08373292  1
  C  C29  1  0.37725318  0.32736101  0.08419783  1
  C  C30  1  0.61819157  0.65808550  0.91868573  1
  C  C31  1  0.04343468  0.38067437  0.91771117  1
  C  C32  1  0.34110406  0.96425790  0.91838134  1
  C  C33  1  0.62626795  0.95974380  0.41616727  1
  C  C34  1  0.33367638  0.38610900  0.41467397  1
  C  C35  1  0.03942806  0.66262702  0.41707417  1
  C  C36  1  0.22666509  0.04927988  0.30921932  1
  C  C37  1  0.81526510  0.79072362  0.30283158  1
  C  C38  1  0.96661609  0.17773306  0.30209594  1
  C  C39  1  0.21295366  0.18493282  0.80551390  1
  C  C40  1  0.98884179  0.79688061  0.80610460  1
  C  C41  1  0.81816535  0.02501171  0.81321042  1
  C  C42  1  0.79175313  0.95203546  0.69141363  1
  C  C43  1  0.17343058  0.21208227  0.69537745  1
  C  C44  1  0.05089573  0.83015620  0.69543069  1
  C  C45  1  0.78199738  0.82299836  0.19355659  1
  C  C46  1  0.02950684  0.20316561  0.19171656  1
  C  C47  1  0.17492419  0.95317622  0.18951695  1
  C  C48  1  0.87837883  0.34845119  0.63910314  1
  C  C49  1  0.46840380  0.12333636  0.63948798  1
  C  C50  1  0.65405516  0.52842106  0.63933280  1
  C  C51  1  0.84846011  0.49241535  0.14456593  1
  C  C52  1  0.63188832  0.12331576  0.13836343  1
  C  C53  1  0.48394742  0.34884243  0.13895382  1
  C  C54  1  0.45091969  0.28202078  0.02857430  1
  C  C55  1  0.82365261  0.53933438  0.02411151  1
  C  C56  1  0.70727647  0.16520707  0.02802639  1
  C  C57  1  0.43455248  0.14363738  0.53026489  1
  C  C58  1  0.69790306  0.55225348  0.52943531  1
  C  C59  1  0.85565289  0.29839772  0.52979866  1
  C  C60  1  0.53032352  0.67628882  0.97220875  1
  C  C61  1  0.14659874  0.47086148  0.97087321  1
  C  C62  1  0.31969920  0.85779805  0.97213801  1
  C  C63  1  0.53680117  0.84805237  0.46863714  1
  C  C64  1  0.31820049  0.47713728  0.46746892  1
  C  C65  1  0.15279132  0.68627761  0.46852218  1
  C  C66  1  0.12049208  0.63153805  0.35806187  1
  C  C67  1  0.51425154  0.88068606  0.35789044  1
  C  C68  1  0.36544243  0.50047804  0.35543030  1
  C  C69  1  0.12118703  0.49088712  0.86017639  1
  C  C70  1  0.37216953  0.88578098  0.86148197  1
  C  C71  1  0.51033497  0.62853146  0.86205961  1
  C  C72  1  0.02308058  0.82466942  0.41021492  1
  C  C73  1  0.80204575  0.97213242  0.40745138  1
  C  C74  1  0.16647785  0.21160729  0.40946290  1
  C  C75  1  0.02461991  0.20149007  0.91388623  1
  C  C76  1  0.18430200  0.98873844  0.91204235  1
  C  C77  1  0.80338435  0.80959143  0.91401898  1
  C  C78  1  0.97985171  0.15788773  0.58962358  1
  C  C79  1  0.17559260  0.02526240  0.59350951  1
  C  C80  1  0.85022323  0.81590916  0.58825463  1
  C  C81  1  0.95434936  0.81816714  0.09128525  1
  C  C82  1  0.84903058  0.05143863  0.09160729  1
  C  C83  1  0.19033671  0.16676117  0.09033350  1
  C  C84  1  0.67547800  0.16731836  0.74398030  1
  C  C85  1  0.47074107  0.33085221  0.74137869  1
  C  C86  1  0.84182995  0.53770172  0.74305425  1
  C  C87  1  0.69256699  0.52655683  0.24297023  1
  C  C88  1  0.84047285  0.31057438  0.24189629  1
  C  C89  1  0.50393453  0.18015435  0.23807700  1
  C  C90  1  0.62480323  0.48082840  0.92122950  1
  C  C91  1  0.85535154  0.36164427  0.92106625  1
  C  C92  1  0.51264575  0.14952243  0.92327823  1
  C  C93  1  0.64171351  0.13861066  0.41980025  1
  C  C94  1  0.49496780  0.36653564  0.41641585  1
  C  C95  1  0.86120743  0.49857055  0.42049170  1
  C  C96  1  0.36977216  0.49195656  0.07683105  1
  C  C97  1  0.14473688  0.64322472  0.08290353  1
  C  C98  1  0.52439079  0.86863866  0.07670572  1
  C  C99  1  0.33093828  0.85388106  0.58070295  1
  C  C100  1  0.52194371  0.66674589  0.58028456  1
  C  C101  1  0.14698503  0.48349217  0.57907605  1
  C  C102  1  0.32262271  0.81869765  0.25783353  1
  C  C103  1  0.52010185  0.67786380  0.25474508  1
  C  C104  1  0.16583267  0.46937452  0.25257825  1
  C  C105  1  0.28884718  0.47144113  0.75651890  1
  C  C106  1  0.16535298  0.68350158  0.75608287  1
  C  C107  1  0.50326663  0.81123034  0.75691615  1
