# generated using pymatgen
data_Cu14Ni2C15
_symmetry_space_group_name_H-M   'P 1'
_cell_length_a   12.61509400
_cell_length_b   6.32416200
_cell_length_c   9.22651064
_cell_angle_alpha   74.49134335
_cell_angle_beta   90.00000000
_cell_angle_gamma   90.00000000
_symmetry_Int_Tables_number   1
_chemical_formula_structural   Cu14Ni2C15
_chemical_formula_sum   'Cu28 Ni4 C30'
_cell_volume   709.28908778
_cell_formula_units_Z   2
loop_
 _symmetry_equiv_pos_site_id
 _symmetry_equiv_pos_as_xyz
  1  'x, y, z'
loop_
 _atom_site_type_symbol
 _atom_site_label
 _atom_site_symmetry_multiplicity
 _atom_site_fract_x
 _atom_site_fract_y
 _atom_site_fract_z
 _atom_site_occupancy
  C  C0  1  0.35160600  0.65201200  0.13065800  1
  C  C1  1  0.85160600  0.34798800  0.36934200  1
  C  C2  1  0.64839400  0.34798800  0.86934200  1
  C  C3  1  0.14839400  0.65201200  0.63065800  1
  C  C4  1  0.50000000  0.00000000  0.50000000  1
  C  C5  1  0.00000000  0.00000000  0.00000000  1
  C  C6  1  0.64282600  0.67982100  0.52720200  1
  C  C7  1  0.14282600  0.32017900  0.97279800  1
  C  C8  1  0.35717400  0.32017900  0.47279800  1
  C  C9  1  0.85717400  0.67982100  0.02720200  1
  C  C10  1  0.56110000  0.66368200  0.40059500  1
  C  C11  1  0.06110000  0.33631800  0.09940500  1
  C  C12  1  0.40074500  0.07238300  0.22363400  1
  C  C13  1  0.90074500  0.92761700  0.27636600  1
  C  C14  1  0.59925500  0.92761700  0.77636600  1
  C  C15  1  0.09925500  0.07238300  0.72363400  1
  C  C16  1  0.37124400  0.91280000  0.74333500  1
  C  C17  1  0.87124400  0.08720000  0.75666500  1
  C  C18  1  0.62875600  0.08720000  0.25666500  1
  C  C19  1  0.12875600  0.91280000  0.24333500  1
  C  C20  1  0.40444100  0.68026000  0.71496200  1
  C  C21  1  0.90444100  0.31974000  0.78503800  1
  C  C22  1  0.59555900  0.31974000  0.28503800  1
  C  C23  1  0.09555900  0.68026000  0.21496200  1
  C  C24  1  0.81306100  0.99297500  0.14904700  1
  C  C25  1  0.31306100  0.00702500  0.35095300  1
  C  C26  1  0.93890000  0.66368200  0.90059500  1
  C  C27  1  0.43890000  0.33631800  0.59940500  1
  C  C28  1  0.68693900  0.99297500  0.64904700  1
  C  C29  1  0.18693900  0.00702500  0.85095300  1
  Ni  Ni30  1  0.85851800  0.73199600  0.59782600  1
  Ni  Ni31  1  0.35851800  0.26800400  0.90217400  1
  Ni  Ni32  1  0.14148200  0.26800400  0.40217400  1
  Ni  Ni33  1  0.64148200  0.73199600  0.09782600  1
  Cu  Cu34  1  0.61482300  0.16476000  0.33505900  1
  Cu  Cu35  1  0.88517700  0.16476000  0.83505900  1
  Cu  Cu36  1  0.11297600  0.97432000  0.82617100  1
  Cu  Cu37  1  0.61297600  0.02568000  0.67382900  1
  Cu  Cu38  1  0.88702400  0.02568000  0.17382900  1
  Cu  Cu39  1  0.38702400  0.97432000  0.32617100  1
  Cu  Cu40  1  0.93344800  0.70179500  0.99809300  1
  Cu  Cu41  1  0.11482300  0.83524000  0.16494100  1
  Cu  Cu42  1  0.06655200  0.29820500  0.00190700  1
  Cu  Cu43  1  0.56655200  0.70179500  0.49809300  1
  Cu  Cu44  1  0.32237100  0.05590300  0.87448900  1
  Cu  Cu45  1  0.82237100  0.94409700  0.62551100  1
  Cu  Cu46  1  0.67762900  0.94409700  0.12551100  1
  Cu  Cu47  1  0.17762900  0.05590300  0.37448900  1
  Cu  Cu48  1  0.42619500  0.39203800  0.77360300  1
  Cu  Cu49  1  0.92619500  0.60796200  0.72639700  1
  Cu  Cu50  1  0.57380500  0.60796200  0.22639700  1
  Cu  Cu51  1  0.07380500  0.39203800  0.27360300  1
  Cu  Cu52  1  0.42226100  0.22496500  0.04264200  1
  Cu  Cu53  1  0.92226100  0.77503500  0.45735800  1
  Cu  Cu54  1  0.57773900  0.77503500  0.95735800  1
  Cu  Cu55  1  0.07773900  0.22496500  0.54264200  1
  Cu  Cu56  1  0.43344800  0.29820500  0.50190700  1
  Cu  Cu57  1  0.76435600  0.59354500  0.58715400  1
  Cu  Cu58  1  0.73564400  0.59354500  0.08715400  1
  Cu  Cu59  1  0.23564400  0.40645500  0.41284600  1
  Cu  Cu60  1  0.38517700  0.83524000  0.66494100  1
  Cu  Cu61  1  0.26435600  0.40645500  0.91284600  1
