# generated using pymatgen
data_Cu(NiC4)2
_symmetry_space_group_name_H-M   'P 1'
_cell_length_a   6.52538193
_cell_length_b   6.47210142
_cell_length_c   6.47210181
_cell_angle_alpha   54.75547892
_cell_angle_beta   54.57532516
_cell_angle_gamma   54.57532918
_symmetry_Int_Tables_number   1
_chemical_formula_structural   Cu(NiC4)2
_chemical_formula_sum   'Cu1 Ni2 C8'
_cell_volume   169.11630284
_cell_formula_units_Z   1
loop_
 _symmetry_equiv_pos_site_id
 _symmetry_equiv_pos_as_xyz
  1  'x, y, z'
loop_
 _atom_site_type_symbol
 _atom_site_label
 _atom_site_symmetry_multiplicity
 _atom_site_fract_x
 _atom_site_fract_y
 _atom_site_fract_z
 _atom_site_occupancy
  Ni  Ni0  1  0.80623778  0.80675840  0.80675840  1
  Ni  Ni1  1  0.25501557  0.26068709  0.26068709  1
  Cu  Cu2  1  0.46785252  0.46952332  0.46952332  1
  C  C3  1  0.62870784  0.63965214  0.63965214  1
  C  C4  1  0.99753416  0.99692649  0.99692649  1
  C  C5  1  0.25226303  0.74455252  0.74455252  1
  C  C6  1  0.23306099  0.74572433  0.22691248  1
  C  C7  1  0.74468442  0.25677733  0.74788055  1
  C  C8  1  0.23306099  0.22691248  0.74572433  1
  C  C9  1  0.75148128  0.22960536  0.22960536  1
  C  C10  1  0.74468442  0.74788055  0.25677733  1
