# generated using pymatgen
data_Cu7(NiC14)5
_symmetry_space_group_name_H-M   'P 1'
_cell_length_a   18.19580147
_cell_length_b   9.04043719
_cell_length_c   22.11353256
_cell_angle_alpha   90.05362288
_cell_angle_beta   90.16152591
_cell_angle_gamma   119.84376773
_symmetry_Int_Tables_number   1
_chemical_formula_structural   Cu7(NiC14)5
_chemical_formula_sum   'Cu21 Ni15 C210'
_cell_volume   3155.20538392
_cell_formula_units_Z   3
loop_
 _symmetry_equiv_pos_site_id
 _symmetry_equiv_pos_as_xyz
  1  'x, y, z'
loop_
 _atom_site_type_symbol
 _atom_site_label
 _atom_site_symmetry_multiplicity
 _atom_site_fract_x
 _atom_site_fract_y
 _atom_site_fract_z
 _atom_site_occupancy
  C  C0  1  0.30857434  0.99211209  0.23695728  1
  C  C1  1  0.80560659  0.99098329  0.23852691  1
  C  C2  1  0.19229055  0.37014502  0.24938903  1
  C  C3  1  0.69147803  0.36728092  0.24075865  1
  C  C4  1  0.99936329  0.64193471  0.24975582  1
  C  C5  1  0.49860270  0.64642813  0.24792364  1
  C  C6  1  0.30422108  0.62003447  0.74287128  1
  C  C7  1  0.81053162  0.62754816  0.74082142  1
  C  C8  1  0.00060271  0.35234697  0.75368026  1
  C  C9  1  0.49773991  0.35390516  0.75386051  1
  C  C10  1  0.18926106  0.01236739  0.75356713  1
  C  C11  1  0.69346721  0.01530417  0.75257522  1
  C  C12  1  0.16505334  0.34226342  0.58862764  1
  C  C13  1  0.66457750  0.35152050  0.59047359  1
  C  C14  1  0.31694938  0.95609904  0.58881426  1
  C  C15  1  0.16266578  0.97165126  0.07476246  1
  C  C16  1  0.66538123  0.98771571  0.08516903  1
  C  C17  1  0.81884075  0.68087576  0.08508133  1
  C  C18  1  0.48149780  0.66439840  0.91972942  1
  C  C19  1  0.99655376  0.68270843  0.91944853  1
  C  C20  1  0.33865519  0.02897481  0.91683386  1
  C  C21  1  0.85488853  0.04132323  0.91744314  1
  C  C22  1  0.16426137  0.28377432  0.90818542  1
  C  C23  1  0.66776174  0.29755311  0.91964256  1
  C  C24  1  0.48273897  0.30026843  0.41647385  1
  C  C25  1  0.98408379  0.30074112  0.41920396  1
  C  C26  1  0.16750007  0.03891311  0.41947476  1
  C  C27  1  0.66535951  0.03372349  0.40752748  1
  C  C28  1  0.35251834  0.66525899  0.41743094  1
  C  C29  1  0.85252790  0.66674828  0.41908199  1
  C  C30  1  0.99793036  0.97392005  0.50636260  1
  C  C31  1  0.49568069  0.97165951  0.50078579  1
  C  C32  1  0.00551478  0.01639022  0.99443133  1
  C  C33  1  0.49350289  0.01972136  0.00366546  1
  C  C34  1  0.31714877  0.30188419  0.83063179  1
  C  C35  1  0.83155503  0.32508358  0.82666311  1
  C  C36  1  0.32826335  0.33631609  0.32462963  1
  C  C37  1  0.82759395  0.33458533  0.32466952  1
  C  C38  1  0.18132352  0.68338341  0.16301561  1
  C  C39  1  0.67094205  0.66433939  0.16205805  1
  C  C40  1  0.17056478  0.67786317  0.66606010  1
  C  C41  1  0.68215892  0.67876817  0.66665681  1
  C  C42  1  0.00209276  0.99302596  0.34598149  1
  C  C43  1  0.49900650  0.98849307  0.34327931  1
  C  C44  1  0.00364768  0.00906962  0.84872602  1
  C  C45  1  0.50017095  0.01124547  0.84764769  1
  C  C46  1  0.32189113  0.32304941  0.68350791  1
  C  C47  1  0.83025272  0.33410205  0.68441473  1
  C  C48  1  0.32830574  0.32548002  0.18266821  1
  C  C49  1  0.82378988  0.32312110  0.18191633  1
  C  C50  1  0.32785453  0.30914560  0.98508268  1
  C  C51  1  0.82895000  0.32053788  0.99197923  1
  C  C52  1  0.32705267  0.33652358  0.49441773  1
  C  C53  1  0.83606854  0.34648731  0.49125928  1
  C  C54  1  0.17335325  0.68423489  0.01607524  1
  C  C55  1  0.66739145  0.66359582  0.02199496  1
  C  C56  1  0.16736668  0.66934717  0.52296089  1
  C  C57  1  0.67293322  0.67434986  0.52058148  1
  C  C58  1  0.17185050  0.67831221  0.30983349  1
  C  C59  1  0.67084750  0.67490820  0.30962423  1
  C  C60  1  0.17307915  0.67850365  0.81315679  1
  C  C61  1  0.67177907  0.66399541  0.81096770  1
  C  C62  1  0.99716344  0.99887560  0.64755922  1
  C  C63  1  0.49576972  0.99838643  0.65032070  1
  C  C64  1  0.99624776  0.99073922  0.14898699  1
  C  C65  1  0.49680214  0.99124799  0.14604356  1
  Ni  Ni66  1  0.14979220  0.00271066  0.25406687  1
  Ni  Ni67  1  0.64821815  0.99975889  0.25415886  1
  Ni  Ni68  1  0.35132496  0.69824303  0.25388383  1
  Ni  Ni69  1  0.85106518  0.69630920  0.25570905  1
  Ni  Ni70  1  0.14801211  0.30008180  0.75298753  1
  Ni  Ni71  1  0.64967583  0.29643355  0.75359000  1
  Ni  Ni72  1  0.35000017  0.00655281  0.75517018  1
  Ni  Ni73  1  0.85265007  0.00377391  0.75452083  1
  Ni  Ni74  1  0.18235666  0.03105239  0.58169239  1
  Ni  Ni75  1  0.33574082  0.62996888  0.58138783  1
  Ni  Ni76  1  0.83122659  0.63022154  0.58213837  1
  Ni  Ni77  1  0.33135538  0.03393127  0.08361813  1
  Ni  Ni78  1  0.83500352  0.04097556  0.08200535  1
  Ni  Ni79  1  0.68315739  0.33417081  0.08244159  1
  Ni  Ni80  1  0.16385133  0.96358675  0.91629562  1
  Cu  Cu81  1  0.00029985  0.28925723  0.25209881  1
  Cu  Cu82  1  0.50047582  0.28993203  0.25212420  1
  Cu  Cu83  1  0.99878349  0.70840295  0.75066384  1
  Cu  Cu84  1  0.50025504  0.71014624  0.75212201  1
  Cu  Cu85  1  0.48167027  0.33576225  0.58329728  1
  Cu  Cu86  1  0.97920608  0.33029891  0.58275868  1
  Cu  Cu87  1  0.68486728  0.03601545  0.58230496  1
  Cu  Cu88  1  0.47843462  0.62379099  0.08254997  1
  Cu  Cu89  1  0.98044773  0.62339363  0.08544306  1
  Cu  Cu90  1  0.18372667  0.33546903  0.08406530  1
  Cu  Cu91  1  0.31673360  0.66723986  0.91667250  1
  Cu  Cu92  1  0.81364065  0.66212049  0.91685936  1
  Cu  Cu93  1  0.02019563  0.38049406  0.91745215  1
  Cu  Cu94  1  0.52245495  0.38044308  0.91578893  1
  Cu  Cu95  1  0.66440512  0.95469766  0.91575783  1
  Cu  Cu96  1  0.31617253  0.96610484  0.41652998  1
  Cu  Cu97  1  0.81437557  0.96601776  0.41708309  1
  Cu  Cu98  1  0.16425376  0.37402119  0.41560533  1
  Cu  Cu99  1  0.66422062  0.37089026  0.41686109  1
  Cu  Cu100  1  0.02057775  0.66133357  0.41592508  1
  Cu  Cu101  1  0.52222486  0.66296542  0.41734897  1
  C  C102  1  0.10847888  0.03932908  0.31283557  1
  C  C103  1  0.60793251  0.03622118  0.31397385  1
  C  C104  1  0.40466856  0.77665979  0.31596544  1
  C  C105  1  0.90684385  0.78857780  0.31511314  1
  C  C106  1  0.48587086  0.18715294  0.30785991  1
  C  C107  1  0.98639757  0.18666540  0.30752799  1
  C  C108  1  0.10551639  0.18005557  0.81066384  1
  C  C109  1  0.60646663  0.17355889  0.81098501  1
  C  C110  1  0.48699395  0.78685217  0.80685051  1
  C  C111  1  0.98369210  0.78174836  0.80536538  1
  C  C112  1  0.40893273  0.02848415  0.81242667  1
  C  C113  1  0.90720917  0.02797684  0.81509172  1
  C  C114  1  0.40632769  0.98238143  0.69418381  1
  C  C115  1  0.90597364  0.97460052  0.69737689  1
  C  C116  1  0.08410840  0.19246617  0.69280375  1
  C  C117  1  0.58743781  0.18861096  0.69167176  1
  C  C118  1  0.01064052  0.82082262  0.69699071  1
  C  C119  1  0.51220247  0.82615769  0.69801101  1
  C  C120  1  0.40707788  0.83702792  0.19867280  1
  C  C121  1  0.90577329  0.83155376  0.19593846  1
  C  C122  1  0.01181489  0.19857648  0.19873347  1
  C  C123  1  0.51282969  0.20236981  0.19918145  1
  C  C124  1  0.08521607  0.98517291  0.19459342  1
  C  C125  1  0.58362278  0.97946903  0.19593796  1
  C  C126  1  0.44347174  0.35352651  0.63762908  1
  C  C127  1  0.93866059  0.35096544  0.63618162  1
  C  C128  1  0.24458573  0.11988137  0.63870533  1
  C  C129  1  0.73489030  0.11417615  0.63684277  1
  C  C130  1  0.32648362  0.52007957  0.64068086  1
  C  C131  1  0.81721135  0.50630463  0.63906965  1
  C  C132  1  0.43947317  0.52695708  0.13763412  1
  C  C133  1  0.93913523  0.53070599  0.14033260  1
  C  C134  1  0.31982818  0.12629877  0.14272178  1
  C  C135  1  0.82443947  0.12870442  0.14227306  1
  C  C136  1  0.23349051  0.35864818  0.13957048  1
  C  C137  1  0.74271281  0.36864565  0.14129116  1
  C  C138  1  0.22265249  0.30388648  0.03053071  1
  C  C139  1  0.72037831  0.28774874  0.02253379  1
  C  C140  1  0.42795051  0.54807490  0.02749978  1
  C  C141  1  0.92775729  0.55410491  0.03070502  1
  C  C142  1  0.35015049  0.14186735  0.02167948  1
  C  C143  1  0.85303939  0.14676368  0.01989349  1
  C  C144  1  0.21841740  0.14982143  0.52068813  1
  C  C145  1  0.72439574  0.14229277  0.52739667  1
  C  C146  1  0.35519865  0.56432671  0.51831453  1
  C  C147  1  0.84715828  0.55785705  0.51859087  1
  C  C148  1  0.42885015  0.30133591  0.52801582  1
  C  C149  1  0.92935668  0.30545545  0.52630024  1
  C  C150  1  0.27419848  0.69136059  0.96895637  1
  C  C151  1  0.77215039  0.68467815  0.97076604  1
  C  C152  1  0.07445922  0.46565496  0.97025301  1
  C  C153  1  0.57690889  0.47026929  0.96775726  1
  C  C154  1  0.14797562  0.84667152  0.97655182  1
  C  C155  1  0.65598094  0.85415590  0.97067988  1
  C  C156  1  0.27555095  0.86081772  0.47039662  1
  C  C157  1  0.77198279  0.85572560  0.46937769  1
  C  C158  1  0.15577380  0.45787235  0.47060576  1
  C  C159  1  0.65536929  0.45632752  0.47145891  1
  C  C160  1  0.07362933  0.67711630  0.46831856  1
  C  C161  1  0.57592927  0.68204354  0.47026599  1
  C  C162  1  0.05895473  0.64191835  0.35942538  1
  C  C163  1  0.56211626  0.64526600  0.36137046  1
  C  C164  1  0.26474614  0.88582311  0.36170806  1
  C  C165  1  0.76416323  0.88940533  0.36123313  1
  C  C166  1  0.17176926  0.47594572  0.36123218  1
  C  C167  1  0.67525605  0.47477364  0.36246309  1
  C  C168  1  0.05913049  0.47498110  0.86086620  1
  C  C169  1  0.56126586  0.47680044  0.85904296  1
  C  C170  1  0.17999726  0.87494006  0.85695933  1
  C  C171  1  0.67184877  0.86793168  0.86113904  1
  C  C172  1  0.26724916  0.63956920  0.86043148  1
  C  C173  1  0.76072713  0.63511242  0.86207487  1
  C  C174  1  0.01119570  0.81751169  0.41473183  1
  C  C175  1  0.51277667  0.81919727  0.41580915  1
  C  C176  1  0.40352077  0.98674749  0.41264247  1
  C  C177  1  0.90181005  0.98896487  0.41358877  1
  C  C178  1  0.08590272  0.20093437  0.41307853  1
  C  C179  1  0.58499197  0.19943284  0.41413264  1
  C  C180  1  0.00713643  0.20342464  0.91543562  1
  C  C181  1  0.51294635  0.20538516  0.91421091  1
  C  C182  1  0.07696206  0.98106381  0.91284705  1
  C  C183  1  0.58624285  0.97131146  0.91314710  1
  C  C184  1  0.40415365  0.82321562  0.91302758  1
  C  C185  1  0.89878420  0.81694210  0.91237720  1
  C  C186  1  0.49168370  0.17380354  0.58765728  1
  C  C187  1  0.98723084  0.17076538  0.58728573  1
  C  C188  1  0.08833057  0.02345279  0.59236626  1
  C  C189  1  0.59933617  0.02906732  0.58692843  1
  C  C190  1  0.42238166  0.83366769  0.58993345  1
  C  C191  1  0.91743191  0.82258831  0.59261440  1
  C  C192  1  0.48744096  0.80276257  0.08775666  1
  C  C193  1  0.99059106  0.80687260  0.09013358  1
  C  C194  1  0.41829404  0.01366506  0.09482568  1
  C  C195  1  0.92114317  0.01069046  0.09158621  1
  C  C196  1  0.09752252  0.16960981  0.09034214  1
  C  C197  1  0.58895816  0.15261166  0.09347542  1
  C  C198  1  0.34922347  0.18209486  0.74420398  1
  C  C199  1  0.84763776  0.17692690  0.74260974  1
  C  C200  1  0.24253064  0.32559494  0.74598480  1
  C  C201  1  0.74348012  0.32021012  0.74559778  1
  C  C202  1  0.42713108  0.54085598  0.74267526  1
  C  C203  1  0.92401286  0.53709261  0.74169506  1
  C  C204  1  0.34685926  0.51620500  0.24184035  1
  C  C205  1  0.84991892  0.51817620  0.24545093  1
  C  C206  1  0.42691483  0.31479722  0.24445259  1
  C  C207  1  0.92681254  0.31303211  0.24386585  1
  C  C208  1  0.24343051  0.16669702  0.24596758  1
  C  C209  1  0.74293472  0.16240289  0.24700256  1
  C  C210  1  0.32868738  0.51587176  0.92418943  1
  C  C211  1  0.82446273  0.50855394  0.92218762  1
  C  C212  1  0.43740540  0.36597104  0.92016495  1
  C  C213  1  0.93470979  0.36936903  0.92170053  1
  C  C214  1  0.24875825  0.15797703  0.92093162  1
  C  C215  1  0.74173727  0.12827629  0.91740650  1
  C  C216  1  0.32661880  0.14142773  0.42155722  1
  C  C217  1  0.82270135  0.13957575  0.42358494  1
  C  C218  1  0.24166359  0.35553277  0.41739018  1
  C  C219  1  0.73945077  0.34524468  0.42103957  1
  C  C220  1  0.43658026  0.50662546  0.42096048  1
  C  C221  1  0.93397110  0.50489475  0.41982991  1
  C  C222  1  0.16799893  0.47809257  0.07639382  1
  C  C223  1  0.66922888  0.49633098  0.07629571  1
  C  C224  1  0.06624297  0.65039910  0.08055475  1
  C  C225  1  0.56651385  0.65850135  0.07683936  1
  C  C226  1  0.24782127  0.84388095  0.08013155  1
  C  C227  1  0.75170091  0.84880210  0.07801808  1
  C  C228  1  0.16866028  0.84115553  0.57527488  1
  C  C229  1  0.66901928  0.86066963  0.57535237  1
  C  C230  1  0.25241150  0.65469285  0.57724618  1
  C  C231  1  0.74565099  0.64776339  0.57903456  1
  C  C232  1  0.06700749  0.47380852  0.57670441  1
  C  C233  1  0.56905489  0.47953067  0.57521969  1
  C  C234  1  0.14931722  0.82196288  0.25260026  1
  C  C235  1  0.64914116  0.81957643  0.25324447  1
  C  C236  1  0.25733547  0.67985078  0.25288453  1
  C  C237  1  0.75820517  0.68058592  0.25268928  1
  C  C238  1  0.07933988  0.45633641  0.25524979  1
  C  C239  1  0.57895227  0.45799722  0.25665370  1
  C  C240  1  0.14951674  0.48246081  0.75269922  1
  C  C241  1  0.64899485  0.47611062  0.75160240  1
  C  C242  1  0.07612109  0.69479712  0.75319198  1
  C  C243  1  0.57969843  0.70321448  0.75425390  1
  C  C244  1  0.25995998  0.83352220  0.74934389  1
  C  C245  1  0.75800484  0.83402196  0.75344422  1
