# generated using pymatgen
data_Cu4Ni8C7
_symmetry_space_group_name_H-M   'P 1'
_cell_length_a   4.98378420
_cell_length_b   5.02883900
_cell_length_c   9.02328500
_cell_angle_alpha   89.99992268
_cell_angle_beta   89.99986755
_cell_angle_gamma   90.03982316
_symmetry_Int_Tables_number   1
_chemical_formula_structural   Cu4Ni8C7
_chemical_formula_sum   'Cu4 Ni8 C7'
_cell_volume   226.14736433
_cell_formula_units_Z   1
loop_
 _symmetry_equiv_pos_site_id
 _symmetry_equiv_pos_as_xyz
  1  'x, y, z'
loop_
 _atom_site_type_symbol
 _atom_site_label
 _atom_site_symmetry_multiplicity
 _atom_site_fract_x
 _atom_site_fract_y
 _atom_site_fract_z
 _atom_site_occupancy
  C  C0  1  0.00000400  0.49999800  0.33117800  1
  C  C1  1  0.00000500  0.99999500  0.01166500  1
  C  C2  1  0.99998900  0.99999900  0.33110600  1
  C  C3  1  0.99999400  0.00001000  0.65034800  1
  C  C4  1  0.50000900  0.49999700  0.83129000  1
  C  C5  1  0.50000300  0.49999300  0.13910400  1
  C  C6  1  0.49999300  0.50000800  0.52370900  1
  Ni  Ni7  1  0.14887400  0.77517300  0.17782100  1
  Ni  Ni8  1  0.14865600  0.77595600  0.48465500  1
  Ni  Ni9  1  0.33304800  0.30204200  0.99295300  1
  Ni  Ni10  1  0.33264500  0.30265300  0.66988600  1
  Ni  Ni11  1  0.66695600  0.69795300  0.99295800  1
  Ni  Ni12  1  0.66736300  0.69735300  0.66988600  1
  Ni  Ni13  1  0.85112200  0.22483100  0.17781900  1
  Ni  Ni14  1  0.85134000  0.22405000  0.48465600  1
  Cu  Cu15  1  0.16187700  0.80897200  0.83045300  1
  Cu  Cu16  1  0.34311700  0.30600900  0.33145200  1
  Cu  Cu17  1  0.65688400  0.69398800  0.33145600  1
  Cu  Cu18  1  0.83812100  0.19102100  0.83045900  1
