# generated using pymatgen
data_Cu(NiC4)4
_symmetry_space_group_name_H-M   'P 1'
_cell_length_a   9.52971255
_cell_length_b   9.52971219
_cell_length_c   22.25866842
_cell_angle_alpha   90.00000000
_cell_angle_beta   90.00000000
_cell_angle_gamma   120.00000129
_symmetry_Int_Tables_number   1
_chemical_formula_structural   Cu(NiC4)4
_chemical_formula_sum   'Cu6 Ni24 C96'
_cell_volume   1750.60994603
_cell_formula_units_Z   6
loop_
 _symmetry_equiv_pos_site_id
 _symmetry_equiv_pos_as_xyz
  1  'x, y, z'
loop_
 _atom_site_type_symbol
 _atom_site_label
 _atom_site_symmetry_multiplicity
 _atom_site_fract_x
 _atom_site_fract_y
 _atom_site_fract_z
 _atom_site_occupancy
  Ni  Ni0  1  0.64499360  0.01307859  0.24519643  1
  Ni  Ni1  1  0.36808499  0.35500640  0.24519643  1
  Ni  Ni2  1  0.98692141  0.63191501  0.24519643  1
  Ni  Ni3  1  0.64499360  0.63191501  0.74519643  1
  Ni  Ni4  1  0.98692141  0.35500640  0.74519643  1
  Ni  Ni5  1  0.36808499  0.01307859  0.74519643  1
  Ni  Ni6  1  0.31166060  0.34641159  0.57852943  1
  Ni  Ni7  1  0.03475199  0.68833940  0.57852943  1
  Ni  Ni8  1  0.65358841  0.96524801  0.57852943  1
  Ni  Ni9  1  0.31166060  0.96524801  0.07852943  1
  Ni  Ni10  1  0.65358841  0.68833940  0.07852943  1
  Ni  Ni11  1  0.03475199  0.34641159  0.07852943  1
  Ni  Ni12  1  0.97832660  0.67974559  0.91186343  1
  Ni  Ni13  1  0.70141799  0.02167340  0.91186343  1
  Ni  Ni14  1  0.32025441  0.29858201  0.91186343  1
  Ni  Ni15  1  0.97832660  0.29858201  0.41186343  1
  Ni  Ni16  1  0.32025441  0.02167340  0.41186343  1
  Ni  Ni17  1  0.70141799  0.67974559  0.41186343  1
  Ni  Ni18  1  -0.00000000  -0.00000000  0.49642503  1
  Ni  Ni19  1  -0.00000000  -0.00000000  0.99642503  1
  Ni  Ni20  1  0.66666700  0.33333300  0.82975803  1
  Ni  Ni21  1  0.66666700  0.33333300  0.32975803  1
  Ni  Ni22  1  0.33333300  0.66666700  0.16309203  1
  Ni  Ni23  1  0.33333300  0.66666700  0.66309203  1
  Cu  Cu24  1  -0.00000000  -0.00000000  0.34202533  1
  Cu  Cu25  1  -0.00000000  -0.00000000  0.84202533  1
  Cu  Cu26  1  0.66666700  0.33333300  0.67535833  1
  Cu  Cu27  1  0.66666700  0.33333300  0.17535833  1
  Cu  Cu28  1  0.33333300  0.66666700  0.00869233  1
  Cu  Cu29  1  0.33333300  0.66666700  0.50869233  1
  C  C30  1  -0.00000000  -0.00000000  0.64816018  1
  C  C31  1  -0.00000000  -0.00000000  0.14816018  1
  C  C32  1  0.66666700  0.33333300  0.98149318  1
  C  C33  1  0.66666700  0.33333300  0.48149318  1
  C  C34  1  0.33333300  0.66666700  0.31482718  1
  C  C35  1  0.33333300  0.66666700  0.81482718  1
  C  C36  1  0.29579093  0.98280683  0.25108906  1
  C  C37  1  0.68701590  0.70420907  0.25108906  1
  C  C38  1  0.01719317  0.31298410  0.25108906  1
  C  C39  1  0.29579093  0.31298410  0.75108906  1
  C  C40  1  0.01719317  0.70420907  0.75108906  1
  C  C41  1  0.68701590  0.98280683  0.75108906  1
  C  C42  1  0.96245793  0.31613983  0.58442206  1
  C  C43  1  0.35368290  0.03754207  0.58442206  1
  C  C44  1  0.68386017  0.64631710  0.58442206  1
  C  C45  1  0.96245793  0.64631710  0.08442206  1
  C  C46  1  0.68386017  0.03754207  0.08442206  1
  C  C47  1  0.35368290  0.31613983  0.08442206  1
  C  C48  1  0.62912393  0.64947383  0.91775606  1
  C  C49  1  0.02034890  0.37087607  0.91775606  1
  C  C50  1  0.35052617  0.97965110  0.91775606  1
  C  C51  1  0.62912393  0.97965110  0.41775606  1
  C  C52  1  0.35052617  0.37087607  0.41775606  1
  C  C53  1  0.02034890  0.64947383  0.41775606  1
  C  C54  1  0.23481187  0.01319152  0.31406580  1
  C  C55  1  0.77837965  0.76518813  0.31406580  1
  C  C56  1  0.98680848  0.22162035  0.31406580  1
  C  C57  1  0.23481187  0.22162035  0.81406580  1
  C  C58  1  0.98680848  0.76518813  0.81406580  1
  C  C59  1  0.77837965  0.01319152  0.81406580  1
  C  C60  1  0.80798505  0.96853688  0.69641839  1
  C  C61  1  0.16055182  0.19201495  0.69641839  1
  C  C62  1  0.03146312  0.83944818  0.69641839  1
  C  C63  1  0.80798505  0.83944818  0.19641839  1
  C  C64  1  0.03146312  0.19201495  0.19641839  1
  C  C65  1  0.16055182  0.96853688  0.19641839  1
  C  C66  1  0.90147887  0.34652452  0.64739880  1
  C  C67  1  0.44504665  0.09852113  0.64739880  1
  C  C68  1  0.65347548  0.55495335  0.64739880  1
  C  C69  1  0.90147887  0.55495335  0.14739880  1
  C  C70  1  0.65347548  0.09852113  0.14739880  1
  C  C71  1  0.44504665  0.34652452  0.14739880  1
  C  C72  1  0.47465205  0.30186988  0.02975139  1
  C  C73  1  0.82721882  0.52534795  0.02975139  1
  C  C74  1  0.69813012  0.17278118  0.02975139  1
  C  C75  1  0.47465205  0.17278118  0.52975139  1
  C  C76  1  0.69813012  0.52534795  0.52975139  1
  C  C77  1  0.82721882  0.30186988  0.52975139  1
  C  C78  1  0.56814487  0.67985852  0.98073280  1
  C  C79  1  0.11171265  0.43185513  0.98073280  1
  C  C80  1  0.32014148  0.88828735  0.98073280  1
  C  C81  1  0.56814487  0.88828735  0.48073280  1
  C  C82  1  0.32014148  0.43185513  0.48073280  1
  C  C83  1  0.11171265  0.67985852  0.48073280  1
  C  C84  1  0.14131805  0.63520388  0.36308539  1
  C  C85  1  0.49388482  0.85868195  0.36308539  1
  C  C86  1  0.36479612  0.50611518  0.36308539  1
  C  C87  1  0.14131805  0.50611518  0.86308539  1
  C  C88  1  0.36479612  0.85868195  0.86308539  1
  C  C89  1  0.49388482  0.63520388  0.86308539  1
  C  C90  1  0.98302674  0.79622866  0.41026245  1
  C  C91  1  0.81320192  0.01697326  0.41026245  1
  C  C92  1  0.20377134  0.18679808  0.41026245  1
  C  C93  1  0.98302674  0.18679808  0.91026245  1
  C  C94  1  0.20377134  0.01697326  0.91026245  1
  C  C95  1  0.81320192  0.79622866  0.91026245  1
  C  C96  1  0.95261903  0.13515427  0.58743102  1
  C  C97  1  0.18253524  0.04738097  0.58743102  1
  C  C98  1  0.86484573  0.81746476  0.58743102  1
  C  C99  1  0.95261903  0.81746476  0.08743102  1
  C  C100  1  0.86484573  0.04738097  0.08743102  1
  C  C101  1  0.18253524  0.13515427  0.08743102  1
  C  C102  1  0.64969374  0.12956166  0.74359545  1
  C  C103  1  0.47986892  0.35030626  0.74359545  1
  C  C104  1  0.87043834  0.52013108  0.74359545  1
  C  C105  1  0.64969374  0.52013108  0.24359545  1
  C  C106  1  0.87043834  0.35030626  0.24359545  1
  C  C107  1  0.47986892  0.12956166  0.24359545  1
  C  C108  1  0.61928603  0.46848727  0.92076402  1
  C  C109  1  0.84920224  0.38071397  0.92076402  1
  C  C110  1  0.53151273  0.15079776  0.92076402  1
  C  C111  1  0.61928603  0.15079776  0.42076402  1
  C  C112  1  0.53151273  0.38071397  0.42076402  1
  C  C113  1  0.84920224  0.46848727  0.42076402  1
  C  C114  1  0.31635974  0.46289566  0.07692945  1
  C  C115  1  0.14653492  0.68364026  0.07692945  1
  C  C116  1  0.53710434  0.85346508  0.07692945  1
  C  C117  1  0.31635974  0.85346508  0.57692945  1
  C  C118  1  0.53710434  0.68364026  0.57692945  1
  C  C119  1  0.14653492  0.46289566  0.57692945  1
  C  C120  1  0.28595203  0.80182127  0.25409802  1
  C  C121  1  0.51586824  0.71404797  0.25409802  1
  C  C122  1  0.19817873  0.48413176  0.25409802  1
  C  C123  1  0.28595203  0.48413176  0.75409802  1
  C  C124  1  0.19817873  0.71404797  0.75409802  1
  C  C125  1  0.51586824  0.80182127  0.75409802  1
