# generated using pymatgen
data_Cu2Ni10C7
_symmetry_space_group_name_H-M   'P 1'
_cell_length_a   5.09915820
_cell_length_b   7.71450398
_cell_length_c   5.69133999
_cell_angle_alpha   97.92850069
_cell_angle_beta   96.72023676
_cell_angle_gamma   85.00287730
_symmetry_Int_Tables_number   1
_chemical_formula_structural   Cu2Ni10C7
_chemical_formula_sum   'Cu2 Ni10 C7'
_cell_volume   219.64548470
_cell_formula_units_Z   1
loop_
 _symmetry_equiv_pos_site_id
 _symmetry_equiv_pos_as_xyz
  1  'x, y, z'
loop_
 _atom_site_type_symbol
 _atom_site_label
 _atom_site_symmetry_multiplicity
 _atom_site_fract_x
 _atom_site_fract_y
 _atom_site_fract_z
 _atom_site_occupancy
  C  C0  1  0.01982500  0.83868100  0.34675500  1
  C  C1  1  0.50083200  0.65221000  0.16992700  1
  C  C2  1  0.54548900  0.03036400  0.44309800  1
  C  C3  1  0.45440000  0.31249300  0.85461600  1
  C  C4  1  0.97585400  0.64517000  0.70372600  1
  C  C5  1  0.99193000  0.31842600  0.32734600  1
  C  C6  1  0.01734500  0.02710700  0.95236000  1
  Ni  Ni7  1  0.84625300  0.43298900  0.60809500  1
  Ni  Ni8  1  0.84367700  0.07764900  0.27468200  1
  Ni  Ni9  1  0.68374000  0.10315500  0.77880500  1
  Ni  Ni10  1  0.69471600  0.76156200  0.46096000  1
  Ni  Ni11  1  0.68138700  0.42317400  0.12751100  1
  Ni  Ni12  1  0.30227600  0.55668100  0.87447300  1
  Ni  Ni13  1  0.30725900  0.23450700  0.52987400  1
  Ni  Ni14  1  0.31875000  0.89104500  0.18809900  1
  Ni  Ni15  1  0.19082800  0.23684200  0.04379000  1
  Ni  Ni16  1  0.12820800  0.86532000  0.69834500  1
  Cu  Cu17  1  0.81525900  0.74938600  0.00530300  1
  Cu  Cu18  1  0.18197300  0.58490700  0.35032900  1
