# generated using pymatgen
data_CuNi7C5
_symmetry_space_group_name_H-M   'P 1'
_cell_length_a   5.03317999
_cell_length_b   5.93733999
_cell_length_c   5.08306168
_cell_angle_alpha   83.84239439
_cell_angle_beta   78.99028817
_cell_angle_gamma   81.08886644
_symmetry_Int_Tables_number   1
_chemical_formula_structural   CuNi7C5
_chemical_formula_sum   'Cu1 Ni7 C5'
_cell_volume   146.83183610
_cell_formula_units_Z   1
loop_
 _symmetry_equiv_pos_site_id
 _symmetry_equiv_pos_as_xyz
  1  'x, y, z'
loop_
 _atom_site_type_symbol
 _atom_site_label
 _atom_site_symmetry_multiplicity
 _atom_site_fract_x
 _atom_site_fract_y
 _atom_site_fract_z
 _atom_site_occupancy
  C  C0  1  0.46228823  0.92327620  0.70816864  1
  C  C1  1  0.00279394  0.63765056  0.74065789  1
  C  C2  1  0.01374764  0.16839073  0.26248657  1
  C  C3  1  0.52496820  0.37748941  0.77315329  1
  C  C4  1  0.48471668  0.64116689  0.25230419  1
  Ni  Ni5  1  0.29169272  0.16584057  0.95349799  1
  Ni  Ni6  1  0.22463547  0.88854569  0.43308430  1
  Ni  Ni7  1  0.28249018  0.43195405  0.50479401  1
  Ni  Ni8  1  0.28808599  0.64023554  0.93914946  1
  Ni  Ni9  1  0.75409522  0.39920792  0.05340428  1
  Ni  Ni10  1  0.71249907  0.62111495  0.55652259  1
  Ni  Ni11  1  0.74032448  0.14173424  0.57563623  1
  Cu  Cu12  1  0.73155318  0.84434825  0.00964256  1
