# generated using pymatgen
data_Cu2NiC18
_symmetry_space_group_name_H-M   'P 1'
_cell_length_a   9.51053037
_cell_length_b   9.51499737
_cell_length_c   23.22603211
_cell_angle_alpha   90.06476978
_cell_angle_beta   89.85107050
_cell_angle_gamma   120.02336119
_symmetry_Int_Tables_number   1
_chemical_formula_structural   Cu2NiC18
_chemical_formula_sum   'Cu12 Ni6 C108'
_cell_volume   1819.76498848
_cell_formula_units_Z   6
loop_
 _symmetry_equiv_pos_site_id
 _symmetry_equiv_pos_as_xyz
  1  'x, y, z'
loop_
 _atom_site_type_symbol
 _atom_site_label
 _atom_site_symmetry_multiplicity
 _atom_site_fract_x
 _atom_site_fract_y
 _atom_site_fract_z
 _atom_site_occupancy
  C  C0  1  0.63696784  -0.00056180  0.25602511  1
  C  C1  1  0.36004286  0.36734192  0.25119917  1
  C  C2  1  0.00789123  0.62697921  0.25335610  1
  C  C3  1  0.63826484  0.63563946  0.74169508  1
  C  C4  1  0.98691871  0.35756102  0.74673476  1
  C  C5  1  0.38347746  0.01333305  0.74361585  1
  C  C6  1  0.29905370  0.32579915  0.58310158  1
  C  C7  1  0.03870430  0.71221616  0.58286499  1
  C  C8  1  0.66694488  0.96876604  0.59125927  1
  C  C9  1  0.28967566  0.96884050  0.08428469  1
  C  C10  1  0.68307308  0.70467929  0.08471267  1
  C  C11  1  0.03038043  0.32961842  0.09258178  1
  C  C12  1  0.97356630  0.67619143  0.92254379  1
  C  C13  1  0.69427341  0.03540396  0.91067100  1
  C  C14  1  0.33310533  0.29562806  0.91688029  1
  C  C15  1  0.96469151  0.30170812  0.40909046  1
  C  C16  1  0.32703645  0.02971869  0.41976677  1
  C  C17  1  0.70388603  0.66649453  0.41464642  1
  C  C18  1  0.00720621  0.99408779  0.49958894  1
  C  C19  1  0.00662280  0.99397151  0.00257435  1
  C  C20  1  0.66066090  0.31848751  0.83228522  1
  C  C21  1  0.67784546  0.33583665  0.33923768  1
  C  C22  1  0.32009803  0.65973932  0.16931868  1
  C  C23  1  0.34049383  0.67985315  0.66577933  1
  C  C24  1  0.00038267  0.99895838  0.84118203  1
  C  C25  1  0.67176075  0.33448966  0.18551465  1
  C  C26  1  0.66967242  0.33541478  0.99093342  1
  C  C27  1  0.32964530  0.67103862  0.01437886  1
  C  C28  1  0.32916801  0.67085189  0.51312857  1
  C  C29  1  0.33736984  0.67557127  0.81541259  1
  C  C30  1  0.99957585  0.99758905  0.34893226  1
  C  C31  1  0.00239712  0.00057021  0.64845164  1
  C  C32  1  0.00057054  0.00119808  0.15636315  1
  C  C33  1  0.66549492  0.32800950  0.67876751  1
  C  C34  1  0.66446701  0.33189989  0.48422042  1
  C  C35  1  0.32465144  0.66123627  0.31948996  1
  Ni  Ni36  1  0.01000587  0.29860383  0.25382148  1
  Ni  Ni37  1  0.70057377  0.00826717  0.74430876  1
  Ni  Ni38  1  0.36665494  0.04172966  0.58382212  1
  Ni  Ni39  1  0.97915036  0.65602748  0.08719052  1
  Ni  Ni40  1  0.33438351  0.98445649  0.91636498  1
  Ni  Ni41  1  0.02158168  0.66557439  0.41551652  1
  Cu  Cu42  1  0.28998503  0.98894921  0.25334435  1
  Cu  Cu43  1  0.69668696  0.70994262  0.25354926  1
  Cu  Cu44  1  0.31013288  0.30425110  0.74376879  1
  Cu  Cu45  1  0.99056108  0.68868832  0.74315513  1
  Cu  Cu46  1  0.95719946  0.32531072  0.58339947  1
  Cu  Cu47  1  0.67430898  0.63014460  0.58422340  1
  Cu  Cu48  1  0.67759858  0.02186124  0.08643520  1
  Cu  Cu49  1  0.34699289  0.32413103  0.08678500  1
  Cu  Cu50  1  0.64425493  0.66494197  0.91637899  1
  Cu  Cu51  1  0.02210909  0.35487014  0.91559889  1
  Cu  Cu52  1  0.63782353  0.97165242  0.41364422  1
  Cu  Cu53  1  0.33556327  0.36095788  0.41451214  1
  C  C54  1  0.20757153  0.00990394  0.30745786  1
  C  C55  1  0.80426305  0.78803320  0.30707912  1
  C  C56  1  0.98464049  0.18702764  0.31068282  1
  C  C57  1  0.24096125  0.21078131  0.80091068  1
  C  C58  1  0.96889253  0.75831768  0.80058041  1
  C  C59  1  0.79450190  0.03086071  0.80570850  1
  C  C60  1  0.79828274  0.98214887  0.69023117  1
  C  C61  1  0.19838292  0.21082846  0.69224826  1
  C  C62  1  0.01888194  0.80545035  0.69219906  1
  C  C63  1  0.77715221  0.80954526  0.19796115  1
  C  C64  1  0.03276791  0.21606119  0.19445192  1
  C  C65  1  0.18964989  0.96697244  0.19792341  1
  C  C66  1  0.88166136  0.35399753  0.63820324  1
  C  C67  1  0.47537837  0.12279483  0.64151333  1
  C  C68  1  0.65421847  0.52846022  0.63898552  1
  C  C69  1  0.88736932  0.53584390  0.14185299  1
  C  C70  1  0.64778894  0.10494407  0.13864914  1
  C  C71  1  0.45547955  0.34477500  0.13926001  1
  C  C72  1  0.42552049  0.30438938  0.03088750  1
  C  C73  1  0.87480325  0.57886741  0.02746722  1
  C  C74  1  0.69652122  0.11965847  0.03072659  1
  C  C75  1  0.45119106  0.15200113  0.52528728  1
  C  C76  1  0.69518272  0.54892737  0.52920057  1
  C  C77  1  0.85427032  0.30593115  0.52886363  1
  C  C78  1  0.55947474  0.67642642  0.97173260  1
  C  C79  1  0.12080320  0.43786708  0.97062446  1
  C  C80  1  0.31575648  0.87935334  0.97478212  1
  C  C81  1  0.56660931  0.86991055  0.46887017  1
  C  C82  1  0.30656615  0.43407288  0.46959994  1
  C  C83  1  0.13254689  0.70625727  0.47350353  1
  C  C84  1  0.10888986  0.62855863  0.36018210  1
  C  C85  1  0.52499337  0.88400488  0.36099865  1
  C  C86  1  0.36467620  0.47453588  0.36177473  1
  C  C87  1  0.11075054  0.45490416  0.86132451  1
  C  C88  1  0.35208470  0.89354907  0.85876150  1
  C  C89  1  0.54158726  0.64944186  0.86243611  1
  C  C90  1  -0.00179968  0.82713142  0.40927689  1
  C  C91  1  0.81135302  0.99440290  0.40844656  1
  C  C92  1  0.18297754  0.18746478  0.40925115  1
  C  C93  1  0.00176415  0.18310315  0.91453391  1
  C  C94  1  0.17039863  0.00072438  0.91524353  1
  C  C95  1  0.81388899  0.82080541  0.91478541  1
  C  C96  1  0.96923463  0.16707733  0.58637274  1
  C  C97  1  0.18215797  0.02461722  0.58607835  1
  C  C98  1  0.83045840  0.80276772  0.58659368  1
  C  C99  1  0.99039443  0.83425790  0.09271555  1
  C  C100  1  0.83756059  0.01644279  0.09150647  1
  C  C101  1  0.17821958  0.16716285  0.09052645  1
  C  C102  1  0.68552428  0.17439494  0.74153689  1
  C  C103  1  0.48431133  0.32728895  0.73977941  1
  C  C104  1  0.83255426  0.52018461  0.73794851  1
  C  C105  1  0.66797537  0.53358172  0.25090466  1
  C  C106  1  0.84734942  0.32034924  0.25346339  1
  C  C107  1  0.46223229  0.14299747  0.25126373  1
  C  C108  1  0.66312406  0.51239659  0.91659331  1
  C  C109  1  0.85294738  0.34271027  0.91652903  1
  C  C110  1  0.49925334  0.16445695  0.91705042  1
  C  C111  1  0.64959498  0.14192883  0.41779064  1
  C  C112  1  0.49242873  0.34660183  0.41846030  1
  C  C113  1  0.83992987  0.49727226  0.42124665  1
  C  C114  1  0.32682281  0.47609034  0.08546921  1
  C  C115  1  0.16183446  0.67713021  0.08696066  1
  C  C116  1  0.53107427  0.84631203  0.08443718  1
  C  C117  1  0.34555360  0.85802450  0.58239706  1
  C  C118  1  0.52002585  0.64814300  0.58190947  1
  C  C119  1  0.13269858  0.47446611  0.58032072  1
  C  C120  1  0.30916684  0.83470217  0.25655717  1
  C  C121  1  0.52785478  0.70114525  0.25807445  1
  C  C122  1  0.17797327  0.48150536  0.25532407  1
  C  C123  1  0.32307588  0.47372787  0.74442505  1
  C  C124  1  0.14048341  0.66419104  0.74424949  1
  C  C125  1  0.51792667  0.84451612  0.74264778  1
