# generated using pymatgen
data_Cu2NiC17
_symmetry_space_group_name_H-M   'P 1'
_cell_length_a   9.16540264
_cell_length_b   9.16540231
_cell_length_c   22.40649668
_cell_angle_alpha   90.28547773
_cell_angle_beta   89.71452228
_cell_angle_gamma   119.72018253
_symmetry_Int_Tables_number   1
_chemical_formula_structural   Cu2NiC17
_chemical_formula_sum   'Cu12 Ni6 C102'
_cell_volume   1634.62493343
_cell_formula_units_Z   6
loop_
 _symmetry_equiv_pos_site_id
 _symmetry_equiv_pos_as_xyz
  1  'x, y, z'
loop_
 _atom_site_type_symbol
 _atom_site_label
 _atom_site_symmetry_multiplicity
 _atom_site_fract_x
 _atom_site_fract_y
 _atom_site_fract_z
 _atom_site_occupancy
  C  C0  1  0.99692485  0.98998630  0.50210284  1
  C  C1  1  0.01001370  0.00307515  0.00210284  1
  C  C2  1  0.67046495  0.32260681  0.83617891  1
  C  C3  1  0.67739319  0.32953505  0.33617891  1
  C  C4  1  0.36011761  0.68784367  0.16889519  1
  C  C5  1  0.31215633  0.63988239  0.66889519  1
  C  C6  1  0.36368088  0.36101367  0.24913394  1
  C  C7  1  0.99513582  0.63900617  0.24410097  1
  C  C8  1  0.63898633  0.63631912  0.74913394  1
  C  C9  1  0.36099383  0.00486418  0.74410097  1
  C  C10  1  0.04013279  0.70038277  0.58036915  1
  C  C11  1  0.65513336  0.96960279  0.58467579  1
  C  C12  1  0.29961723  0.95986721  0.08036915  1
  C  C13  1  0.03039721  0.34486664  0.08467579  1
  C  C14  1  0.98020947  0.67923391  0.91730694  1
  C  C15  1  0.69754582  0.02966629  0.91363760  1
  C  C16  1  0.97033371  0.30245418  0.41363760  1
  C  C17  1  0.32076609  0.01979053  0.41730694  1
  C  C18  1  0.98348325  0.98947448  0.35094323  1
  C  C19  1  0.01052552  0.01651675  0.85094323  1
  C  C20  1  0.67318520  0.32953243  0.68526374  1
  C  C21  1  0.67046757  0.32681480  0.18526374  1
  C  C22  1  0.33708432  0.66303184  0.01729483  1
  C  C23  1  0.33696816  0.66291568  0.51729483  1
  C  C24  1  0.00944493  0.01281193  0.64972545  1
  C  C25  1  0.98718807  0.99055507  0.14972545  1
  C  C26  1  0.66324361  0.34174580  0.98266757  1
  C  C27  1  0.65825420  0.33675639  0.48266757  1
  C  C28  1  0.32065359  0.65703471  0.31673887  1
  C  C29  1  0.34296529  0.67934641  0.81673887  1
  Ni  Ni30  1  0.01183379  0.30520236  0.25256501  1
  Ni  Ni31  1  0.69479764  0.98816621  0.75256501  1
  Ni  Ni32  1  0.36121535  0.04319914  0.58432656  1
  Ni  Ni33  1  0.95680086  0.63878465  0.08432656  1
  Ni  Ni34  1  0.34711006  0.97581231  0.92017718  1
  Ni  Ni35  1  0.02418769  0.65288994  0.42017718  1
  Cu  Cu36  1  0.28423332  0.98486640  0.25019214  1
  Cu  Cu37  1  0.69238855  0.70879372  0.24729495  1
  Cu  Cu38  1  0.29120628  0.30761145  0.74729495  1
  Cu  Cu39  1  0.01513360  0.71576668  0.75019214  1
  Cu  Cu40  1  0.95601759  0.31788080  0.57944087  1
  Cu  Cu41  1  0.68266027  0.63680737  0.58503113  1
  Cu  Cu42  1  0.68211920  0.04398241  0.07944087  1
  Cu  Cu43  1  0.36319263  0.31733973  0.08503113  1
  Cu  Cu44  1  0.62559940  0.65173484  0.91272316  1
  Cu  Cu45  1  0.03162892  0.38266607  0.91764464  1
  Cu  Cu46  1  0.61733393  0.96837108  0.41764464  1
  Cu  Cu47  1  0.34826516  0.37440060  0.41272316  1
  C  C48  1  0.20695339  0.00582841  0.30779365  1
  C  C49  1  0.80348370  0.77437954  0.30224615  1
  C  C50  1  0.99910631  0.21311971  0.31434658  1
  C  C51  1  0.22562046  0.19651630  0.80224615  1
  C  C52  1  0.99417159  0.79304661  0.80779365  1
  C  C53  1  0.78688029  0.00089369  0.81434658  1
  C  C54  1  0.80829174  0.97404704  0.69473459  1
  C  C55  1  0.17364607  0.19933665  0.69328473  1
  C  C56  1  0.03667426  0.83559271  0.69572350  1
  C  C57  1  0.80066335  0.82635393  0.19328473  1
  C  C58  1  0.02595296  0.19170826  0.19473459  1
  C  C59  1  0.16440729  0.96332574  0.19572350  1
  C  C60  1  0.88193172  0.35378322  0.63504969  1
  C  C61  1  0.47058843  0.11765816  0.64377851  1
  C  C62  1  0.66484548  0.54749489  0.64409888  1
  C  C63  1  0.88234184  0.52941157  0.14377851  1
  C  C64  1  0.64621678  0.11806828  0.13504969  1
  C  C65  1  0.45250511  0.33515452  0.14409888  1
  C  C66  1  0.47739832  0.31055721  0.03214232  1
  C  C67  1  0.83176710  0.52637395  0.02601958  1
  C  C68  1  0.70210316  0.16008754  0.02453234  1
  C  C69  1  0.47362605  0.16823290  0.52601958  1
  C  C70  1  0.68944279  0.52260168  0.53214232  1
  C  C71  1  0.83991246  0.29789684  0.52453234  1
  C  C72  1  0.54759223  0.68473987  0.96717875  1
  C  C73  1  0.11619672  0.44557031  0.97842514  1
  C  C74  1  0.32257250  0.86773183  0.97923008  1
  C  C75  1  0.55442969  0.88380328  0.47842514  1
  C  C76  1  0.31526013  0.45240777  0.46717875  1
  C  C77  1  0.13226817  0.67742750  0.47923008  1
  C  C78  1  0.13977037  0.63174688  0.36174626  1
  C  C79  1  0.49742082  0.85333089  0.36672177  1
  C  C80  1  0.36368371  0.48366172  0.35605929  1
  C  C81  1  0.14666911  0.50257918  0.86672177  1
  C  C82  1  0.36825312  0.86022963  0.86174626  1
  C  C83  1  0.51633828  0.63631629  0.85605929  1
  C  C84  1  0.01384277  0.82259713  0.41388473  1
  C  C85  1  0.80148355  0.00964903  0.41187435  1
  C  C86  1  0.19937162  0.19303675  0.40834770  1
  C  C87  1  0.99035097  0.19851645  0.91187435  1
  C  C88  1  0.17740287  0.98615723  0.91388473  1
  C  C89  1  0.80696325  0.80062838  0.90834770  1
  C  C90  1  0.95292093  0.14612195  0.58601169  1
  C  C91  1  0.17343335  0.02862982  0.59023041  1
  C  C92  1  0.85216187  0.80539207  0.58318754  1
  C  C93  1  0.97137018  0.82656665  0.09023041  1
  C  C94  1  0.85387805  0.04707907  0.08601169  1
  C  C95  1  0.19460793  0.14783813  0.08318754  1
  C  C96  1  0.64960870  0.13809699  0.74979209  1
  C  C97  1  0.47254151  0.34217366  0.73961668  1
  C  C98  1  0.85807647  0.54326529  0.74392963  1
  C  C99  1  0.65782634  0.52745849  0.23961668  1
  C  C100  1  0.86190301  0.35039130  0.24979209  1
  C  C101  1  0.45673471  0.14192353  0.24392963  1
  C  C102  1  0.63411112  0.48647870  0.91926908  1
  C  C103  1  0.86198394  0.38495627  0.91675061  1
  C  C104  1  0.52593363  0.15542578  0.92304979  1
  C  C105  1  0.61504373  0.13801606  0.41675061  1
  C  C106  1  0.51352130  0.36588888  0.41926908  1
  C  C107  1  0.84457422  0.47406637  0.42304979  1
  C  C108  1  0.32630710  0.46235112  0.07891464  1
  C  C109  1  0.14686625  0.66690306  0.07915116  1
  C  C110  1  0.53459106  0.86478338  0.07470959  1
  C  C111  1  0.33309694  0.85313375  0.57915116  1
  C  C112  1  0.53764888  0.67369290  0.57891464  1
  C  C113  1  0.13521662  0.46540894  0.57470959  1
  C  C114  1  0.29293741  0.81899686  0.25326189  1
  C  C115  1  0.52527786  0.70905991  0.25145182  1
  C  C116  1  0.19487238  0.49128035  0.25502414  1
  C  C117  1  0.29094009  0.47472214  0.75145182  1
  C  C118  1  0.18100314  0.70706259  0.75326189  1
  C  C119  1  0.50871965  0.80512762  0.75502414  1
