# generated using pymatgen
data_Cu4NiC8
_symmetry_space_group_name_H-M   'P 1'
_cell_length_a   5.28915351
_cell_length_b   5.13554677
_cell_length_c   6.45952319
_cell_angle_alpha   88.38528382
_cell_angle_beta   90.86154222
_cell_angle_gamma   101.08954438
_symmetry_Int_Tables_number   1
_chemical_formula_structural   Cu4NiC8
_chemical_formula_sum   'Cu4 Ni1 C8'
_cell_volume   172.10522627
_cell_formula_units_Z   1
loop_
 _symmetry_equiv_pos_site_id
 _symmetry_equiv_pos_as_xyz
  1  'x, y, z'
loop_
 _atom_site_type_symbol
 _atom_site_label
 _atom_site_symmetry_multiplicity
 _atom_site_fract_x
 _atom_site_fract_y
 _atom_site_fract_z
 _atom_site_occupancy
  Ni  Ni0  1  0.45323257  0.15578020  0.87732185  1
  Cu  Cu1  1  0.19546782  0.48810713  0.60925322  1
  Cu  Cu2  1  0.17070135  0.98819020  0.32207070  1
  Cu  Cu3  1  0.88993858  0.87958655  0.84006479  1
  Cu  Cu4  1  0.76251182  0.52408588  0.33841142  1
  C  C5  1  0.11236804  0.23789430  0.83180825  1
  C  C6  1  0.01366523  0.29739603  0.38401985  1
  C  C7  1  0.96362555  0.73562643  0.56666610  1
  C  C8  1  0.90618871  0.76213340  0.12700835  1
  C  C9  1  0.46912312  0.79129292  0.81745428  1
  C  C10  1  0.43818214  0.72716970  0.38722666  1
  C  C11  1  0.53382539  0.31477858  0.59863719  1
  C  C12  1  0.51616967  0.23684769  0.16464034  1
