# generated using pymatgen
data_Cu4NiC12
_symmetry_space_group_name_H-M   'P 1'
_cell_length_a   5.28018156
_cell_length_b   5.38307670
_cell_length_c   8.71156980
_cell_angle_alpha   76.07649060
_cell_angle_beta   89.68277245
_cell_angle_gamma   60.17014442
_symmetry_Int_Tables_number   1
_chemical_formula_structural   Cu4NiC12
_chemical_formula_sum   'Cu4 Ni1 C12'
_cell_volume   206.57050183
_cell_formula_units_Z   1
loop_
 _symmetry_equiv_pos_site_id
 _symmetry_equiv_pos_as_xyz
  1  'x, y, z'
loop_
 _atom_site_type_symbol
 _atom_site_label
 _atom_site_symmetry_multiplicity
 _atom_site_fract_x
 _atom_site_fract_y
 _atom_site_fract_z
 _atom_site_occupancy
  Ni  Ni0  1  0.57628700  0.88385500  0.85381800  1
  Cu  Cu1  1  0.71787200  0.51456300  0.25492200  1
  Cu  Cu2  1  0.43376100  0.02921600  0.50134100  1
  Cu  Cu3  1  0.24279200  0.54430000  0.73715800  1
  Cu  Cu4  1  0.03797700  0.97934000  0.02345000  1
  C  C5  1  0.96053200  0.22664600  0.13157400  1
  C  C6  1  0.55183900  0.74689200  0.37598600  1
  C  C7  1  0.45150100  0.73946200  0.06034800  1
  C  C8  1  0.45007300  0.74760100  0.68141500  1
  C  C9  1  0.46139400  0.23202200  0.63233100  1
  C  C10  1  0.01779400  0.73355800  0.86992600  1
  C  C11  1  0.07973100  0.22546600  0.42933600  1
  C  C12  1  0.93720900  0.76328500  0.56295300  1
  C  C13  1  0.95277800  0.70983500  0.17832700  1
  C  C14  1  0.55250800  0.25515200  0.32804900  1
  C  C15  1  0.58714100  0.22169100  0.92026700  1
  C  C16  1  0.11381200  0.20962100  0.83022600  1
