# generated using pymatgen
data_Cu2Ni10C7
_symmetry_space_group_name_H-M   'P 1'
_cell_length_a   5.14881730
_cell_length_b   7.50875356
_cell_length_c   5.75022930
_cell_angle_alpha   97.60213890
_cell_angle_beta   99.04568930
_cell_angle_gamma   84.91900586
_symmetry_Int_Tables_number   1
_chemical_formula_structural   Cu2Ni10C7
_chemical_formula_sum   'Cu2 Ni10 C7'
_cell_volume   217.09420799
_cell_formula_units_Z   1
loop_
 _symmetry_equiv_pos_site_id
 _symmetry_equiv_pos_as_xyz
  1  'x, y, z'
loop_
 _atom_site_type_symbol
 _atom_site_label
 _atom_site_symmetry_multiplicity
 _atom_site_fract_x
 _atom_site_fract_y
 _atom_site_fract_z
 _atom_site_occupancy
  C  C0  1  0.98278444  0.49154443  0.97523111  1
  C  C1  1  0.52535580  0.01756066  0.49049480  1
  C  C2  1  0.50197224  0.68210215  0.16849909  1
  C  C3  1  0.47046641  0.31707804  0.86653156  1
  C  C4  1  0.02493358  0.69385480  0.63229986  1
  C  C5  1  0.99289309  0.31699379  0.36678194  1
  C  C6  1  0.00114119  0.01165427  0.01001860  1
  Ni  Ni7  1  0.87065170  0.45553582  0.62293317  1
  Ni  Ni8  1  0.83399934  0.10550062  0.30001555  1
  Ni  Ni9  1  0.67918353  0.09531032  0.81809806  1
  Ni  Ni10  1  0.69282867  0.77990645  0.46501823  1
  Ni  Ni11  1  0.69453413  0.43878050  0.13931848  1
  Ni  Ni12  1  0.30545437  0.57013310  0.87427936  1
  Ni  Ni13  1  0.32139764  0.24573002  0.54164099  1
  Ni  Ni14  1  0.29619170  0.90720674  0.21762114  1
  Ni  Ni15  1  0.14367061  0.24007118  0.06136185  1
  Ni  Ni16  1  0.15376804  0.91818864  0.74051278  1
  Cu  Cu17  1  0.83827934  0.76166141  0.98450521  1
  Cu  Cu18  1  0.17049418  0.55833108  0.32007522  1
