# generated using pymatgen
data_Cu4(Ni3C23)3
_symmetry_space_group_name_H-M   'P 1'
_cell_length_a   18.60687571
_cell_length_b   9.30417703
_cell_length_c   23.00194584
_cell_angle_alpha   89.95020458
_cell_angle_beta   89.45045237
_cell_angle_gamma   120.00433782
_symmetry_Int_Tables_number   1
_chemical_formula_structural   Cu4(Ni3C23)3
_chemical_formula_sum   'Cu12 Ni27 C207'
_cell_volume   3448.24705089
_cell_formula_units_Z   3
loop_
 _symmetry_equiv_pos_site_id
 _symmetry_equiv_pos_as_xyz
  1  'x, y, z'
loop_
 _atom_site_type_symbol
 _atom_site_label
 _atom_site_symmetry_multiplicity
 _atom_site_fract_x
 _atom_site_fract_y
 _atom_site_fract_z
 _atom_site_occupancy
  C  C0  1  0.82077487  0.00925579  0.25479840  1
  C  C1  1  0.17809064  0.35983058  0.25289535  1
  C  C2  1  0.69269002  0.37010251  0.25358809  1
  C  C3  1  0.99843875  0.63080487  0.24642708  1
  C  C4  1  0.50042881  0.64814638  0.24768421  1
  C  C5  1  0.32036699  0.63098356  0.75119542  1
  C  C6  1  0.99789762  0.35118788  0.74120240  1
  C  C7  1  0.50045578  0.36820048  0.74308264  1
  C  C8  1  0.19102932  0.01448707  0.74915595  1
  C  C9  1  0.68173099  0.00089077  0.74738362  1
  C  C10  1  0.14426490  0.31947052  0.58197994  1
  C  C11  1  0.65364631  0.33331432  0.58335870  1
  C  C12  1  0.33570841  0.98536999  0.58618331  1
  C  C13  1  0.83311785  0.96853750  0.58373694  1
  C  C14  1  0.14598911  0.96964180  0.08112940  1
  C  C15  1  0.64772435  0.97083290  0.08081135  1
  C  C16  1  0.33275044  0.68801440  0.08258888  1
  C  C17  1  0.83568020  0.68804162  0.08649403  1
  C  C18  1  0.48077614  0.67875609  0.91538457  1
  C  C19  1  0.98080611  0.67914365  0.92404177  1
  C  C20  1  0.34334073  0.01952222  0.90808091  1
  C  C21  1  0.84266675  0.01921052  0.91007619  1
  C  C22  1  0.17251478  0.29494205  0.91074653  1
  C  C23  1  0.66997918  0.29095628  0.91039652  1
  C  C24  1  0.48390558  0.28897255  0.42782915  1
  C  C25  1  0.97823396  0.28041526  0.42012535  1
  C  C26  1  0.16918070  0.04920177  0.41433846  1
  C  C27  1  0.67559804  0.05219912  0.41678766  1
  C  C28  1  0.34360988  0.66680437  0.41354313  1
  C  C29  1  0.84375133  0.66564442  0.41973433  1
  C  C30  1  0.99677942  0.99838595  0.50406628  1
  C  C31  1  0.50637573  0.01570139  0.50493457  1
  C  C32  1  0.00324777  0.99300144  0.00261051  1
  C  C33  1  0.50375681  0.99387914  0.99866107  1
  C  C34  1  0.32908014  0.33369349  0.82561308  1
  C  C35  1  0.82113730  0.32764869  0.82723695  1
  C  C36  1  0.32118437  0.31365106  0.33369393  1
  C  C37  1  0.82816782  0.32261499  0.33193795  1
  C  C38  1  0.15900857  0.65398363  0.16911535  1
  C  C39  1  0.66613905  0.66295225  0.16735973  1
  C  C40  1  0.16355401  0.66747042  0.66506666  1
  C  C41  1  0.66554131  0.66533025  0.66487571  1
  C  C42  1  0.00200942  0.00851738  0.34976485  1
  C  C43  1  0.49942942  0.00233035  0.35092780  1
  C  C44  1  0.99757192  0.99575329  0.84816245  1
  C  C45  1  0.50252639  0.99600918  0.84829798  1
  C  C46  1  0.33608051  0.32743152  0.68098231  1
  C  C47  1  0.83619180  0.34471045  0.18179048  1
  C  C48  1  0.32914330  0.33657145  0.98534274  1
  C  C49  1  0.82640124  0.33895607  0.98553151  1
  C  C50  1  0.32795727  0.31593767  0.48567067  1
  C  C51  1  0.82983288  0.33142662  0.48872235  1
  C  C52  1  0.67459975  0.67661364  0.31556643  1
  C  C53  1  0.17353402  0.67104526  0.81296827  1
  Ni  Ni54  1  0.15489349  0.00204440  0.24939769  1
  Ni  Ni55  1  0.64793461  0.99609369  0.24892904  1
  Ni  Ni56  1  0.35341166  0.70447659  0.24805630  1
  Ni  Ni57  1  0.85432209  0.70935670  0.24811609  1
  Ni  Ni58  1  0.00243579  0.30069973  0.25113696  1
  Ni  Ni59  1  0.14567087  0.29404760  0.74815897  1
  Ni  Ni60  1  0.65486679  0.30737037  0.75088281  1
  Ni  Ni61  1  0.50201479  0.70351957  0.75192593  1
  Ni  Ni62  1  0.35457373  0.00024680  0.74869306  1
  Ni  Ni63  1  0.85343510  0.01013815  0.74850312  1
  Ni  Ni64  1  0.48760900  0.33098314  0.58241852  1
  Ni  Ni65  1  0.98412577  0.33947629  0.58441162  1
  Ni  Ni66  1  0.17714614  0.02036438  0.58437111  1
  Ni  Ni67  1  0.67851616  0.02346408  0.58406987  1
  Ni  Ni68  1  0.83748241  0.63439996  0.58395786  1
  Ni  Ni69  1  0.48364708  0.62993869  0.08475478  1
  Ni  Ni70  1  0.98831117  0.64380356  0.08228646  1
  Ni  Ni71  1  0.17890121  0.33357347  0.08423624  1
  Ni  Ni72  1  0.67494276  0.33153842  0.08467680  1
  Ni  Ni73  1  0.31473384  0.67002825  0.92014212  1
  Ni  Ni74  1  0.80791597  0.66551020  0.91725581  1
  Ni  Ni75  1  0.16595889  0.95966710  0.91782083  1
  Ni  Ni76  1  0.66772118  0.95313053  0.91771407  1
  Ni  Ni77  1  0.30766980  0.95098595  0.41685158  1
  Ni  Ni78  1  0.81564608  0.96471199  0.41922460  1
  Ni  Ni79  1  0.16824707  0.38275325  0.41709783  1
  Ni  Ni80  1  0.66614787  0.37101289  0.41705824  1
  Cu  Cu81  1  0.99692191  0.00276801  0.64672729  1
  Cu  Cu82  1  0.50932929  0.01428675  0.65461785  1
  Cu  Cu83  1  0.00866041  0.00467957  0.15488956  1
  Cu  Cu84  1  0.50167137  0.99083829  0.15042974  1
  Cu  Cu85  1  0.82808339  0.32273970  0.67814173  1
  Cu  Cu86  1  0.32996207  0.34520710  0.18154815  1
  Cu  Cu87  1  0.16332958  0.66167935  0.01825291  1
  Cu  Cu88  1  0.66280248  0.66107754  0.01882586  1
  Cu  Cu89  1  0.16243773  0.66446562  0.51887413  1
  Cu  Cu90  1  0.67265440  0.66333738  0.52327640  1
  Cu  Cu91  1  0.17562798  0.67371845  0.30971438  1
  Cu  Cu92  1  0.67667122  0.68003788  0.80856361  1
  C  C93  1  0.49498367  0.29128433  0.24654168  1
  C  C94  1  0.99619368  0.69826164  0.74804051  1
  C  C95  1  0.33397076  0.63834007  0.58223162  1
  C  C96  1  0.33616648  0.04011532  0.08534866  1
  C  C97  1  0.83408910  0.03006515  0.08218492  1
  C  C98  1  0.01925508  0.37226013  0.91790517  1
  C  C99  1  0.52283533  0.37875009  0.91661298  1
  C  C100  1  0.02378623  0.66591148  0.41504765  1
  C  C101  1  0.52013543  0.66573158  0.41800287  1
  C  C102  1  0.12008762  0.04889324  0.30687577  1
  C  C103  1  0.60691261  0.02994440  0.30622170  1
  C  C104  1  0.40893477  0.77824022  0.30541188  1
  C  C105  1  0.90924932  0.78992217  0.30562463  1
  C  C106  1  0.48322373  0.19753806  0.30114574  1
  C  C107  1  0.98550723  0.19421070  0.31028343  1
  C  C108  1  0.10835585  0.18741372  0.80859900  1
  C  C109  1  0.61800275  0.19455243  0.80961491  1
  C  C110  1  0.48438325  0.77262596  0.81216959  1
  C  C111  1  0.98509659  0.76882095  0.80341090  1
  C  C112  1  0.40624404  0.02581135  0.80819510  1
  C  C113  1  0.90601716  0.04397989  0.80820900  1
  C  C114  1  0.40092286  0.96879378  0.69172577  1
  C  C115  1  0.89812798  0.97871332  0.69256016  1
  C  C116  1  0.08506166  0.19400412  0.69282977  1
  C  C117  1  0.59381122  0.22582164  0.69406454  1
  C  C118  1  0.00985969  0.81053118  0.69863513  1
  C  C119  1  0.52174688  0.83678229  0.69810881  1
  C  C120  1  0.39564353  0.82174243  0.18936624  1
  C  C121  1  0.89958284  0.83114200  0.18973114  1
  C  C122  1  0.02356042  0.21037187  0.19645457  1
  C  C123  1  0.50795797  0.20606190  0.19623840  1
  C  C124  1  0.09594960  0.96454833  0.19138998  1
  C  C125  1  0.58883480  0.96902240  0.19112783  1
  C  C126  1  0.44766115  0.36039974  0.64035849  1
  C  C127  1  0.94002958  0.36636250  0.64302896  1
  C  C128  1  0.23788593  0.10004288  0.63969733  1
  C  C129  1  0.74081996  0.10739797  0.64065805  1
  C  C130  1  0.32084395  0.53467212  0.63395454  1
  C  C131  1  0.81694377  0.50070444  0.63743265  1
  C  C132  1  0.43912571  0.51034897  0.14286343  1
  C  C133  1  0.94911092  0.53442126  0.14008586  1
  C  C134  1  0.32283995  0.12513239  0.13511404  1
  C  C135  1  0.82090626  0.10707626  0.13377509  1
  C  C136  1  0.24308177  0.37615782  0.13985345  1
  C  C137  1  0.73503298  0.37001223  0.13992736  1
  C  C138  1  0.21694351  0.28999635  0.02763741  1
  C  C139  1  0.71199374  0.28549870  0.02713516  1
  C  C140  1  0.42835668  0.55210168  0.02773657  1
  C  C141  1  0.93156038  0.56229144  0.02450940  1
  C  C142  1  0.34832141  0.13237302  0.03057855  1
  C  C143  1  0.84379807  0.12837050  0.02929589  1
  C  C144  1  0.21510565  0.13847448  0.52629378  1
  C  C145  1  0.71517178  0.14166297  0.52681630  1
  C  C146  1  0.34390502  0.55952754  0.52932623  1
  C  C147  1  0.85262339  0.56888514  0.52266681  1
  C  C148  1  0.42935366  0.29529882  0.52499854  1
  C  C149  1  0.93032697  0.30622464  0.52643394  1
  C  C150  1  0.26675932  0.69289706  0.97870870  1
  C  C151  1  0.76625698  0.69363889  0.97730158  1
  C  C152  1  0.07302722  0.45284219  0.96935109  1
  C  C153  1  0.57391625  0.45682659  0.96925867  1
  C  C154  1  0.15186628  0.83950625  0.97602650  1
  C  C155  1  0.65122978  0.83753264  0.97736494  1
  C  C156  1  0.26513829  0.83742180  0.47610153  1
  C  C157  1  0.76588934  0.84299722  0.47580831  1
  C  C158  1  0.15262708  0.46819725  0.47573344  1
  C  C159  1  0.65090035  0.46470312  0.47333550  1
  C  C160  1  0.07489237  0.69064300  0.46742986  1
  C  C161  1  0.57377294  0.68850893  0.46783279  1
  C  C162  1  0.06283696  0.64404910  0.36166066  1
  C  C163  1  0.55456417  0.64042521  0.36293294  1
  C  C164  1  0.24646834  0.86505358  0.36114850  1
  C  C165  1  0.76041039  0.88794674  0.36055537  1
  C  C166  1  0.18061246  0.49605338  0.35818915  1
  C  C167  1  0.67307763  0.46887962  0.35653067  1
  C  C168  1  0.05569232  0.47121493  0.86476663  1
  C  C169  1  0.56050260  0.47970657  0.86368723  1
  C  C170  1  0.17509399  0.87401253  0.85911311  1
  C  C171  1  0.67948261  0.86117428  0.86026648  1
  C  C172  1  0.25719944  0.63334031  0.86330214  1
  C  C173  1  0.74564818  0.62909378  0.86251707  1
  C  C174  1  0.01668377  0.81768879  0.41194869  1
  C  C175  1  0.51169204  0.81679331  0.41450331  1
  C  C176  1  0.39870984  0.96460231  0.41359688  1
  C  C177  1  0.90486643  0.96823952  0.41873664  1
  C  C178  1  0.08778197  0.19591450  0.41674242  1
  C  C179  1  0.58184888  0.18496241  0.41823841  1
  C  C180  1  0.01201386  0.20597313  0.91474212  1
  C  C181  1  0.51555074  0.21267721  0.91378842  1
  C  C182  1  0.08271755  0.97983021  0.91840314  1
  C  C183  1  0.58691808  0.97859357  0.91765064  1
  C  C184  1  0.40425831  0.84291264  0.92016099  1
  C  C185  1  0.89954911  0.83340405  0.91415280  1
  C  C186  1  0.49244278  0.15581453  0.58900607  1
  C  C187  1  0.99340183  0.17121750  0.58996802  1
  C  C188  1  0.08701148  0.01124309  0.59228415  1
  C  C189  1  0.58838948  0.01582199  0.59277580  1
  C  C190  1  0.40642663  0.80757539  0.58691767  1
  C  C191  1  0.91496671  0.82443721  0.59291652  1
  C  C192  1  0.48818923  0.81440745  0.09014386  1
  C  C193  1  0.99433572  0.82980866  0.08826870  1
  C  C194  1  0.40830892  0.01446175  0.09201821  1
  C  C195  1  0.90663426  0.00541956  0.08659531  1
  C  C196  1  0.08890802  0.16292577  0.09264654  1
  C  C197  1  0.58190585  0.16030222  0.09199526  1
  C  C198  1  0.34354622  0.16320353  0.74608951  1
  C  C199  1  0.84657245  0.18200059  0.74158268  1
  C  C200  1  0.23940972  0.32311224  0.74275695  1
  C  C201  1  0.74471188  0.31354040  0.74136931  1
  C  C202  1  0.41996280  0.52262288  0.74394841  1
  C  C203  1  0.92301823  0.52996776  0.74281292  1
  C  C204  1  0.34778561  0.51900389  0.24232590  1
  C  C205  1  0.84328229  0.52436010  0.24498930  1
  C  C206  1  0.42105496  0.31189808  0.24033729  1
  C  C207  1  0.92070927  0.31787428  0.24296669  1
  C  C208  1  0.24722477  0.17374730  0.23816313  1
  C  C209  1  0.74080857  0.15509505  0.24280170  1
  C  C210  1  0.32722720  0.50776726  0.92267374  1
  C  C211  1  0.82009388  0.50188888  0.91898928  1
  C  C212  1  0.43895871  0.35864124  0.92332667  1
  C  C213  1  0.93597602  0.35310945  0.92558879  1
  C  C214  1  0.25256671  0.13866460  0.92201159  1
  C  C215  1  0.75424921  0.13348378  0.92048140  1
  C  C216  1  0.31987419  0.13898260  0.41815886  1
  C  C217  1  0.82835136  0.15177767  0.42173491  1
  C  C218  1  0.25491320  0.37564510  0.41942605  1
  C  C219  1  0.75132646  0.36042808  0.41941392  1
  C  C220  1  0.43568125  0.51791920  0.42443674  1
  C  C221  1  0.94077307  0.51668612  0.42016431  1
  C  C222  1  0.17822246  0.51077108  0.07767462  1
  C  C223  1  0.67396791  0.50843671  0.07632155  1
  C  C224  1  0.08508996  0.67399764  0.07720511  1
  C  C225  1  0.58031626  0.66562114  0.08075468  1
  C  C226  1  0.25849901  0.87114163  0.08254366  1
  C  C227  1  0.75584327  0.86068871  0.07879482  1
  C  C228  1  0.17618386  0.84147917  0.57617490  1
  C  C229  1  0.67581110  0.84470050  0.57754211  1
  C  C230  1  0.25586898  0.65074761  0.57863894  1
  C  C231  1  0.75142623  0.64836086  0.58259463  1
  C  C232  1  0.08126967  0.49957952  0.58042265  1
  C  C233  1  0.58204820  0.49234452  0.57638611  1
  C  C234  1  0.15468471  0.82483555  0.25502851  1
  C  C235  1  0.64735876  0.81966563  0.24926805  1
  C  C236  1  0.25828970  0.67177749  0.25030574  1
  C  C237  1  0.76177033  0.69164429  0.24716088  1
  C  C238  1  0.08737733  0.48835530  0.25531627  1
  C  C239  1  0.57058504  0.45844578  0.24977379  1
  C  C240  1  0.14613801  0.47093427  0.74850585  1
  C  C241  1  0.65420602  0.48432315  0.75636346  1
  C  C242  1  0.07228284  0.68349010  0.75174247  1
  C  C243  1  0.58698497  0.68648568  0.75617618  1
  C  C244  1  0.26217023  0.83224908  0.74727461  1
  C  C245  1  0.75845411  0.84987067  0.75124725  1
