# generated using pymatgen
data_CuNi8C33
_symmetry_space_group_name_H-M   'P 1'
_cell_length_a   9.09562209
_cell_length_b   9.11690171
_cell_length_c   22.20214887
_cell_angle_alpha   89.98035242
_cell_angle_beta   89.89638076
_cell_angle_gamma   120.07147554
_symmetry_Int_Tables_number   1
_chemical_formula_structural   CuNi8C33
_chemical_formula_sum   'Cu3 Ni24 C99'
_cell_volume   1593.27563644
_cell_formula_units_Z   3
loop_
 _symmetry_equiv_pos_site_id
 _symmetry_equiv_pos_as_xyz
  1  'x, y, z'
loop_
 _atom_site_type_symbol
 _atom_site_label
 _atom_site_symmetry_multiplicity
 _atom_site_fract_x
 _atom_site_fract_y
 _atom_site_fract_z
 _atom_site_occupancy
  Ni  Ni0  1  0.63659866  0.00681918  0.24361593  1
  Ni  Ni1  1  0.37001423  0.36071940  0.24318085  1
  Ni  Ni2  1  0.99183766  0.63158152  0.24323861  1
  Ni  Ni3  1  0.62688550  0.61896107  0.74746383  1
  Ni  Ni4  1  0.99092427  0.37189557  0.75052303  1
  Ni  Ni5  1  0.38224133  0.00621106  0.74636184  1
  Ni  Ni6  1  0.30667466  0.33508594  0.58627686  1
  Ni  Ni7  1  0.03087997  0.69650725  0.58292847  1
  Ni  Ni8  1  0.66220359  0.97292811  0.58664421  1
  Ni  Ni9  1  0.31282278  0.96974401  0.08394184  1
  Ni  Ni10  1  0.65679739  0.68746952  0.08380511  1
  Ni  Ni11  1  0.03010119  0.34238205  0.08401787  1
  Ni  Ni12  1  0.96378853  0.66519617  0.91705744  1
  Ni  Ni13  1  0.70244790  0.03804712  0.91721055  1
  Ni  Ni14  1  0.33401352  0.29706770  0.91672459  1
  Ni  Ni15  1  0.96268945  0.28883173  0.41583401  1
  Ni  Ni16  1  0.32246387  0.03484395  0.41551696  1
  Ni  Ni17  1  0.71187118  0.67438423  0.41369665  1
  Ni  Ni18  1  0.00506103  0.00144467  0.49964408  1
  Ni  Ni19  1  0.00124300  0.00127713  0.99784741  1
  Ni  Ni20  1  0.66995682  0.33338589  0.83275348  1
  Ni  Ni21  1  0.66783406  0.33343689  0.33101423  1
  Ni  Ni22  1  0.33444115  0.66803776  0.16287738  1
  Ni  Ni23  1  0.33864955  0.67133678  0.66882051  1
  Cu  Cu24  1  0.00113225  0.99993523  0.35348934  1
  Cu  Cu25  1  0.66521983  0.33197307  0.68417228  1
  Cu  Cu26  1  0.66659629  0.33324180  0.17692778  1
  C  C27  1  0.99396566  0.99581586  0.85469069  1
  C  C28  1  0.99616379  0.98700272  0.64888454  1
  C  C29  1  0.99960755  0.99836087  0.14249235  1
  C  C30  1  0.66730819  0.33343173  0.98262420  1
  C  C31  1  0.66122003  0.34273975  0.48300433  1
  C  C32  1  0.33313109  0.66627367  0.01523897  1
  C  C33  1  0.33140628  0.66730428  0.51849340  1
  C  C34  1  0.32706265  0.65816914  0.31658321  1
  C  C35  1  0.33551139  0.67349136  0.81650501  1
  C  C36  1  0.00864067  0.71540711  0.75342872  1
  C  C37  1  0.70922896  0.99128623  0.75208431  1
  C  C38  1  0.36800709  0.03372926  0.58316703  1
  C  C39  1  0.66398421  0.63489562  0.58399410  1
  C  C40  1  0.96949113  0.63286395  0.08247436  1
  C  C41  1  0.66364659  0.03047707  0.08251842  1
  C  C42  1  0.36704684  0.33647732  0.08246406  1
  C  C43  1  0.62246686  0.66370358  0.91567718  1
  C  C44  1  0.04237795  0.37749886  0.91547585  1
  C  C45  1  0.33566710  0.96057661  0.91663201  1
  C  C46  1  0.34169931  0.38340002  0.41909587  1
  C  C47  1  0.03765023  0.65436016  0.41876942  1
  C  C48  1  0.29429437  0.99260652  0.25093674  1
  C  C49  1  0.69892990  0.70666458  0.25098568  1
  C  C50  1  0.00683030  0.30044710  0.25118877  1
  C  C51  1  0.27719990  0.28602585  0.75196765  1
  C  C52  1  0.96578820  0.33449249  0.58136565  1
  C  C53  1  0.61153224  0.95631190  0.41769514  1
  C  C54  1  0.21987641  0.01609051  0.30907277  1
  C  C55  1  0.79614629  0.78049064  0.30906778  1
  C  C56  1  0.98392825  0.20403064  0.30946024  1
  C  C57  1  0.18562913  0.17784852  0.80848524  1
  C  C58  1  0.99422751  0.82214365  0.81050556  1
  C  C59  1  0.82927645  0.00950101  0.81048099  1
  C  C60  1  0.80968327  0.97289062  0.69177288  1
  C  C61  1  0.17088538  0.19609102  0.69364202  1
  C  C62  1  0.02935455  0.83228004  0.69183647  1
  C  C63  1  0.79872553  0.82403866  0.19497970  1
  C  C64  1  0.02770155  0.20514088  0.19517368  1
  C  C65  1  0.17701808  0.97351122  0.19491862  1
  C  C66  1  0.90448382  0.37741380  0.63912657  1
  C  C67  1  0.47898649  0.08892133  0.64311714  1
  C  C68  1  0.61304915  0.52273285  0.64343349  1
  C  C69  1  0.91438800  0.52838513  0.14379575  1
  C  C70  1  0.61381586  0.08600194  0.14365572  1
  C  C71  1  0.47252043  0.38680461  0.14348845  1
  C  C72  1  0.46717145  0.29948755  0.02635692  1
  C  C73  1  0.83278192  0.53312791  0.02646548  1
  C  C74  1  0.70087052  0.16763448  0.02648387  1
  C  C75  1  0.47522978  0.17011668  0.52652107  1
  C  C76  1  0.69797584  0.53292588  0.52664319  1
  C  C77  1  0.84397347  0.30816173  0.52698825  1
  C  C78  1  0.53191516  0.69671414  0.97321552  1
  C  C79  1  0.16518640  0.46983611  0.97295165  1
  C  C80  1  0.30371221  0.83550333  0.97335805  1
  C  C81  1  0.52044565  0.84698814  0.47332671  1
  C  C82  1  0.32928166  0.48947650  0.47559167  1
  C  C83  1  0.16004935  0.67396259  0.47507903  1
  C  C84  1  0.13984732  0.63538274  0.35840905  1
  C  C85  1  0.50253777  0.86536050  0.35986551  1
  C  C86  1  0.36632198  0.50292597  0.35814831  1
  C  C87  1  0.13630024  0.50237749  0.85660441  1
  C  C88  1  0.36714581  0.86612545  0.85760955  1
  C  C89  1  0.49899815  0.63457237  0.85684302  1
  C  C90  1  0.01602356  0.81841822  0.42040928  1
  C  C91  1  0.78861757  0.97512946  0.41713012  1
  C  C92  1  0.17570934  0.19906716  0.42099863  1
  C  C93  1  0.02285039  0.18818543  0.91103598  1
  C  C94  1  0.16746187  0.98206364  0.91153050  1
  C  C95  1  0.81346660  0.83405130  0.91155160  1
  C  C96  1  0.97906935  0.17098240  0.58515561  1
  C  C97  1  0.18295002  0.02707134  0.58697878  1
  C  C98  1  0.84216685  0.82074741  0.58718490  1
  C  C99  1  0.97953493  0.82052131  0.08939988  1
  C  C100  1  0.84161172  0.02059220  0.08962971  1
  C  C101  1  0.17935542  0.15850754  0.08966185  1
  C  C102  1  0.69198951  0.15789480  0.75419361  1
  C  C103  1  0.45418076  0.30366034  0.75162933  1
  C  C104  1  0.83976906  0.53301128  0.75418849  1
  C  C105  1  0.67314958  0.52699592  0.24632841  1
  C  C106  1  0.85418471  0.32844703  0.24669839  1
  C  C107  1  0.47426300  0.14750587  0.24645831  1
  C  C108  1  0.64065639  0.49395493  0.92223739  1
  C  C109  1  0.85418480  0.36026690  0.92244911  1
  C  C110  1  0.50788732  0.14732964  0.92250079  1
  C  C111  1  0.62543190  0.13315635  0.42067524  1
  C  C112  1  0.51741877  0.37047705  0.42247186  1
  C  C113  1  0.85286156  0.47697003  0.42209047  1
  C  C114  1  0.33586689  0.49556604  0.07010275  1
  C  C115  1  0.16024401  0.66401309  0.07030074  1
  C  C116  1  0.50419901  0.84009717  0.07024174  1
  C  C117  1  0.33438324  0.84139553  0.57088142  1
  C  C118  1  0.50514103  0.66782994  0.57186905  1
  C  C119  1  0.14936731  0.48982174  0.57242059  1
  C  C120  1  0.30263343  0.82342911  0.25269462  1
  C  C121  1  0.52201155  0.70043380  0.25224301  1
  C  C122  1  0.17867701  0.47913623  0.25326693  1
  C  C123  1  0.29037149  0.46329859  0.75364661  1
  C  C124  1  0.18386039  0.70412532  0.75469128  1
  C  C125  1  0.52376073  0.81429087  0.75455585  1
