# generated using pymatgen
data_Cu8Ni4C5
_symmetry_space_group_name_H-M   'P 1'
_cell_length_a   3.96977600
_cell_length_b   3.83742859
_cell_length_c   24.96437526
_cell_angle_alpha   90.06525709
_cell_angle_beta   90.00000000
_cell_angle_gamma   90.00000000
_symmetry_Int_Tables_number   1
_chemical_formula_structural   Cu8Ni4C5
_chemical_formula_sum   'Cu8 Ni4 C5'
_cell_volume   380.30035360
_cell_formula_units_Z   1
loop_
 _symmetry_equiv_pos_site_id
 _symmetry_equiv_pos_as_xyz
  1  'x, y, z'
loop_
 _atom_site_type_symbol
 _atom_site_label
 _atom_site_symmetry_multiplicity
 _atom_site_fract_x
 _atom_site_fract_y
 _atom_site_fract_z
 _atom_site_occupancy
  C  C0  1  0.25000000  0.99963700  0.24849300  1
  C  C1  1  0.25000000  0.49909600  0.93272500  1
  C  C2  1  0.75000000  0.99781100  0.56833100  1
  C  C3  1  0.75000000  0.50106800  0.04082500  1
  C  C4  1  0.25000000  0.99778000  0.46033400  1
  Ni  Ni5  1  0.25000000  0.99971800  0.65893300  1
  Ni  Ni6  1  0.75000000  0.01403300  0.32284400  1
  Ni  Ni7  1  0.25000000  0.49979100  0.17182400  1
  Ni  Ni8  1  0.75000000  0.49994400  0.84204400  1
  Cu  Cu9  1  0.25000000  0.49760300  0.43603600  1
  Cu  Cu10  1  0.75000000  0.49804200  0.57317800  1
  Cu  Cu11  1  0.25000000  0.99939300  0.92769300  1
  Cu  Cu12  1  0.75000000  0.99764400  0.48322500  1
  Cu  Cu13  1  0.25000000  0.99781200  0.53929000  1
  Cu  Cu14  1  0.25000000  0.49989600  0.01777700  1
  Cu  Cu15  1  0.75000000  0.00060900  0.06467400  1
  Cu  Cu16  1  0.75000000  0.50012100  0.96177300  1
