# generated using pymatgen
data_Cu3Ni3C35
_symmetry_space_group_name_H-M   'P 1'
_cell_length_a   9.14225536
_cell_length_b   9.12332962
_cell_length_c   22.70704547
_cell_angle_alpha   90.02338940
_cell_angle_beta   90.11677925
_cell_angle_gamma   120.02731326
_symmetry_Int_Tables_number   1
_chemical_formula_structural   Cu3Ni3C35
_chemical_formula_sum   'Cu9 Ni9 C105'
_cell_volume   1639.74715776
_cell_formula_units_Z   3
loop_
 _symmetry_equiv_pos_site_id
 _symmetry_equiv_pos_as_xyz
  1  'x, y, z'
loop_
 _atom_site_type_symbol
 _atom_site_label
 _atom_site_symmetry_multiplicity
 _atom_site_fract_x
 _atom_site_fract_y
 _atom_site_fract_z
 _atom_site_occupancy
  C  C0  1  0.63322490  0.00409926  0.25281730  1
  C  C1  1  0.36667579  0.37074950  0.24740514  1
  C  C2  1  0.99989126  0.62376421  0.24991988  1
  C  C3  1  0.63274517  0.63506538  0.74944116  1
  C  C4  1  0.99364209  0.36435818  0.74923230  1
  C  C5  1  0.37326594  0.00116099  0.74785975  1
  C  C6  1  0.03262401  0.69488489  0.58321881  1
  C  C7  1  0.66330174  0.97290987  0.58298648  1
  C  C8  1  0.66599252  0.68822336  0.08211974  1
  C  C9  1  0.02977468  0.33672639  0.08599009  1
  C  C10  1  0.96015250  0.66440769  0.91903827  1
  C  C11  1  0.70123851  0.03175267  0.91655103  1
  C  C12  1  0.33947391  0.30263166  0.91802195  1
  C  C13  1  0.96714181  0.30550895  0.41551900  1
  C  C14  1  0.33577103  0.02640064  0.41824314  1
  C  C15  1  0.00039363  0.99895916  0.50019258  1
  C  C16  1  0.00899662  0.99503297  0.00033171  1
  C  C17  1  0.66674570  0.33340951  0.83337842  1
  C  C18  1  0.67438006  0.34166756  0.33387476  1
  C  C19  1  0.32522999  0.66666081  0.16699447  1
  C  C20  1  0.33323315  0.66071220  0.66543187  1
  C  C21  1  0.99018587  0.99470742  0.35407068  1
  C  C22  1  0.00314178  0.00710941  0.64675483  1
  C  C23  1  0.00945572  0.00416441  0.14624498  1
  C  C24  1  0.66640702  0.33341542  0.48198571  1
  C  C25  1  0.33532508  0.67095923  0.01977671  1
  C  C26  1  0.33348751  0.66609566  0.51804979  1
  C  C27  1  0.99227490  0.99849693  0.85090127  1
  C  C28  1  0.66709892  0.32671012  0.68188765  1
  C  C29  1  0.67093181  0.33689001  0.18140785  1
  C  C30  1  0.66261435  0.33874307  0.98496942  1
  C  C31  1  0.32896330  0.66532596  0.31792448  1
  C  C32  1  0.34168055  0.66904259  0.81568810  1
  Ni  Ni33  1  -0.00030855  0.29631069  0.25003987  1
  Ni  Ni34  1  0.70420839  0.00072156  0.75041667  1
  Ni  Ni35  1  0.96303986  0.33496588  0.58413342  1
  Ni  Ni36  1  0.37090509  0.03902808  0.58348783  1
  Ni  Ni37  1  0.96195453  0.62841464  0.08314503  1
  Ni  Ni38  1  0.37272979  0.33196609  0.08298970  1
  Ni  Ni39  1  0.62960749  0.66569062  0.91599242  1
  Ni  Ni40  1  0.62622243  0.95924717  0.41611843  1
  Ni  Ni41  1  0.03739273  0.66599895  0.41598498  1
  Cu  Cu42  1  0.29182527  0.00041637  0.25130506  1
  Cu  Cu43  1  0.70794841  0.70838724  0.24885754  1
  Cu  Cu44  1  0.29218495  0.29222241  0.75169694  1
  Cu  Cu45  1  -0.00116390  0.70694792  0.75061276  1
  Cu  Cu46  1  0.66489866  0.62348464  0.58554723  1
  Cu  Cu47  1  0.66551264  0.04021073  0.08371363  1
  Cu  Cu48  1  0.04131350  0.37446162  0.91591726  1
  Cu  Cu49  1  0.33423939  0.95945093  0.91521211  1
  Cu  Cu50  1  0.33584693  0.37577767  0.41474470  1
  C  C51  1  0.20678816  0.02445742  0.30664335  1
  C  C52  1  0.82534869  0.79860250  0.30269770  1
  C  C53  1  0.97572785  0.17560107  0.30760542  1
  C  C54  1  0.21447994  0.18460558  0.80738633  1
  C  C55  1  0.97655934  0.79328763  0.80568926  1
  C  C56  1  0.82345191  0.03159114  0.80839412  1
  C  C57  1  0.79715729  0.97059937  0.69306176  1
  C  C58  1  0.17559036  0.19845152  0.69794591  1
  C  C59  1  0.02618688  0.81977742  0.69533631  1
  C  C60  1  0.79291231  0.81723008  0.19361326  1
  C  C61  1  0.02394616  0.20025485  0.19247395  1
  C  C62  1  0.17475194  0.97333834  0.19755965  1
  C  C63  1  0.88096194  0.37061572  0.64215104  1
  C  C64  1  0.48825568  0.12216152  0.64165169  1
  C  C65  1  0.64126031  0.52352719  0.64215747  1
  C  C66  1  0.88017875  0.50977949  0.14147032  1
  C  C67  1  0.64044031  0.11953486  0.13946050  1
  C  C68  1  0.48957165  0.36816788  0.14165746  1
  C  C69  1  0.45490535  0.30493057  0.02379938  1
  C  C70  1  0.84499937  0.54431328  0.02489597  1
  C  C71  1  0.69901133  0.14929061  0.02842296  1
  C  C72  1  0.45901122  0.15327579  0.52486442  1
  C  C73  1  0.69514386  0.53721439  0.53212696  1
  C  C74  1  0.84064562  0.30325089  0.52667716  1
  C  C75  1  0.53710715  0.69558241  0.97338228  1
  C  C76  1  0.15377472  0.46444960  0.97087182  1
  C  C77  1  0.30602449  0.84212811  0.96862386  1
  C  C78  1  0.53874346  0.84583986  0.47472195  1
  C  C79  1  0.30368173  0.46063847  0.46804294  1
  C  C80  1  0.15937916  0.69615967  0.47351191  1
  C  C81  1  0.11981432  0.62979969  0.35794471  1
  C  C82  1  0.51051406  0.87652512  0.35758072  1
  C  C83  1  0.36009765  0.47700747  0.35820436  1
  C  C84  1  0.12133092  0.48438515  0.86070924  1
  C  C85  1  0.35785845  0.87701939  0.85923685  1
  C  C86  1  0.51019355  0.63590760  0.85815800  1
  C  C87  1  0.03366135  0.84373490  0.41049197  1
  C  C88  1  0.82073969  0.99183427  0.41172519  1
  C  C89  1  0.17434059  0.19610726  0.41010350  1
  C  C90  1  0.03231312  0.19959401  0.91277935  1
  C  C91  1  0.17663742  0.98056936  0.91171549  1
  C  C92  1  0.81827171  0.83674847  0.91278858  1
  C  C93  1  0.96901335  0.15786887  0.58946835  1
  C  C94  1  0.17625495  0.00319334  0.58948522  1
  C  C95  1  0.82833145  0.80206930  0.58966656  1
  C  C96  1  0.96986108  0.81134401  0.09043395  1
  C  C97  1  0.82394159  0.01783669  0.09048550  1
  C  C98  1  0.17775195  0.17192691  0.08873182  1
  C  C99  1  0.68674796  0.17097783  0.74631266  1
  C  C100  1  0.47104836  0.31678287  0.74476754  1
  C  C101  1  0.83638244  0.53170497  0.74575369  1
  C  C102  1  0.69046747  0.53104053  0.24585054  1
  C  C103  1  0.82707542  0.30966452  0.24707406  1
  C  C104  1  0.46727429  0.16139966  0.24545891  1
  C  C105  1  0.64754844  0.49564005  0.91971179  1
  C  C106  1  0.86141439  0.34864989  0.92216238  1
  C  C107  1  0.49712460  0.13399746  0.92141588  1
  C  C108  1  0.64348711  0.14838746  0.42212546  1
  C  C109  1  0.48805860  0.34797073  0.42293903  1
  C  C110  1  0.85191167  0.49761223  0.42399909  1
  C  C111  1  0.35346309  0.50307502  0.07654698  1
  C  C112  1  0.14750802  0.64414285  0.07587688  1
  C  C113  1  0.51106429  0.85790343  0.07704030  1
  C  C114  1  0.35686624  0.85109946  0.57762843  1
  C  C115  1  0.51344800  0.65291013  0.57712521  1
  C  C116  1  0.14857910  0.50277357  0.57615483  1
  C  C117  1  0.30945923  0.84087677  0.25416574  1
  C  C118  1  0.53287521  0.69390744  0.25446620  1
  C  C119  1  0.17247167  0.48285363  0.25268930  1
  C  C120  1  0.30108869  0.46643266  0.75426159  1
  C  C121  1  0.15677874  0.68588230  0.75469224  1
  C  C122  1  0.51574642  0.82970324  0.75369699  1
