# generated using pymatgen
data_Cu24Ni6C5
_symmetry_space_group_name_H-M   'P 1'
_cell_length_a   17.59241612
_cell_length_b   8.79343696
_cell_length_c   22.84814757
_cell_angle_alpha   90.02695980
_cell_angle_beta   89.95705417
_cell_angle_gamma   120.04435743
_symmetry_Int_Tables_number   1
_chemical_formula_structural   Cu24Ni6C5
_chemical_formula_sum   'Cu144 Ni36 C30'
_cell_volume   3059.64720819
_cell_formula_units_Z   6
loop_
 _symmetry_equiv_pos_site_id
 _symmetry_equiv_pos_as_xyz
  1  'x, y, z'
loop_
 _atom_site_type_symbol
 _atom_site_label
 _atom_site_symmetry_multiplicity
 _atom_site_fract_x
 _atom_site_fract_y
 _atom_site_fract_z
 _atom_site_occupancy
  C  C0  1  0.00060227  0.00056254  0.50151226  1
  C  C1  1  0.50403640  0.00610653  0.99621182  1
  C  C2  1  0.33597232  0.33758530  0.82939747  1
  C  C3  1  0.83047658  0.32862095  0.83015992  1
  C  C4  1  0.32995674  0.33219937  0.34415502  1
  C  C5  1  0.83653205  0.33356908  0.33369510  1
  C  C6  1  0.50227307  0.99977163  0.35690694  1
  C  C7  1  0.99931052  0.99975051  0.85201552  1
  C  C8  1  0.50017865  0.00087111  0.64903648  1
  C  C9  1  0.99516339  0.99609049  0.14837034  1
  C  C10  1  0.33540124  0.33409007  0.18784954  1
  C  C11  1  0.16688012  0.66854256  0.01938285  1
  C  C12  1  0.66610883  0.66408018  0.01991117  1
  C  C13  1  0.16351690  0.66386139  0.52280134  1
  C  C14  1  0.67008536  0.66999635  0.52351978  1
  C  C15  1  0.99806710  0.00070023  0.35270718  1
  C  C16  1  0.50093232  0.00050836  0.84834824  1
  C  C17  1  0.00022922  0.99990401  0.65225625  1
  C  C18  1  0.50645073  0.00674427  0.15137771  1
  C  C19  1  0.33091280  0.32913664  0.68498142  1
  C  C20  1  0.83588362  0.33802318  0.68514139  1
  C  C21  1  0.83097171  0.33348477  0.18497088  1
  C  C22  1  0.33620687  0.33659989  0.97938771  1
  C  C23  1  0.83001700  0.33054915  0.98266388  1
  C  C24  1  0.32994493  0.33062586  0.48599629  1
  C  C25  1  0.83714382  0.33650094  0.48477003  1
  C  C26  1  0.16102739  0.65534055  0.31481366  1
  C  C27  1  0.67222216  0.67688927  0.31294401  1
  C  C28  1  0.16893312  0.66787328  0.80911066  1
  C  C29  1  0.66425507  0.66564411  0.80976213  1
  Ni  Ni30  1  0.14448837  0.99405641  0.25275078  1
  Ni  Ni31  1  0.64832376  0.99973759  0.24936654  1
  Ni  Ni32  1  0.35260395  0.71321754  0.24920776  1
  Ni  Ni33  1  0.85191525  0.70013610  0.25374560  1
  Ni  Ni34  1  0.99829889  0.29486478  0.25295400  1
  Ni  Ni35  1  0.50416001  0.29618732  0.25006155  1
  Ni  Ni36  1  0.14885787  0.29627717  0.74871383  1
  Ni  Ni37  1  0.64972317  0.29605091  0.75303541  1
  Ni  Ni38  1  -0.00000074  0.70256977  0.74872741  1
  Ni  Ni39  1  0.49776421  0.70091609  0.75291086  1
  Ni  Ni40  1  0.35263089  0.00393721  0.75321259  1
  Ni  Ni41  1  0.85124240  0.00052458  0.74851620  1
  Ni  Ni42  1  0.47487667  0.33133800  0.58297459  1
  Ni  Ni43  1  0.97511971  0.32035375  0.58380238  1
  Ni  Ni44  1  0.18518894  0.04788014  0.58324651  1
  Ni  Ni45  1  0.69086414  0.05230042  0.58349646  1
  Ni  Ni46  1  0.33432188  0.61983210  0.58343007  1
  Ni  Ni47  1  0.83966067  0.62792876  0.58327315  1
  Ni  Ni48  1  0.47752809  0.63170125  0.08130005  1
  Ni  Ni49  1  0.97542983  0.61827994  0.08343396  1
  Ni  Ni50  1  0.33853543  0.04542763  0.08113682  1
  Ni  Ni51  1  0.83251659  0.04913693  0.08331987  1
  Ni  Ni52  1  0.18875899  0.33047423  0.08146630  1
  Ni  Ni53  1  0.68551250  0.32419998  0.08328132  1
  Ni  Ni54  1  0.31496107  0.66649634  0.91484798  1
  Ni  Ni55  1  0.81052955  0.65769842  0.91415161  1
  Ni  Ni56  1  0.01842397  0.37917316  0.91448703  1
  Ni  Ni57  1  0.51812565  0.36971876  0.91439999  1
  Ni  Ni58  1  0.17085809  0.96389779  0.91402002  1
  Ni  Ni59  1  0.66685865  0.96241717  0.91498904  1
  Ni  Ni60  1  0.30897442  0.96112862  0.41401621  1
  Ni  Ni61  1  0.81479203  0.96578288  0.41537479  1
  Ni  Ni62  1  0.16754659  0.37129718  0.41508560  1
  Ni  Ni63  1  0.67271044  0.38306828  0.41454546  1
  Ni  Ni64  1  0.01755904  0.66602023  0.41468007  1
  Ni  Ni65  1  0.51910173  0.65367305  0.41500049  1
  Cu  Cu66  1  0.10789048  0.03135802  0.30444692  1
  Cu  Cu67  1  0.60027841  0.02319636  0.30179720  1
  Cu  Cu68  1  0.40986042  0.79418379  0.30198047  1
  Cu  Cu69  1  0.90817663  0.78515920  0.30474738  1
  Cu  Cu70  1  0.48693569  0.17942660  0.30211573  1
  Cu  Cu71  1  0.98512694  0.18479547  0.30466498  1
  Cu  Cu72  1  0.10218616  0.17965622  0.80205844  1
  Cu  Cu73  1  0.60870639  0.18586034  0.80509386  1
  Cu  Cu74  1  0.48405513  0.78261517  0.80520431  1
  Cu  Cu75  1  0.98835795  0.79637487  0.80206424  1
  Cu  Cu76  1  0.40715957  0.03090715  0.80536047  1
  Cu  Cu77  1  0.90995243  0.02426265  0.80191207  1
  Cu  Cu78  1  0.39949464  0.98666497  0.69958804  1
  Cu  Cu79  1  0.89330967  0.97902389  0.69636744  1
  Cu  Cu80  1  0.09664026  0.21289349  0.69636985  1
  Cu  Cu81  1  0.59383082  0.20143617  0.69954389  1
  Cu  Cu82  1  0.01046075  0.80702951  0.69636181  1
  Cu  Cu83  1  0.50642009  0.81266735  0.69947626  1
  Cu  Cu84  1  0.39492720  0.81295265  0.19628717  1
  Cu  Cu85  1  0.89841941  0.81142876  0.19939110  1
  Cu  Cu86  1  0.00736306  0.20055277  0.19905163  1
  Cu  Cu87  1  0.51051687  0.21335917  0.19637552  1
  Cu  Cu88  1  0.09280685  0.98089643  0.19876481  1
  Cu  Cu89  1  0.59612187  0.97598767  0.19645413  1
  Cu  Cu90  1  0.43843664  0.36508569  0.63548197  1
  Cu  Cu91  1  0.93892549  0.35449546  0.63644026  1
  Cu  Cu92  1  0.23883939  0.12116415  0.63575247  1
  Cu  Cu93  1  0.74364478  0.12487587  0.63607025  1
  Cu  Cu94  1  0.31719898  0.51273360  0.63581829  1
  Cu  Cu95  1  0.82218846  0.52100151  0.63582756  1
  Cu  Cu96  1  0.43506458  0.52038330  0.13515910  1
  Cu  Cu97  1  0.93920116  0.51325888  0.13623450  1
  Cu  Cu98  1  0.32527820  0.13076468  0.13486342  1
  Cu  Cu99  1  0.81721759  0.12172901  0.13641918  1
  Cu  Cu100  1  0.24390302  0.35810804  0.13488123  1
  Cu  Cu101  1  0.73748765  0.35586537  0.13655130  1
  Cu  Cu102  1  0.22774733  0.30230992  0.02957906  1
  Cu  Cu103  1  0.72544126  0.29928445  0.03021758  1
  Cu  Cu104  1  0.42392596  0.54640962  0.02967195  1
  Cu  Cu105  1  0.92351695  0.54665985  0.03034005  1
  Cu  Cu106  1  0.34897456  0.15135200  0.02927201  1
  Cu  Cu107  1  0.84980596  0.15441815  0.03045091  1
  Cu  Cu108  1  0.22448955  0.15089708  0.52953904  1
  Cu  Cu109  1  0.72680359  0.15396048  0.52992907  1
  Cu  Cu110  1  0.35142822  0.54955340  0.53011459  1
  Cu  Cu111  1  0.84977396  0.54801393  0.52939746  1
  Cu  Cu112  1  0.42335259  0.29973194  0.52956355  1
  Cu  Cu113  1  0.92391699  0.29667545  0.53018944  1
  Cu  Cu114  1  0.26730452  0.68153781  0.96941210  1
  Cu  Cu115  1  0.76906663  0.68278676  0.96853255  1
  Cu  Cu116  1  0.07305948  0.46305173  0.96902847  1
  Cu  Cu117  1  0.57208102  0.46354054  0.96896712  1
  Cu  Cu118  1  0.15874817  0.85528648  0.96858184  1
  Cu  Cu119  1  0.65909375  0.85283957  0.96927854  1
  Cu  Cu120  1  0.26911503  0.85380152  0.46749367  1
  Cu  Cu121  1  0.76697312  0.85318041  0.46842842  1
  Cu  Cu122  1  0.15997698  0.46574184  0.46814299  1
  Cu  Cu123  1  0.65851585  0.46418464  0.46784620  1
  Cu  Cu124  1  0.07327930  0.68221291  0.46774878  1
  Cu  Cu125  1  0.57278843  0.68154858  0.46842733  1
  Cu  Cu126  1  0.05886979  0.64498931  0.36171793  1
  Cu  Cu127  1  0.56082480  0.63366306  0.36253907  1
  Cu  Cu128  1  0.25680268  0.87838068  0.36151501  1
  Cu  Cu129  1  0.76284625  0.88295377  0.36263664  1
  Cu  Cu130  1  0.17905448  0.47551170  0.36200204  1
  Cu  Cu131  1  0.68169978  0.48506859  0.36200293  1
  Cu  Cu132  1  0.06172108  0.48742899  0.86345861  1
  Cu  Cu133  1  0.56071146  0.47619674  0.86279404  1
  Cu  Cu134  1  0.18200660  0.87867822  0.86287200  1
  Cu  Cu135  1  0.67717548  0.87701116  0.86319410  1
  Cu  Cu136  1  0.26136490  0.64478919  0.86342159  1
  Cu  Cu137  1  0.75707269  0.63555374  0.86278818  1
  Cu  Cu138  1  0.01247004  0.82920527  0.41370744  1
  Cu  Cu139  1  0.51213375  0.81830389  0.40925572  1
  Cu  Cu140  1  0.39792296  0.97468273  0.40768914  1
  Cu  Cu141  1  0.90144262  0.97593496  0.41463031  1
  Cu  Cu142  1  0.08641599  0.19718084  0.41368846  1
  Cu  Cu143  1  0.58974701  0.20515170  0.40941950  1
  Cu  Cu144  1  0.01272381  0.20389008  0.91016096  1
  Cu  Cu145  1  0.51235106  0.19623475  0.91419859  1
  Cu  Cu146  1  0.08931388  0.97584383  0.91016325  1
  Cu  Cu147  1  0.58578747  0.97406106  0.91460630  1
  Cu  Cu148  1  0.40146077  0.82843343  0.91474222  1
  Cu  Cu149  1  0.89850869  0.82150513  0.90969742  1
  Cu  Cu150  1  0.48849766  0.17800807  0.59191756  1
  Cu  Cu151  1  0.98957767  0.16964917  0.58898151  1
  Cu  Cu152  1  0.09554443  0.01967862  0.58862218  1
  Cu  Cu153  1  0.60045093  0.02486779  0.59208445  1
  Cu  Cu154  1  0.41135011  0.80024456  0.59253719  1
  Cu  Cu155  1  0.91523949  0.80727679  0.58841990  1
  Cu  Cu156  1  0.48836275  0.80661867  0.08898936  1
  Cu  Cu157  1  0.98969993  0.80021882  0.09268243  1
  Cu  Cu158  1  0.41406410  0.02104808  0.08920300  1
  Cu  Cu159  1  0.91021087  0.02228996  0.09190540  1
  Cu  Cu160  1  0.10086002  0.17675717  0.09237587  1
  Cu  Cu161  1  0.59512234  0.17152519  0.08816111  1
  Cu  Cu162  1  0.34408679  0.16178111  0.74545538  1
  Cu  Cu163  1  0.84567067  0.16297577  0.74714992  1
  Cu  Cu164  1  0.23600060  0.30868607  0.74742663  1
  Cu  Cu165  1  0.73701802  0.31272655  0.74511168  1
  Cu  Cu166  1  0.41883203  0.52602633  0.74501129  1
  Cu  Cu167  1  0.91872431  0.52857871  0.74753136  1
  Cu  Cu168  1  0.34551109  0.53233259  0.24482625  1
  Cu  Cu169  1  0.84385242  0.52608065  0.24549036  1
  Cu  Cu170  1  0.42074850  0.31011161  0.24605914  1
  Cu  Cu171  1  0.91951446  0.31147398  0.24483820  1
  Cu  Cu172  1  0.23483297  0.15781240  0.24283317  1
  Cu  Cu173  1  0.73495352  0.16238978  0.24772750  1
  Cu  Cu174  1  0.32250065  0.50737058  0.92221890  1
  Cu  Cu175  1  0.82330954  0.50605635  0.92176782  1
  Cu  Cu176  1  0.43042122  0.35296322  0.92115429  1
  Cu  Cu177  1  0.93040357  0.35541654  0.92241332  1
  Cu  Cu178  1  0.24720703  0.14011048  0.92197993  1
  Cu  Cu179  1  0.74629967  0.13749528  0.92199325  1
  Cu  Cu180  1  0.32323901  0.14006695  0.42093624  1
  Cu  Cu181  1  0.82285959  0.14021607  0.42243171  1
  Cu  Cu182  1  0.24688945  0.35388569  0.42162270  1
  Cu  Cu183  1  0.74776051  0.35595632  0.42156602  1
  Cu  Cu184  1  0.42987002  0.50284538  0.42168694  1
  Cu  Cu185  1  0.92999393  0.50763814  0.42143208  1
  Cu  Cu186  1  0.17900782  0.48844386  0.07639289  1
  Cu  Cu187  1  0.67668952  0.48608744  0.07401001  1
  Cu  Cu188  1  0.06634863  0.64479624  0.07420728  1
  Cu  Cu189  1  0.56472261  0.64260419  0.07671618  1
  Cu  Cu190  1  0.25603501  0.87017519  0.07634166  1
  Cu  Cu191  1  0.75570235  0.86796827  0.07453281  1
  Cu  Cu192  1  0.17724432  0.86857513  0.57360498  1
  Cu  Cu193  1  0.67726225  0.86967617  0.57473670  1
  Cu  Cu194  1  0.25694917  0.64566265  0.57382841  1
  Cu  Cu195  1  0.75796632  0.64629794  0.57438277  1
  Cu  Cu196  1  0.06523318  0.48390897  0.57437851  1
  Cu  Cu197  1  0.56560444  0.48698620  0.57358854  1
  Cu  Cu198  1  0.15556273  0.84174932  0.25623952  1
  Cu  Cu199  1  0.65464652  0.84256209  0.25899311  1
  Cu  Cu200  1  0.26569582  0.68908106  0.25789732  1
  Cu  Cu201  1  0.76675035  0.69083968  0.25606139  1
  Cu  Cu202  1  0.07941017  0.46556938  0.25527340  1
  Cu  Cu203  1  0.57886123  0.46946255  0.25871134  1
  Cu  Cu204  1  0.15567347  0.46659225  0.75823754  1
  Cu  Cu205  1  0.65393332  0.46613602  0.75573111  1
  Cu  Cu206  1  0.07812592  0.68863917  0.75844026  1
  Cu  Cu207  1  0.57853047  0.69217629  0.75534582  1
  Cu  Cu208  1  0.26723132  0.84253781  0.75559687  1
  Cu  Cu209  1  0.76621928  0.84391548  0.75838891  1
