# generated using pymatgen
data_Cu2NiC6
_symmetry_space_group_name_H-M   'P 1'
_cell_length_a   3.24314200
_cell_length_b   3.24314169
_cell_length_c   16.93583700
_cell_angle_alpha   90.00000000
_cell_angle_beta   90.00000000
_cell_angle_gamma   120.00000318
_symmetry_Int_Tables_number   1
_chemical_formula_structural   Cu2NiC6
_chemical_formula_sum   'Cu2 Ni1 C6'
_cell_volume   154.26562756
_cell_formula_units_Z   1
loop_
 _symmetry_equiv_pos_site_id
 _symmetry_equiv_pos_as_xyz
  1  'x, y, z'
loop_
 _atom_site_type_symbol
 _atom_site_label
 _atom_site_symmetry_multiplicity
 _atom_site_fract_x
 _atom_site_fract_y
 _atom_site_fract_z
 _atom_site_occupancy
  Ni  Ni0  1  0.33333300  0.66666700  0.42403400  1
  Cu  Cu1  1  0.33333300  0.66666700  0.21688000  1
  Cu  Cu2  1  0.66666700  0.33333300  0.76999600  1
  C  C3  1  0.00000000  0.00000000  0.99284100  1
  C  C4  1  0.00000000  0.00000000  0.53719200  1
  C  C5  1  0.00000000  0.00000000  0.30405700  1
  C  C6  1  0.00000000  0.00000000  0.85370000  1
  C  C7  1  0.00000000  0.00000000  0.13253600  1
  C  C8  1  0.00000000  0.00000000  0.68543100  1
