# generated using pymatgen
data_Cu6Ni18C7
_symmetry_space_group_name_H-M   'P 1'
_cell_length_a   16.30488292
_cell_length_b   16.30488295
_cell_length_c   16.30488279
_cell_angle_alpha   60.00000034
_cell_angle_beta   60.00000028
_cell_angle_gamma   60.00000149
_symmetry_Int_Tables_number   1
_chemical_formula_structural   Cu6Ni18C7
_chemical_formula_sum   'Cu48 Ni144 C56'
_cell_volume   3065.05350452
_cell_formula_units_Z   8
loop_
 _symmetry_equiv_pos_site_id
 _symmetry_equiv_pos_as_xyz
  1  'x, y, z'
loop_
 _atom_site_type_symbol
 _atom_site_label
 _atom_site_symmetry_multiplicity
 _atom_site_fract_x
 _atom_site_fract_y
 _atom_site_fract_z
 _atom_site_occupancy
  Ni  Ni0  1  0.99743314  0.92735933  0.18708982  1
  Ni  Ni1  1  0.57264067  0.31291018  0.11188229  1
  Ni  Ni2  1  0.11188229  0.50256686  0.57264067  1
  Ni  Ni3  1  0.57264067  0.11188229  0.50256686  1
  Ni  Ni4  1  0.31291018  0.50256686  0.11188229  1
  Ni  Ni5  1  0.31291018  0.11188229  0.57264067  1
  Ni  Ni6  1  0.11188229  0.31291018  0.50256686  1
  Ni  Ni7  1  0.18708982  0.99743314  0.92735933  1
  Ni  Ni8  1  0.92735933  0.18708982  0.99743314  1
  Ni  Ni9  1  0.38811771  0.99743314  0.18708982  1
  Ni  Ni10  1  0.92735933  0.38811771  0.18708982  1
  Ni  Ni11  1  0.38811771  0.92735933  0.99743314  1
  Ni  Ni12  1  0.18708982  0.92735933  0.38811771  1
  Ni  Ni13  1  0.99743314  0.18708982  0.38811771  1
  Ni  Ni14  1  0.99743314  0.38811771  0.92735933  1
  Ni  Ni15  1  0.11188229  0.57264067  0.31291018  1
  Ni  Ni16  1  0.50256686  0.11188229  0.31291018  1
  Ni  Ni17  1  0.50256686  0.57264067  0.11188229  1
  Ni  Ni18  1  0.57264067  0.50256686  0.31291018  1
  Ni  Ni19  1  0.31291018  0.57264067  0.50256686  1
  Ni  Ni20  1  0.50256686  0.31291018  0.57264067  1
  Ni  Ni21  1  0.18708982  0.38811771  0.99743314  1
  Ni  Ni22  1  0.38811771  0.18708982  0.92735933  1
  Ni  Ni23  1  0.92735933  0.99743314  0.38811771  1
  Ni  Ni24  1  0.00256686  0.07264067  0.81291018  1
  Ni  Ni25  1  0.42735933  0.68708982  0.88811771  1
  Ni  Ni26  1  0.88811771  0.49743314  0.42735933  1
  Ni  Ni27  1  0.42735933  0.88811771  0.49743314  1
  Ni  Ni28  1  0.68708982  0.49743314  0.88811771  1
  Ni  Ni29  1  0.68708982  0.88811771  0.42735933  1
  Ni  Ni30  1  0.88811771  0.68708982  0.49743314  1
  Ni  Ni31  1  0.81291018  0.00256686  0.07264067  1
  Ni  Ni32  1  0.07264067  0.81291018  0.00256686  1
  Ni  Ni33  1  0.61188229  0.00256686  0.81291018  1
  Ni  Ni34  1  0.07264067  0.61188229  0.81291018  1
  Ni  Ni35  1  0.61188229  0.07264067  0.00256686  1
  Ni  Ni36  1  0.81291018  0.07264067  0.61188229  1
  Ni  Ni37  1  0.00256686  0.81291018  0.61188229  1
  Ni  Ni38  1  0.00256686  0.61188229  0.07264067  1
  Ni  Ni39  1  0.88811771  0.42735933  0.68708982  1
  Ni  Ni40  1  0.49743314  0.88811771  0.68708982  1
  Ni  Ni41  1  0.49743314  0.42735933  0.88811771  1
  Ni  Ni42  1  0.42735933  0.49743314  0.68708982  1
  Ni  Ni43  1  0.68708982  0.42735933  0.49743314  1
  Ni  Ni44  1  0.49743314  0.68708982  0.42735933  1
  Ni  Ni45  1  0.81291018  0.61188229  0.00256686  1
  Ni  Ni46  1  0.61188229  0.81291018  0.07264067  1
  Ni  Ni47  1  0.07264067  0.00256686  0.61188229  1
  Ni  Ni48  1  0.88071785  0.97921437  0.18889727  1
  Ni  Ni49  1  0.52078563  0.31110273  0.04882949  1
  Ni  Ni50  1  0.04882949  0.61928215  0.52078563  1
  Ni  Ni51  1  0.52078563  0.04882949  0.61928215  1
  Ni  Ni52  1  0.31110273  0.61928215  0.04882949  1
  Ni  Ni53  1  0.31110273  0.04882949  0.52078563  1
  Ni  Ni54  1  0.04882949  0.31110273  0.61928215  1
  Ni  Ni55  1  0.18889727  0.88071785  0.97921437  1
  Ni  Ni56  1  0.97921437  0.18889727  0.88071785  1
  Ni  Ni57  1  0.45117051  0.88071785  0.18889727  1
  Ni  Ni58  1  0.97921437  0.45117051  0.18889727  1
  Ni  Ni59  1  0.45117051  0.97921437  0.88071785  1
  Ni  Ni60  1  0.18889727  0.97921437  0.45117051  1
  Ni  Ni61  1  0.88071785  0.18889727  0.45117051  1
  Ni  Ni62  1  0.88071785  0.45117051  0.97921437  1
  Ni  Ni63  1  0.04882949  0.52078563  0.31110273  1
  Ni  Ni64  1  0.61928215  0.04882949  0.31110273  1
  Ni  Ni65  1  0.61928215  0.52078563  0.04882949  1
  Ni  Ni66  1  0.52078563  0.61928215  0.31110273  1
  Ni  Ni67  1  0.31110273  0.52078563  0.61928215  1
  Ni  Ni68  1  0.61928215  0.31110273  0.52078563  1
  Ni  Ni69  1  0.18889727  0.45117051  0.88071785  1
  Ni  Ni70  1  0.45117051  0.18889727  0.97921437  1
  Ni  Ni71  1  0.97921437  0.88071785  0.45117051  1
  Ni  Ni72  1  0.11928215  0.02078563  0.81110273  1
  Ni  Ni73  1  0.47921437  0.68889727  0.95117051  1
  Ni  Ni74  1  0.95117051  0.38071785  0.47921437  1
  Ni  Ni75  1  0.47921437  0.95117051  0.38071785  1
  Ni  Ni76  1  0.68889727  0.38071785  0.95117051  1
  Ni  Ni77  1  0.68889727  0.95117051  0.47921437  1
  Ni  Ni78  1  0.95117051  0.68889727  0.38071785  1
  Ni  Ni79  1  0.81110273  0.11928215  0.02078563  1
  Ni  Ni80  1  0.02078563  0.81110273  0.11928215  1
  Ni  Ni81  1  0.54882949  0.11928215  0.81110273  1
  Ni  Ni82  1  0.02078563  0.54882949  0.81110273  1
  Ni  Ni83  1  0.54882949  0.02078563  0.11928215  1
  Ni  Ni84  1  0.81110273  0.02078563  0.54882949  1
  Ni  Ni85  1  0.11928215  0.81110273  0.54882949  1
  Ni  Ni86  1  0.11928215  0.54882949  0.02078563  1
  Ni  Ni87  1  0.95117051  0.47921437  0.68889727  1
  Ni  Ni88  1  0.38071785  0.95117051  0.68889727  1
  Ni  Ni89  1  0.38071785  0.47921437  0.95117051  1
  Ni  Ni90  1  0.47921437  0.38071785  0.68889727  1
  Ni  Ni91  1  0.68889727  0.47921437  0.38071785  1
  Ni  Ni92  1  0.38071785  0.68889727  0.47921437  1
  Ni  Ni93  1  0.81110273  0.54882949  0.11928215  1
  Ni  Ni94  1  0.54882949  0.81110273  0.02078563  1
  Ni  Ni95  1  0.02078563  0.11928215  0.54882949  1
  Ni  Ni96  1  0.94311571  0.05116442  0.15946544  1
  Ni  Ni97  1  0.44883558  0.34053456  0.15374557  1
  Ni  Ni98  1  0.15374557  0.55688429  0.44883558  1
  Ni  Ni99  1  0.44883558  0.15374557  0.55688429  1
  Ni  Ni100  1  0.34053456  0.55688429  0.15374557  1
  Ni  Ni101  1  0.34053456  0.15374557  0.44883558  1
  Ni  Ni102  1  0.15374557  0.34053456  0.55688429  1
  Ni  Ni103  1  0.15946544  0.94311571  0.05116442  1
  Ni  Ni104  1  0.05116442  0.15946544  0.94311571  1
  Ni  Ni105  1  0.34625443  0.94311571  0.15946544  1
  Ni  Ni106  1  0.05116442  0.34625443  0.15946544  1
  Ni  Ni107  1  0.34625443  0.05116442  0.94311571  1
  Ni  Ni108  1  0.15946544  0.05116442  0.34625443  1
  Ni  Ni109  1  0.94311571  0.15946544  0.34625443  1
  Ni  Ni110  1  0.94311571  0.34625443  0.05116442  1
  Ni  Ni111  1  0.15374557  0.44883558  0.34053456  1
  Ni  Ni112  1  0.55688429  0.15374557  0.34053456  1
  Ni  Ni113  1  0.55688429  0.44883558  0.15374557  1
  Ni  Ni114  1  0.44883558  0.55688429  0.34053456  1
  Ni  Ni115  1  0.34053456  0.44883558  0.55688429  1
  Ni  Ni116  1  0.55688429  0.34053456  0.44883558  1
  Ni  Ni117  1  0.15946544  0.34625443  0.94311571  1
  Ni  Ni118  1  0.34625443  0.15946544  0.05116442  1
  Ni  Ni119  1  0.05116442  0.94311571  0.34625443  1
  Ni  Ni120  1  0.05688429  0.94883558  0.84053456  1
  Ni  Ni121  1  0.55116442  0.65946544  0.84625443  1
  Ni  Ni122  1  0.84625443  0.44311571  0.55116442  1
  Ni  Ni123  1  0.55116442  0.84625443  0.44311571  1
  Ni  Ni124  1  0.65946544  0.44311571  0.84625443  1
  Ni  Ni125  1  0.65946544  0.84625443  0.55116442  1
  Ni  Ni126  1  0.84625443  0.65946544  0.44311571  1
  Ni  Ni127  1  0.84053456  0.05688429  0.94883558  1
  Ni  Ni128  1  0.94883558  0.84053456  0.05688429  1
  Ni  Ni129  1  0.65374557  0.05688429  0.84053456  1
  Ni  Ni130  1  0.94883558  0.65374557  0.84053456  1
  Ni  Ni131  1  0.65374557  0.94883558  0.05688429  1
  Ni  Ni132  1  0.84053456  0.94883558  0.65374557  1
  Ni  Ni133  1  0.05688429  0.84053456  0.65374557  1
  Ni  Ni134  1  0.05688429  0.65374557  0.94883558  1
  Ni  Ni135  1  0.84625443  0.55116442  0.65946544  1
  Ni  Ni136  1  0.44311571  0.84625443  0.65946544  1
  Ni  Ni137  1  0.44311571  0.55116442  0.84625443  1
  Ni  Ni138  1  0.55116442  0.44311571  0.65946544  1
  Ni  Ni139  1  0.65946544  0.55116442  0.44311571  1
  Ni  Ni140  1  0.44311571  0.65946544  0.55116442  1
  Ni  Ni141  1  0.84053456  0.65374557  0.05688429  1
  Ni  Ni142  1  0.65374557  0.84053456  0.94883558  1
  Ni  Ni143  1  0.94883558  0.05688429  0.65374557  1
  Cu  Cu144  1  0.94971345  0.98975667  0.15025902  1
  Cu  Cu145  1  0.51024333  0.34974098  0.08972914  1
  Cu  Cu146  1  0.08972914  0.55028655  0.51024333  1
  Cu  Cu147  1  0.51024333  0.08972914  0.55028655  1
  Cu  Cu148  1  0.34974098  0.55028655  0.08972914  1
  Cu  Cu149  1  0.34974098  0.08972914  0.51024333  1
  Cu  Cu150  1  0.08972914  0.34974098  0.55028655  1
  Cu  Cu151  1  0.15025902  0.94971345  0.98975667  1
  Cu  Cu152  1  0.98975667  0.15025902  0.94971345  1
  Cu  Cu153  1  0.41027086  0.94971345  0.15025902  1
  Cu  Cu154  1  0.98975667  0.41027086  0.15025902  1
  Cu  Cu155  1  0.41027086  0.98975667  0.94971345  1
  Cu  Cu156  1  0.15025902  0.98975667  0.41027086  1
  Cu  Cu157  1  0.94971345  0.15025902  0.41027086  1
  Cu  Cu158  1  0.94971345  0.41027086  0.98975667  1
  Cu  Cu159  1  0.08972914  0.51024333  0.34974098  1
  Cu  Cu160  1  0.55028655  0.08972914  0.34974098  1
  Cu  Cu161  1  0.55028655  0.51024333  0.08972914  1
  Cu  Cu162  1  0.51024333  0.55028655  0.34974098  1
  Cu  Cu163  1  0.34974098  0.51024333  0.55028655  1
  Cu  Cu164  1  0.55028655  0.34974098  0.51024333  1
  Cu  Cu165  1  0.15025902  0.41027086  0.94971345  1
  Cu  Cu166  1  0.41027086  0.15025902  0.98975667  1
  Cu  Cu167  1  0.98975667  0.94971345  0.41027086  1
  Cu  Cu168  1  0.05028655  0.01024333  0.84974098  1
  Cu  Cu169  1  0.48975667  0.65025902  0.91027086  1
  Cu  Cu170  1  0.91027086  0.44971345  0.48975667  1
  Cu  Cu171  1  0.48975667  0.91027086  0.44971345  1
  Cu  Cu172  1  0.65025902  0.44971345  0.91027086  1
  Cu  Cu173  1  0.65025902  0.91027086  0.48975667  1
  Cu  Cu174  1  0.91027086  0.65025902  0.44971345  1
  Cu  Cu175  1  0.84974098  0.05028655  0.01024333  1
  Cu  Cu176  1  0.01024333  0.84974098  0.05028655  1
  Cu  Cu177  1  0.58972914  0.05028655  0.84974098  1
  Cu  Cu178  1  0.01024333  0.58972914  0.84974098  1
  Cu  Cu179  1  0.58972914  0.01024333  0.05028655  1
  Cu  Cu180  1  0.84974098  0.01024333  0.58972914  1
  Cu  Cu181  1  0.05028655  0.84974098  0.58972914  1
  Cu  Cu182  1  0.05028655  0.58972914  0.01024333  1
  Cu  Cu183  1  0.91027086  0.48975667  0.65025902  1
  Cu  Cu184  1  0.44971345  0.91027086  0.65025902  1
  Cu  Cu185  1  0.44971345  0.48975667  0.91027086  1
  Cu  Cu186  1  0.48975667  0.44971345  0.65025902  1
  Cu  Cu187  1  0.65025902  0.48975667  0.44971345  1
  Cu  Cu188  1  0.44971345  0.65025902  0.48975667  1
  Cu  Cu189  1  0.84974098  0.58972914  0.05028655  1
  Cu  Cu190  1  0.58972914  0.84974098  0.01024333  1
  Cu  Cu191  1  0.01024333  0.05028655  0.58972914  1
  C  C192  1  0.18698184  0.18698184  0.18698184  1
  C  C193  1  0.31301816  0.31301816  0.56094551  1
  C  C194  1  0.56094551  0.31301816  0.31301816  1
  C  C195  1  0.31301816  0.56094551  0.31301816  1
  C  C196  1  0.93905449  0.18698184  0.18698184  1
  C  C197  1  0.18698184  0.93905449  0.18698184  1
  C  C198  1  0.18698184  0.18698184  0.93905449  1
  C  C199  1  0.31301816  0.31301816  0.31301816  1
  C  C200  1  0.81301816  0.81301816  0.81301816  1
  C  C201  1  0.68698184  0.68698184  0.43905449  1
  C  C202  1  0.43905449  0.68698184  0.68698184  1
  C  C203  1  0.68698184  0.43905449  0.68698184  1
  C  C204  1  0.06094551  0.81301816  0.81301816  1
  C  C205  1  0.81301816  0.06094551  0.81301816  1
  C  C206  1  0.81301816  0.81301816  0.06094551  1
  C  C207  1  0.68698184  0.68698184  0.68698184  1
  C  C208  1  0.25000000  0.41938322  0.08061678  1
  C  C209  1  0.08061678  0.41938322  0.75000000  1
  C  C210  1  0.75000000  0.25000000  0.08061678  1
  C  C211  1  0.08061678  0.75000000  0.25000000  1
  C  C212  1  0.41938322  0.25000000  0.75000000  1
  C  C213  1  0.41938322  0.75000000  0.08061678  1
  C  C214  1  0.75000000  0.41938322  0.25000000  1
  C  C215  1  0.08061678  0.25000000  0.41938322  1
  C  C216  1  0.41938322  0.08061678  0.25000000  1
  C  C217  1  0.25000000  0.08061678  0.75000000  1
  C  C218  1  0.25000000  0.75000000  0.41938322  1
  C  C219  1  0.75000000  0.08061678  0.41938322  1
  C  C220  1  0.75000000  0.58061678  0.91938322  1
  C  C221  1  0.91938322  0.58061678  0.25000000  1
  C  C222  1  0.25000000  0.75000000  0.91938322  1
  C  C223  1  0.91938322  0.25000000  0.75000000  1
  C  C224  1  0.58061678  0.75000000  0.25000000  1
  C  C225  1  0.58061678  0.25000000  0.91938322  1
  C  C226  1  0.25000000  0.58061678  0.75000000  1
  C  C227  1  0.91938322  0.75000000  0.58061678  1
  C  C228  1  0.58061678  0.91938322  0.75000000  1
  C  C229  1  0.75000000  0.91938322  0.25000000  1
  C  C230  1  0.75000000  0.25000000  0.58061678  1
  C  C231  1  0.25000000  0.91938322  0.58061678  1
  C  C232  1  0.00000000  0.00000000  0.00000000  1
  C  C233  1  0.50000000  0.50000000  0.00000000  1
  C  C234  1  0.00000000  0.50000000  0.50000000  1
  C  C235  1  0.50000000  0.00000000  0.50000000  1
  C  C236  1  0.50000000  0.00000000  0.00000000  1
  C  C237  1  0.00000000  0.50000000  0.00000000  1
  C  C238  1  0.00000000  0.00000000  0.50000000  1
  C  C239  1  0.50000000  0.50000000  0.50000000  1
  C  C240  1  0.25000000  0.25000000  0.25000000  1
  C  C241  1  0.25000000  0.25000000  0.75000000  1
  C  C242  1  0.75000000  0.25000000  0.25000000  1
  C  C243  1  0.25000000  0.75000000  0.25000000  1
  C  C244  1  0.75000000  0.75000000  0.75000000  1
  C  C245  1  0.75000000  0.75000000  0.25000000  1
  C  C246  1  0.25000000  0.75000000  0.75000000  1
  C  C247  1  0.75000000  0.25000000  0.75000000  1
