# generated using pymatgen
data_Cu10Ni2C105
_symmetry_space_group_name_H-M   'P 1'
_cell_length_a   8.93414050
_cell_length_b   8.91358708
_cell_length_c   22.37508112
_cell_angle_alpha   90.28296063
_cell_angle_beta   90.09498881
_cell_angle_gamma   119.99491654
_symmetry_Int_Tables_number   1
_chemical_formula_structural   Cu10Ni2C105
_chemical_formula_sum   'Cu10 Ni2 C105'
_cell_volume   1543.16568562
_cell_formula_units_Z   1
loop_
 _symmetry_equiv_pos_site_id
 _symmetry_equiv_pos_as_xyz
  1  'x, y, z'
loop_
 _atom_site_type_symbol
 _atom_site_label
 _atom_site_symmetry_multiplicity
 _atom_site_fract_x
 _atom_site_fract_y
 _atom_site_fract_z
 _atom_site_occupancy
  C  C0  1  0.98966014  0.35232283  0.74833263  1
  C  C1  1  0.29973470  0.33325318  0.58427902  1
  C  C2  1  0.66898498  0.96823489  0.58538923  1
  C  C3  1  0.30040090  0.96721716  0.08514595  1
  C  C4  1  0.66863814  0.70035734  0.08695804  1
  C  C5  1  0.96974921  0.67120925  0.91414942  1
  C  C6  1  0.32685877  0.29201494  0.91472757  1
  C  C7  1  0.33339315  0.04026089  0.41304344  1
  C  C8  1  0.70017468  0.66772448  0.41461774  1
  C  C9  1  0.99966445  0.00533212  0.49782837  1
  C  C10  1  0.99710743  0.01548437  0.99777751  1
  C  C11  1  0.65917005  0.32047420  0.82938829  1
  C  C12  1  0.66589150  0.32957728  0.32857858  1
  C  C13  1  0.32506866  0.65954716  0.16519146  1
  C  C14  1  0.33320768  0.67508961  0.66453768  1
  Ni  Ni15  1  0.34406126  0.67166505  0.31141148  1
  Ni  Ni16  1  0.33217881  0.67420852  0.81177090  1
  Cu  Cu17  1  0.00140311  0.00793280  0.34556806  1
  Cu  Cu18  1  0.00239674  0.00616641  0.84430722  1
  Cu  Cu19  1  0.99887162  0.99336873  0.66079589  1
  Cu  Cu20  1  0.99950598  0.99840852  0.15995702  1
  Cu  Cu21  1  0.66128839  0.33474067  0.68892410  1
  Cu  Cu22  1  0.65889978  0.33134152  0.18868940  1
  Cu  Cu23  1  0.67336302  0.31745892  0.98071169  1
  Cu  Cu24  1  0.66650198  0.32787269  0.48151253  1
  Cu  Cu25  1  0.32203641  0.66119493  0.01279840  1
  Cu  Cu26  1  0.33259495  0.66413510  0.51188498  1
  C  C27  1  0.29502581  0.00355412  0.25068214  1
  C  C28  1  0.71299621  0.70478420  0.25040332  1
  C  C29  1  0.29810139  0.29382110  0.75060637  1
  C  C30  1  0.99389263  0.70684692  0.75153525  1
  C  C31  1  0.70786695  0.00089991  0.74910711  1
  C  C32  1  0.04031432  0.37094338  0.91705829  1
  C  C33  1  0.33422412  0.96231322  0.91942508  1
  C  C34  1  0.63069543  0.96189101  0.41894974  1
  C  C35  1  0.32864740  0.37099981  0.41834773  1
  C  C36  1  0.99889198  0.29462476  0.25044801  1
  C  C37  1  0.96117952  0.33624678  0.58342844  1
  C  C38  1  0.37073831  0.03774623  0.58263237  1
  C  C39  1  0.67039952  0.62768955  0.58245641  1
  C  C40  1  0.95824261  0.62372703  0.08312249  1
  C  C41  1  0.67020129  0.04101417  0.08409835  1
  C  C42  1  0.37233450  0.33404328  0.08225151  1
  C  C43  1  0.62616563  0.67014395  0.91821757  1
  C  C44  1  0.04233734  0.66431897  0.41692755  1
  C  C45  1  0.21353109  0.02567354  0.30755080  1
  C  C46  1  0.81312913  0.78813014  0.30778007  1
  C  C47  1  0.97385027  0.19274860  0.30426456  1
  C  C48  1  0.21869218  0.19183324  0.80750545  1
  C  C49  1  0.97132534  0.78221017  0.80976864  1
  C  C50  1  0.82191249  0.03248026  0.80348419  1
  C  C51  1  0.77121694  0.96010121  0.69056581  1
  C  C52  1  0.18137330  0.22805374  0.69408515  1
  C  C53  1  0.03750049  0.81712094  0.69600250  1
  C  C54  1  0.77588116  0.81347522  0.19322047  1
  C  C55  1  0.03802712  0.22619553  0.19635862  1
  C  C56  1  0.18747550  0.96357297  0.19283808  1
  C  C57  1  0.88333610  0.35802252  0.63853253  1
  C  C58  1  0.48475233  0.12127731  0.63474447  1
  C  C59  1  0.64160249  0.51586703  0.63435243  1
  C  C60  1  0.87456301  0.51780878  0.13563284  1
  C  C61  1  0.63955855  0.12183806  0.13668556  1
  C  C62  1  0.48440301  0.36342887  0.13482930  1
  C  C63  1  0.44917852  0.30511564  0.02690424  1
  C  C64  1  0.85364756  0.54784787  0.02732564  1
  C  C65  1  0.69384340  0.14145836  0.02917647  1
  C  C66  1  0.44652637  0.14283453  0.52707504  1
  C  C67  1  0.69095237  0.54950394  0.52622963  1
  C  C68  1  0.85053308  0.30754091  0.53020218  1
  C  C69  1  0.54962665  0.69371840  0.97322816  1
  C  C70  1  0.15802893  0.45323167  0.97125093  1
  C  C71  1  0.30552249  0.85323296  0.97549984  1
  C  C72  1  0.54939588  0.85124997  0.47488021  1
  C  C73  1  0.30385657  0.44951406  0.47581353  1
  C  C74  1  0.14959306  0.69546885  0.47054399  1
  C  C75  1  0.13069430  0.64277174  0.36306747  1
  C  C76  1  0.50158139  0.85943258  0.36387837  1
  C  C77  1  0.35273709  0.49726896  0.36416004  1
  C  C78  1  0.13772758  0.49413114  0.86081431  1
  C  C79  1  0.35525470  0.86013140  0.86424150  1
  C  C80  1  0.50944402  0.64398134  0.86518347  1
  C  C81  1  0.02439431  0.82102456  0.41102963  1
  C  C82  1  0.80421720  0.97093282  0.40963648  1
  C  C83  1  0.17433102  0.18783296  0.41028364  1
  C  C84  1  0.02394152  0.19291999  0.90930680  1
  C  C85  1  0.16904737  0.97456991  0.91147259  1
  C  C86  1  0.80002467  0.82021023  0.91123328  1
  C  C87  1  0.97911309  0.17642830  0.58658617  1
  C  C88  1  0.19875247  0.02496521  0.58862788  1
  C  C89  1  0.82261483  0.80541022  0.58743508  1
  C  C90  1  0.97651417  0.80198165  0.08732673  1
  C  C91  1  0.82311728  0.01622739  0.08934378  1
  C  C92  1  0.19885828  0.17567027  0.08854028  1
  C  C93  1  0.68531447  0.16029397  0.74345172  1
  C  C94  1  0.47906130  0.32264135  0.74363301  1
  C  C95  1  0.84844818  0.51781302  0.74510392  1
  C  C96  1  0.68227228  0.52148587  0.24449591  1
  C  C97  1  0.85113612  0.32180107  0.24359525  1
  C  C98  1  0.47947567  0.15459090  0.24495759  1
  C  C99  1  0.63593809  0.50761413  0.91994879  1
  C  C100  1  0.86812910  0.37245232  0.91925750  1
  C  C101  1  0.49519488  0.14425987  0.91992193  1
  C  C102  1  0.63303771  0.13575816  0.41978111  1
  C  C103  1  0.50088303  0.36575876  0.41895417  1
  C  C104  1  0.86834976  0.50919725  0.42003338  1
  C  C105  1  0.35991479  0.49525162  0.07745745  1
  C  C106  1  0.13723096  0.64994676  0.07902317  1
  C  C107  1  0.51021637  0.86235749  0.07890735  1
  C  C108  1  0.35620085  0.86340591  0.57693414  1
  C  C109  1  0.50953163  0.64509046  0.57927302  1
  C  C110  1  0.13879785  0.49017728  0.57824528  1
  C  C111  1  0.30961587  0.82980815  0.26069459  1
  C  C112  1  0.52126740  0.68573179  0.25983708  1
  C  C113  1  0.16188865  0.47498892  0.25939118  1
  C  C114  1  0.31134619  0.48111288  0.76065731  1
  C  C115  1  0.16609215  0.68582289  0.75947919  1
  C  C116  1  0.52179456  0.83399132  0.76049285  1
