# generated using pymatgen
data_Cu2Ni5C32
_symmetry_space_group_name_H-M   'P 1'
_cell_length_a   18.38956763
_cell_length_b   9.12445400
_cell_length_c   22.77336283
_cell_angle_alpha   89.17951380
_cell_angle_beta   92.30311016
_cell_angle_gamma   119.56401154
_symmetry_Int_Tables_number   1
_chemical_formula_structural   Cu2Ni5C32
_chemical_formula_sum   'Cu12 Ni30 C192'
_cell_volume   3320.99173862
_cell_formula_units_Z   6
loop_
 _symmetry_equiv_pos_site_id
 _symmetry_equiv_pos_as_xyz
  1  'x, y, z'
loop_
 _atom_site_type_symbol
 _atom_site_label
 _atom_site_symmetry_multiplicity
 _atom_site_fract_x
 _atom_site_fract_y
 _atom_site_fract_z
 _atom_site_occupancy
  Ni  Ni0  1  0.32577540  0.01609621  0.25287590  1
  Ni  Ni1  1  0.68248797  0.35270809  0.25616471  1
  Ni  Ni2  1  0.99902985  0.63459036  0.24292422  1
  Ni  Ni3  1  0.49727363  0.63067752  0.24174812  1
  Ni  Ni4  1  0.32269215  0.62948990  0.75370364  1
  Ni  Ni5  1  0.82281395  0.62946505  0.75342371  1
  Ni  Ni6  1  0.99624469  0.36182115  0.74160430  1
  Ni  Ni7  1  0.49622555  0.36135249  0.74132151  1
  Ni  Ni8  1  0.18126396  0.01054799  0.75637679  1
  Ni  Ni9  1  0.68156414  0.01078563  0.75579985  1
  Ni  Ni10  1  0.33568976  0.96507259  0.57582993  1
  Ni  Ni11  1  0.83566270  0.96557830  0.57680046  1
  Ni  Ni12  1  0.33567352  0.70836722  0.07713187  1
  Ni  Ni13  1  0.83479034  0.70477079  0.07602931  1
  Ni  Ni14  1  0.48338755  0.67618481  0.91151321  1
  Ni  Ni15  1  0.98341912  0.67669015  0.91139256  1
  Ni  Ni16  1  0.48740859  0.29384325  0.40937392  1
  Ni  Ni17  1  0.16649393  0.03198084  0.40923818  1
  Ni  Ni18  1  0.98913749  0.99730101  0.49960709  1
  Ni  Ni19  1  0.49622886  0.98619353  0.49982056  1
  Ni  Ni20  1  0.99560301  0.00538542  0.99879947  1
  Ni  Ni21  1  0.49549566  0.00486488  0.00029341  1
  Ni  Ni22  1  0.32482995  0.32898207  0.83546324  1
  Ni  Ni23  1  0.82482516  0.32945200  0.83507805  1
  Ni  Ni24  1  0.32380101  0.33205008  0.32931002  1
  Ni  Ni25  1  0.82423241  0.30457679  0.33511156  1
  Ni  Ni26  1  0.15200257  0.65377139  0.16516629  1
  Ni  Ni27  1  0.65714790  0.67930011  0.16456124  1
  Ni  Ni28  1  0.15172755  0.63855005  0.66260420  1
  Ni  Ni29  1  0.65252647  0.63963666  0.66248782  1
  Cu  Cu30  1  0.99591272  0.00282670  0.35241625  1
  Cu  Cu31  1  0.50082503  0.99631947  0.35374913  1
  Cu  Cu32  1  0.99929431  0.00309670  0.85281909  1
  Cu  Cu33  1  0.49910616  0.00349075  0.85296421  1
  Cu  Cu34  1  0.33548054  0.33961106  0.68194594  1
  Cu  Cu35  1  0.83544272  0.34037950  0.68161078  1
  Cu  Cu36  1  0.33190764  0.32839886  0.18510428  1
  Cu  Cu37  1  0.83490828  0.32185971  0.18498611  1
  Cu  Cu38  1  0.16527719  0.67318446  0.01964270  1
  Cu  Cu39  1  0.66431321  0.67109620  0.01998359  1
  Cu  Cu40  1  0.16329532  0.65277078  0.51947586  1
  Cu  Cu41  1  0.66531598  0.65708186  0.51971321  1
  C  C42  1  0.14850923  0.99441224  0.25746652  1
  C  C43  1  0.64856598  0.99843731  0.25367779  1
  C  C44  1  0.50983729  0.30023899  0.25102320  1
  C  C45  1  0.14810049  0.29916384  0.75288851  1
  C  C46  1  0.64838247  0.29958168  0.75307336  1
  C  C47  1  0.00780025  0.71737691  0.75235081  1
  C  C48  1  0.50812732  0.71774484  0.75218885  1
  C  C49  1  0.48516771  0.31693160  0.59031642  1
  C  C50  1  0.98390727  0.31670312  0.59083774  1
  C  C51  1  0.48323306  0.64953692  0.09029201  1
  C  C52  1  0.98181065  0.63427921  0.08879694  1
  C  C53  1  0.30872044  0.66054136  0.92017005  1
  C  C54  1  0.80849744  0.65998046  0.92030508  1
  C  C55  1  0.31558169  0.96704727  0.42372786  1
  C  C56  1  0.80850728  0.95756997  0.41954618  1
  C  C57  1  0.02247141  0.02779073  0.65029253  1
  C  C58  1  0.52465147  0.02984488  0.64993979  1
  C  C59  1  0.01226980  0.98071736  0.14767809  1
  C  C60  1  0.51689987  0.00918565  0.15230968  1
  C  C61  1  0.32729808  0.37587197  0.99004700  1
  C  C62  1  0.82720150  0.36737702  0.98799062  1
  C  C63  1  0.34417247  0.31538995  0.48368980  1
  C  C64  1  0.84286017  0.30277005  0.48099999  1
  C  C65  1  0.16983754  0.69502894  0.32060146  1
  C  C66  1  0.67012227  0.68744257  0.31105206  1
  C  C67  1  0.15915430  0.63457295  0.81517535  1
  C  C68  1  0.65883107  0.63388688  0.81535966  1
  C  C69  1  0.34805774  0.70925475  0.24844962  1
  C  C70  1  0.84663397  0.70561713  0.24821202  1
  C  C71  1  0.00845312  0.30559740  0.24917176  1
  C  C72  1  0.34661382  0.98654365  0.74759926  1
  C  C73  1  0.84686415  0.98695045  0.74753736  1
  C  C74  1  0.17972100  0.03727179  0.58367631  1
  C  C75  1  0.68201141  0.04091198  0.58379613  1
  C  C76  1  0.34107726  0.63833189  0.58278814  1
  C  C77  1  0.84117950  0.63835138  0.58255627  1
  C  C78  1  0.34066490  0.04889391  0.08265395  1
  C  C79  1  0.84027624  0.04635410  0.08080749  1
  C  C80  1  0.18119545  0.32114770  0.08249587  1
  C  C81  1  0.68148471  0.32113420  0.08447072  1
  C  C82  1  0.01645123  0.37823578  0.91458479  1
  C  C83  1  0.51618289  0.37797970  0.91475875  1
  C  C84  1  0.17467479  0.97312335  0.91498946  1
  C  C85  1  0.67417148  0.97160198  0.91488814  1
  C  C86  1  0.17393153  0.37716476  0.41604339  1
  C  C87  1  0.67562904  0.37750758  0.41560397  1
  C  C88  1  0.01238425  0.65168284  0.41612757  1
  C  C89  1  0.51539129  0.65191898  0.41512885  1
  C  C90  1  0.10688954  0.00862360  0.31494391  1
  C  C91  1  0.60524455  0.02770930  0.30670748  1
  C  C92  1  0.40052776  0.78620586  0.30113764  1
  C  C93  1  0.90080425  0.78680933  0.29951536  1
  C  C94  1  0.48580454  0.19076336  0.31000404  1
  C  C95  1  0.99924806  0.20764914  0.30176861  1
  C  C96  1  0.10643334  0.18086226  0.80666735  1
  C  C97  1  0.60637452  0.18064715  0.80663349  1
  C  C98  1  0.48554715  0.78150942  0.80973083  1
  C  C99  1  0.98558965  0.78114321  0.80985596  1
  C  C100  1  0.39955053  0.01835813  0.80060171  1
  C  C101  1  0.89972770  0.01840970  0.80055645  1
  C  C102  1  0.38579623  0.96434634  0.69480082  1
  C  C103  1  0.88630751  0.96481033  0.69473196  1
  C  C104  1  0.08541866  0.21730634  0.69131830  1
  C  C105  1  0.58593687  0.21848115  0.69135508  1
  C  C106  1  0.02659826  0.85891165  0.69450924  1
  C  C107  1  0.52693816  0.85940560  0.69418402  1
  C  C108  1  0.38641217  0.81421643  0.19459646  1
  C  C109  1  0.88199423  0.80140496  0.19281190  1
  C  C110  1  0.01579135  0.22489951  0.19471287  1
  C  C111  1  0.52587401  0.19249978  0.19417438  1
  C  C112  1  0.08271908  0.94721838  0.19602168  1
  C  C113  1  0.58422647  0.95137945  0.19195760  1
  C  C114  1  0.44119152  0.33249090  0.64643650  1
  C  C115  1  0.94186479  0.33242810  0.64799730  1
  C  C116  1  0.22867441  0.11544181  0.63763892  1
  C  C117  1  0.72763195  0.11217307  0.63957642  1
  C  C118  1  0.33101056  0.54819137  0.63813306  1
  C  C119  1  0.83126279  0.54941667  0.63834493  1
  C  C120  1  0.43846071  0.54454825  0.14725957  1
  C  C121  1  0.93932299  0.54186437  0.14745881  1
  C  C122  1  0.33111415  0.11844442  0.13738539  1
  C  C123  1  0.83010041  0.11996919  0.13382272  1
  C  C124  1  0.23148387  0.34073623  0.13526628  1
  C  C125  1  0.73057246  0.34027692  0.13843689  1
  C  C126  1  0.22235052  0.29525237  0.02792582  1
  C  C127  1  0.72280130  0.29571883  0.03083822  1
  C  C128  1  0.41325766  0.55299780  0.02857350  1
  C  C129  1  0.91287416  0.54273213  0.02751851  1
  C  C130  1  0.34555811  0.15492963  0.02950098  1
  C  C131  1  0.84647078  0.15059775  0.02656494  1
  C  C132  1  0.21783268  0.14015556  0.52978634  1
  C  C133  1  0.72201106  0.14932271  0.53192551  1
  C  C134  1  0.34603942  0.54421091  0.53029070  1
  C  C135  1  0.84576810  0.54447860  0.53065057  1
  C  C136  1  0.41776381  0.27597479  0.52758389  1
  C  C137  1  0.91266559  0.27135210  0.53012565  1
  C  C138  1  0.27217831  0.67255068  0.98052704  1
  C  C139  1  0.77145258  0.67201418  0.98041542  1
  C  C140  1  0.06847132  0.46383940  0.96615202  1
  C  C141  1  0.56846763  0.46337212  0.96623591  1
  C  C142  1  0.16453193  0.86620216  0.96570279  1
  C  C143  1  0.66466516  0.86573408  0.96573498  1
  C  C144  1  0.27062546  0.87044146  0.48085196  1
  C  C145  1  0.77417826  0.87138037  0.48085453  1
  C  C146  1  0.16447334  0.45458597  0.46803792  1
  C  C147  1  0.66427136  0.46249155  0.46516109  1
  C  C148  1  0.06640909  0.67365008  0.46729978  1
  C  C149  1  0.56606977  0.66900703  0.46769603  1
  C  C150  1  0.04971241  0.62717694  0.36032939  1
  C  C151  1  0.55247516  0.62623183  0.36035337  1
  C  C152  1  0.25075641  0.88119258  0.36088229  1
  C  C153  1  0.74235582  0.85528403  0.35950491  1
  C  C154  1  0.18159540  0.47985486  0.36082008  1
  C  C155  1  0.68262417  0.47345510  0.35870699  1
  C  C156  1  0.05731408  0.48390143  0.85780561  1
  C  C157  1  0.55710297  0.48387541  0.85786299  1
  C  C158  1  0.18170567  0.89177670  0.85944697  1
  C  C159  1  0.68146331  0.89090243  0.85942968  1
  C  C160  1  0.24565975  0.63403449  0.85787166  1
  C  C161  1  0.74551679  0.63412185  0.85787791  1
  C  C162  1  0.00425274  0.80398126  0.41136544  1
  C  C163  1  0.50007430  0.79356179  0.41149809  1
  C  C164  1  0.41012409  0.00773812  0.41802509  1
  C  C165  1  0.90181000  0.99030965  0.41327369  1
  C  C166  1  0.10192300  0.20353734  0.41161852  1
  C  C167  1  0.60037955  0.20840788  0.41226732  1
  C  C168  1  0.00484480  0.20901324  0.91104732  1
  C  C169  1  0.50470601  0.20885563  0.91112865  1
  C  C170  1  0.09859296  0.99010347  0.91209316  1
  C  C171  1  0.59834691  0.98907412  0.91206048  1
  C  C172  1  0.40410971  0.80697580  0.91326591  1
  C  C173  1  0.90387620  0.80664184  0.91339459  1
  C  C174  1  0.48448701  0.12632544  0.59403069  1
  C  C175  1  0.98383038  0.12712979  0.59418661  1
  C  C176  1  0.09378644  0.02537144  0.58662502  1
  C  C177  1  0.59513148  0.02734601  0.58610204  1
  C  C178  1  0.41904734  0.80695081  0.58461543  1
  C  C179  1  0.91930815  0.80835476  0.58479569  1
  C  C180  1  0.48328454  0.84053484  0.09409399  1
  C  C181  1  0.98315570  0.82573869  0.08808976  1
  C  C182  1  0.41921122  0.03487524  0.08485487  1
  C  C183  1  0.91909410  0.03323478  0.08334729  1
  C  C184  1  0.09746564  0.16419373  0.08314948  1
  C  C185  1  0.59697357  0.16416546  0.08550755  1
  C  C186  1  0.33066532  0.13155898  0.74285631  1
  C  C187  1  0.83096921  0.13190685  0.74282162  1
  C  C188  1  0.24226705  0.33358564  0.74588668  1
  C  C189  1  0.74248765  0.33395400  0.74613508  1
  C  C190  1  0.43233891  0.52865600  0.74192444  1
  C  C191  1  0.93223220  0.52865372  0.74196466  1
  C  C192  1  0.33637944  0.53804477  0.24370814  1
  C  C193  1  0.83491345  0.53201472  0.24510416  1
  C  C194  1  0.43269682  0.33741112  0.24146089  1
  C  C195  1  0.93594501  0.33585736  0.24617590  1
  C  C196  1  0.24290753  0.13973913  0.24883986  1
  C  C197  1  0.73843019  0.16214758  0.24700227  1
  C  C198  1  0.31865568  0.47743792  0.92359849  1
  C  C199  1  0.81816609  0.47671144  0.92344577  1
  C  C200  1  0.43505689  0.37752808  0.91466518  1
  C  C201  1  0.93504466  0.37748872  0.91427817  1
  C  C202  1  0.25292098  0.14215792  0.92053162  1
  C  C203  1  0.75265658  0.14183379  0.92017073  1
  C  C204  1  0.31749947  0.16085697  0.42360180  1
  C  C205  1  0.81634307  0.15585742  0.42147119  1
  C  C206  1  0.25302007  0.36315048  0.41932485  1
  C  C207  1  0.75445207  0.36585580  0.42116748  1
  C  C208  1  0.43107874  0.48462188  0.41848298  1
  C  C209  1  0.92725583  0.49436456  0.42018447  1
  C  C210  1  0.17344897  0.47241148  0.07588933  1
  C  C211  1  0.67363746  0.47249020  0.07770386  1
  C  C212  1  0.07341670  0.66389996  0.08108343  1
  C  C213  1  0.57355885  0.67289837  0.08106316  1
  C  C214  1  0.26893735  0.87432826  0.07767504  1
  C  C215  1  0.76883470  0.87158064  0.07710437  1
  C  C216  1  0.17027708  0.86792819  0.57930694  1
  C  C217  1  0.67221705  0.87158299  0.57811104  1
  C  C218  1  0.26848682  0.66765507  0.57759133  1
  C  C219  1  0.76875471  0.66877547  0.57788180  1
  C  C220  1  0.07381339  0.47413051  0.58147761  1
  C  C221  1  0.57514286  0.47467528  0.58140225  1
  C  C222  1  0.14871530  0.80399100  0.25909157  1
  C  C223  1  0.64815722  0.81088133  0.25702897  1
  C  C224  1  0.26437111  0.70454781  0.25264461  1
  C  C225  1  0.76042129  0.68835437  0.25301353  1
  C  C226  1  0.08717263  0.47867617  0.25324242  1
  C  C227  1  0.59980042  0.49154570  0.25927650  1
  C  C228  1  0.14916076  0.48736002  0.75721263  1
  C  C229  1  0.64902500  0.48733002  0.75730418  1
  C  C230  1  0.09890416  0.70615782  0.76179651  1
  C  C231  1  0.59907958  0.70634930  0.76179476  1
  C  C232  1  0.26308281  0.82670440  0.75217082  1
  C  C233  1  0.76341830  0.82707570  0.75189059  1
