# generated using pymatgen
data_Cu3Ni3C29
_symmetry_space_group_name_H-M   'P 1'
_cell_length_a   8.86619161
_cell_length_b   8.86276640
_cell_length_c   22.93470809
_cell_angle_alpha   90.06980430
_cell_angle_beta   90.14439340
_cell_angle_gamma   119.97550388
_symmetry_Int_Tables_number   1
_chemical_formula_structural   Cu3Ni3C29
_chemical_formula_sum   'Cu9 Ni9 C87'
_cell_volume   1561.11269917
_cell_formula_units_Z   3
loop_
 _symmetry_equiv_pos_site_id
 _symmetry_equiv_pos_as_xyz
  1  'x, y, z'
loop_
 _atom_site_type_symbol
 _atom_site_label
 _atom_site_symmetry_multiplicity
 _atom_site_fract_x
 _atom_site_fract_y
 _atom_site_fract_z
 _atom_site_occupancy
  C  C0  1  0.99979940  0.99803292  0.99922872  1
  C  C1  1  0.66652967  0.33226952  0.83575826  1
  C  C2  1  0.66663186  0.33243550  0.33153531  1
  C  C3  1  0.99572322  0.00193465  0.35826658  1
  C  C4  1  0.00261495  0.00384247  0.85626778  1
  C  C5  1  0.99812469  0.00280006  0.64482879  1
  C  C6  1  0.00410819  0.00448232  0.14448014  1
  C  C7  1  0.66458140  0.33269149  0.68995940  1
  C  C8  1  0.67213030  0.33842988  0.18646823  1
  C  C9  1  0.66119632  0.33678977  0.97764865  1
  C  C10  1  0.66932505  0.33445140  0.47731846  1
  C  C11  1  0.33454778  0.67020031  0.02397906  1
  C  C12  1  0.33534447  0.67185533  0.52241912  1
  C  C13  1  0.32911260  0.66910437  0.30864632  1
  C  C14  1  0.34213867  0.67114625  0.80968286  1
  Ni  Ni15  1  0.99757753  0.28570279  0.25043122  1
  Ni  Ni16  1  0.28400376  0.28687642  0.75018516  1
  Ni  Ni17  1  0.71508877  0.00024669  0.74991038  1
  Ni  Ni18  1  0.95482936  0.62197034  0.08264171  1
  Ni  Ni19  1  0.37940854  0.33459011  0.08355175  1
  Ni  Ni20  1  0.62004915  0.66902111  0.91707519  1
  Ni  Ni21  1  0.33406680  0.95207891  0.91674882  1
  Ni  Ni22  1  0.61605182  0.95041644  0.41652716  1
  Ni  Ni23  1  0.04954083  0.66835891  0.41635184  1
  Cu  Cu24  1  0.28651134  0.00329784  0.25056464  1
  Cu  Cu25  1  0.71466062  0.71453304  0.25039373  1
  Cu  Cu26  1  0.00129370  0.71616937  0.74989787  1
  Cu  Cu27  1  0.95361065  0.33413564  0.58356809  1
  Cu  Cu28  1  0.37983628  0.04795427  0.58338461  1
  Cu  Cu29  1  0.66687719  0.61943348  0.58345198  1
  Cu  Cu30  1  0.66752854  0.04844168  0.08287767  1
  Cu  Cu31  1  0.04812657  0.38339757  0.91660071  1
  Cu  Cu32  1  0.33401137  0.38405943  0.41643342  1
  C  C33  1  0.20047548  0.02932958  0.30472058  1
  C  C34  1  0.83057041  0.79870139  0.30498545  1
  C  C35  1  0.97154823  0.16358723  0.30700349  1
  C  C36  1  0.19850028  0.16227782  0.80644961  1
  C  C37  1  0.96492514  0.79564350  0.80392613  1
  C  C38  1  0.83700088  0.03323812  0.80650656  1
  C  C39  1  0.80690707  0.97188687  0.69205018  1
  C  C40  1  0.16556046  0.18951407  0.69222050  1
  C  C41  1  0.02585290  0.82735985  0.69472115  1
  C  C42  1  0.79943468  0.82545040  0.19601627  1
  C  C43  1  0.02591710  0.19235171  0.19343455  1
  C  C44  1  0.17248087  0.97116317  0.19558875  1
  C  C45  1  0.86612830  0.36226511  0.63708083  1
  C  C46  1  0.49754511  0.13540678  0.63729415  1
  C  C47  1  0.63909903  0.50349706  0.63710988  1
  C  C48  1  0.86152206  0.49919804  0.14043794  1
  C  C49  1  0.64037591  0.13392289  0.13824841  1
  C  C50  1  0.49952699  0.35851033  0.14091249  1
  C  C51  1  0.46927764  0.29848892  0.02681314  1
  C  C52  1  0.82993538  0.52707885  0.02659625  1
  C  C53  1  0.70029889  0.16218548  0.02895864  1
  C  C54  1  0.46797589  0.16265021  0.52935921  1
  C  C55  1  0.69352389  0.53026124  0.52924870  1
  C  C56  1  0.83606894  0.30514721  0.52918988  1
  C  C57  1  0.52902061  0.69642145  0.97407773  1
  C  C58  1  0.16037066  0.46344471  0.97159722  1
  C  C59  1  0.30268017  0.83281238  0.97421412  1
  C  C60  1  0.52678511  0.83112844  0.47443558  1
  C  C61  1  0.30549788  0.46626707  0.47174263  1
  C  C62  1  0.16812560  0.69218885  0.47418026  1
  C  C63  1  0.13727454  0.63214965  0.35976408  1
  C  C64  1  0.49658887  0.86171297  0.35961098  1
  C  C65  1  0.36775797  0.49703003  0.36228404  1
  C  C66  1  0.12908802  0.49238267  0.86151944  1
  C  C67  1  0.35957252  0.85970170  0.85902186  1
  C  C68  1  0.49872334  0.63471340  0.85905752  1
  C  C69  1  0.02783614  0.83635779  0.40516167  1
  C  C70  1  0.80869905  0.97491077  0.40694831  1
  C  C71  1  0.17575484  0.20056169  0.40715840  1
  C  C72  1  0.02782918  0.19813890  0.90959833  1
  C  C73  1  0.16350566  0.97645365  0.90886390  1
  C  C74  1  0.81381298  0.83828289  0.90841666  1
  C  C75  1  0.97122390  0.17077251  0.59201129  1
  C  C76  1  0.19843915  0.02437415  0.59288666  1
  C  C77  1  0.82857840  0.79921648  0.59257441  1
  C  C78  1  0.97108681  0.81163665  0.09273522  1
  C  C79  1  0.82862878  0.02513531  0.09203322  1
  C  C80  1  0.18680354  0.16050171  0.09168697  1
  C  C81  1  0.69504256  0.17352042  0.73946622  1
  C  C82  1  0.47924998  0.31050641  0.73944013  1
  C  C83  1  0.83613475  0.53169462  0.73990811  1
  C  C84  1  0.69224446  0.52922804  0.24347459  1
  C  C85  1  0.82560418  0.30682714  0.24340477  1
  C  C86  1  0.47017768  0.16263259  0.24288414  1
  C  C87  1  0.64370294  0.49675922  0.92323033  1
  C  C88  1  0.86288634  0.35678322  0.92413457  1
  C  C89  1  0.50773253  0.14444138  0.92395281  1
  C  C90  1  0.63921728  0.14485069  0.42693832  1
  C  C91  1  0.49593176  0.36017444  0.42627867  1
  C  C92  1  0.85409632  0.49765777  0.42678702  1
  C  C93  1  0.35830805  0.50214605  0.07290823  1
  C  C94  1  0.14342172  0.64081335  0.07351098  1
  C  C95  1  0.50634766  0.86757369  0.07548323  1
  C  C96  1  0.36237507  0.86637547  0.57429846  1
  C  C97  1  0.50441576  0.63698613  0.57354281  1
  C  C98  1  0.13498743  0.49287738  0.57321844  1
  C  C99  1  0.30585186  0.83958247  0.25886437  1
  C  C100  1  0.53317682  0.69342667  0.26038043  1
  C  C101  1  0.17051118  0.47569886  0.26059123  1
  C  C102  1  0.30252777  0.47506949  0.75937857  1
  C  C103  1  0.15736507  0.69097939  0.75870347  1
  C  C104  1  0.52290819  0.83349916  0.75834927  1
