# generated using pymatgen
data_CuNiC3
_symmetry_space_group_name_H-M   'P 1'
_cell_length_a   3.18455222
_cell_length_b   3.25951060
_cell_length_c   7.18019148
_cell_angle_alpha   101.45416020
_cell_angle_beta   89.99943543
_cell_angle_gamma   119.25589173
_symmetry_Int_Tables_number   1
_chemical_formula_structural   CuNiC3
_chemical_formula_sum   'Cu1 Ni1 C3'
_cell_volume   63.31747143
_cell_formula_units_Z   1
loop_
 _symmetry_equiv_pos_site_id
 _symmetry_equiv_pos_as_xyz
  1  'x, y, z'
loop_
 _atom_site_type_symbol
 _atom_site_label
 _atom_site_symmetry_multiplicity
 _atom_site_fract_x
 _atom_site_fract_y
 _atom_site_fract_z
 _atom_site_occupancy
  Ni  Ni0  1  0.84203015  0.58925746  0.34427675  1
  Cu  Cu1  1  0.04384488  0.99351631  0.98729131  1
  C  C2  1  0.63833926  0.18263301  0.70595457  1
  C  C3  1  0.67558190  0.25693253  0.84752750  1
  C  C4  1  0.47043181  0.84613070  0.19973687  1
