# generated using pymatgen
data_Cu16Ni4C
_symmetry_space_group_name_H-M   'P 1'
_cell_length_a   6.00892000
_cell_length_b   6.00892000
_cell_length_c   6.00892000
_cell_angle_alpha   90.00000000
_cell_angle_beta   90.00000000
_cell_angle_gamma   90.00000000
_symmetry_Int_Tables_number   1
_chemical_formula_structural   Cu16Ni4C
_chemical_formula_sum   'Cu16 Ni4 C1'
_cell_volume   216.96479290
_cell_formula_units_Z   1
loop_
 _symmetry_equiv_pos_site_id
 _symmetry_equiv_pos_as_xyz
  1  'x, y, z'
loop_
 _atom_site_type_symbol
 _atom_site_label
 _atom_site_symmetry_multiplicity
 _atom_site_fract_x
 _atom_site_fract_y
 _atom_site_fract_z
 _atom_site_occupancy
  C  C0  1  0.00000000  0.00000000  0.00000000  1
  Ni  Ni1  1  0.21984000  0.78016000  0.78016000  1
  Ni  Ni2  1  0.78016000  0.78016000  0.21984000  1
  Ni  Ni3  1  0.78016000  0.21984000  0.78016000  1
  Ni  Ni4  1  0.21984000  0.21984000  0.21984000  1
  Cu  Cu5  1  0.74982800  0.74982800  0.01630300  1
  Cu  Cu6  1  0.25017200  0.98369700  0.74982800  1
  Cu  Cu7  1  0.98369700  0.25017200  0.74982800  1
  Cu  Cu8  1  0.25017200  0.01630300  0.25017200  1
  Cu  Cu9  1  0.01630300  0.25017200  0.25017200  1
  Cu  Cu10  1  0.33451800  0.33451800  0.33451800  1
  Cu  Cu11  1  0.66548200  0.33451800  0.66548200  1
  Cu  Cu12  1  0.66548200  0.66548200  0.33451800  1
  Cu  Cu13  1  0.33451800  0.66548200  0.66548200  1
  Cu  Cu14  1  0.25017200  0.25017200  0.01630300  1
  Cu  Cu15  1  0.74982800  0.01630300  0.74982800  1
  Cu  Cu16  1  0.74982800  0.98369700  0.25017200  1
  Cu  Cu17  1  0.98369700  0.74982800  0.25017200  1
  Cu  Cu18  1  0.01630300  0.74982800  0.74982800  1
  Cu  Cu19  1  0.25017200  0.74982800  0.98369700  1
  Cu  Cu20  1  0.74982800  0.25017200  0.98369700  1
