# generated using pymatgen
data_CuNiC10
_symmetry_space_group_name_H-M   'P 1'
_cell_length_a   15.71238600
_cell_length_b   4.77395700
_cell_length_c   7.34638594
_cell_angle_alpha   57.96184843
_cell_angle_beta   90.00000000
_cell_angle_gamma   90.00000000
_symmetry_Int_Tables_number   1
_chemical_formula_structural   CuNiC10
_chemical_formula_sum   'Cu4 Ni4 C40'
_cell_volume   467.12598878
_cell_formula_units_Z   4
loop_
 _symmetry_equiv_pos_site_id
 _symmetry_equiv_pos_as_xyz
  1  'x, y, z'
loop_
 _atom_site_type_symbol
 _atom_site_label
 _atom_site_symmetry_multiplicity
 _atom_site_fract_x
 _atom_site_fract_y
 _atom_site_fract_z
 _atom_site_occupancy
  C  C0  1  0.60037900  0.52100700  0.54991500  1
  C  C1  1  0.10037900  0.47899300  0.95008500  1
  C  C2  1  0.39962100  0.47899300  0.45008500  1
  C  C3  1  0.89962100  0.52100700  0.04991500  1
  C  C4  1  0.54388400  0.16961300  0.66963800  1
  C  C5  1  0.04388400  0.83038700  0.83036200  1
  C  C6  1  0.45611600  0.83038700  0.33036200  1
  C  C7  1  0.95611600  0.16961300  0.16963800  1
  C  C8  1  0.52441700  0.44764800  0.86224500  1
  C  C9  1  0.02441700  0.55235200  0.63775500  1
  C  C10  1  0.47558300  0.55235200  0.13775500  1
  C  C11  1  0.97558300  0.44764800  0.36224500  1
  C  C12  1  0.72705800  0.55627400  0.28331000  1
  C  C13  1  0.79554600  0.98293000  0.40248600  1
  C  C14  1  0.27294200  0.44372600  0.71669000  1
  C  C15  1  0.77294200  0.55627400  0.78331000  1
  C  C16  1  0.80558700  0.82643700  0.16198500  1
  C  C17  1  0.30558700  0.17356300  0.33801500  1
  C  C18  1  0.19441300  0.17356300  0.83801500  1
  C  C19  1  0.69441300  0.82643700  0.66198500  1
  C  C20  1  0.70445400  0.98293000  0.90248600  1
  C  C21  1  0.20445400  0.01707000  0.59751400  1
  C  C22  1  0.29554600  0.01707000  0.09751400  1
  C  C23  1  0.22705800  0.44372600  0.21669000  1
  Ni  Ni24  1  0.87514400  0.15619100  0.54427400  1
  Ni  Ni25  1  0.12485600  0.84380900  0.45572600  1
  Ni  Ni26  1  0.37514400  0.84380900  0.95572600  1
  Ni  Ni27  1  0.62485600  0.15619100  0.04427400  1
  Cu  Cu28  1  0.59442300  0.16176200  0.26574600  1
  Cu  Cu29  1  0.09442300  0.83823800  0.23425400  1
  Cu  Cu30  1  0.40557700  0.83823800  0.73425400  1
  Cu  Cu31  1  0.90557700  0.16176200  0.76574600  1
  C  C32  1  0.07827900  0.67551300  0.63797900  1
  C  C33  1  0.09492200  0.71040000  0.81345500  1
  C  C34  1  0.40507800  0.71040000  0.31345500  1
  C  C35  1  0.90507800  0.28960000  0.18654500  1
  C  C36  1  0.57827900  0.32448700  0.86202100  1
  C  C37  1  0.59492200  0.28960000  0.68654500  1
  C  C38  1  0.42172100  0.67551300  0.13797900  1
  C  C39  1  0.92172100  0.32448700  0.36202100  1
  C  C40  1  0.80652800  0.99537900  0.53677000  1
  C  C41  1  0.24453900  0.20092800  0.28178400  1
  C  C42  1  0.74453900  0.79907200  0.21821600  1
  C  C43  1  0.75546100  0.79907200  0.71821600  1
  C  C44  1  0.69347200  0.99537900  0.03677000  1
  C  C45  1  0.19347200  0.00462100  0.46323000  1
  C  C46  1  0.30652800  0.00462100  0.96323000  1
  C  C47  1  0.25546100  0.20092800  0.78178400  1
