# generated using pymatgen
data_Cu2Ni2C9
_symmetry_space_group_name_H-M   'P 1'
_cell_length_a   3.38863308
_cell_length_b   3.38852778
_cell_length_c   46.51104975
_cell_angle_alpha   89.98398755
_cell_angle_beta   90.02083508
_cell_angle_gamma   119.99065385
_symmetry_Int_Tables_number   1
_chemical_formula_structural   Cu2Ni2C9
_chemical_formula_sum   'Cu2 Ni2 C9'
_cell_volume   462.55484175
_cell_formula_units_Z   1
loop_
 _symmetry_equiv_pos_site_id
 _symmetry_equiv_pos_as_xyz
  1  'x, y, z'
loop_
 _atom_site_type_symbol
 _atom_site_label
 _atom_site_symmetry_multiplicity
 _atom_site_fract_x
 _atom_site_fract_y
 _atom_site_fract_z
 _atom_site_occupancy
  C  C0  1  0.99895400  0.99953200  0.19062100  1
  C  C1  1  0.33333500  0.66643300  0.69794700  1
  C  C2  1  0.66680600  0.33335500  0.04718800  1
  C  C3  1  0.66675100  0.33279900  0.12829600  1
  C  C4  1  0.33361600  0.66703700  0.61676100  1
  C  C5  1  0.33334700  0.66646100  0.08750600  1
  C  C6  1  0.33347100  0.66671600  0.46980000  1
  C  C7  1  0.66668800  0.33360300  0.29118500  1
  C  C8  1  0.66682100  0.33339900  0.65735000  1
  Ni  Ni9  1  0.66687000  0.33368700  0.43426800  1
  Ni  Ni10  1  0.66669600  0.33313500  0.50533900  1
  Cu  Cu11  1  0.33378100  0.66711100  0.32349900  1
  Cu  Cu12  1  0.33286200  0.66673200  0.25864100  1
