# generated using pymatgen
data_CuNiC9
_symmetry_space_group_name_H-M   'P 1'
_cell_length_a   6.75183030
_cell_length_b   6.94505742
_cell_length_c   6.07741410
_cell_angle_alpha   131.04413818
_cell_angle_beta   126.56426741
_cell_angle_gamma   78.47453353
_symmetry_Int_Tables_number   1
_chemical_formula_structural   CuNiC9
_chemical_formula_sum   'Cu1 Ni1 C9'
_cell_volume   163.79150826
_cell_formula_units_Z   1
loop_
 _symmetry_equiv_pos_site_id
 _symmetry_equiv_pos_as_xyz
  1  'x, y, z'
loop_
 _atom_site_type_symbol
 _atom_site_label
 _atom_site_symmetry_multiplicity
 _atom_site_fract_x
 _atom_site_fract_y
 _atom_site_fract_z
 _atom_site_occupancy
  C  C0  1  0.74848553  0.17698666  0.50331672  1
  C  C1  1  0.25151447  0.82301334  0.49668328  1
  Ni  Ni2  1  -0.00000000  0.50000000  0.50000000  1
  Cu  Cu3  1  0.50000000  0.50000000  0.00000000  1
  C  C4  1  -0.00000000  0.00000000  0.00000000  1
  C  C5  1  0.11724895  0.34788228  0.16774805  1
  C  C6  1  0.88275105  0.65211772  0.83225195  1
  C  C7  1  0.69655352  0.14048504  0.00644062  1
  C  C8  1  0.30344648  0.85951496  0.99355938  1
  C  C9  1  0.17680747  0.24286557  0.58491870  1
  C  C10  1  0.82319253  0.75713443  0.41508130  1
