# generated using pymatgen
data_Cu2NiC6
_symmetry_space_group_name_H-M   'P 1'
_cell_length_a   5.34592903
_cell_length_b   6.87439539
_cell_length_c   6.87439512
_cell_angle_alpha   116.53640011
_cell_angle_beta   102.19130494
_cell_angle_gamma   102.19128643
_symmetry_Int_Tables_number   1
_chemical_formula_structural   Cu2NiC6
_chemical_formula_sum   'Cu2 Ni1 C6'
_cell_volume   207.00003686
_cell_formula_units_Z   1
loop_
 _symmetry_equiv_pos_site_id
 _symmetry_equiv_pos_as_xyz
  1  'x, y, z'
loop_
 _atom_site_type_symbol
 _atom_site_label
 _atom_site_symmetry_multiplicity
 _atom_site_fract_x
 _atom_site_fract_y
 _atom_site_fract_z
 _atom_site_occupancy
  C  C0  1  0.75000000  0.58874700  0.41125300  1
  C  C1  1  0.25000000  0.35554200  0.64445800  1
  Ni  Ni2  1  0.25000000  0.74917500  0.25082500  1
  Cu  Cu3  1  0.25000000  0.01100600  0.98899400  1
  Cu  Cu4  1  0.75000000  0.01174900  0.98825100  1
  C  C5  1  0.39647600  0.92189500  0.69482600  1
  C  C6  1  0.10352400  0.30517400  0.07810500  1
  C  C7  1  0.90637400  0.72947400  0.94128100  1
  C  C8  1  0.59362600  0.05871900  0.27052600  1
