# generated using pymatgen
data_Cu4NiC10
_symmetry_space_group_name_H-M   'P 1'
_cell_length_a   6.93994499
_cell_length_b   6.93994456
_cell_length_c   6.93994545
_cell_angle_alpha   56.91497805
_cell_angle_beta   56.91497993
_cell_angle_gamma   56.91498147
_symmetry_Int_Tables_number   1
_chemical_formula_structural   Cu4NiC10
_chemical_formula_sum   'Cu4 Ni1 C10'
_cell_volume   219.52928028
_cell_formula_units_Z   1
loop_
 _symmetry_equiv_pos_site_id
 _symmetry_equiv_pos_as_xyz
  1  'x, y, z'
loop_
 _atom_site_type_symbol
 _atom_site_label
 _atom_site_symmetry_multiplicity
 _atom_site_fract_x
 _atom_site_fract_y
 _atom_site_fract_z
 _atom_site_occupancy
  Ni  Ni0  1  0.00000000  0.00000000  -0.00000000  1
  C  C1  1  0.13885064  0.13885064  0.13885064  1
  C  C2  1  0.86114936  0.86114936  0.86114936  1
  Cu  Cu3  1  0.50000000  0.50000000  0.50000000  1
  Cu  Cu4  1  0.50000000  0.50000000  -0.00000000  1
  Cu  Cu5  1  0.00000000  0.50000000  0.50000000  1
  Cu  Cu6  1  0.50000000  0.00000000  0.50000000  1
  C  C7  1  0.26193472  0.26193472  0.26193472  1
  C  C8  1  0.73919447  0.73919447  0.25997448  1
  C  C9  1  0.25997448  0.73919447  0.73919447  1
  C  C10  1  0.73919447  0.25997448  0.73919447  1
  C  C11  1  0.74002552  0.26080553  0.26080553  1
  C  C12  1  0.26080553  0.74002552  0.26080553  1
  C  C13  1  0.26080553  0.26080553  0.74002552  1
  C  C14  1  0.73806528  0.73806528  0.73806528  1
