# generated using pymatgen
data_Cu3NiC9
_symmetry_space_group_name_H-M   'P 1'
_cell_length_a   5.93319278
_cell_length_b   5.81595613
_cell_length_c   5.91577853
_cell_angle_alpha   61.32311561
_cell_angle_beta   61.36821379
_cell_angle_gamma   57.41361547
_symmetry_Int_Tables_number   1
_chemical_formula_structural   Cu3NiC9
_chemical_formula_sum   'Cu3 Ni1 C9'
_cell_volume   144.01940517
_cell_formula_units_Z   1
loop_
 _symmetry_equiv_pos_site_id
 _symmetry_equiv_pos_as_xyz
  1  'x, y, z'
loop_
 _atom_site_type_symbol
 _atom_site_label
 _atom_site_symmetry_multiplicity
 _atom_site_fract_x
 _atom_site_fract_y
 _atom_site_fract_z
 _atom_site_occupancy
  C  C0  1  0.50000000  0.50000000  0.50000000  1
  Ni  Ni1  1  0.00000000  0.00000000  0.00000000  1
  Cu  Cu2  1  0.50000000  0.00000000  0.00000000  1
  Cu  Cu3  1  0.00000000  0.50000000  0.00000000  1
  Cu  Cu4  1  0.50000000  0.50000000  0.00000000  1
  C  C5  1  0.25814300  0.25562700  0.78255300  1
  C  C6  1  0.71760500  0.23089700  0.79645200  1
  C  C7  1  0.25559900  0.73394400  0.78852900  1
  C  C8  1  0.71376800  0.72680300  0.81281600  1
  C  C9  1  0.28623200  0.27319700  0.18718400  1
  C  C10  1  0.74440100  0.26605600  0.21147100  1
  C  C11  1  0.28239500  0.76910300  0.20354800  1
  C  C12  1  0.74185700  0.74437300  0.21744700  1
