# generated using pymatgen
data_Cu2Ni2C37
_symmetry_space_group_name_H-M   'P 1'
_cell_length_a   18.18750547
_cell_length_b   9.07374638
_cell_length_c   22.36825305
_cell_angle_alpha   90.03174424
_cell_angle_beta   90.00228407
_cell_angle_gamma   119.97396080
_symmetry_Int_Tables_number   1
_chemical_formula_structural   Cu2Ni2C37
_chemical_formula_sum   'Cu12 Ni12 C222'
_cell_volume   3197.68934825
_cell_formula_units_Z   6
loop_
 _symmetry_equiv_pos_site_id
 _symmetry_equiv_pos_as_xyz
  1  'x, y, z'
loop_
 _atom_site_type_symbol
 _atom_site_label
 _atom_site_symmetry_multiplicity
 _atom_site_fract_x
 _atom_site_fract_y
 _atom_site_fract_z
 _atom_site_occupancy
  C  C0  1  0.81820076  0.99838178  0.25586010  1
  C  C1  1  0.17401193  0.34794077  0.24934998  1
  C  C2  1  0.66904262  0.35532119  0.25080239  1
  C  C3  1  0.00640770  0.64987285  0.24643885  1
  C  C4  1  0.50986726  0.64291880  0.25174753  1
  C  C5  1  0.31861853  0.63786068  0.75856567  1
  C  C6  1  0.01038634  0.37596368  0.75678061  1
  C  C7  1  0.50544129  0.36720685  0.74889328  1
  C  C8  1  0.17097656  0.98361318  0.75481392  1
  C  C9  1  0.67037194  0.99232345  0.75315038  1
  C  C10  1  0.14631077  0.31371441  0.58579468  1
  C  C11  1  0.64279241  0.31335167  0.58745195  1
  C  C12  1  0.33875265  0.98708441  0.58142453  1
  C  C13  1  0.83706885  0.97137301  0.59192977  1
  C  C14  1  0.14505167  0.97648269  0.08770647  1
  C  C15  1  0.63881495  0.96904346  0.08582706  1
  C  C16  1  0.34299883  0.70062020  0.08920403  1
  C  C17  1  0.83791160  0.69305350  0.07885003  1
  C  C18  1  0.48040467  0.66501662  0.91920072  1
  C  C19  1  0.97775437  0.64811648  0.92035941  1
  C  C20  1  0.35169815  0.04637426  0.91614702  1
  C  C21  1  0.84859167  0.04234677  0.91848610  1
  C  C22  1  0.17021901  0.29469993  0.92473516  1
  C  C23  1  0.66643709  0.28322771  0.91803689  1
  C  C24  1  0.47807842  0.30871453  0.41824305  1
  C  C25  1  0.98338709  0.29841138  0.40850475  1
  C  C26  1  0.16765363  0.05133083  0.41403033  1
  C  C27  1  0.66866188  0.04326163  0.42144895  1
  C  C28  1  0.34978867  0.65357111  0.41491783  1
  C  C29  1  0.85035859  0.65811889  0.41274973  1
  C  C30  1  0.01142362  0.99381981  0.49869303  1
  C  C31  1  0.50623438  0.00249170  0.50470715  1
  C  C32  1  0.00668297  0.01152156  0.00704937  1
  C  C33  1  0.50921482  0.01369511  0.00423768  1
  C  C34  1  0.33309228  0.33243796  0.84211334  1
  C  C35  1  0.83266620  0.33884819  0.84360800  1
  C  C36  1  0.33189235  0.32311920  0.33810062  1
  C  C37  1  0.83290621  0.33377086  0.33826250  1
  C  C38  1  0.16759987  0.66554548  0.16861149  1
  C  C39  1  0.65147616  0.64576682  0.17005639  1
  C  C40  1  0.15577940  0.66177044  0.67373892  1
  C  C41  1  0.66484848  0.66763386  0.67073814  1
  Ni  Ni42  1  0.01108465  0.01983537  0.35108101  1
  Ni  Ni43  1  0.51065322  0.99978101  0.85312141  1
  Ni  Ni44  1  0.00524466  0.00021403  0.65333651  1
  Ni  Ni45  1  0.51293997  0.00787695  0.64850486  1
  Ni  Ni46  1  0.01321804  0.01701257  0.14906043  1
  Ni  Ni47  1  0.50402199  0.00095616  0.14960370  1
  Ni  Ni48  1  0.33407196  0.33423039  0.98278949  1
  Ni  Ni49  1  0.83157990  0.34002206  0.97865659  1
  Ni  Ni50  1  0.33113300  0.32247515  0.47824257  1
  Ni  Ni51  1  0.83123640  0.33700766  0.47980919  1
  Ni  Ni52  1  0.65814457  0.65471426  0.31495385  1
  Ni  Ni53  1  0.15912851  0.66144315  0.81667693  1
  Cu  Cu54  1  0.50213404  0.00749584  0.35121913  1
  Cu  Cu55  1  0.00140197  0.99478691  0.85238291  1
  Cu  Cu56  1  0.33359102  0.32749983  0.68518426  1
  Cu  Cu57  1  0.83080509  0.32672993  0.69198751  1
  Cu  Cu58  1  0.33680322  0.34577493  0.18888134  1
  Cu  Cu59  1  0.83409633  0.33849247  0.18422368  1
  Cu  Cu60  1  0.15582719  0.65182081  0.02077202  1
  Cu  Cu61  1  0.65870659  0.64798990  0.01927507  1
  Cu  Cu62  1  0.16552624  0.67982381  0.51620917  1
  Cu  Cu63  1  0.65474794  0.65936631  0.52048744  1
  Cu  Cu64  1  0.16683563  0.66606930  0.31222116  1
  Cu  Cu65  1  0.66720535  0.66762757  0.81389601  1
  C  C66  1  0.14785349  0.00030862  0.24960302  1
  C  C67  1  0.64900316  0.99673005  0.24811691  1
  C  C68  1  0.35504791  0.71590195  0.24710689  1
  C  C69  1  0.99674378  0.28511717  0.25181532  1
  C  C70  1  0.50037672  0.29166738  0.24630421  1
  C  C71  1  0.14750147  0.29962558  0.74723401  1
  C  C72  1  0.64458130  0.29446300  0.74969735  1
  C  C73  1  0.00222162  0.70935220  0.74704699  1
  C  C74  1  0.49714188  0.70925591  0.75132073  1
  C  C75  1  0.85540240  0.99302406  0.74630093  1
  C  C76  1  0.47714314  0.32454835  0.57992894  1
  C  C77  1  0.18216059  0.03691183  0.58026446  1
  C  C78  1  0.68860330  0.04138060  0.57938681  1
  C  C79  1  0.47909112  0.62689194  0.07941255  1
  C  C80  1  0.97747192  0.63019727  0.07991001  1
  C  C81  1  0.18792761  0.33429744  0.07976614  1
  C  C82  1  0.68422973  0.32984926  0.07924867  1
  C  C83  1  0.81230245  0.66908198  0.91773144  1
  C  C84  1  0.01731289  0.36724990  0.91322884  1
  C  C85  1  0.51607114  0.36445996  0.91361493  1
  C  C86  1  0.17066521  0.96089045  0.91337272  1
  C  C87  1  0.66561255  0.95787916  0.91862246  1
  C  C88  1  0.31393236  0.96040360  0.41491090  1
  C  C89  1  0.16505845  0.37244330  0.41922463  1
  C  C90  1  0.67007416  0.38038204  0.41333989  1
  C  C91  1  0.01597246  0.66538449  0.41394127  1
  C  C92  1  0.51663123  0.66694295  0.41314199  1
  C  C93  1  0.85482815  0.70992950  0.24899295  1
  C  C94  1  0.35495634  0.99955298  0.74817046  1
  C  C95  1  0.97935534  0.33773385  0.58170118  1
  C  C96  1  0.33259211  0.62481979  0.58357287  1
  C  C97  1  0.83516635  0.62505872  0.58143454  1
  C  C98  1  0.33379316  0.04376471  0.08110891  1
  C  C99  1  0.83374214  0.04176605  0.08335875  1
  C  C100  1  0.31044225  0.67068316  0.91599613  1
  C  C101  1  0.81156670  0.95253963  0.41773620  1
  C  C102  1  0.11309565  0.04719053  0.30906439  1
  C  C103  1  0.60182453  0.03492970  0.30775962  1
  C  C104  1  0.41760409  0.80600648  0.30674888  1
  C  C105  1  0.90633875  0.78138807  0.30352492  1
  C  C106  1  0.48641121  0.17416820  0.31010039  1
  C  C107  1  0.97175741  0.17359269  0.31276656  1
  C  C108  1  0.10007374  0.16610660  0.80569238  1
  C  C109  1  0.61216359  0.17598688  0.80804064  1
  C  C110  1  0.47130848  0.77098805  0.81154990  1
  C  C111  1  0.98535138  0.79557992  0.80912650  1
  C  C112  1  0.40652416  0.03215432  0.80242344  1
  C  C113  1  0.91816237  0.03017814  0.80502997  1
  C  C114  1  0.39425970  0.98078250  0.69384583  1
  C  C115  1  0.89367397  0.97359092  0.68512679  1
  C  C116  1  0.08975293  0.22537831  0.68866382  1
  C  C117  1  0.58916822  0.22624567  0.68992915  1
  C  C118  1  0.01992241  0.83297469  0.69284476  1
  C  C119  1  0.51614446  0.82872454  0.69465907  1
  C  C120  1  0.39131569  0.81526091  0.18687618  1
  C  C121  1  0.89449407  0.80894758  0.19491844  1
  C  C122  1  0.01552885  0.20130109  0.19598004  1
  C  C123  1  0.51801638  0.19732357  0.19418211  1
  C  C124  1  0.08798756  0.94782507  0.19149264  1
  C  C125  1  0.59051965  0.95655873  0.19073471  1
  C  C126  1  0.43050016  0.35464191  0.64060188  1
  C  C127  1  0.93953076  0.36077949  0.63697479  1
  C  C128  1  0.24892491  0.13521240  0.63983020  1
  C  C129  1  0.75281133  0.14011561  0.63946519  1
  C  C130  1  0.31968885  0.51133686  0.63793901  1
  C  C131  1  0.82310973  0.51319580  0.63429572  1
  C  C132  1  0.43190266  0.50386748  0.14010595  1
  C  C133  1  0.93167853  0.50678403  0.14086567  1
  C  C134  1  0.31861692  0.12659528  0.13388263  1
  C  C135  1  0.82181504  0.13171636  0.13823794  1
  C  C136  1  0.25122331  0.36573423  0.13968034  1
  C  C137  1  0.75099573  0.36286226  0.13981923  1
  C  C138  1  0.23075243  0.30969672  0.02112662  1
  C  C139  1  0.73096151  0.30591549  0.02279577  1
  C  C140  1  0.42420951  0.53793774  0.02118220  1
  C  C141  1  0.92348052  0.54062106  0.02178462  1
  C  C142  1  0.34217713  0.13739794  0.02564449  1
  C  C143  1  0.84461068  0.14221949  0.02932980  1
  C  C144  1  0.22941455  0.15068803  0.52315232  1
  C  C145  1  0.73602628  0.15364276  0.52211028  1
  C  C146  1  0.34287294  0.54622373  0.52940288  1
  C  C147  1  0.84483834  0.54827469  0.52641329  1
  C  C148  1  0.42257257  0.30512430  0.52206924  1
  C  C149  1  0.92947460  0.32306476  0.52833218  1
  C  C150  1  0.26636654  0.68956353  0.97070599  1
  C  C151  1  0.76846977  0.70229403  0.97745278  1
  C  C152  1  0.08314452  0.46745759  0.97309048  1
  C  C153  1  0.58268402  0.46697568  0.97190964  1
  C  C154  1  0.15538704  0.83196699  0.97306731  1
  C  C155  1  0.65702205  0.83146093  0.97605490  1
  C  C156  1  0.26720961  0.83714495  0.47621981  1
  C  C157  1  0.76714892  0.84450383  0.47248720  1
  C  C158  1  0.15533862  0.47896405  0.47895257  1
  C  C159  1  0.65608004  0.48008147  0.47387493  1
  C  C160  1  0.08466684  0.69991120  0.47230420  1
  C  C161  1  0.58241312  0.69887528  0.47403398  1
  C  C162  1  0.06645439  0.64000198  0.35760016  1
  C  C163  1  0.56123235  0.63892261  0.35699496  1
  C  C164  1  0.24869197  0.84925237  0.36167231  1
  C  C165  1  0.75972114  0.87696027  0.36404339  1
  C  C166  1  0.17403514  0.49402451  0.36145836  1
  C  C167  1  0.68770821  0.49856323  0.35621378  1
  C  C168  1  0.05990747  0.48139080  0.85589815  1
  C  C169  1  0.56865591  0.49268234  0.85705282  1
  C  C170  1  0.18686287  0.87887242  0.85512823  1
  C  C171  1  0.67524710  0.85829224  0.85887642  1
  C  C172  1  0.25918025  0.64730583  0.86207699  1
  C  C173  1  0.74931201  0.65005663  0.86169240  1
  C  C174  1  0.00628722  0.83186265  0.41173936  1
  C  C175  1  0.51554876  0.84878162  0.41273665  1
  C  C176  1  0.40521620  0.96552410  0.41109514  1
  C  C177  1  0.89484644  0.96104559  0.41580373  1
  C  C178  1  0.07743462  0.19241531  0.41836537  1
  C  C179  1  0.57948302  0.19309066  0.41197749  1
  C  C180  1  0.01568012  0.18228080  0.91150173  1
  C  C181  1  0.50772307  0.17985010  0.91043429  1
  C  C182  1  0.07946786  0.96695164  0.91055144  1
  C  C183  1  0.57834732  0.96302401  0.91764802  1
  C  C184  1  0.39417557  0.82774512  0.91418559  1
  C  C185  1  0.90542627  0.84525931  0.90951223  1
  C  C186  1  0.48738254  0.15908976  0.58853214  1
  C  C187  1  0.98753812  0.18378190  0.58566912  1
  C  C188  1  0.09070244  0.02073452  0.58755201  1
  C  C189  1  0.59623609  0.02034240  0.58606861  1
  C  C190  1  0.40235083  0.79690901  0.59225162  1
  C  C191  1  0.90643227  0.79909355  0.58763684  1
  C  C192  1  0.49019438  0.81401475  0.08648826  1
  C  C193  1  0.98694703  0.81528061  0.08882794  1
  C  C194  1  0.40536537  0.01489289  0.08782873  1
  C  C195  1  0.90427763  0.01175256  0.09245203  1
  C  C196  1  0.09486074  0.17201503  0.08738688  1
  C  C197  1  0.59264064  0.16850752  0.08816399  1
  C  C198  1  0.34550190  0.16088086  0.74326974  1
  C  C199  1  0.84701816  0.17320338  0.74284729  1
  C  C200  1  0.24219497  0.30489317  0.74139834  1
  C  C201  1  0.74221750  0.31655534  0.73791838  1
  C  C202  1  0.41296565  0.50783101  0.74000579  1
  C  C203  1  0.91625174  0.51491581  0.73903107  1
  C  C204  1  0.34619401  0.52089538  0.24543562  1
  C  C205  1  0.84599742  0.53107906  0.24397763  1
  C  C206  1  0.41398906  0.31155557  0.24224523  1
  C  C207  1  0.91378235  0.32001308  0.24145320  1
  C  C208  1  0.24255919  0.17039831  0.23702213  1
  C  C209  1  0.74357772  0.18126164  0.24305665  1
  C  C210  1  0.32004679  0.51834787  0.92108282  1
  C  C211  1  0.82181595  0.50369081  0.91754819  1
  C  C212  1  0.42651989  0.35970431  0.91762203  1
  C  C213  1  0.92425501  0.33997422  0.92379535  1
  C  C214  1  0.24972429  0.15153723  0.92174646  1
  C  C215  1  0.75135758  0.13958306  0.91982085  1
  C  C216  1  0.32194386  0.14284413  0.41701206  1
  C  C217  1  0.82383790  0.12635612  0.42470763  1
  C  C218  1  0.25071897  0.36288229  0.42143980  1
  C  C219  1  0.74955062  0.34793525  0.42132652  1
  C  C220  1  0.42378109  0.50781957  0.42402302  1
  C  C221  1  0.92744402  0.48873495  0.42183709  1
  C  C222  1  0.18787266  0.52270806  0.07610290  1
  C  C223  1  0.68697169  0.51881894  0.07862900  1
  C  C224  1  0.07579995  0.65072449  0.07761265  1
  C  C225  1  0.57761584  0.64852003  0.07749424  1
  C  C226  1  0.25233788  0.86846050  0.07786600  1
  C  C227  1  0.75212001  0.87426970  0.08276543  1
  C  C228  1  0.18192903  0.84784410  0.57956865  1
  C  C229  1  0.68838298  0.85333582  0.57714291  1
  C  C230  1  0.25001517  0.63003770  0.58241543  1
  C  C231  1  0.75350017  0.63392362  0.57911565  1
  C  C232  1  0.06791285  0.49191995  0.57918446  1
  C  C233  1  0.57565427  0.50106149  0.57791729  1
  C  C234  1  0.15899090  0.82953780  0.25897288  1
  C  C235  1  0.67099823  0.84700534  0.25924649  1
  C  C236  1  0.25628362  0.67101276  0.25948885  1
  C  C237  1  0.76823985  0.68394704  0.25423880  1
  C  C238  1  0.08120719  0.48161444  0.25836247  1
  C  C239  1  0.58171419  0.48223746  0.25375911  1
  C  C240  1  0.17011445  0.49403896  0.75784524  1
  C  C241  1  0.65856178  0.48813327  0.75765201  1
  C  C242  1  0.08235293  0.67954265  0.75453314  1
  C  C243  1  0.58088389  0.67997997  0.75777147  1
  C  C244  1  0.26819173  0.85256034  0.75310078  1
  C  C245  1  0.75678767  0.84136651  0.75725589  1
