# generated using pymatgen
data_Cu10Ni2C93
_symmetry_space_group_name_H-M   'P 1'
_cell_length_a   8.80561923
_cell_length_b   8.80114768
_cell_length_c   22.73725775
_cell_angle_alpha   89.88787911
_cell_angle_beta   90.00841293
_cell_angle_gamma   120.00398791
_symmetry_Int_Tables_number   1
_chemical_formula_structural   Cu10Ni2C93
_chemical_formula_sum   'Cu10 Ni2 C93'
_cell_volume   1525.98210830
_cell_formula_units_Z   1
loop_
 _symmetry_equiv_pos_site_id
 _symmetry_equiv_pos_as_xyz
  1  'x, y, z'
loop_
 _atom_site_type_symbol
 _atom_site_label
 _atom_site_symmetry_multiplicity
 _atom_site_fract_x
 _atom_site_fract_y
 _atom_site_fract_z
 _atom_site_occupancy
  C  C0  1  0.00088107  0.00100494  0.00197545  1
  C  C1  1  0.66670212  0.33353913  0.84001312  1
  C  C2  1  0.66673284  0.33335633  0.34105844  1
  Ni  Ni3  1  0.66728952  0.33378530  0.97933547  1
  Ni  Ni4  1  0.66728005  0.33399836  0.47861892  1
  Cu  Cu5  1  0.99398554  0.99804242  0.35972123  1
  Cu  Cu6  1  0.99832617  0.99556173  0.85637532  1
  Cu  Cu7  1  0.00167899  0.99656844  0.64151555  1
  Cu  Cu8  1  0.99750867  0.00137500  0.14706347  1
  Cu  Cu9  1  0.66903291  0.33559843  0.68550237  1
  Cu  Cu10  1  0.66846846  0.33541985  0.18833412  1
  Cu  Cu11  1  0.33329263  0.66581267  0.02547992  1
  Cu  Cu12  1  0.33204226  0.66627173  0.52194977  1
  Cu  Cu13  1  0.33287204  0.66470411  0.30927543  1
  Cu  Cu14  1  0.33138882  0.66606365  0.80989062  1
  C  C15  1  0.71506044  0.71364189  0.25161498  1
  C  C16  1  0.99779345  0.28440319  0.25132929  1
  C  C17  1  0.99702602  0.71119894  0.74959660  1
  C  C18  1  0.28473302  0.00182816  0.25126587  1
  C  C19  1  0.28584281  0.28357332  0.74980857  1
  C  C20  1  0.71590732  0.00146627  0.74987097  1
  C  C21  1  0.95176657  0.33261216  0.58063154  1
  C  C22  1  0.38337244  0.04905471  0.58067198  1
  C  C23  1  0.66555134  0.61836813  0.58046173  1
  C  C24  1  0.94979626  0.62033167  0.08070545  1
  C  C25  1  0.66981513  0.05099421  0.08081034  1
  C  C26  1  0.38068651  0.32849431  0.08063125  1
  C  C27  1  0.61755270  0.66188195  0.91699200  1
  C  C28  1  0.04404584  0.38094283  0.91707459  1
  C  C29  1  0.33855704  0.95608883  0.91702273  1
  C  C30  1  0.61671526  0.95717002  0.41655147  1
  C  C31  1  0.33853558  0.38107982  0.41650837  1
  C  C32  1  0.04325727  0.66201056  0.41627006  1
  C  C33  1  0.20365153  0.03580468  0.30535314  1
  C  C34  1  0.84003030  0.80238314  0.30839769  1
  C  C35  1  0.96647860  0.16056416  0.30804949  1
  C  C36  1  0.19926707  0.16875674  0.80502765  1
  C  C37  1  0.96742195  0.80547962  0.80759285  1
  C  C38  1  0.83153907  0.03362239  0.80521848  1
  C  C39  1  0.80078629  0.97352747  0.69567842  1
  C  C40  1  0.17205061  0.20180718  0.69545353  1
  C  C41  1  0.02682998  0.83487180  0.69310210  1
  C  C42  1  0.80685760  0.83263886  0.19302686  1
  C  C43  1  0.03025211  0.19645619  0.19273965  1
  C  C44  1  0.17279652  0.97217479  0.19545906  1
  C  C45  1  0.86550986  0.36331379  0.63786397  1
  C  C46  1  0.49569561  0.13280671  0.63793014  1
  C  C47  1  0.63702323  0.50339265  0.63783684  1
  C  C48  1  0.86683607  0.50653712  0.13737710  1
  C  C49  1  0.63974413  0.13150705  0.13720443  1
  C  C50  1  0.49225639  0.35952734  0.13720297  1
  C  C51  1  0.45761204  0.29822667  0.02668614  1
  C  C52  1  0.84096847  0.54400632  0.02709304  1
  C  C53  1  0.70301605  0.15912959  0.02681825  1
  C  C54  1  0.45954393  0.16177940  0.52800666  1
  C  C55  1  0.70391360  0.54268484  0.52823319  1
  C  C56  1  0.83868085  0.29665349  0.52820073  1
  C  C57  1  0.53229176  0.69467342  0.97157021  1
  C  C58  1  0.16270591  0.46771673  0.97145067  1
  C  C59  1  0.30430397  0.83762442  0.97146683  1
  C  C60  1  0.52930548  0.83782368  0.47180507  1
  C  C61  1  0.30734384  0.46983121  0.47149666  1
  C  C62  1  0.16238525  0.69153304  0.47162716  1
  C  C63  1  0.13928570  0.64381652  0.36209167  1
  C  C64  1  0.50432131  0.86239244  0.36222757  1
  C  C65  1  0.35729389  0.49714563  0.36202466  1
  C  C66  1  0.14176915  0.49363192  0.86161605  1
  C  C67  1  0.35308950  0.85934369  0.86169037  1
  C  C68  1  0.50821774  0.64791651  0.86175444  1
  C  C69  1  0.03748952  0.83489703  0.40846057  1
  C  C70  1  0.79767342  0.96453687  0.40935500  1
  C  C71  1  0.16853228  0.20142243  0.40795068  1
  C  C72  1  0.03334296  0.19854729  0.90898928  1
  C  C73  1  0.16614529  0.96855630  0.90915128  1
  C  C74  1  0.80175441  0.83688664  0.90973375  1
  C  C75  1  0.97838381  0.17551672  0.59638430  1
  C  C76  1  0.19740565  0.02427753  0.59472476  1
  C  C77  1  0.82371479  0.80464461  0.59516898  1
  C  C78  1  0.98329789  0.80900821  0.09172048  1
  C  C79  1  0.82849180  0.01954939  0.09104272  1
  C  C80  1  0.19241797  0.17075363  0.09105946  1
  C  C81  1  0.69192084  0.16275333  0.74226724  1
  C  C82  1  0.46876328  0.30233442  0.74232511  1
  C  C83  1  0.82484346  0.51722128  0.74178433  1
  C  C84  1  0.68935189  0.51844743  0.24069467  1
  C  C85  1  0.82437287  0.30307465  0.24064678  1
  C  C86  1  0.46880027  0.16360028  0.24095557  1
  C  C87  1  0.64171572  0.50533103  0.92081707  1
  C  C88  1  0.86518901  0.36158417  0.92041867  1
  C  C89  1  0.49650626  0.13582410  0.92031534  1
  C  C90  1  0.63985851  0.13727507  0.42164897  1
  C  C91  1  0.49861537  0.36307680  0.42139477  1
  C  C92  1  0.86402424  0.50346014  0.42163398  1
  C  C93  1  0.35868452  0.49535111  0.07348417  1
  C  C94  1  0.13672624  0.63947835  0.07378565  1
  C  C95  1  0.50432469  0.86250391  0.07349577  1
  C  C96  1  0.35797146  0.86196677  0.57439240  1
  C  C97  1  0.50243672  0.64015805  0.57458090  1
  C  C98  1  0.13727300  0.49683184  0.57461369  1
  C  C99  1  0.30570769  0.84052512  0.25989116  1
  C  C100  1  0.52513185  0.69583808  0.26085760  1
  C  C101  1  0.16571487  0.47740450  0.26081138  1
  C  C102  1  0.30908835  0.46705145  0.76045575  1
  C  C103  1  0.16853570  0.69124370  0.76090539  1
  C  C104  1  0.53455489  0.83838953  0.76044765  1
