# generated using pymatgen
data_Cu2Ni7C32
_symmetry_space_group_name_H-M   'P 1'
_cell_length_a   18.87250070
_cell_length_b   9.42636130
_cell_length_c   22.88810414
_cell_angle_alpha   89.83244105
_cell_angle_beta   90.04868641
_cell_angle_gamma   119.96129053
_symmetry_Int_Tables_number   1
_chemical_formula_structural   Cu2Ni7C32
_chemical_formula_sum   'Cu12 Ni42 C192'
_cell_volume   3527.61588030
_cell_formula_units_Z   6
loop_
 _symmetry_equiv_pos_site_id
 _symmetry_equiv_pos_as_xyz
  1  'x, y, z'
loop_
 _atom_site_type_symbol
 _atom_site_label
 _atom_site_symmetry_multiplicity
 _atom_site_fract_x
 _atom_site_fract_y
 _atom_site_fract_z
 _atom_site_occupancy
  Ni  Ni0  1  0.32782937  0.99902661  0.24952905  1
  Ni  Ni1  1  0.82898422  0.00073340  0.24947305  1
  Ni  Ni2  1  0.32911235  0.64988938  0.74667412  1
  Ni  Ni3  1  0.82237494  0.64246310  0.74750216  1
  Ni  Ni4  1  0.49206624  0.35906615  0.74497200  1
  Ni  Ni5  1  0.67644541  0.00895658  0.75151341  1
  Ni  Ni6  1  0.14838367  0.32799205  0.57925205  1
  Ni  Ni7  1  0.65676684  0.32553978  0.58019668  1
  Ni  Ni8  1  0.01191827  0.69945079  0.58545017  1
  Ni  Ni9  1  0.51068228  0.68837119  0.58272535  1
  Ni  Ni10  1  0.32951418  0.98292168  0.58131013  1
  Ni  Ni11  1  0.84071532  0.97398760  0.58774121  1
  Ni  Ni12  1  0.14427775  0.95291584  0.07803306  1
  Ni  Ni13  1  0.64421059  0.95279623  0.07751636  1
  Ni  Ni14  1  0.33223169  0.71536936  0.08334346  1
  Ni  Ni15  1  0.83275949  0.71538707  0.08457386  1
  Ni  Ni16  1  0.02512206  0.33675480  0.08360899  1
  Ni  Ni17  1  0.52452220  0.33620272  0.08369675  1
  Ni  Ni18  1  0.48603072  0.68213026  0.91265568  1
  Ni  Ni19  1  0.98606235  0.67613797  0.91394104  1
  Ni  Ni20  1  0.35510065  0.02318535  0.91327358  1
  Ni  Ni21  1  0.85429214  0.02972139  0.91366954  1
  Ni  Ni22  1  0.15892239  0.29911043  0.91933418  1
  Ni  Ni23  1  0.66123421  0.29495798  0.91462928  1
  Ni  Ni24  1  0.47409475  0.28159540  0.41405146  1
  Ni  Ni25  1  0.97590130  0.28668763  0.41669164  1
  Ni  Ni26  1  0.16796799  0.04756620  0.42322606  1
  Ni  Ni27  1  0.66628635  0.04562053  0.42062883  1
  Ni  Ni28  1  0.35590113  0.66525753  0.41469712  1
  Ni  Ni29  1  0.85776236  0.66165391  0.41638946  1
  Ni  Ni30  1  0.00139947  0.99763861  0.50103652  1
  Ni  Ni31  1  0.49874200  0.99983311  0.49452558  1
  Ni  Ni32  1  -0.00002457  0.00219045  0.00014435  1
  Ni  Ni33  1  0.49949655  0.99871289  0.99824457  1
  Ni  Ni34  1  0.33559492  0.32246377  0.82952301  1
  Ni  Ni35  1  0.84261232  0.33365806  0.83195271  1
  Ni  Ni36  1  0.34125168  0.35810070  0.33319050  1
  Ni  Ni37  1  0.84257980  0.36130437  0.33288358  1
  Ni  Ni38  1  0.16210150  0.64014875  0.16780801  1
  Ni  Ni39  1  0.66203728  0.64011591  0.16794720  1
  Ni  Ni40  1  0.16077202  0.68561217  0.66998803  1
  Ni  Ni41  1  0.66717843  0.66656336  0.66813986  1
  Cu  Cu42  1  0.99472974  0.99350505  0.34780690  1
  Cu  Cu43  1  0.49448548  0.99326552  0.34693847  1
  Cu  Cu44  1  0.99398255  0.99128626  0.83969590  1
  Cu  Cu45  1  0.50464561  0.00765250  0.84127664  1
  Cu  Cu46  1  0.00065054  0.99094083  0.65977609  1
  Cu  Cu47  1  0.99801300  0.00662835  0.15120335  1
  Cu  Cu48  1  0.49773494  0.00623023  0.15066875  1
  Cu  Cu49  1  0.33005862  0.32465148  0.67331416  1
  Cu  Cu50  1  0.33843368  0.33848442  0.48404459  1
  Cu  Cu51  1  0.83087608  0.32506214  0.48336641  1
  Cu  Cu52  1  0.16685262  0.66699757  0.01876181  1
  Cu  Cu53  1  0.66843671  0.66673268  0.02090566  1
  C  C54  1  0.49905846  0.99844877  0.65571484  1
  C  C55  1  0.83441233  0.33299454  0.67898240  1
  C  C56  1  0.33748066  0.34778823  0.18436401  1
  C  C57  1  0.83811463  0.34887628  0.18443935  1
  C  C58  1  0.33366301  0.33583581  0.97668062  1
  C  C59  1  0.83365834  0.33308477  0.97668483  1
  C  C60  1  0.16403286  0.66527422  0.51848295  1
  C  C61  1  0.66885441  0.66527242  0.52084646  1
  C  C62  1  0.16390714  0.65173717  0.31555402  1
  C  C63  1  0.66361909  0.65191485  0.31505840  1
  C  C64  1  0.16802213  0.67787797  0.82184773  1
  C  C65  1  0.66460879  0.66899050  0.81821821  1
  C  C66  1  0.33706955  0.67834882  0.25051237  1
  C  C67  1  0.83712740  0.67884630  0.25042334  1
  C  C68  1  0.99791582  0.32147962  0.24968451  1
  C  C69  1  0.49753015  0.32132582  0.24954663  1
  C  C70  1  0.65672331  0.31379418  0.74922380  1
  C  C71  1  0.99967221  0.66520643  0.74929348  1
  C  C72  1  0.50187503  0.69241308  0.75396913  1
  C  C73  1  0.34302022  0.99070247  0.75472286  1
  C  C74  1  0.83620287  0.99899991  0.75065944  1
  C  C75  1  0.49357559  0.32781071  0.58398965  1
  C  C76  1  0.98686689  0.33773773  0.58098653  1
  C  C77  1  0.17498985  0.01608923  0.57539490  1
  C  C78  1  0.67749363  0.02430738  0.58447103  1
  C  C79  1  0.33478621  0.65706421  0.58493528  1
  C  C80  1  0.83143823  0.63475440  0.57998832  1
  C  C81  1  0.47333240  0.61958258  0.08060495  1
  C  C82  1  0.97328919  0.61964596  0.07999566  1
  C  C83  1  0.33473697  0.05962991  0.08385643  1
  C  C84  1  0.83515634  0.05961235  0.08451205  1
  C  C85  1  0.19281236  0.32636978  0.08223372  1
  C  C86  1  0.69325438  0.32506024  0.08223987  1
  C  C87  1  0.31591618  0.65886087  0.91784114  1
  C  C88  1  0.81366244  0.65504557  0.91636277  1
  C  C89  1  0.01586767  0.37001865  0.91959000  1
  C  C90  1  0.51346976  0.37249563  0.91811484  1
  C  C91  1  0.17138562  0.97806951  0.91872503  1
  C  C92  1  0.67198968  0.97347768  0.92002284  1
  C  C93  1  0.30580277  0.94622371  0.41413555  1
  C  C94  1  0.80597166  0.94292294  0.41555185  1
  C  C95  1  0.16556579  0.37859415  0.41990173  1
  C  C96  1  0.66518155  0.37960217  0.41761865  1
  C  C97  1  0.02585215  0.66797127  0.41532552  1
  C  C98  1  0.53005694  0.67376906  0.41836678  1
  C  C99  1  0.16327720  0.99982746  0.24995840  1
  C  C100  1  0.66322157  0.00007174  0.24990850  1
  C  C101  1  0.16151804  0.33702742  0.75586075  1
  C  C102  1  0.12518080  0.02274374  0.30263900  1
  C  C103  1  0.62468038  0.02207737  0.30269026  1
  C  C104  1  0.39133480  0.75020146  0.30995535  1
  C  C105  1  0.89129739  0.75045882  0.30958255  1
  C  C106  1  0.47619179  0.19723559  0.30564026  1
  C  C107  1  0.97555454  0.19699428  0.30551989  1
  C  C108  1  0.11999847  0.23996953  0.80816603  1
  C  C109  1  0.63887212  0.21419579  0.80990413  1
  C  C110  1  0.48942947  0.75834573  0.81534211  1
  C  C111  1  0.97237935  0.73562004  0.80430969  1
  C  C112  1  0.38909120  0.01748396  0.81608026  1
  C  C113  1  0.88863644  0.03815787  0.80981489  1
  C  C114  1  0.40605992  0.97795937  0.70281716  1
  C  C115  1  0.87318972  0.94642639  0.69584578  1
  C  C116  1  0.11743809  0.25511281  0.70157973  1
  C  C117  1  0.58345583  0.19035225  0.70197801  1
  C  C118  1  0.01879090  0.77280509  0.68971655  1
  C  C119  1  0.50829067  0.82841916  0.70234078  1
  C  C120  1  0.37838635  0.80499690  0.19549726  1
  C  C121  1  0.87780355  0.80452243  0.19500282  1
  C  C122  1  0.01565823  0.24765556  0.19076018  1
  C  C123  1  0.51592941  0.24789100  0.19090741  1
  C  C124  1  0.11365623  0.97767461  0.19719003  1
  C  C125  1  0.61346656  0.97700071  0.19733949  1
  C  C126  1  0.45916809  0.38239207  0.63927511  1
  C  C127  1  0.92328099  0.35026311  0.63030931  1
  C  C128  1  0.23905863  0.08743354  0.62938312  1
  C  C129  1  0.74774592  0.14073657  0.63298585  1
  C  C130  1  0.30900520  0.53972074  0.64216117  1
  C  C131  1  0.82487010  0.50345531  0.63233084  1
  C  C132  1  0.41642127  0.51474830  0.13770435  1
  C  C133  1  0.91664793  0.51508721  0.13718551  1
  C  C134  1  0.33916771  0.16695312  0.14204207  1
  C  C135  1  0.83997251  0.16806892  0.14226832  1
  C  C136  1  0.24583577  0.31560727  0.13743234  1
  C  C137  1  0.74627431  0.31450693  0.13727753  1
  C  C138  1  0.24419659  0.33039283  0.02138614  1
  C  C139  1  0.74501612  0.32994005  0.02111373  1
  C  C140  1  0.42035266  0.51392026  0.02170859  1
  C  C141  1  0.92058009  0.51355911  0.02082694  1
  C  C142  1  0.33469010  0.16514211  0.02421316  1
  C  C143  1  0.83473342  0.16463508  0.02441849  1
  C  C144  1  0.21480867  0.13084170  0.51809290  1
  C  C145  1  0.69897579  0.12681701  0.52368147  1
  C  C146  1  0.36460871  0.58835904  0.53044662  1
  C  C147  1  0.84460328  0.56639542  0.51875887  1
  C  C148  1  0.43272583  0.27063640  0.52783146  1
  C  C149  1  0.93743456  0.29448598  0.51974777  1
  C  C150  1  0.28240197  0.69111238  0.97842665  1
  C  C151  1  0.78271392  0.69104932  0.97701578  1
  C  C152  1  0.06104673  0.42517789  0.98223157  1
  C  C153  1  0.56350777  0.44228850  0.97794651  1
  C  C154  1  0.14881988  0.87538030  0.97892016  1
  C  C155  1  0.65770275  0.87691319  0.98066084  1
  C  C156  1  0.24895447  0.83716930  0.47107517  1
  C  C157  1  0.75453639  0.84321942  0.47661885  1
  C  C158  1  0.16355217  0.47723673  0.47995620  1
  C  C159  1  0.67047347  0.49560108  0.47462797  1
  C  C160  1  0.07513177  0.65617194  0.47393871  1
  C  C161  1  0.57877163  0.66760479  0.47938950  1
  C  C162  1  0.08466098  0.67739131  0.36056991  1
  C  C163  1  0.58719200  0.68162558  0.36309649  1
  C  C164  1  0.25605121  0.84077691  0.35585120  1
  C  C165  1  0.75497905  0.83257452  0.35859103  1
  C  C166  1  0.16301737  0.48846480  0.36340760  1
  C  C167  1  0.65972708  0.48255792  0.36054879  1
  C  C168  1  0.07955100  0.50997608  0.87003517  1
  C  C169  1  0.57030651  0.49700725  0.86145766  1
  C  C170  1  0.18092223  0.85958302  0.86614197  1
  C  C171  1  0.67329013  0.84907467  0.86580100  1
  C  C172  1  0.25092943  0.64559935  0.86386423  1
  C  C173  1  0.74925193  0.64477031  0.86152574  1
  C  C174  1  0.02364807  0.83822349  0.41898535  1
  C  C175  1  0.52506390  0.84121744  0.42081841  1
  C  C176  1  0.39438594  0.95387100  0.41984378  1
  C  C177  1  0.89494849  0.95450439  0.42012679  1
  C  C178  1  0.08294625  0.20083361  0.41943535  1
  C  C179  1  0.58052005  0.20493297  0.42155765  1
  C  C180  1  0.99909885  0.18679710  0.90693011  1
  C  C181  1  0.49789975  0.18880998  0.91024953  1
  C  C182  1  0.09876811  0.01535965  0.90311136  1
  C  C183  1  0.59813219  0.01208878  0.91256779  1
  C  C184  1  0.40847854  0.80842075  0.90960778  1
  C  C185  1  0.90645518  0.80512561  0.90735728  1
  C  C186  1  0.50859138  0.17158872  0.59921628  1
  C  C187  1  0.00559515  0.19254339  0.59759684  1
  C  C188  1  0.08436350  0.99340471  0.58359330  1
  C  C189  1  0.58656914  0.99231787  0.60568835  1
  C  C190  1  0.41593682  0.84283806  0.59894825  1
  C  C191  1  0.90643678  0.81801300  0.59076999  1
  C  C192  1  0.47811063  0.79630295  0.07867155  1
  C  C193  1  0.97756938  0.79599124  0.07806571  1
  C  C194  1  0.41838460  0.04874836  0.07906364  1
  C  C195  1  0.91863615  0.04857476  0.07888420  1
  C  C196  1  0.10459695  0.15778673  0.07925851  1
  C  C197  1  0.60493866  0.15762521  0.07915203  1
  C  C198  1  0.33593385  0.15111791  0.74164128  1
  C  C199  1  0.81851075  0.15153953  0.73538569  1
  C  C200  1  0.24678074  0.36620640  0.75531179  1
  C  C201  1  0.74629784  0.34586304  0.72639206  1
  C  C202  1  0.42536352  0.51217681  0.74217872  1
  C  C203  1  0.91513709  0.48346908  0.73612268  1
  C  C204  1  0.32284677  0.49286796  0.23903424  1
  C  C205  1  0.82273137  0.49320953  0.23866751  1
  C  C206  1  0.41365708  0.33597111  0.24215591  1
  C  C207  1  0.91436285  0.33777627  0.24194621  1
  C  C208  1  0.24790163  0.14526189  0.24463667  1
  C  C209  1  0.74765456  0.14537537  0.24465901  1
  C  C210  1  0.31280082  0.47817538  0.91802099  1
  C  C211  1  0.81314744  0.47770881  0.91645983  1
  C  C212  1  0.42594428  0.37527486  0.91772888  1
  C  C213  1  0.92767893  0.37304693  0.91841779  1
  C  C214  1  0.26142105  0.14917309  0.91927967  1
  C  C215  1  0.76282308  0.14588784  0.91780890  1
  C  C216  1  0.31461999  0.12719503  0.41185475  1
  C  C217  1  0.80883929  0.11822563  0.41175436  1
  C  C218  1  0.25167036  0.37925111  0.41522051  1
  C  C219  1  0.74778251  0.36925977  0.41133790  1
  C  C220  1  0.44196941  0.50579003  0.41368945  1
  C  C221  1  0.93679284  0.50233165  0.41142635  1
  C  C222  1  0.18811414  0.49312518  0.08905232  1
  C  C223  1  0.68892691  0.49184448  0.08959326  1
  C  C224  1  0.06001427  0.62590879  0.08814390  1
  C  C225  1  0.55979868  0.62494365  0.08893019  1
  C  C226  1  0.25168962  0.88197373  0.08885288  1
  C  C227  1  0.75240208  0.88247214  0.09051314  1
  C  C228  1  0.16334605  0.82961678  0.57013821  1
  C  C229  1  0.67203345  0.84218491  0.58106344  1
  C  C230  1  0.25566490  0.68307017  0.57180814  1
  C  C231  1  0.74503746  0.64333865  0.58096922  1
  C  C232  1  0.07592355  0.51161835  0.58043006  1
  C  C233  1  0.58506506  0.48939648  0.57288305  1
  C  C234  1  0.17478692  0.85374399  0.25515903  1
  C  C235  1  0.67505984  0.85430829  0.25561583  1
  C  C236  1  0.24582925  0.66385749  0.25825558  1
  C  C237  1  0.74567104  0.66435989  0.25820135  1
  C  C238  1  0.07749834  0.50587353  0.26121767  1
  C  C239  1  0.57625030  0.50713724  0.26117166  1
  C  C240  1  0.16506511  0.49897504  0.75813470  1
  C  C241  1  0.65884318  0.49144537  0.75482849  1
  C  C242  1  0.08297430  0.65618217  0.76572218  1
  C  C243  1  0.58915991  0.68895109  0.75551860  1
  C  C244  1  0.25518293  0.81345738  0.75700601  1
  C  C245  1  0.74537828  0.83203275  0.76241560  1
