# generated using pymatgen
data_Cu2NiC6
_symmetry_space_group_name_H-M   'P 1'
_cell_length_a   2.94264458
_cell_length_b   5.57413486
_cell_length_c   11.69004488
_cell_angle_alpha   90.00000000
_cell_angle_beta   90.00000000
_cell_angle_gamma   105.30488420
_symmetry_Int_Tables_number   1
_chemical_formula_structural   Cu2NiC6
_chemical_formula_sum   'Cu2 Ni1 C6'
_cell_volume   184.94790513
_cell_formula_units_Z   1
loop_
 _symmetry_equiv_pos_site_id
 _symmetry_equiv_pos_as_xyz
  1  'x, y, z'
loop_
 _atom_site_type_symbol
 _atom_site_label
 _atom_site_symmetry_multiplicity
 _atom_site_fract_x
 _atom_site_fract_y
 _atom_site_fract_z
 _atom_site_occupancy
  C  C0  1  0.69556677  0.39113353  0.25000000  1
  C  C1  1  0.09959962  0.19919923  0.75000000  1
  Ni  Ni2  1  0.96682764  0.93365428  0.25000000  1
  Cu  Cu3  1  0.04745014  0.09490028  0.49437169  1
  Cu  Cu4  1  0.04745014  0.09490028  0.00562831  1
  C  C5  1  0.51668400  0.03336800  0.36704711  1
  C  C6  1  0.57570235  0.15140470  0.59884401  1
  C  C7  1  0.57570235  0.15140470  0.90115599  1
  C  C8  1  0.51668400  0.03336800  0.13295289  1
