# generated using pymatgen
data_Cu2Ni2C33
_symmetry_space_group_name_H-M   'P 1'
_cell_length_a   9.21303204
_cell_length_b   9.20855317
_cell_length_c   23.87140774
_cell_angle_alpha   90.13207544
_cell_angle_beta   89.89937029
_cell_angle_gamma   119.60868386
_symmetry_Int_Tables_number   1
_chemical_formula_structural   Cu2Ni2C33
_chemical_formula_sum   'Cu6 Ni6 C99'
_cell_volume   1760.76097392
_cell_formula_units_Z   3
loop_
 _symmetry_equiv_pos_site_id
 _symmetry_equiv_pos_as_xyz
  1  'x, y, z'
loop_
 _atom_site_type_symbol
 _atom_site_label
 _atom_site_symmetry_multiplicity
 _atom_site_fract_x
 _atom_site_fract_y
 _atom_site_fract_z
 _atom_site_occupancy
  C  C0  1  0.00363751  0.36339157  0.75091815  1
  C  C1  1  0.66906365  0.96105783  0.58350788  1
  C  C2  1  0.04026261  0.33199712  0.08360606  1
  C  C3  1  0.00674048  0.99263877  0.49940804  1
  C  C4  1  0.00796552  0.99546513  0.99848548  1
  C  C5  1  0.65864021  0.32610750  0.83363051  1
  C  C6  1  0.67828291  0.33622642  0.33277690  1
  C  C7  1  0.34602792  0.66892425  0.16722837  1
  C  C8  1  0.33511894  0.66732543  0.66680450  1
  Ni  Ni9  1  0.01178629  0.99587707  0.64520478  1
  Ni  Ni10  1  0.99470282  0.98947724  0.14524916  1
  Ni  Ni11  1  0.33496760  0.67577659  0.01679865  1
  Ni  Ni12  1  0.32158677  0.66450107  0.51663184  1
  Ni  Ni13  1  0.32930852  0.66555431  0.31985794  1
  Ni  Ni14  1  0.33714376  0.67894071  0.82136689  1
  Cu  Cu15  1  0.98156415  0.99180774  0.34811027  1
  Cu  Cu16  1  0.00724547  0.00585002  0.84724064  1
  Cu  Cu17  1  0.66140496  0.33743094  0.68694533  1
  Cu  Cu18  1  0.67022900  0.33908686  0.18673840  1
  Cu  Cu19  1  0.66346903  0.32723484  0.98214078  1
  Cu  Cu20  1  0.67397319  0.33814361  0.48200417  1
  C  C21  1  0.70609456  0.69642281  0.25021482  1
  C  C22  1  0.98853298  0.28944050  0.24839032  1
  C  C23  1  0.29906730  0.29194827  0.75073206  1
  C  C24  1  0.98756700  0.69573516  0.75132991  1
  C  C25  1  0.71127021  0.01034139  0.74786419  1
  C  C26  1  0.94462530  0.33539551  0.58541659  1
  C  C27  1  0.39498451  0.05920170  0.58216639  1
  C  C28  1  0.66204437  0.61237318  0.58295993  1
  C  C29  1  0.94251141  0.60705287  0.08233372  1
  C  C30  1  0.66402359  0.05574286  0.08457837  1
  C  C31  1  0.38880488  0.33638059  0.08392077  1
  C  C32  1  0.01761975  0.34908911  0.91660484  1
  C  C33  1  0.33103905  0.98507632  0.91701245  1
  C  C34  1  0.64616142  0.98058942  0.41849994  1
  C  C35  1  0.01706370  0.66997150  0.41598720  1
  C  C36  1  0.30246969  0.01386044  0.25110493  1
  C  C37  1  0.65337026  0.66894272  0.91659168  1
  C  C38  1  0.33046010  0.34606051  0.41637321  1
  C  C39  1  0.21137482  0.02889319  0.30057977  1
  C  C40  1  0.82132325  0.79457764  0.30173612  1
  C  C41  1  0.97304070  0.17086270  0.29863931  1
  C  C42  1  0.20434526  0.17569112  0.80190620  1
  C  C43  1  0.97434542  0.79465278  0.80244248  1
  C  C44  1  0.83198548  0.03119706  0.79790329  1
  C  C45  1  0.78399879  0.98834750  0.69291626  1
  C  C46  1  0.19259754  0.21937393  0.69838271  1
  C  C47  1  0.01690413  0.79560580  0.69789673  1
  C  C48  1  0.78371632  0.79750976  0.19745431  1
  C  C49  1  0.01440450  0.21830363  0.19355134  1
  C  C50  1  0.20727533  0.99041670  0.19958931  1
  C  C51  1  0.85333442  0.34223569  0.63988295  1
  C  C52  1  0.49217737  0.15177083  0.63643572  1
  C  C53  1  0.65844108  0.51379405  0.63678537  1
  C  C54  1  0.85078203  0.50895703  0.13670166  1
  C  C55  1  0.65909924  0.15083850  0.13780564  1
  C  C56  1  0.48864206  0.34164852  0.13750456  1
  C  C57  1  0.48383947  0.33151855  0.03101667  1
  C  C58  1  0.84274228  0.51182046  0.02998388  1
  C  C59  1  0.66895180  0.15459264  0.03110918  1
  C  C60  1  0.49054498  0.15786048  0.52972295  1
  C  C61  1  0.66675805  0.51646911  0.53039799  1
  C  C62  1  0.84386508  0.33198102  0.53260416  1
  C  C63  1  0.57859106  0.70303884  0.96593009  1
  C  C64  1  0.12926166  0.42538676  0.96880323  1
  C  C65  1  0.29510387  0.87092097  0.96804849  1
  C  C66  1  0.57743195  0.87328468  0.47170497  1
  C  C67  1  0.29532922  0.41945226  0.46594905  1
  C  C68  1  0.12911320  0.70719473  0.46781982  1
  C  C69  1  0.09072608  0.62734614  0.36532530  1
  C  C70  1  0.53136057  0.90060957  0.36818914  1
  C  C71  1  0.36747298  0.45525590  0.36716308  1
  C  C72  1  0.09233945  0.45926293  0.86440833  1
  C  C73  1  0.37519876  0.91500465  0.86565382  1
  C  C74  1  0.54547278  0.63207503  0.86695926  1
  C  C75  1  0.99954117  0.82739241  0.40347328  1
  C  C76  1  0.82365673  0.00125955  0.40496392  1
  C  C77  1  0.18174853  0.17842184  0.40548205  1
  C  C78  1  0.99655001  0.17189073  0.90462319  1
  C  C79  1  0.17284592  0.00087900  0.90494031  1
  C  C80  1  0.82049962  0.81815791  0.90652254  1
  C  C81  1  0.94690244  0.16896790  0.58344885  1
  C  C82  1  0.22037047  0.03889385  0.57983886  1
  C  C83  1  0.81743339  0.78838178  0.58139605  1
  C  C84  1  0.96368505  0.78192990  0.08070244  1
  C  C85  1  0.83085999  0.05353123  0.08293141  1
  C  C86  1  0.21270298  0.18057552  0.08295362  1
  C  C87  1  0.70686192  0.17972698  0.74486157  1
  C  C88  1  0.47291513  0.30421871  0.74459790  1
  C  C89  1  0.82508689  0.52032481  0.74594383  1
  C  C90  1  0.69697302  0.52249892  0.24539532  1
  C  C91  1  0.82334296  0.29944604  0.24453305  1
  C  C92  1  0.46908143  0.16966357  0.24698354  1
  C  C93  1  0.67391905  0.52008102  0.92617332  1
  C  C94  1  0.84075484  0.32817357  0.92734294  1
  C  C95  1  0.48309166  0.16178576  0.92809234  1
  C  C96  1  0.67094963  0.15899175  0.42775726  1
  C  C97  1  0.47942331  0.32574262  0.42607033  1
  C  C98  1  0.84038459  0.51706035  0.42731017  1
  C  C99  1  0.36666622  0.49270980  0.08337421  1
  C  C100  1  0.11253873  0.61025878  0.08236781  1
  C  C101  1  0.51088239  0.88072518  0.08406351  1
  C  C102  1  0.39046732  0.88822941  0.58266391  1
  C  C103  1  0.50552754  0.63339102  0.58301960  1
  C  C104  1  0.11934243  0.48933684  0.58444742  1
  C  C105  1  0.32819089  0.86827492  0.25639609  1
  C  C106  1  0.53054624  0.67211569  0.25767093  1
  C  C107  1  0.13834171  0.46480476  0.25723874  1
  C  C108  1  0.31531562  0.46473007  0.75960810  1
  C  C109  1  0.13268215  0.65768106  0.75759186  1
  C  C110  1  0.53582966  0.86222168  0.75624656  1
