# generated using pymatgen
data_Cu5Ni7C66
_symmetry_space_group_name_H-M   'P 1'
_cell_length_a   18.45621224
_cell_length_b   9.24292112
_cell_length_c   23.28726257
_cell_angle_alpha   89.98264956
_cell_angle_beta   89.92694243
_cell_angle_gamma   120.02603327
_symmetry_Int_Tables_number   1
_chemical_formula_structural   Cu5Ni7C66
_chemical_formula_sum   'Cu15 Ni21 C198'
_cell_volume   3439.42859076
_cell_formula_units_Z   3
loop_
 _symmetry_equiv_pos_site_id
 _symmetry_equiv_pos_as_xyz
  1  'x, y, z'
loop_
 _atom_site_type_symbol
 _atom_site_label
 _atom_site_symmetry_multiplicity
 _atom_site_fract_x
 _atom_site_fract_y
 _atom_site_fract_z
 _atom_site_occupancy
  C  C0  1  0.81592287  0.01164705  0.24942271  1
  C  C1  1  0.18925819  0.38045917  0.24697685  1
  C  C2  1  0.69111791  0.36128442  0.25478844  1
  C  C3  1  0.99089359  0.60981271  0.25494091  1
  C  C4  1  0.49473187  0.63904696  0.24317933  1
  C  C5  1  0.31750860  0.62011293  0.75037009  1
  C  C6  1  0.99479015  0.34978571  0.74524148  1
  C  C7  1  0.49083122  0.37565384  0.75451848  1
  C  C8  1  0.19353804  0.02496055  0.74636773  1
  C  C9  1  0.68854725  0.99503556  0.74792704  1
  C  C10  1  0.14829272  0.32692028  0.57901457  1
  C  C11  1  0.01653124  0.69087381  0.58386481  1
  C  C12  1  0.48970874  0.66553605  0.91820825  1
  C  C13  1  0.99644821  0.68251946  0.92227366  1
  C  C14  1  0.84733951  0.02125204  0.91354566  1
  C  C15  1  0.49672116  0.31383169  0.42169861  1
  C  C16  1  0.16295707  0.02187954  0.42002122  1
  C  C17  1  0.34873531  0.66896914  0.41235307  1
  C  C18  1  0.99650947  0.00451715  0.50054644  1
  C  C19  1  0.51548262  0.01148098  0.49389669  1
  C  C20  1  0.01330993  0.01746510  0.99453660  1
  C  C21  1  0.50518058  0.01491988  0.00153628  1
  C  C22  1  0.32668342  0.31408749  0.82891288  1
  C  C23  1  0.83125065  0.33065265  0.83186106  1
  C  C24  1  0.33825890  0.34530734  0.33195198  1
  C  C25  1  0.83067084  0.33803773  0.33015566  1
  C  C26  1  0.17601884  0.67135056  0.16468900  1
  C  C27  1  0.65950830  0.67248458  0.16210141  1
  C  C28  1  0.17018440  0.67922498  0.66345173  1
  C  C29  1  0.67430237  0.68119183  0.66500714  1
  C  C30  1  0.33104375  0.32572920  0.68446774  1
  C  C31  1  0.83761287  0.33144332  0.68185866  1
  C  C32  1  0.33952767  0.34405308  0.18103208  1
  C  C33  1  0.83242057  0.33160803  0.18472255  1
  C  C34  1  0.16420709  0.66729718  0.01631589  1
  C  C35  1  0.66315213  0.66125023  0.51597182  1
  C  C36  1  0.99582102  0.99855577  0.35448750  1
  C  C37  1  0.50261392  0.99061259  0.35418350  1
  C  C38  1  0.00152544  0.01376350  0.85440926  1
  C  C39  1  0.49935902  0.00387962  0.85472714  1
  C  C40  1  0.99814544  0.01864796  0.64642948  1
  C  C41  1  0.49591937  0.98830931  0.64936418  1
  C  C42  1  0.99511770  0.00466112  0.14841681  1
  C  C43  1  0.49524711  0.96964196  0.14622991  1
  C  C44  1  0.33583848  0.32452325  0.98134417  1
  C  C45  1  0.83173910  0.33708746  0.97752685  1
  C  C46  1  0.33022840  0.32337551  0.48024495  1
  C  C47  1  0.83567235  0.33968864  0.47819669  1
  C  C48  1  0.66093926  0.65984788  0.01395434  1
  C  C49  1  0.16388620  0.66985343  0.51358780  1
  C  C50  1  0.16896561  0.66303427  0.31761582  1
  C  C51  1  0.66530275  0.66182231  0.31783102  1
  C  C52  1  0.16567524  0.67014153  0.81806555  1
  C  C53  1  0.67085338  0.67609412  0.81769122  1
  Ni  Ni54  1  0.64457041  0.99198628  0.25006771  1
  Ni  Ni55  1  0.34983076  0.70598395  0.25252906  1
  Ni  Ni56  1  0.85216465  0.71170929  0.25129783  1
  Ni  Ni57  1  0.00404583  0.29663347  0.25120484  1
  Ni  Ni58  1  0.14512307  0.29962420  0.75001683  1
  Ni  Ni59  1  0.50400182  0.71181226  0.75306806  1
  Ni  Ni60  1  0.35240356  0.99287958  0.75168914  1
  Ni  Ni61  1  0.84999254  0.99267477  0.75207699  1
  Ni  Ni62  1  0.98294888  0.33810084  0.58324013  1
  Ni  Ni63  1  0.18136039  0.02790478  0.58567781  1
  Ni  Ni64  1  0.48519965  0.63157426  0.08290149  1
  Ni  Ni65  1  0.81246601  0.66784836  0.91785856  1
  Ni  Ni66  1  0.01909579  0.37272464  0.91798948  1
  Ni  Ni67  1  0.51920966  0.37156862  0.91413287  1
  Ni  Ni68  1  0.16806486  0.96807135  0.91589808  1
  Ni  Ni69  1  0.66533651  0.96064928  0.91695725  1
  Ni  Ni70  1  0.31351085  0.95878813  0.41623076  1
  Ni  Ni71  1  0.16565780  0.36964945  0.41873651  1
  Ni  Ni72  1  0.66760935  0.36826967  0.41577462  1
  Ni  Ni73  1  0.01762439  0.66409324  0.41339433  1
  Ni  Ni74  1  0.51800866  0.66414687  0.41794572  1
  Cu  Cu75  1  0.14186362  0.99544398  0.25033545  1
  Cu  Cu76  1  0.50173310  0.28959753  0.25133475  1
  Cu  Cu77  1  0.64197193  0.28919744  0.74987643  1
  Cu  Cu78  1  0.00111391  0.71165068  0.75142328  1
  Cu  Cu79  1  0.48279958  0.32710878  0.58497167  1
  Cu  Cu80  1  0.68225807  0.03801799  0.58467008  1
  Cu  Cu81  1  0.33543731  0.63489051  0.58196873  1
  Cu  Cu82  1  0.83386445  0.62895952  0.58396889  1
  Cu  Cu83  1  0.98153136  0.63694626  0.08480493  1
  Cu  Cu84  1  0.33646295  0.03770865  0.08478911  1
  Cu  Cu85  1  0.83373677  0.03260225  0.08191809  1
  Cu  Cu86  1  0.18262714  0.32619285  0.08492931  1
  Cu  Cu87  1  0.68325089  0.33403779  0.08355713  1
  Cu  Cu88  1  0.31486558  0.66402083  0.91664770  1
  Cu  Cu89  1  0.81398311  0.96493293  0.41660903  1
  C  C90  1  0.10298286  0.01626271  0.30355934  1
  C  C91  1  0.59689570  0.01980645  0.30400333  1
  C  C92  1  0.40635607  0.80255612  0.30825214  1
  C  C93  1  0.91341512  0.80951886  0.30575117  1
  C  C94  1  0.49386092  0.19624594  0.30469831  1
  C  C95  1  0.99793891  0.17828498  0.30522301  1
  C  C96  1  0.09346386  0.17154206  0.80179485  1
  C  C97  1  0.60178686  0.18605949  0.80171009  1
  C  C98  1  0.49833206  0.81233236  0.80904775  1
  C  C99  1  0.99351054  0.79294819  0.80304486  1
  C  C100  1  0.41314363  0.01031017  0.80539960  1
  C  C101  1  0.90562543  0.00979500  0.80836173  1
  C  C102  1  0.40128108  0.97010735  0.69462272  1
  C  C103  1  0.90060550  0.98134395  0.69502568  1
  C  C104  1  0.08902802  0.21176285  0.69069721  1
  C  C105  1  0.58986810  0.20515393  0.69795035  1
  C  C106  1  0.00993140  0.80910384  0.69827771  1
  C  C107  1  0.51729617  0.83670744  0.69646112  1
  C  C108  1  0.39913987  0.81706201  0.19474008  1
  C  C109  1  0.90151461  0.83511178  0.19491518  1
  C  C110  1  0.01771498  0.20257088  0.19393944  1
  C  C111  1  0.51131527  0.20692731  0.20033333  1
  C  C112  1  0.08830558  0.97596719  0.19932510  1
  C  C113  1  0.58490322  0.96716069  0.19356180  1
  C  C114  1  0.44222303  0.34138464  0.63726954  1
  C  C115  1  0.95539394  0.38341422  0.64349055  1
  C  C116  1  0.22873670  0.09966930  0.64524743  1
  C  C117  1  0.72587469  0.11511208  0.63947549  1
  C  C118  1  0.32481052  0.53966221  0.63497896  1
  C  C119  1  0.82338306  0.53137920  0.63649173  1
  C  C120  1  0.45229894  0.54373823  0.14462384  1
  C  C121  1  0.93998445  0.54232460  0.13702844  1
  C  C122  1  0.32532938  0.11469802  0.13661418  1
  C  C123  1  0.82472433  0.10621831  0.13567726  1
  C  C124  1  0.22572472  0.33601748  0.13975711  1
  C  C125  1  0.72825267  0.35463327  0.13793200  1
  C  C126  1  0.22926382  0.31025770  0.03517789  1
  C  C127  1  0.73066931  0.31363089  0.03466904  1
  C  C128  1  0.42266261  0.52680810  0.02794272  1
  C  C129  1  0.92952381  0.54828121  0.03264715  1
  C  C130  1  0.34283975  0.14200970  0.03267622  1
  C  C131  1  0.84343754  0.14054589  0.03140358  1
  C  C132  1  0.23085196  0.15779253  0.53030269  1
  C  C133  1  0.72789542  0.14576176  0.53476550  1
  C  C134  1  0.34625267  0.55089441  0.53083678  1
  C  C135  1  0.84293170  0.54005067  0.53268428  1
  C  C136  1  0.43065620  0.31135151  0.53272702  1
  C  C137  1  0.91917285  0.32031820  0.53081574  1
  C  C138  1  0.27928816  0.69022577  0.96681908  1
  C  C139  1  0.76962387  0.70588818  0.97215165  1
  C  C140  1  0.07425593  0.44677411  0.97309512  1
  C  C141  1  0.57886553  0.46480182  0.96905755  1
  C  C142  1  0.14414613  0.84477714  0.96922938  1
  C  C143  1  0.64880115  0.83265012  0.96923271  1
  C  C144  1  0.26976746  0.83399662  0.47065909  1
  C  C145  1  0.77828693  0.86646046  0.46758850  1
  C  C146  1  0.15463750  0.45658969  0.47591364  1
  C  C147  1  0.64442396  0.44477952  0.46906728  1
  C  C148  1  0.07854052  0.69815161  0.46944891  1
  C  C149  1  0.57358731  0.70254130  0.47304394  1
  C  C150  1  0.06109443  0.63938907  0.35557369  1
  C  C151  1  0.56177490  0.63219418  0.35950318  1
  C  C152  1  0.25007142  0.87505933  0.36142583  1
  C  C153  1  0.76373565  0.88298433  0.36329441  1
  C  C154  1  0.18386099  0.49152216  0.36216682  1
  C  C155  1  0.68233334  0.48527724  0.35629360  1
  C  C156  1  0.06102082  0.49221218  0.85952506  1
  C  C157  1  0.56003253  0.48875014  0.85635001  1
  C  C158  1  0.18262322  0.87901764  0.85679976  1
  C  C159  1  0.68627400  0.88473405  0.85874816  1
  C  C160  1  0.26453870  0.64448598  0.86301305  1
  C  C161  1  0.75337817  0.63504094  0.86117348  1
  C  C162  1  0.01376407  0.83750886  0.40895801  1
  C  C163  1  0.49616109  0.81496628  0.40914502  1
  C  C164  1  0.40744541  0.98945289  0.40927296  1
  C  C165  1  0.90013714  0.98882689  0.40943517  1
  C  C166  1  0.08845749  0.17879108  0.41092494  1
  C  C167  1  0.58206572  0.18665901  0.40520075  1
  C  C168  1  0.99600096  0.17815790  0.90919791  1
  C  C169  1  0.50735275  0.18521411  0.90972889  1
  C  C170  1  0.08291900  0.97974117  0.90467070  1
  C  C171  1  0.58080370  0.97321742  0.91139246  1
  C  C172  1  0.40204622  0.81047735  0.90905559  1
  C  C173  1  0.90716983  0.82672860  0.91003765  1
  C  C174  1  0.48806049  0.16915407  0.58712863  1
  C  C175  1  0.99090473  0.16640525  0.58461448  1
  C  C176  1  0.08609574  0.00763035  0.58730080  1
  C  C177  1  0.59695042  0.02597464  0.58632154  1
  C  C178  1  0.41209987  0.80524422  0.58553610  1
  C  C179  1  0.91674278  0.79101512  0.58683757  1
  C  C180  1  0.49061622  0.81908652  0.08287608  1
  C  C181  1  0.98757785  0.80601543  0.08676137  1
  C  C182  1  0.41727760  0.03647373  0.08680394  1
  C  C183  1  0.91361504  0.02339616  0.08466671  1
  C  C184  1  0.09759362  0.16728878  0.08585940  1
  C  C185  1  0.59846144  0.18313491  0.08540390  1
  C  C186  1  0.34503001  0.15899068  0.75086652  1
  C  C187  1  0.84016252  0.16005916  0.75148041  1
  C  C188  1  0.23810253  0.32557557  0.74909003  1
  C  C189  1  0.72529444  0.30449947  0.74540291  1
  C  C190  1  0.41983717  0.53250495  0.74903870  1
  C  C191  1  0.92917884  0.53902252  0.74923961  1
  C  C192  1  0.33983161  0.51913794  0.25222557  1
  C  C193  1  0.84237473  0.52850518  0.24794992  1
  C  C194  1  0.42995774  0.31893784  0.24886580  1
  C  C195  1  0.91977047  0.30784520  0.24845088  1
  C  C196  1  0.22495142  0.14631809  0.24534511  1
  C  C197  1  0.73715987  0.15389537  0.24725722  1
  C  C198  1  0.32518494  0.51294063  0.91952715  1
  C  C199  1  0.82504149  0.50410970  0.92740155  1
  C  C200  1  0.42808554  0.36374961  0.92386353  1
  C  C201  1  0.92463364  0.35899326  0.92453035  1
  C  C202  1  0.25060744  0.15568255  0.92401650  1
  C  C203  1  0.75087984  0.14180007  0.92783104  1
  C  C204  1  0.32066480  0.14266510  0.42616503  1
  C  C205  1  0.82199305  0.13323513  0.41976691  1
  C  C206  1  0.25264244  0.35854080  0.42499464  1
  C  C207  1  0.74932665  0.34335126  0.42363456  1
  C  C208  1  0.42464875  0.48940790  0.42342375  1
  C  C209  1  0.92519619  0.50024020  0.42384725  1
  C  C210  1  0.17275163  0.47324171  0.08061551  1
  C  C211  1  0.67650727  0.48556553  0.07487163  1
  C  C212  1  0.06548147  0.65778996  0.08172882  1
  C  C213  1  0.58005099  0.65919673  0.07479280  1
  C  C214  1  0.26566480  0.86741234  0.07902099  1
  C  C215  1  0.76169311  0.86414833  0.07571314  1
  C  C216  1  0.16683274  0.83890041  0.57491926  1
  C  C217  1  0.67262172  0.87119811  0.58096969  1
  C  C218  1  0.25937505  0.64975381  0.57592346  1
  C  C219  1  0.76504293  0.66174619  0.57824766  1
  C  C220  1  0.07951255  0.49396836  0.57324418  1
  C  C221  1  0.56688998  0.47254988  0.58146072  1
  C  C222  1  0.14588796  0.83936372  0.25326377  1
  C  C223  1  0.64905988  0.81822830  0.25609531  1
  C  C224  1  0.25618860  0.68681629  0.25423020  1
  C  C225  1  0.76122643  0.70437831  0.25605539  1
  C  C226  1  0.08812538  0.48264377  0.25439503  1
  C  C227  1  0.58152124  0.46010986  0.25425790  1
  C  C228  1  0.14815962  0.48085943  0.75668241  1
  C  C229  1  0.64568468  0.45224843  0.75396751  1
  C  C230  1  0.08100088  0.70197580  0.75401951  1
  C  C231  1  0.58829090  0.69394445  0.75435566  1
  C  C232  1  0.26082427  0.81862114  0.75560549  1
  C  C233  1  0.75620317  0.82521527  0.75325420  1
