# generated using pymatgen
data_Cu6Ni5C7
_symmetry_space_group_name_H-M   'P 1'
_cell_length_a   7.14545900
_cell_length_b   10.62679100
_cell_length_c   22.67033600
_cell_angle_alpha   90.00000000
_cell_angle_beta   90.00000000
_cell_angle_gamma   90.00000000
_symmetry_Int_Tables_number   1
_chemical_formula_structural   Cu6Ni5C7
_chemical_formula_sum   'Cu24 Ni20 C28'
_cell_volume   1721.43341081
_cell_formula_units_Z   4
loop_
 _symmetry_equiv_pos_site_id
 _symmetry_equiv_pos_as_xyz
  1  'x, y, z'
loop_
 _atom_site_type_symbol
 _atom_site_label
 _atom_site_symmetry_multiplicity
 _atom_site_fract_x
 _atom_site_fract_y
 _atom_site_fract_z
 _atom_site_occupancy
  C  C0  1  0.00154100  0.00000000  0.75000000  1
  C  C1  1  0.49845900  0.50000000  0.25000000  1
  C  C2  1  0.99845900  0.00000000  0.25000000  1
  C  C3  1  0.50154100  0.50000000  0.75000000  1
  C  C4  1  0.49676100  0.73956700  0.40916000  1
  C  C5  1  0.49676100  0.26043300  0.09084000  1
  C  C6  1  0.00323900  0.23956700  0.59084000  1
  C  C7  1  0.00323900  0.76043300  0.90916000  1
  C  C8  1  0.50323900  0.26043300  0.59084000  1
  C  C9  1  0.50323900  0.73956700  0.90916000  1
  C  C10  1  0.99676100  0.76043300  0.40916000  1
  C  C11  1  0.99676100  0.23956700  0.09084000  1
  C  C12  1  0.66208600  0.62280200  0.62082600  1
  C  C13  1  0.66208600  0.37719800  0.87917400  1
  C  C14  1  0.83791400  0.12280200  0.37917400  1
  C  C15  1  0.83791400  0.87719800  0.12082600  1
  C  C16  1  0.33791400  0.37719800  0.37917400  1
  C  C17  1  0.33791400  0.62280200  0.12082600  1
  C  C18  1  0.16208600  0.87719800  0.62082600  1
  C  C19  1  0.16208600  0.12280200  0.87917400  1
  C  C20  1  0.87615800  0.39285000  0.45641200  1
  C  C21  1  0.87615800  0.60715000  0.04358800  1
  C  C22  1  0.62384200  0.89285000  0.54358800  1
  C  C23  1  0.62384200  0.10715000  0.95641200  1
  C  C24  1  0.12384200  0.60715000  0.54358800  1
  C  C25  1  0.12384200  0.39285000  0.95641200  1
  C  C26  1  0.37615800  0.10715000  0.45641200  1
  C  C27  1  0.37615800  0.89285000  0.04358800  1
  Ni  Ni28  1  0.77185600  0.25665100  0.75194200  1
  Ni  Ni29  1  0.77185600  0.74334900  0.74805800  1
  Ni  Ni30  1  0.50000000  0.50000000  0.50000000  1
  Ni  Ni31  1  0.72814400  0.75665100  0.24805800  1
  Ni  Ni32  1  0.72814400  0.24334900  0.25194200  1
  Ni  Ni33  1  0.22814400  0.74334900  0.24805800  1
  Ni  Ni34  1  0.22814400  0.25665100  0.25194200  1
  Ni  Ni35  1  0.27185600  0.24334900  0.75194200  1
  Ni  Ni36  1  0.27185600  0.75665100  0.74805800  1
  Ni  Ni37  1  0.02918700  0.49813500  0.82973600  1
  Ni  Ni38  1  0.02918700  0.50186500  0.67026400  1
  Ni  Ni39  1  0.47081300  0.99813500  0.17026400  1
  Ni  Ni40  1  0.47081300  0.00186500  0.32973600  1
  Ni  Ni41  1  0.97081300  0.50186500  0.17026400  1
  Ni  Ni42  1  0.97081300  0.49813500  0.32973600  1
  Ni  Ni43  1  0.52918700  0.00186500  0.82973600  1
  Ni  Ni44  1  0.52918700  0.99813500  0.67026400  1
  Ni  Ni45  1  0.00000000  0.00000000  0.00000000  1
  Ni  Ni46  1  0.00000000  0.00000000  0.50000000  1
  Ni  Ni47  1  0.50000000  0.50000000  0.00000000  1
  Cu  Cu48  1  0.24913200  0.85695500  0.49872100  1
  Cu  Cu49  1  0.74039000  0.12197900  0.16630100  1
  Cu  Cu50  1  0.74039000  0.87802100  0.33369900  1
  Cu  Cu51  1  0.75961000  0.62197900  0.83369900  1
  Cu  Cu52  1  0.75961000  0.37802100  0.66630100  1
  Cu  Cu53  1  0.25961000  0.87802100  0.83369900  1
  Cu  Cu54  1  0.25961000  0.12197900  0.66630100  1
  Cu  Cu55  1  0.24039000  0.37802100  0.16630100  1
  Cu  Cu56  1  0.24039000  0.62197900  0.33369900  1
  Cu  Cu57  1  0.28835100  0.36628700  0.83739300  1
  Cu  Cu58  1  0.28835100  0.63371300  0.66260700  1
  Cu  Cu59  1  0.21164900  0.86628700  0.16260700  1
  Cu  Cu60  1  0.21164900  0.13371300  0.33739300  1
  Cu  Cu61  1  0.71164900  0.63371300  0.16260700  1
  Cu  Cu62  1  0.71164900  0.36628700  0.33739300  1
  Cu  Cu63  1  0.78835100  0.13371300  0.83739300  1
  Cu  Cu64  1  0.78835100  0.86628700  0.66260700  1
  Cu  Cu65  1  0.24913200  0.14304500  0.00127900  1
  Cu  Cu66  1  0.25086800  0.64304500  0.99872100  1
  Cu  Cu67  1  0.25086800  0.35695500  0.50127900  1
  Cu  Cu68  1  0.74913200  0.64304500  0.49872100  1
  Cu  Cu69  1  0.74913200  0.35695500  0.00127900  1
  Cu  Cu70  1  0.75086800  0.85695500  0.99872100  1
  Cu  Cu71  1  0.75086800  0.14304500  0.50127900  1
