# generated using pymatgen
data_CuNiC12
_symmetry_space_group_name_H-M   'P 1'
_cell_length_a   5.27897275
_cell_length_b   8.67529162
_cell_length_c   5.19474277
_cell_angle_alpha   89.95928572
_cell_angle_beta   89.99719723
_cell_angle_gamma   107.71564244
_symmetry_Int_Tables_number   1
_chemical_formula_structural   CuNiC12
_chemical_formula_sum   'Cu1 Ni1 C12'
_cell_volume   226.61996690
_cell_formula_units_Z   1
loop_
 _symmetry_equiv_pos_site_id
 _symmetry_equiv_pos_as_xyz
  1  'x, y, z'
loop_
 _atom_site_type_symbol
 _atom_site_label
 _atom_site_symmetry_multiplicity
 _atom_site_fract_x
 _atom_site_fract_y
 _atom_site_fract_z
 _atom_site_occupancy
  C  C0  1  0.18069339  0.36105097  0.49895006  1
  C  C1  1  0.60631768  0.21261093  -0.00030183  1
  C  C2  1  0.39374201  0.78753430  0.99954673  1
  C  C3  1  0.81929949  0.63890860  0.49911099  1
  Ni  Ni4  1  -0.00005997  -0.00002581  0.50032495  1
  Cu  Cu5  1  0.00009366  0.00014684  0.00033313  1
  C  C6  1  0.26064587  0.00003964  0.24342958  1
  C  C7  1  0.26081704  0.00065719  0.75722327  1
  C  C8  1  0.73907239  -0.00060327  0.24339574  1
  C  C9  1  0.73951774  0.00001476  0.75728478  1
  C  C10  1  0.15372247  0.30742677  0.00119569  1
  C  C11  1  0.68605383  0.37102460  0.49964447  1
  C  C12  1  0.31382084  0.62882638  0.49962108  1
  C  C13  1  0.84626155  0.69238711  0.00024137  1
