# generated using pymatgen
data_Cu2Ni2C9
_symmetry_space_group_name_H-M   'P 1'
_cell_length_a   3.33926500
_cell_length_b   3.34107117
_cell_length_c   45.37234420
_cell_angle_alpha   89.99113706
_cell_angle_beta   90.00000000
_cell_angle_gamma   119.98209174
_symmetry_Int_Tables_number   1
_chemical_formula_structural   Cu2Ni2C9
_chemical_formula_sum   'Cu2 Ni2 C9'
_cell_volume   438.46688415
_cell_formula_units_Z   1
loop_
 _symmetry_equiv_pos_site_id
 _symmetry_equiv_pos_as_xyz
  1  'x, y, z'
loop_
 _atom_site_type_symbol
 _atom_site_label
 _atom_site_symmetry_multiplicity
 _atom_site_fract_x
 _atom_site_fract_y
 _atom_site_fract_z
 _atom_site_occupancy
  C  C0  1  0.00000200  0.00000400  0.56136300  1
  C  C1  1  0.66669500  0.33339100  0.05164100  1
  C  C2  1  0.66646300  0.33292500  0.13535200  1
  Ni  Ni3  1  0.33329700  0.66659400  0.09349000  1
  Ni  Ni4  1  0.33342500  0.66685000  0.46348000  1
  Cu  Cu5  1  0.66662800  0.33325700  0.28203400  1
  Cu  Cu6  1  0.66668300  0.33336900  0.66586900  1
  C  C7  1  0.33327100  0.66654200  0.31897500  1
  C  C8  1  0.66679700  0.33359400  0.42682300  1
  C  C9  1  0.66667200  0.33334200  0.50079200  1
  C  C10  1  0.33333800  0.66667700  0.24509300  1
  C  C11  1  0.33330100  0.66660300  0.69928200  1
  C  C12  1  0.33342500  0.66685200  0.63226400  1
