# generated using pymatgen
data_CuNi2C17
_symmetry_space_group_name_H-M   'P 1'
_cell_length_a   15.68769888
_cell_length_b   26.99668460
_cell_length_c   9.01143642
_cell_angle_alpha   90.10297043
_cell_angle_beta   124.80018637
_cell_angle_gamma   89.97177469
_symmetry_Int_Tables_number   1
_chemical_formula_structural   CuNi2C17
_chemical_formula_sum   'Cu12 Ni24 C204'
_cell_volume   3133.89184772
_cell_formula_units_Z   12
loop_
 _symmetry_equiv_pos_site_id
 _symmetry_equiv_pos_as_xyz
  1  'x, y, z'
loop_
 _atom_site_type_symbol
 _atom_site_label
 _atom_site_symmetry_multiplicity
 _atom_site_fract_x
 _atom_site_fract_y
 _atom_site_fract_z
 _atom_site_occupancy
  C  C0  1  0.25618326  0.24538081  0.02517698  1
  C  C1  1  0.24906181  0.59104765  0.01753378  1
  C  C2  1  0.25888078  0.91310439  0.01895865  1
  C  C3  1  0.75093441  0.25207209  0.50399279  1
  C  C4  1  0.74584559  0.58134173  0.50156665  1
  C  C5  1  0.75715151  0.91643586  0.52015112  1
  C  C6  1  0.74906181  0.09104765  0.01753378  1
  C  C7  1  0.75888078  0.41310439  0.01895865  1
  C  C8  1  0.75618326  0.74538081  0.02517698  1
  C  C9  1  0.24584559  0.08134173  0.50156665  1
  C  C10  1  0.25715151  0.41643586  0.52015112  1
  C  C11  1  0.25093441  0.75207209  0.50399279  1
  C  C12  1  0.48467315  0.02579060  0.71315662  1
  C  C13  1  0.48955882  0.36914788  0.74372498  1
  C  C14  1  0.48464475  0.69625270  0.72099798  1
  C  C15  1  0.49068632  0.29491249  0.25603057  1
  C  C16  1  0.49983223  0.62632061  0.26886611  1
  C  C17  1  0.50209540  0.95735036  0.27925002  1
  C  C18  1  0.98464475  0.19625270  0.72099798  1
  C  C19  1  0.98467315  0.52579060  0.71315662  1
  C  C20  1  0.98955882  0.86914788  0.74372498  1
  C  C21  1  0.99983223  0.12632061  0.26886611  1
  C  C22  1  0.00209540  0.45735036  0.27925002  1
  C  C23  1  0.99068632  0.79491249  0.25603057  1
  C  C24  1  0.81566892  0.98059496  0.20792844  1
  C  C25  1  0.20890158  0.30929032  0.29707034  1
  C  C26  1  0.19952934  0.97484743  0.27914336  1
  C  C27  1  0.20186354  0.35887288  0.79107028  1
  C  C28  1  0.81840928  0.01942287  0.71541208  1
  C  C29  1  0.81495482  0.69501527  0.68362225  1
  C  C30  1  0.31566892  0.48059496  0.20792844  1
  C  C31  1  0.69952934  0.47484743  0.27914336  1
  C  C32  1  0.70890158  0.80929032  0.29707034  1
  C  C33  1  0.70186354  0.85887288  0.79107028  1
  C  C34  1  0.31495482  0.19501527  0.68362225  1
  C  C35  1  0.31840928  0.51942287  0.71541208  1
  C  C36  1  0.89621326  0.91700702  0.93870167  1
  C  C37  1  0.89501164  0.08546220  0.43423724  1
  C  C38  1  0.89692220  0.41611363  0.44507632  1
  C  C39  1  0.89647899  0.74851524  0.43546298  1
  C  C40  1  0.39621326  0.41700702  0.93870167  1
  C  C41  1  0.39647899  0.24851524  0.43546298  1
  C  C42  1  0.39501164  0.58546220  0.43423724  1
  C  C43  1  0.39692220  0.91611363  0.44507632  1
  C  C44  1  0.10442002  0.24994982  0.57683652  1
  C  C45  1  0.10614555  0.58418111  0.56749039  1
  C  C46  1  0.10603747  0.91577753  0.56691284  1
  C  C47  1  0.89107965  0.24974446  0.93312066  1
  C  C48  1  0.89615186  0.58252779  0.94046792  1
  C  C49  1  0.10556720  0.08441819  0.06003385  1
  C  C50  1  0.10449367  0.41716914  0.06089537  1
  C  C51  1  0.10571549  0.75062804  0.06208259  1
  C  C52  1  0.60614555  0.08418111  0.56749039  1
  C  C53  1  0.60603747  0.41577753  0.56691284  1
  C  C54  1  0.60442002  0.74994982  0.57683652  1
  C  C55  1  0.39615186  0.08252779  0.94046792  1
  C  C56  1  0.39107965  0.74974446  0.93312066  1
  C  C57  1  0.60571549  0.25062804  0.06208259  1
  C  C58  1  0.60556720  0.58441819  0.06003385  1
  C  C59  1  0.60449367  0.91716914  0.06089537  1
  Ni  Ni60  1  0.99484941  0.32099460  0.74421509  1
  Ni  Ni61  1  0.49484941  0.82099460  0.74421509  1
  Ni  Ni62  1  0.35319850  0.29862042  0.75237554  1
  Ni  Ni63  1  0.35338011  0.63047282  0.75176200  1
  Ni  Ni64  1  0.35103652  0.96368747  0.74547716  1
  Ni  Ni65  1  0.63981812  0.29762351  0.73101666  1
  Ni  Ni66  1  0.64524562  0.63099535  0.73608130  1
  Ni  Ni67  1  0.64548561  0.96694146  0.73828984  1
  Ni  Ni68  1  0.64771783  0.03438660  0.24737840  1
  Ni  Ni69  1  0.64350569  0.70064532  0.24690979  1
  Ni  Ni70  1  0.35302064  0.03583505  0.25554530  1
  Ni  Ni71  1  0.35007437  0.36988105  0.24670551  1
  Ni  Ni72  1  0.35235342  0.70340985  0.25712583  1
  Ni  Ni73  1  0.85338011  0.13047282  0.75176200  1
  Ni  Ni74  1  0.85103652  0.46368747  0.74547716  1
  Ni  Ni75  1  0.85319850  0.79862042  0.75237554  1
  Ni  Ni76  1  0.14524562  0.13099535  0.73608130  1
  Ni  Ni77  1  0.14548561  0.46694146  0.73828984  1
  Ni  Ni78  1  0.13981812  0.79762351  0.73101666  1
  Ni  Ni79  1  0.14350569  0.20064532  0.24690979  1
  Ni  Ni80  1  0.14771783  0.53438660  0.24737840  1
  Ni  Ni81  1  0.85235342  0.20340985  0.25712583  1
  Ni  Ni82  1  0.85302064  0.53583505  0.25554530  1
  Ni  Ni83  1  0.85007437  0.86988105  0.24670551  1
  Cu  Cu84  1  0.00166961  0.65405937  0.74778870  1
  Cu  Cu85  1  0.00222116  0.98679111  0.74329860  1
  Cu  Cu86  1  0.00253422  0.01245922  0.24352836  1
  Cu  Cu87  1  0.00095925  0.34602578  0.25057209  1
  Cu  Cu88  1  0.00174730  0.68062568  0.24814182  1
  Cu  Cu89  1  0.50166961  0.15405937  0.74778870  1
  Cu  Cu90  1  0.50222116  0.48679111  0.74329860  1
  Cu  Cu91  1  0.50174730  0.18062568  0.24814182  1
  Cu  Cu92  1  0.50253422  0.51245922  0.24352836  1
  Cu  Cu93  1  0.50095925  0.84602578  0.25057209  1
  Cu  Cu94  1  0.64014392  0.36693763  0.23870028  1
  Cu  Cu95  1  0.14014392  0.86693763  0.23870028  1
  C  C96  1  0.14986277  0.19282889  0.74712624  1
  C  C97  1  0.14647952  0.52948963  0.74415115  1
  C  C98  1  0.14438207  0.85972478  0.73693952  1
  C  C99  1  0.84653996  0.19062133  0.77489694  1
  C  C100  1  0.84874232  0.52502521  0.77944865  1
  C  C101  1  0.84267581  0.85793637  0.75661158  1
  C  C102  1  0.84946790  0.14438676  0.25003943  1
  C  C103  1  0.84293901  0.47667001  0.24231021  1
  C  C104  1  0.84166290  0.81065636  0.25454767  1
  C  C105  1  0.14304582  0.13877115  0.23895739  1
  C  C106  1  0.13843981  0.47301919  0.24166657  1
  C  C107  1  0.14621414  0.80818188  0.24551782  1
  C  C108  1  0.64647952  0.02948963  0.74415115  1
  C  C109  1  0.64438207  0.35972478  0.73693952  1
  C  C110  1  0.64986277  0.69282889  0.74712624  1
  C  C111  1  0.34874232  0.02502521  0.77944865  1
  C  C112  1  0.34267581  0.35793637  0.75661158  1
  C  C113  1  0.34653996  0.69062133  0.77489694  1
  C  C114  1  0.34166290  0.31065636  0.25454767  1
  C  C115  1  0.34946790  0.64438676  0.25003943  1
  C  C116  1  0.34293901  0.97667001  0.24231021  1
  C  C117  1  0.64621414  0.30818188  0.24551782  1
  C  C118  1  0.64304582  0.63877115  0.23895739  1
  C  C119  1  0.63843981  0.97301919  0.24166657  1
  C  C120  1  0.43066692  0.18412713  0.58205864  1
  C  C121  1  0.43575364  0.51869932  0.57758503  1
  C  C122  1  0.42843238  0.85386850  0.57236837  1
  C  C123  1  0.56503203  0.18751992  0.92131884  1
  C  C124  1  0.56742783  0.52027865  0.91985018  1
  C  C125  1  0.57122963  0.85571331  0.93129633  1
  C  C126  1  0.56180184  0.14518557  0.41612840  1
  C  C127  1  0.56698456  0.47722406  0.41326998  1
  C  C128  1  0.56591192  0.81233629  0.42322320  1
  C  C129  1  0.44601244  0.14705878  0.07708445  1
  C  C130  1  0.44139455  0.48206831  0.07272791  1
  C  C131  1  0.44763779  0.81190999  0.08317627  1
  C  C132  1  0.93575364  0.01869932  0.57758503  1
  C  C133  1  0.92843238  0.35386850  0.57236837  1
  C  C134  1  0.93066692  0.68412713  0.58205864  1
  C  C135  1  0.06742783  0.02027865  0.91985018  1
  C  C136  1  0.07122963  0.35571331  0.93129633  1
  C  C137  1  0.06503203  0.68751992  0.92131884  1
  C  C138  1  0.06591192  0.31233629  0.42322320  1
  C  C139  1  0.06180184  0.64518557  0.41612840  1
  C  C140  1  0.06698456  0.97722406  0.41326998  1
  C  C141  1  0.94763779  0.31190999  0.08317627  1
  C  C142  1  0.94601244  0.64705878  0.07708445  1
  C  C143  1  0.94139455  0.98206831  0.07272791  1
  C  C144  1  0.25359443  0.27245817  0.74506846  1
  C  C145  1  0.25371851  0.60473551  0.73907034  1
  C  C146  1  0.25213616  0.93827576  0.73185894  1
  C  C147  1  0.75017645  0.27822224  0.77120314  1
  C  C148  1  0.75650906  0.61495145  0.76844492  1
  C  C149  1  0.74774593  0.94857721  0.75416660  1
  C  C150  1  0.74578562  0.05154370  0.25066523  1
  C  C151  1  0.73344435  0.39097661  0.25825020  1
  C  C152  1  0.73751165  0.72560358  0.25504056  1
  C  C153  1  0.25188802  0.06035074  0.24025465  1
  C  C154  1  0.25421875  0.39733667  0.25039187  1
  C  C155  1  0.25117662  0.72990663  0.23716279  1
  C  C156  1  0.75371851  0.10473551  0.73907034  1
  C  C157  1  0.75213616  0.43827576  0.73185894  1
  C  C158  1  0.75359443  0.77245817  0.74506846  1
  C  C159  1  0.25650906  0.11495145  0.76844492  1
  C  C160  1  0.24774593  0.44857721  0.75416660  1
  C  C161  1  0.25017645  0.77822224  0.77120314  1
  C  C162  1  0.23751165  0.22560358  0.25504056  1
  C  C163  1  0.24578562  0.55154370  0.25066523  1
  C  C164  1  0.23344435  0.89097661  0.25825020  1
  C  C165  1  0.75117662  0.22990663  0.23716279  1
  C  C166  1  0.75188802  0.56035074  0.24025465  1
  C  C167  1  0.75421875  0.89733667  0.25039187  1
  C  C168  1  0.35116733  0.28028290  0.58186349  1
  C  C169  1  0.36120460  0.62099433  0.58698917  1
  C  C170  1  0.35016449  0.96162119  0.56773204  1
  C  C171  1  0.63132652  0.28392680  0.90580737  1
  C  C172  1  0.63775424  0.61625855  0.91030999  1
  C  C173  1  0.64397620  0.95273754  0.92273003  1
  C  C174  1  0.64440077  0.04949198  0.42577226  1
  C  C175  1  0.63545739  0.38061004  0.40689081  1
  C  C176  1  0.64058602  0.71393676  0.42683428  1
  C  C177  1  0.35768218  0.05780640  0.08880971  1
  C  C178  1  0.34145432  0.38890822  0.07086542  1
  C  C179  1  0.35707953  0.72469297  0.09111140  1
  C  C180  1  0.86120460  0.12099433  0.58698917  1
  C  C181  1  0.85016449  0.46162119  0.56773204  1
  C  C182  1  0.85116733  0.78028290  0.58186349  1
  C  C183  1  0.13775424  0.11625855  0.91030999  1
  C  C184  1  0.14397620  0.45273754  0.92273003  1
  C  C185  1  0.13132652  0.78392680  0.90580737  1
  C  C186  1  0.14058602  0.21393676  0.42683428  1
  C  C187  1  0.14440077  0.54949198  0.42577226  1
  C  C188  1  0.13545739  0.88061004  0.40689081  1
  C  C189  1  0.85707953  0.22469297  0.09111140  1
  C  C190  1  0.85768218  0.55780640  0.08880971  1
  C  C191  1  0.84145432  0.88890822  0.07086542  1
  C  C192  1  0.46105101  0.27410798  0.93907603  1
  C  C193  1  0.46056067  0.60619085  0.93779755  1
  C  C194  1  0.46094870  0.94182521  0.92620247  1
  C  C195  1  0.54164171  0.27741310  0.54779661  1
  C  C196  1  0.54637996  0.61101266  0.55356380  1
  C  C197  1  0.53938724  0.94759886  0.56441964  1
  C  C198  1  0.53559386  0.05546165  0.07366989  1
  C  C199  1  0.53906751  0.38260107  0.06613679  1
  C  C200  1  0.53019369  0.71847721  0.07221212  1
  C  C201  1  0.46221262  0.05777405  0.43831882  1
  C  C202  1  0.46146930  0.39283680  0.43076890  1
  C  C203  1  0.46117190  0.72535454  0.44378120  1
  C  C204  1  0.96056067  0.10619085  0.93779755  1
  C  C205  1  0.96094870  0.44182521  0.92620247  1
  C  C206  1  0.96105101  0.77410798  0.93907603  1
  C  C207  1  0.04637996  0.11101266  0.55356380  1
  C  C208  1  0.03938724  0.44759886  0.56441964  1
  C  C209  1  0.04164171  0.77741310  0.54779661  1
  C  C210  1  0.03019369  0.21847721  0.07221212  1
  C  C211  1  0.03559386  0.55546165  0.07366989  1
  C  C212  1  0.03906751  0.88260107  0.06613679  1
  C  C213  1  0.96117190  0.22535454  0.44378120  1
  C  C214  1  0.96221262  0.55777405  0.43831882  1
  C  C215  1  0.96146930  0.89283680  0.43076890  1
  C  C216  1  0.08491033  0.28741983  0.74365248  1
  C  C217  1  0.08230912  0.62190718  0.74346628  1
  C  C218  1  0.08464811  0.95475292  0.73861981  1
  C  C219  1  0.92717195  0.27983059  0.77089392  1
  C  C220  1  0.93137932  0.61748243  0.77002340  1
  C  C221  1  0.93289577  0.95089668  0.76211152  1
  C  C222  1  0.92998837  0.04677436  0.25826207  1
  C  C223  1  0.92448684  0.38002059  0.24984223  1
  C  C224  1  0.92348353  0.71325037  0.24792391  1
  C  C225  1  0.08916283  0.04382922  0.24786614  1
  C  C226  1  0.08518320  0.37725620  0.24847499  1
  C  C227  1  0.08373191  0.71266495  0.24564140  1
  C  C228  1  0.58230912  0.12190718  0.74346628  1
  C  C229  1  0.58464811  0.45475292  0.73861981  1
  C  C230  1  0.58491033  0.78741983  0.74365248  1
  C  C231  1  0.43137932  0.11748243  0.77002340  1
  C  C232  1  0.43289577  0.45089668  0.76211152  1
  C  C233  1  0.42717195  0.77983059  0.77089392  1
  C  C234  1  0.42348353  0.21325037  0.24792391  1
  C  C235  1  0.42998837  0.54677436  0.25826207  1
  C  C236  1  0.42448684  0.88002059  0.24984223  1
  C  C237  1  0.58373191  0.21266495  0.24564140  1
  C  C238  1  0.58916283  0.54382922  0.24786614  1
  C  C239  1  0.58518320  0.87725620  0.24847499  1
