# generated using pymatgen
data_Cu4Ni11C67
_symmetry_space_group_name_H-M   'P 1'
_cell_length_a   18.04208310
_cell_length_b   9.02975049
_cell_length_c   22.21558977
_cell_angle_alpha   90.30212218
_cell_angle_beta   89.95587716
_cell_angle_gamma   119.97826479
_symmetry_Int_Tables_number   1
_chemical_formula_structural   Cu4Ni11C67
_chemical_formula_sum   'Cu12 Ni33 C201'
_cell_volume   3135.01007141
_cell_formula_units_Z   3
loop_
 _symmetry_equiv_pos_site_id
 _symmetry_equiv_pos_as_xyz
  1  'x, y, z'
loop_
 _atom_site_type_symbol
 _atom_site_label
 _atom_site_symmetry_multiplicity
 _atom_site_fract_x
 _atom_site_fract_y
 _atom_site_fract_z
 _atom_site_occupancy
  C  C0  1  0.31858772  0.99982516  0.24963629  1
  C  C1  1  0.81854084  0.00034850  0.25004129  1
  C  C2  1  0.31929408  0.64013205  0.75212285  1
  C  C3  1  0.81906269  0.63645581  0.74936269  1
  C  C4  1  0.50373029  0.36447839  0.75351069  1
  C  C5  1  0.68383246  0.00340836  0.74942816  1
  C  C6  1  0.14741514  0.33349058  0.58104577  1
  C  C7  1  0.65170037  0.33356843  0.58228332  1
  C  C8  1  0.01347205  0.69129592  0.58366990  1
  C  C9  1  0.52244879  0.70749689  0.58066753  1
  C  C10  1  0.33353483  0.96868079  0.58369130  1
  C  C11  1  0.83078478  0.95966126  0.58143262  1
  C  C12  1  0.14826366  0.96266927  0.08077835  1
  C  C13  1  0.64992125  0.96639544  0.07998251  1
  C  C14  1  0.33191319  0.69960156  0.08232481  1
  C  C15  1  0.83153090  0.70154569  0.08190304  1
  C  C16  1  0.01892104  0.33868877  0.08207836  1
  C  C17  1  0.52068461  0.33860371  0.08226637  1
  C  C18  1  0.48272233  0.67008759  0.91637085  1
  C  C19  1  0.97927332  0.66009365  0.91844969  1
  C  C20  1  0.35173526  0.03798475  0.91651747  1
  C  C21  1  0.85162842  0.04169573  0.91826047  1
  C  C22  1  0.16514110  0.29953037  0.91984106  1
  C  C23  1  0.66949909  0.29313728  0.91881881  1
  C  C24  1  0.48538738  0.30186322  0.41543789  1
  C  C25  1  0.97887796  0.29691638  0.41818716  1
  C  C26  1  0.16410856  0.02786011  0.41696435  1
  C  C27  1  0.66854674  0.04267105  0.42061351  1
  C  C28  1  0.35114082  0.66420429  0.41523189  1
  C  C29  1  0.84944720  0.66068536  0.41810676  1
  C  C30  1  0.99991890  0.00025755  0.49936747  1
  C  C31  1  0.50205862  0.00045006  0.50073211  1
  C  C32  1  0.00124627  0.00193544  0.00087704  1
  C  C33  1  0.50104330  0.00062540  0.00032755  1
  C  C34  1  0.33247621  0.32413499  0.83356452  1
  C  C35  1  0.83942296  0.33500043  0.83058361  1
  C  C36  1  0.33730142  0.34867802  0.32738566  1
  C  C37  1  0.83630838  0.34754607  0.33003799  1
  C  C38  1  0.16262447  0.65207620  0.16946699  1
  C  C39  1  0.66297124  0.65127611  0.16991248  1
  C  C40  1  0.16195472  0.67369229  0.67093761  1
  C  C41  1  0.66820268  0.66876608  0.66711179  1
  C  C42  1  0.98971005  0.99241225  0.35015172  1
  C  C43  1  0.49617955  0.99647660  0.35070250  1
  C  C44  1  0.99277995  0.98849875  0.85438384  1
  C  C45  1  0.50235713  0.00526444  0.85426342  1
  C  C46  1  0.99269480  0.98214653  0.64760152  1
  C  C47  1  0.50189872  0.00145479  0.65042850  1
  C  C48  1  0.99393203  0.00317589  0.14819265  1
  C  C49  1  0.49758097  0.00721287  0.14927242  1
  C  C50  1  0.33803943  0.32972790  0.68415508  1
  C  C51  1  0.33415484  0.33813634  0.97913751  1
  C  C52  1  0.33448690  0.33322695  0.47736503  1
  C  C53  1  0.16305543  0.66126152  0.51928966  1
  Ni  Ni54  1  0.34413953  0.68727591  0.24959637  1
  Ni  Ni55  1  0.84262825  0.68360868  0.24906128  1
  Ni  Ni56  1  0.99946862  0.31342135  0.24958201  1
  Ni  Ni57  1  0.50112615  0.31474040  0.25026727  1
  Ni  Ni58  1  0.65360808  0.30781116  0.75072600  1
  Ni  Ni59  1  0.00164872  0.69036323  0.75001165  1
  Ni  Ni60  1  0.50401844  0.70175493  0.75349165  1
  Ni  Ni61  1  0.34412315  0.98844098  0.75328671  1
  Ni  Ni62  1  0.84778127  0.00425908  0.75105390  1
  Ni  Ni63  1  0.48796978  0.34240250  0.57985058  1
  Ni  Ni64  1  0.96987371  0.32965622  0.58355684  1
  Ni  Ni65  1  0.18414297  0.03808071  0.58157153  1
  Ni  Ni66  1  0.69476954  0.04869856  0.58152910  1
  Ni  Ni67  1  0.33339516  0.62910369  0.58460635  1
  Ni  Ni68  1  0.82855343  0.60663404  0.58096632  1
  Ni  Ni69  1  0.48475536  0.62730931  0.08241117  1
  Ni  Ni70  1  0.97847393  0.61744459  0.07893752  1
  Ni  Ni71  1  0.32868740  0.04219850  0.08468075  1
  Ni  Ni72  1  0.82916308  0.05228627  0.08184608  1
  Ni  Ni73  1  0.19081405  0.33975190  0.08468395  1
  Ni  Ni74  1  0.69585022  0.34049093  0.08122294  1
  Ni  Ni75  1  0.30310082  0.66739587  0.91614103  1
  Ni  Ni76  1  0.80459508  0.65745736  0.91968139  1
  Ni  Ni77  1  0.02477063  0.38955908  0.91894325  1
  Ni  Ni78  1  0.53037929  0.39419084  0.91707086  1
  Ni  Ni79  1  0.16633802  0.94828416  0.91902015  1
  Ni  Ni80  1  0.67090586  0.95177687  0.91991567  1
  Ni  Ni81  1  0.30697528  0.94826353  0.41208413  1
  Ni  Ni82  1  0.80311498  0.94861653  0.41773799  1
  Ni  Ni83  1  0.16577732  0.37196078  0.41435475  1
  Ni  Ni84  1  0.67074101  0.38309312  0.42061300  1
  Ni  Ni85  1  0.01912390  0.65861276  0.41462864  1
  Ni  Ni86  1  0.53152910  0.66970400  0.41608709  1
  Cu  Cu87  1  0.83378099  0.33344272  0.68634313  1
  Cu  Cu88  1  0.34448953  0.35639084  0.18120761  1
  Cu  Cu89  1  0.84426995  0.35585261  0.18034027  1
  Cu  Cu90  1  0.83352367  0.33389668  0.97949392  1
  Cu  Cu91  1  0.83290424  0.33058231  0.47953617  1
  Cu  Cu92  1  0.16522697  0.66607757  0.02083222  1
  Cu  Cu93  1  0.66814059  0.66873924  0.02122649  1
  Cu  Cu94  1  0.66818940  0.66753190  0.51978178  1
  Cu  Cu95  1  0.16394185  0.64425810  0.31631494  1
  Cu  Cu96  1  0.66841369  0.64459458  0.31845228  1
  Cu  Cu97  1  0.16316449  0.68096478  0.81827304  1
  Cu  Cu98  1  0.67035279  0.67178205  0.81525660  1
  C  C99  1  0.14899653  -0.00012037  0.24980166  1
  C  C100  1  0.65142146  0.00093980  0.24972117  1
  C  C101  1  0.14637521  0.29639240  0.75086032  1
  C  C102  1  0.10508243  0.01830073  0.30410101  1
  C  C103  1  0.60782495  0.02059029  0.30421147  1
  C  C104  1  0.40555431  0.77919320  0.30906803  1
  C  C105  1  0.90291884  0.77461588  0.30839139  1
  C  C106  1  0.48179026  0.18232297  0.30727062  1
  C  C107  1  0.97945171  0.18293136  0.30710108  1
  C  C108  1  0.10482792  0.19215460  0.80509121  1
  C  C109  1  0.60989949  0.18082491  0.80847728  1
  C  C110  1  0.48547222  0.79135106  0.81084396  1
  C  C111  1  0.98356273  0.78538576  0.80773549  1
  C  C112  1  0.40933167  0.02860982  0.81039973  1
  C  C113  1  0.90759919  0.03172398  0.81013133  1
  C  C114  1  0.39037757  0.95980370  0.69350124  1
  C  C115  1  0.89007248  0.96015566  0.69303986  1
  C  C116  1  0.09616533  0.21028794  0.69604776  1
  C  C117  1  0.58938532  0.22226246  0.69295203  1
  C  C118  1  0.01692356  0.81275677  0.69098714  1
  C  C119  1  0.52042161  0.82090515  0.69372652  1
  C  C120  1  0.39183307  0.81973136  0.19289243  1
  C  C121  1  0.88839114  0.81604288  0.19200141  1
  C  C122  1  0.01435631  0.21861894  0.19105177  1
  C  C123  1  0.51638341  0.22378940  0.19066711  1
  C  C124  1  0.09572107  0.98075288  0.19542575  1
  C  C125  1  0.59749231  0.98212622  0.19581108  1
  C  C126  1  0.44504458  0.37515731  0.64008334  1
  C  C127  1  0.92625915  0.36927749  0.64080581  1
  C  C128  1  0.24793030  0.13238414  0.63794337  1
  C  C129  1  0.75282037  0.13363989  0.64224359  1
  C  C130  1  0.31917972  0.51292074  0.64412201  1
  C  C131  1  0.81154804  0.49238097  0.64182308  1
  C  C132  1  0.43972595  0.49494097  0.13842008  1
  C  C133  1  0.93956466  0.49360698  0.13769486  1
  C  C134  1  0.31378543  0.13736616  0.14344607  1
  C  C135  1  0.81337530  0.13934568  0.14243983  1
  C  C136  1  0.25928143  0.37555159  0.13915895  1
  C  C137  1  0.76048077  0.37784180  0.13824905  1
  C  C138  1  0.22641973  0.29937166  0.02264362  1
  C  C139  1  0.73456209  0.29806709  0.02016952  1
  C  C140  1  0.42479019  0.55451877  0.02246141  1
  C  C141  1  0.91529019  0.53492417  0.02011269  1
  C  C142  1  0.35001971  0.15919987  0.02451106  1
  C  C143  1  0.85148592  0.17457594  0.02216352  1
  C  C144  1  0.22687771  0.15184156  0.52128409  1
  C  C145  1  0.73500790  0.17063571  0.52171827  1
  C  C146  1  0.34794958  0.54024501  0.52482606  1
  C  C147  1  0.85150640  0.52803766  0.52154457  1
  C  C148  1  0.42476657  0.30124966  0.52233998  1
  C  C149  1  0.91417393  0.29551320  0.52063026  1
  C  C150  1  0.26209835  0.69981042  0.97807436  1
  C  C151  1  0.76549942  0.70143427  0.97936479  1
  C  C152  1  0.08508447  0.46723834  0.97960425  1
  C  C153  1  0.58745274  0.47596381  0.97842209  1
  C  C154  1  0.14809086  0.83001785  0.97925597  1
  C  C155  1  0.65078859  0.82910542  0.97907560  1
  C  C156  1  0.26934809  0.83890983  0.47376746  1
  C  C157  1  0.76509106  0.82712305  0.47770519  1
  C  C158  1  0.14689681  0.44486641  0.47649523  1
  C  C159  1  0.64860477  0.46640181  0.47891315  1
  C  C160  1  0.07521985  0.70215298  0.47657051  1
  C  C161  1  0.58687671  0.70252492  0.47877218  1
  C  C162  1  0.06962522  0.62484248  0.35978008  1
  C  C163  1  0.57677316  0.63194940  0.35925945  1
  C  C164  1  0.24360596  0.85384430  0.35425231  1
  C  C165  1  0.74541640  0.86214866  0.35676477  1
  C  C166  1  0.18634865  0.50367906  0.35907809  1
  C  C167  1  0.69360711  0.50624107  0.36162262  1
  C  C168  1  0.06872130  0.51550026  0.86110436  1
  C  C169  1  0.57268005  0.50942512  0.85660457  1
  C  C170  1  0.18716534  0.86894131  0.85986312  1
  C  C171  1  0.68788294  0.86820972  0.85899978  1
  C  C172  1  0.24225842  0.63079335  0.85606401  1
  C  C173  1  0.74864482  0.62872939  0.85831024  1
  C  C174  1  0.00909464  0.82874825  0.40795691  1
  C  C175  1  0.52048116  0.83976845  0.41095608  1
  C  C176  1  0.40370433  0.97121619  0.41017891  1
  C  C177  1  0.90015009  0.97227225  0.41332962  1
  C  C178  1  0.08217683  0.18123622  0.40805414  1
  C  C179  1  0.58575829  0.19301014  0.41210014  1
  C  C180  1  0.01506299  0.19830473  0.91260310  1
  C  C181  1  0.51897557  0.20184758  0.91508808  1
  C  C182  1  0.08214837  0.97248554  0.91371274  1
  C  C183  1  0.58552639  0.97321984  0.91610874  1
  C  C184  1  0.39978170  0.83655457  0.91429083  1
  C  C185  1  0.90102155  0.82958837  0.91533117  1
  C  C186  1  0.49555492  0.17112233  0.58614267  1
  C  C187  1  0.98246234  0.16196744  0.58945959  1
  C  C188  1  0.09124682  0.02698446  0.58636396  1
  C  C189  1  0.59858741  0.02499023  0.58713234  1
  C  C190  1  0.41932791  0.81768290  0.58658988  1
  C  C191  1  0.91397477  0.79975916  0.58584333  1
  C  C192  1  0.49635667  0.81735667  0.09147727  1
  C  C193  1  0.98923453  0.80842584  0.08725211  1
  C  C194  1  0.41394277  0.01912564  0.08893639  1
  C  C195  1  0.91427741  0.02784620  0.08640091  1
  C  C196  1  0.09592806  0.16798282  0.09121002  1
  C  C197  1  0.59983686  0.17069016  0.08820839  1
  C  C198  1  0.34020782  0.16406235  0.74831021  1
  C  C199  1  0.83611824  0.17045796  0.74333697  1
  C  C200  1  0.23336666  0.31738440  0.74820842  1
  C  C201  1  0.74614198  0.31898365  0.74206849  1
  C  C202  1  0.41720945  0.51463461  0.74956064  1
  C  C203  1  0.91021332  0.51150027  0.74221464  1
  C  C204  1  0.33879373  0.50171138  0.24034509  1
  C  C205  1  0.83763451  0.49922837  0.23980310  1
  C  C206  1  0.40806738  0.30928517  0.24125131  1
  C  C207  1  0.90729623  0.30928992  0.24038285  1
  C  C208  1  0.23411094  0.15322480  0.24697283  1
  C  C209  1  0.73587597  0.15505242  0.24674640  1
  C  C210  1  0.31484012  0.49813163  0.91736838  1
  C  C211  1  0.81706825  0.48764069  0.92289197  1
  C  C212  1  0.43364714  0.36938487  0.91807294  1
  C  C213  1  0.92704476  0.36478887  0.92330286  1
  C  C214  1  0.25124473  0.13908065  0.92010426  1
  C  C215  1  0.75717477  0.14592779  0.92357203  1
  C  C216  1  0.31866670  0.13930548  0.41423431  1
  C  C217  1  0.81563038  0.14308246  0.42252609  1
  C  C218  1  0.25253252  0.35853623  0.41597247  1
  C  C219  1  0.75625333  0.36150820  0.42530716  1
  C  C220  1  0.43475213  0.50213083  0.41847999  1
  C  C221  1  0.92375881  0.48424795  0.42017386  1
  C  C222  1  0.18103131  0.51210417  0.07965219  1
  C  C223  1  0.68411606  0.51175692  0.07693792  1
  C  C224  1  0.07477472  0.63791040  0.07502342  1
  C  C225  1  0.57893126  0.63978217  0.07782478  1
  C  C226  1  0.24276404  0.85026637  0.07941912  1
  C  C227  1  0.74498225  0.85740599  0.07739477  1
  C  C228  1  0.17441463  0.84972405  0.58112396  1
  C  C229  1  0.68446652  0.85533227  0.57641650  1
  C  C230  1  0.24780559  0.64616332  0.58219014  1
  C  C231  1  0.74530266  0.63564139  0.57577901  1
  C  C232  1  0.06615842  0.49704093  0.58068942  1
  C  C233  1  0.58090598  0.51967725  0.57642415  1
  C  C234  1  0.15691181  0.84517048  0.25246431  1
  C  C235  1  0.65875629  0.84672134  0.25237919  1
  C  C236  1  0.25318274  0.68988418  0.25713102  1
  C  C237  1  0.75293599  0.69026950  0.25841556  1
  C  C238  1  0.08653322  0.49963409  0.25757153  1
  C  C239  1  0.58827033  0.49924267  0.25962064  1
  C  C240  1  0.15464048  0.46759223  0.75391818  1
  C  C241  1  0.66074040  0.49539958  0.75804821  1
  C  C242  1  0.08809999  0.67615671  0.75885864  1
  C  C243  1  0.59059061  0.68741574  0.75874876  1
  C  C244  1  0.25290738  0.80774137  0.75921835  1
  C  C245  1  0.75502016  0.82573186  0.75839582  1
