# generated using pymatgen
data_CuNiC12
_symmetry_space_group_name_H-M   'P 1'
_cell_length_a   9.52361387
_cell_length_b   9.50722680
_cell_length_c   22.88028317
_cell_angle_alpha   89.72433421
_cell_angle_beta   90.07230484
_cell_angle_gamma   120.05039715
_symmetry_Int_Tables_number   1
_chemical_formula_structural   CuNiC12
_chemical_formula_sum   'Cu9 Ni9 C108'
_cell_volume   1793.17005661
_cell_formula_units_Z   9
loop_
 _symmetry_equiv_pos_site_id
 _symmetry_equiv_pos_as_xyz
  1  'x, y, z'
loop_
 _atom_site_type_symbol
 _atom_site_label
 _atom_site_symmetry_multiplicity
 _atom_site_fract_x
 _atom_site_fract_y
 _atom_site_fract_z
 _atom_site_occupancy
  C  C0  1  0.64377203  0.00098969  0.24689248  1
  C  C1  1  0.37535102  0.34391720  0.25806113  1
  C  C2  1  0.99401438  0.65917819  0.25085342  1
  C  C3  1  0.65044455  0.64056325  0.75472353  1
  C  C4  1  0.97860431  0.33673368  0.75608338  1
  C  C5  1  0.36245031  0.02547116  0.75724254  1
  C  C6  1  0.28987825  0.32974315  0.59202708  1
  C  C7  1  0.03242235  0.70727503  0.60068312  1
  C  C8  1  0.67095331  0.96123968  0.59323573  1
  C  C9  1  0.29409100  0.96018419  0.07492384  1
  C  C10  1  0.67040240  0.70638390  0.08696340  1
  C  C11  1  0.03524330  0.33153313  0.06779795  1
  C  C12  1  0.98378016  0.67651138  0.89953594  1
  C  C13  1  0.71761136  0.05652590  0.89618439  1
  C  C14  1  0.30832040  0.26993743  0.90005324  1
  C  C15  1  0.97018679  0.28081595  0.42008582  1
  C  C16  1  0.33943272  0.05901840  0.40543047  1
  C  C17  1  0.69266583  0.67750083  0.41068056  1
  C  C18  1  0.00029816  0.01832718  0.49356737  1
  C  C19  1  0.01397305  0.01235315  0.98159400  1
  C  C20  1  0.66806034  0.32301552  0.82442357  1
  C  C21  1  0.63899811  0.32112628  0.33278183  1
  C  C22  1  0.33869440  0.68006572  0.16931065  1
  C  C23  1  0.33984404  0.66471743  0.67957514  1
  C  C24  1  0.00244620  0.99915976  0.34666856  1
  C  C25  1  0.00231076  0.00161208  0.84347756  1
  C  C26  1  0.99985038  0.00603695  0.66768346  1
  C  C27  1  0.00051424  0.98785453  0.15955261  1
  C  C28  1  0.66440731  0.33100600  0.68586030  1
  C  C29  1  0.66023171  0.32920302  0.18417723  1
  C  C30  1  0.66703692  0.32503388  0.97382125  1
  C  C31  1  0.65715250  0.32932967  0.47722157  1
  C  C32  1  0.32747992  0.66747943  0.00935053  1
  C  C33  1  0.34194690  0.66708657  0.51457521  1
  C  C34  1  0.35375119  0.67655143  0.31880916  1
  C  C35  1  0.31950412  0.66735559  0.81667151  1
  Ni  Ni36  1  0.30804250  0.98848612  0.25151792  1
  Ni  Ni37  1  0.68774643  0.69017619  0.25146065  1
  Ni  Ni38  1  0.30984786  0.32122509  0.75044542  1
  Ni  Ni39  1  0.00124857  0.69037819  0.75041305  1
  Ni  Ni40  1  0.67995721  0.98806329  0.75105127  1
  Ni  Ni41  1  0.03574681  0.36774672  0.91950920  1
  Ni  Ni42  1  0.33241803  0.96512966  0.92013651  1
  Ni  Ni43  1  0.63911691  0.97322272  0.41959342  1
  Ni  Ni44  1  0.32908587  0.36806249  0.41865038  1
  Cu  Cu45  1  0.01206297  0.31676146  0.25020862  1
  Cu  Cu46  1  0.96715622  0.33192760  0.58012649  1
  Cu  Cu47  1  0.35658135  0.02932861  0.58099415  1
  Cu  Cu48  1  0.67338118  0.64011519  0.58074143  1
  Cu  Cu49  1  0.96748145  0.63426696  0.08523307  1
  Cu  Cu50  1  0.67290761  0.02996480  0.08511794  1
  Cu  Cu51  1  0.36272124  0.33573677  0.08525629  1
  Cu  Cu52  1  0.62799196  0.66760884  0.91845008  1
  Cu  Cu53  1  0.04430416  0.66508286  0.41519510  1
  C  C54  1  0.22971400  0.02963423  0.30687886  1
  C  C55  1  0.79901728  0.77663669  0.30775598  1
  C  C56  1  0.98587492  0.21536615  0.30271087  1
  C  C57  1  0.22469193  0.19505846  0.80391179  1
  C  C58  1  0.96539321  0.77088942  0.80589041  1
  C  C59  1  0.80219178  0.02482729  0.80514075  1
  C  C60  1  0.74370299  0.94373974  0.69091993  1
  C  C61  1  0.19997272  0.26068354  0.69050321  1
  C  C62  1  0.04759373  0.80317269  0.69155109  1
  C  C63  1  0.75048082  0.80207032  0.19229940  1
  C  C64  1  0.03683251  0.24093994  0.19788023  1
  C  C65  1  0.19711242  0.94665556  0.19249440  1
  C  C66  1  0.87748226  0.33624418  0.63169510  1
  C  C67  1  0.45485525  0.11325967  0.63272388  1
  C  C68  1  0.66637414  0.54367421  0.63231721  1
  C  C69  1  0.88720930  0.54440852  0.13984707  1
  C  C70  1  0.65992864  0.10803210  0.13939419  1
  C  C71  1  0.45288671  0.34266584  0.13931360  1
  C  C72  1  0.44718315  0.32286723  0.03321289  1
  C  C73  1  0.87032039  0.54629733  0.03373717  1
  C  C74  1  0.68024801  0.12733456  0.03357704  1
  C  C75  1  0.44023516  0.12009888  0.52679947  1
  C  C76  1  0.67986106  0.55825319  0.52623852  1
  C  C77  1  0.87832622  0.32532153  0.52536663  1
  C  C78  1  0.55854147  0.68136628  0.97473684  1
  C  C79  1  0.12736528  0.43929348  0.98134153  1
  C  C80  1  0.32677231  0.88486722  0.98361378  1
  C  C81  1  0.55317869  0.87325718  0.47779027  1
  C  C82  1  0.30592091  0.44201499  0.47846340  1
  C  C83  1  0.13290428  0.68014268  0.46925295  1
  C  C84  1  0.13846100  0.65685803  0.36291547  1
  C  C85  1  0.51116612  0.84790202  0.36241849  1
  C  C86  1  0.32743857  0.49274306  0.36284898  1
  C  C87  1  0.16312123  0.49477430  0.86699732  1
  C  C88  1  0.33488867  0.83821006  0.86791864  1
  C  C89  1  0.52231957  0.65875437  0.86826762  1
  C  C90  1  0.02250837  0.80806104  0.40995380  1
  C  C91  1  0.81647609  0.98938657  0.41308715  1
  C  C92  1  0.17525625  0.18523359  0.41179853  1
  C  C93  1  0.00546055  0.18431850  0.91332804  1
  C  C94  1  0.16782045  0.97615246  0.91412394  1
  C  C95  1  0.79223545  0.81098567  0.91317910  1
  C  C96  1  0.98481749  0.18354854  0.58117510  1
  C  C97  1  0.19370321  0.01783761  0.58283439  1
  C  C98  1  0.82152923  0.80572820  0.58183492  1
  C  C99  1  0.98260755  0.79949402  0.08551898  1
  C  C100  1  0.82465855  0.01888739  0.08579078  1
  C  C101  1  0.19463237  0.19056074  0.08726794  1
  C  C102  1  0.64198838  0.13664143  0.74590343  1
  C  C103  1  0.49575257  0.35830914  0.74474351  1
  C  C104  1  0.86096385  0.50153015  0.74465372  1
  C  C105  1  0.65535309  0.50498911  0.24719426  1
  C  C106  1  0.86999399  0.34095438  0.24373037  1
  C  C107  1  0.49760165  0.13365989  0.24649054  1
  C  C108  1  0.63686539  0.51571978  0.91733535  1
  C  C109  1  0.86800146  0.37514641  0.91146474  1
  C  C110  1  0.49847637  0.14088700  0.90954714  1
  C  C111  1  0.64204745  0.14475555  0.40915060  1
  C  C112  1  0.50403156  0.37570334  0.40956588  1
  C  C113  1  0.88355206  0.51246287  0.41391896  1
  C  C114  1  0.35218266  0.48833991  0.08436951  1
  C  C115  1  0.13369334  0.65290246  0.08447882  1
  C  C116  1  0.52791525  0.86124541  0.08380274  1
  C  C117  1  0.33274678  0.86049439  0.58077423  1
  C  C118  1  0.52392537  0.65611382  0.58233147  1
  C  C119  1  0.13145459  0.48268629  0.58132716  1
  C  C120  1  0.31026540  0.81100978  0.26321849  1
  C  C121  1  0.49757256  0.66887081  0.26170042  1
  C  C122  1  0.16109618  0.48251432  0.25661249  1
  C  C123  1  0.32520118  0.50208127  0.76537627  1
  C  C124  1  0.17329541  0.67996084  0.76286318  1
  C  C125  1  0.50082814  0.82039252  0.76614854  1
