# generated using pymatgen
data_Cu2NiC10
_symmetry_space_group_name_H-M   'P 1'
_cell_length_a   5.97811600
_cell_length_b   5.90225912
_cell_length_c   6.00518878
_cell_angle_alpha   58.21315276
_cell_angle_beta   60.14901937
_cell_angle_gamma   59.57393487
_symmetry_Int_Tables_number   1
_chemical_formula_structural   Cu2NiC10
_chemical_formula_sum   'Cu2 Ni1 C10'
_cell_volume   147.39152830
_cell_formula_units_Z   1
loop_
 _symmetry_equiv_pos_site_id
 _symmetry_equiv_pos_as_xyz
  1  'x, y, z'
loop_
 _atom_site_type_symbol
 _atom_site_label
 _atom_site_symmetry_multiplicity
 _atom_site_fract_x
 _atom_site_fract_y
 _atom_site_fract_z
 _atom_site_occupancy
  Ni  Ni0  1  0.50000000  0.50000000  0.00000000  1
  C  C1  1  0.11848000  0.13847900  0.12456100  1
  C  C2  1  0.88152000  0.86152100  0.87543900  1
  Cu  Cu3  1  0.00000000  0.50000000  0.50000000  1
  Cu  Cu4  1  0.50000000  0.50000000  0.50000000  1
  C  C5  1  0.22289000  0.27442800  0.25277000  1
  C  C6  1  0.24479600  0.26610000  0.74430600  1
  C  C7  1  0.25511900  0.73257400  0.25718700  1
  C  C8  1  0.25008700  0.72557200  0.74723000  1
  C  C9  1  0.74991300  0.27442800  0.25277000  1
  C  C10  1  0.74488000  0.26742600  0.74281300  1
  C  C11  1  0.75520400  0.73390000  0.25569400  1
  C  C12  1  0.77711000  0.72557200  0.74723000  1
