# generated using pymatgen
data_Cu5NiC29
_symmetry_space_group_name_H-M   'P 1'
_cell_length_a   8.87914192
_cell_length_b   8.87549755
_cell_length_c   22.96155992
_cell_angle_alpha   89.89098673
_cell_angle_beta   90.00944071
_cell_angle_gamma   120.01666455
_symmetry_Int_Tables_number   1
_chemical_formula_structural   Cu5NiC29
_chemical_formula_sum   'Cu15 Ni3 C87'
_cell_volume   1566.82974862
_cell_formula_units_Z   3
loop_
 _symmetry_equiv_pos_site_id
 _symmetry_equiv_pos_as_xyz
  1  'x, y, z'
loop_
 _atom_site_type_symbol
 _atom_site_label
 _atom_site_symmetry_multiplicity
 _atom_site_fract_x
 _atom_site_fract_y
 _atom_site_fract_z
 _atom_site_occupancy
  C  C0  1  0.00173251  0.00213082  0.00356781  1
  C  C1  1  0.66606671  0.33272144  0.84083108  1
  C  C2  1  0.66581108  0.33285253  0.34280501  1
  C  C3  1  0.66836450  0.33411071  0.97784180  1
  C  C4  1  0.66820832  0.33529957  0.47791929  1
  C  C5  1  0.99353216  0.99763157  0.35984277  1
  C  C6  1  0.99796325  0.99530230  0.85636014  1
  C  C7  1  0.00105966  0.99643552  0.64609574  1
  C  C8  1  0.99717971  0.00066600  0.15069150  1
  C  C9  1  0.66866078  0.33548828  0.68493550  1
  C  C10  1  0.66832518  0.33519746  0.18777195  1
  C  C11  1  0.33305756  0.66541251  0.02517015  1
  C  C12  1  0.33169318  0.66597668  0.52163660  1
  C  C13  1  0.33229251  0.66541536  0.30560071  1
  C  C14  1  0.33188139  0.66559668  0.80669815  1
  Ni  Ni15  1  0.71781694  0.71082685  0.25318002  1
  Ni  Ni16  1  0.99216328  0.28110496  0.25257414  1
  Ni  Ni17  1  0.99210074  0.70815500  0.75121588  1
  Cu  Cu18  1  0.28674984  0.00699327  0.25216271  1
  Cu  Cu19  1  0.28792200  0.28080860  0.75094065  1
  Cu  Cu20  1  0.71814846  0.00620081  0.75113511  1
  Cu  Cu21  1  0.95986499  0.33307643  0.58352190  1
  Cu  Cu22  1  0.37505391  0.04066167  0.58318916  1
  Cu  Cu23  1  0.66550363  0.62675654  0.58333439  1
  Cu  Cu24  1  0.95861164  0.62963441  0.08311106  1
  Cu  Cu25  1  0.67101901  0.04177554  0.08277737  1
  Cu  Cu26  1  0.37124532  0.32761080  0.08252397  1
  Cu  Cu27  1  0.61747524  0.67465494  0.91425450  1
  Cu  Cu28  1  0.05755846  0.38209287  0.91401031  1
  Cu  Cu29  1  0.32667453  0.94310760  0.91394549  1
  Cu  Cu30  1  0.61520766  0.94433043  0.41382035  1
  Cu  Cu31  1  0.32742595  0.38364972  0.41333878  1
  Cu  Cu32  1  0.05682876  0.67452783  0.41341206  1
  C  C33  1  0.20654226  0.04196347  0.30597610  1
  C  C34  1  0.84342133  0.79951542  0.30929883  1
  C  C35  1  0.96099111  0.15660483  0.30863765  1
  C  C36  1  0.20032139  0.16608699  0.80557026  1
  C  C37  1  0.96284354  0.80366727  0.80830926  1
  C  C38  1  0.83402583  0.03846502  0.80587265  1
  C  C39  1  0.80386191  0.97755890  0.69817094  1
  C  C40  1  0.17246651  0.19918076  0.69784536  1
  C  C41  1  0.02146500  0.83284044  0.69626161  1
  C  C42  1  0.81089175  0.83042607  0.19603267  1
  C  C43  1  0.02594721  0.19326784  0.19543710  1
  C  C44  1  0.17384919  0.97612342  0.19776529  1
  C  C45  1  0.86486965  0.36477222  0.63729712  1
  C  C46  1  0.49737403  0.13260414  0.63724595  1
  C  C47  1  0.63513006  0.50175091  0.63728439  1
  C  C48  1  0.86529273  0.50705997  0.13627248  1
  C  C49  1  0.64111716  0.13223469  0.13584063  1
  C  C50  1  0.49159132  0.35721899  0.13581862  1
  C  C51  1  0.43220103  0.28669832  0.02744396  1
  C  C52  1  0.85439821  0.57121982  0.02836825  1
  C  C53  1  0.71567023  0.14487782  0.02766056  1
  C  C54  1  0.43581692  0.14929508  0.52990649  1
  C  C55  1  0.71745329  0.56838975  0.53048217  1
  C  C56  1  0.85064090  0.28354887  0.53043914  1
  C  C57  1  0.52850240  0.69094541  0.97057007  1
  C  C58  1  0.16315623  0.47160399  0.97029349  1
  C  C59  1  0.30815135  0.83744424  0.97040406  1
  C  C60  1  0.52494395  0.83816478  0.47077489  1
  C  C61  1  0.31096594  0.47416614  0.47022697  1
  C  C62  1  0.16231020  0.68782471  0.47046912  1
  C  C63  1  0.15763466  0.66754208  0.36005061  1
  C  C64  1  0.50858048  0.84495231  0.36036010  1
  C  C65  1  0.33459872  0.49258213  0.35983251  1
  C  C66  1  0.16115576  0.48677368  0.85956347  1
  C  C67  1  0.32862486  0.84063968  0.85963457  1
  C  C68  1  0.51453165  0.67315533  0.85988121  1
  C  C69  1  0.05512484  0.84877023  0.40858568  1
  C  C70  1  0.79352014  0.94779926  0.40958014  1
  C  C71  1  0.15612396  0.20540146  0.40812578  1
  C  C72  1  0.04942004  0.20130128  0.90946693  1
  C  C73  1  0.15371619  0.95317691  0.90938152  1
  C  C74  1  0.79910981  0.85063523  0.91001709  1
  C  C75  1  0.99355304  0.18576482  0.60327700  1
  C  C76  1  0.19193131  0.00991007  0.60108212  1
  C  C77  1  0.81307065  0.81099826  0.60181938  1
  C  C78  1  0.00172435  0.81753498  0.09763593  1
  C  C79  1  0.81982190  0.00213500  0.09641277  1
  C  C80  1  0.18442132  0.17856256  0.09622684  1
  C  C81  1  0.69460791  0.16608620  0.74200531  1
  C  C82  1  0.46829240  0.29718988  0.74209094  1
  C  C83  1  0.82064186  0.51638561  0.74099337  1
  C  C84  1  0.69142389  0.51744962  0.23969255  1
  C  C85  1  0.82001652  0.29853659  0.23939723  1
  C  C86  1  0.46918494  0.16719176  0.24027894  1
  C  C87  1  0.64131891  0.51929515  0.91254621  1
  C  C88  1  0.88080226  0.36390534  0.91194209  1
  C  C89  1  0.48402741  0.12139212  0.91194954  1
  C  C90  1  0.63881342  0.12382551  0.41368881  1
  C  C91  1  0.48696316  0.36627099  0.41322803  1
  C  C92  1  0.87874906  0.51696042  0.41335147  1
  C  C93  1  0.35697498  0.49707241  0.07425913  1
  C  C94  1  0.13968084  0.63945340  0.07461154  1
  C  C95  1  0.50205315  0.85835558  0.07419461  1
  C  C96  1  0.35677221  0.85792681  0.57531804  1
  C  C97  1  0.49814855  0.63936317  0.57544345  1
  C  C98  1  0.14015426  0.50035959  0.57559514  1
  C  C99  1  0.30896926  0.84706468  0.25988181  1
  C  C100  1  0.52773196  0.69286728  0.26089415  1
  C  C101  1  0.15841341  0.47543249  0.26084480  1
  C  C102  1  0.31406088  0.46501636  0.76025210  1
  C  C103  1  0.16239177  0.68613913  0.76078676  1
  C  C104  1  0.53706579  0.84376470  0.76029421  1
