# generated using pymatgen
data_CuNiC18
_symmetry_space_group_name_H-M   'P 1'
_cell_length_a   10.30214520
_cell_length_b   5.94391077
_cell_length_c   8.70644197
_cell_angle_alpha   69.92408017
_cell_angle_beta   53.72856885
_cell_angle_gamma   90.01178223
_symmetry_Int_Tables_number   1
_chemical_formula_structural   CuNiC18
_chemical_formula_sum   'Cu1 Ni1 C18'
_cell_volume   388.89272933
_cell_formula_units_Z   1
loop_
 _symmetry_equiv_pos_site_id
 _symmetry_equiv_pos_as_xyz
  1  'x, y, z'
loop_
 _atom_site_type_symbol
 _atom_site_label
 _atom_site_symmetry_multiplicity
 _atom_site_fract_x
 _atom_site_fract_y
 _atom_site_fract_z
 _atom_site_occupancy
  Ni  Ni0  1  0.15628000  0.49943000  0.00130000  1
  C  C1  1  0.08308900  0.73929300  0.50029500  1
  C  C2  1  0.24726400  0.24945500  0.50267600  1
  C  C3  1  0.42163300  0.74571200  0.48955000  1
  C  C4  1  0.58190300  0.26012500  0.50175400  1
  C  C5  1  0.74852700  0.74949300  0.49999200  1
  C  C6  1  0.91045600  0.25312300  0.51315700  1
  Cu  Cu7  1  0.51432300  0.49933900  0.00133500  1
  C  C8  1  0.03030900  0.69728900  0.26944900  1
  C  C9  1  0.19263900  0.19555700  0.27226500  1
  C  C10  1  0.36369900  0.70133800  0.27127200  1
  C  C11  1  0.13592500  0.80091100  0.72666300  1
  C  C12  1  0.29846700  0.30132100  0.73327500  1
  C  C13  1  0.53094000  0.19263100  0.28068300  1
  C  C14  1  0.69814100  0.69697500  0.27319100  1
  C  C15  1  0.46381600  0.80354700  0.73020300  1
  C  C16  1  0.86116500  0.19779400  0.27606200  1
  C  C17  1  0.63397700  0.29783600  0.73087100  1
  C  C18  1  0.81060900  0.80625900  0.72155300  1
  C  C19  1  0.97005100  0.30185700  0.72952000  1
