# generated using pymatgen
data_Cu9Ni3C62
_symmetry_space_group_name_H-M   'P 1'
_cell_length_a   17.99514643
_cell_length_b   8.95457350
_cell_length_c   23.03870790
_cell_angle_alpha   89.88238974
_cell_angle_beta   89.88277174
_cell_angle_gamma   119.89281630
_symmetry_Int_Tables_number   1
_chemical_formula_structural   Cu9Ni3C62
_chemical_formula_sum   'Cu27 Ni9 C186'
_cell_volume   3218.49955685
_cell_formula_units_Z   3
loop_
 _symmetry_equiv_pos_site_id
 _symmetry_equiv_pos_as_xyz
  1  'x, y, z'
loop_
 _atom_site_type_symbol
 _atom_site_label
 _atom_site_symmetry_multiplicity
 _atom_site_fract_x
 _atom_site_fract_y
 _atom_site_fract_z
 _atom_site_occupancy
  C  C0  1  0.99630065  0.62835945  0.24977316  1
  C  C1  1  0.50019769  0.61571922  0.24273414  1
  C  C2  1  0.00123727  0.38208926  0.74179395  1
  C  C3  1  0.49686727  0.36751773  0.74872735  1
  C  C4  1  0.67577139  0.33054579  0.91327436  1
  C  C5  1  0.17311752  0.02555109  0.41724234  1
  C  C6  1  0.99244767  0.00052157  0.50553927  1
  C  C7  1  0.49960857  0.99924972  0.50048371  1
  C  C8  1  0.99672646  0.99287773  0.99319593  1
  C  C9  1  0.49245208  0.98618527  0.00133565  1
  C  C10  1  0.30719956  0.30035249  0.83497857  1
  C  C11  1  0.83924303  0.36303765  0.83768923  1
  C  C12  1  0.33629392  0.31372292  0.34013643  1
  C  C13  1  0.81643356  0.32780235  0.34393400  1
  C  C14  1  0.17877786  0.65665151  0.15953664  1
  C  C15  1  0.66471314  0.65987839  0.16039621  1
  C  C16  1  0.16366307  0.65413883  0.66839160  1
  C  C17  1  0.68131983  0.70508748  0.66239112  1
  C  C18  1  0.99303255  0.99980752  0.35654450  1
  C  C19  1  0.49329004  0.98581297  0.85566651  1
  C  C20  1  0.31699526  0.32474530  0.68393928  1
  C  C21  1  0.83368827  0.32629265  0.67696076  1
  C  C22  1  0.33268527  0.33894379  0.17723781  1
  C  C23  1  0.82479835  0.32031709  0.17977718  1
  C  C24  1  0.83935923  0.34081832  0.98771182  1
  C  C25  1  0.33970691  0.34017637  0.48867220  1
  C  C26  1  0.16981764  0.66515849  0.31281609  1
  C  C27  1  0.67648200  0.66341935  0.31563478  1
  C  C28  1  0.17554989  0.68498444  0.81268241  1
  C  C29  1  0.67141660  0.67613115  0.81244463  1
  C  C30  1  0.50283592  0.02126314  0.36418382  1
  C  C31  1  0.01043893  0.99393378  0.85963975  1
  C  C32  1  0.00412891  0.02552346  0.64756508  1
  C  C33  1  0.50824067  0.99978580  0.64488901  1
  C  C34  1  0.00870902  0.01729289  0.14392702  1
  C  C35  1  0.49585549  0.98232933  0.14247956  1
  C  C36  1  0.32363067  0.33534524  0.99031342  1
  C  C37  1  0.82352703  0.31284175  0.49196143  1
  C  C38  1  0.16182842  0.66298995  0.01338271  1
  C  C39  1  0.67068047  0.67430149  0.01386902  1
  C  C40  1  0.16977396  0.66636583  0.51656518  1
  C  C41  1  0.66545592  0.65828661  0.51659679  1
  Ni  Ni42  1  0.14123696  0.28473384  0.75396698  1
  Ni  Ni43  1  0.98575994  0.34179854  0.58364280  1
  Ni  Ni44  1  0.68273479  0.01729862  0.58549909  1
  Ni  Ni45  1  0.48678386  0.62452614  0.08412548  1
  Ni  Ni46  1  0.18410036  0.34994753  0.08547125  1
  Ni  Ni47  1  0.81701374  0.67236344  0.91415550  1
  Ni  Ni48  1  0.17548064  0.97212561  0.91788448  1
  Ni  Ni49  1  0.31243598  0.96064154  0.41546190  1
  Ni  Ni50  1  0.67549890  0.37748392  0.41816525  1
  Cu  Cu51  1  0.14354438  0.00116639  0.24806662  1
  Cu  Cu52  1  0.63590232  0.99978197  0.24994070  1
  Cu  Cu53  1  0.36335029  0.72552064  0.25076692  1
  Cu  Cu54  1  0.85700165  0.71437749  0.24368404  1
  Cu  Cu55  1  0.99920348  0.29118719  0.24447111  1
  Cu  Cu56  1  0.49862000  0.27558910  0.25113314  1
  Cu  Cu57  1  0.64402364  0.28665965  0.74800943  1
  Cu  Cu58  1  0.99728799  0.72027898  0.75039782  1
  Cu  Cu59  1  0.50056888  0.70805886  0.74439723  1
  Cu  Cu60  1  0.35908951  0.00070752  0.74323043  1
  Cu  Cu61  1  0.86158612  0.00089823  0.74989862  1
  Cu  Cu62  1  0.49186275  0.33431237  0.58752327  1
  Cu  Cu63  1  0.17301524  0.01362984  0.58060333  1
  Cu  Cu64  1  0.33444757  0.65407381  0.58393609  1
  Cu  Cu65  1  0.83097709  0.63248708  0.57951465  1
  Cu  Cu66  1  0.99231039  0.65015330  0.08771347  1
  Cu  Cu67  1  0.33167661  0.02675344  0.08144677  1
  Cu  Cu68  1  0.83397038  0.01436168  0.08459333  1
  Cu  Cu69  1  0.67337995  0.33153064  0.08193469  1
  Cu  Cu70  1  0.31142899  0.65719382  0.92296216  1
  Cu  Cu71  1  0.02222883  0.36968872  0.91515192  1
  Cu  Cu72  1  0.51654061  0.37803274  0.91992496  1
  Cu  Cu73  1  0.66639587  0.96364274  0.91996469  1
  Cu  Cu74  1  0.81110289  0.96622801  0.42278162  1
  Cu  Cu75  1  0.16701634  0.37050138  0.42012833  1
  Cu  Cu76  1  0.01664525  0.65500308  0.41935717  1
  Cu  Cu77  1  0.52200832  0.67588010  0.41336246  1
  C  C78  1  0.10329520  0.00588220  0.30333457  1
  C  C79  1  0.59078537  0.00606727  0.30241216  1
  C  C80  1  0.41307339  0.82212244  0.30151754  1
  C  C81  1  0.90124144  0.78998713  0.29872927  1
  C  C82  1  0.49961406  0.18392619  0.30572430  1
  C  C83  1  0.99548040  0.20194309  0.29827838  1
  C  C84  1  0.08245642  0.16170716  0.80924376  1
  C  C85  1  0.60415382  0.20123023  0.80353079  1
  C  C86  1  0.49633211  0.78956927  0.79806861  1
  C  C87  1  0.99505944  0.80612432  0.80586518  1
  C  C88  1  0.40294357  0.01230036  0.79835525  1
  C  C89  1  0.90844130  -0.00048540  0.80136671  1
  C  C90  1  0.41240831  0.99818752  0.69359399  1
  C  C91  1  0.90667998  0.99709638  0.69431562  1
  C  C92  1  0.08442578  0.17453406  0.69311392  1
  C  C93  1  0.58969399  0.17483188  0.69805904  1
  C  C94  1  0.99604004  0.81687296  0.69866824  1
  C  C95  1  0.50166637  0.81306613  0.69266849  1
  C  C96  1  0.40988130  0.82085813  0.19508619  1
  C  C97  1  0.91005725  0.81946517  0.19367880  1
  C  C98  1  -0.00002379  0.18917065  0.19285989  1
  C  C99  1  0.49961658  0.18020654  0.19920091  1
  C  C100  1  0.08920655  0.00433363  0.19801039  1
  C  C101  1  0.58721356  0.99525398  0.19556223  1
  C  C102  1  0.45534624  0.36350772  0.64017284  1
  C  C103  1  0.96391663  0.39090793  0.64533113  1
  C  C104  1  0.22892456  0.09041509  0.63056699  1
  C  C105  1  0.73522496  0.07628688  0.64350480  1
  C  C106  1  0.32004623  0.54755799  0.63523172  1
  C  C107  1  0.81019104  0.53437663  0.63351487  1
  C  C108  1  0.46418542  0.53838936  0.14721890  1
  C  C109  1  0.95569337  0.54783968  0.14100142  1
  C  C110  1  0.31396539  0.08757303  0.13555620  1
  C  C111  1  0.81852669  0.08971536  0.13637547  1
  C  C112  1  0.23578455  0.39271260  0.14390019  1
  C  C113  1  0.72838962  0.36439281  0.13251428  1
  C  C114  1  0.23219968  0.30605263  0.03191280  1
  C  C115  1  0.70672830  0.29293965  0.02937687  1
  C  C116  1  0.41286562  0.51649093  0.03484698  1
  C  C117  1  0.93707995  0.57598693  0.03736799  1
  C  C118  1  0.34831577  0.14462532  0.03212129  1
  C  C119  1  0.85152331  0.12080395  0.03282038  1
  C  C120  1  0.20716066  0.11831537  0.52749544  1
  C  C121  1  0.73077946  0.15719344  0.53159406  1
  C  C122  1  0.35215919  0.58566836  0.53145605  1
  C  C123  1  0.84170264  0.53855899  0.53006341  1
  C  C124  1  0.43804813  0.29905123  0.53629462  1
  C  C125  1  0.91165840  0.30927627  0.53399735  1
  C  C126  1  0.25872380  0.66717185  0.97114335  1
  C  C127  1  0.76026982  0.69060552  0.97204421  1
  C  C128  1  0.07629346  0.46970922  0.96716048  1
  C  C129  1  0.58091275  0.48642434  0.96561938  1
  C  C130  1  0.15804913  0.83214964  0.97226199  1
  C  C131  1  0.66365779  0.85774879  0.97126673  1
  C  C132  1  0.26087401  0.83169847  0.47235735  1
  C  C133  1  0.75805392  0.84856822  0.47029385  1
  C  C134  1  0.16472580  0.47084920  0.47081432  1
  C  C135  1  0.65651125  0.48086587  0.47139037  1
  C  C136  1  0.08065196  0.67545078  0.46463605  1
  C  C137  1  0.57557193  0.69017630  0.46456902  1
  C  C138  1  0.04589288  0.63304307  0.36135715  1
  C  C139  1  0.55854193  0.65643385  0.35865492  1
  C  C140  1  0.25346675  0.88372250  0.35971811  1
  C  C141  1  0.77019814  0.90555975  0.36624401  1
  C  C142  1  0.16893906  0.45436471  0.36534826  1
  C  C143  1  0.69532863  0.47570295  0.35813553  1
  C  C144  1  0.05978095  0.46449200  0.86145475  1
  C  C145  1  0.54611647  0.45949238  0.86231560  1
  C  C146  1  0.19770435  0.91301711  0.85931258  1
  C  C147  1  0.66790957  0.88235979  0.86573777  1
  C  C148  1  0.27074058  0.63692910  0.86675885  1
  C  C149  1  0.75115358  0.61918749  0.86139617  1
  C  C150  1  0.01580627  0.82173084  0.42102177  1
  C  C151  1  0.51818226  0.84136634  0.41112127  1
  C  C152  1  0.41009042  0.97516701  0.40780872  1
  C  C153  1  0.89614992  0.97898464  0.42561285  1
  C  C154  1  0.08906583  0.19499496  0.42372786  1
  C  C155  1  0.58341389  0.18386690  0.41105221  1
  C  C156  1  0.01964606  0.20077230  0.91655907  1
  C  C157  1  0.51636086  0.21028368  0.92198580  1
  C  C158  1  0.08525577  0.98327719  0.91251993  1
  C  C159  1  0.58850623  0.98245686  0.92407641  1
  C  C160  1  0.39667022  0.81420193  0.92625221  1
  C  C161  1  0.91060976  0.85137150  0.90767646  1
  C  C162  1  0.50505844  0.18128691  0.59488002  1
  C  C163  1  0.99292558  0.16087800  0.59033604  1
  C  C164  1  0.08528975  0.98897566  0.59167212  1
  C  C165  1  0.58565588  0.00310493  0.59350378  1
  C  C166  1  0.41058511  0.83214831  0.59291758  1
  C  C167  1  0.90879947  0.80398298  0.58371822  1
  C  C168  1  0.49386050  0.82486280  0.09327955  1
  C  C169  1  0.00459910  0.82851439  0.09541879  1
  C  C170  1  0.41176352  0.01015493  0.08850324  1
  C  C171  1  0.91064363  0.99085023  0.09395164  1
  C  C172  1  0.08657092  0.16903037  0.09417757  1
  C  C173  1  0.58567196  0.17819688  0.09393999  1
  C  C174  1  0.35431971  0.16112770  0.73952839  1
  C  C175  1  0.85811176  0.16370862  0.74999230  1
  C  C176  1  0.23212753  0.29460120  0.75519076  1
  C  C177  1  0.73070507  0.31461825  0.74412678  1
  C  C178  1  0.42557606  0.53357344  0.74088742  1
  C  C179  1  0.92057508  0.54445852  0.75191795  1
  C  C180  1  0.35947987  0.55614732  0.25063296  1
  C  C181  1  0.84938919  0.54045879  0.24109460  1
  C  C182  1  0.42080943  0.29297188  0.25344447  1
  C  C183  1  0.92304601  0.31390599  0.24171354  1
  C  C184  1  0.23029391  0.14715771  0.24439397  1
  C  C185  1  0.72223905  0.15224614  0.24813608  1
  C  C186  1  0.32177950  0.50261368  0.93183953  1
  C  C187  1  0.82680475  0.50491796  0.92567453  1
  C  C188  1  0.43154584  0.35444081  0.93229723  1
  C  C189  1  0.93586223  0.34409557  0.92288824  1
  C  C190  1  0.25587042  0.16189518  0.93748695  1
  C  C191  1  0.74261070  0.13697219  0.92370441  1
  C  C192  1  0.32634513  0.15083071  0.42499508  1
  C  C193  1  0.82143391  0.14103942  0.43133790  1
  C  C194  1  0.24312242  0.34861262  0.42346197  1
  C  C195  1  0.75440140  0.34446901  0.43512378  1
  C  C196  1  0.43444874  0.53085769  0.42036948  1
  C  C197  1  0.93096726  0.50760159  0.43072588  1
  C  C198  1  0.16323974  0.50088227  0.06615052  1
  C  C199  1  0.66194509  0.48423920  0.07343870  1
  C  C200  1  0.07872541  0.66984773  0.07787639  1
  C  C201  1  0.58291875  0.66849219  0.06336621  1
  C  C202  1  0.25918027  0.84967045  0.06980937  1
  C  C203  1  0.75677962  0.83932846  0.07697197  1
  C  C204  1  0.16226035  0.83759819  0.57188916  1
  C  C205  1  0.66306670  0.82553095  0.56461066  1
  C  C206  1  0.25633570  0.67227908  0.57662111  1
  C  C207  1  0.75595154  0.66182070  0.56759931  1
  C  C208  1  0.08123198  0.49528157  0.56073454  1
  C  C209  1  0.57881527  0.48841394  0.57732188  1
  C  C210  1  0.14067788  0.83240202  0.24205450  1
  C  C211  1  0.64048508  0.83844301  0.24835424  1
  C  C212  1  0.27819165  0.70797610  0.24701456  1
  C  C213  1  0.77231493  0.70177902  0.24040726  1
  C  C214  1  0.07711371  0.46403983  0.24080616  1
  C  C215  1  0.57549549  0.45123760  0.24980924  1
  C  C216  1  0.13995302  0.46250287  0.74817977  1
  C  C217  1  0.64070062  0.44927719  0.74210613  1
  C  C218  1  0.07539893  0.70481023  0.74900781  1
  C  C219  1  0.57943959  0.69464462  0.74099651  1
  C  C220  1  0.27432985  0.84626975  0.73972076  1
  C  C221  1  0.77498127  0.84939893  0.74605681  1
