# generated using pymatgen
data_Cu2Ni2C7
_symmetry_space_group_name_H-M   'P 1'
_cell_length_a   5.88558814
_cell_length_b   5.88558779
_cell_length_c   5.88558719
_cell_angle_alpha   52.43677688
_cell_angle_beta   52.43677562
_cell_angle_gamma   52.43677417
_symmetry_Int_Tables_number   1
_chemical_formula_structural   Cu2Ni2C7
_chemical_formula_sum   'Cu2 Ni2 C7'
_cell_volume   118.56160569
_cell_formula_units_Z   1
loop_
 _symmetry_equiv_pos_site_id
 _symmetry_equiv_pos_as_xyz
  1  'x, y, z'
loop_
 _atom_site_type_symbol
 _atom_site_label
 _atom_site_symmetry_multiplicity
 _atom_site_fract_x
 _atom_site_fract_y
 _atom_site_fract_z
 _atom_site_occupancy
  C  C0  1  0.00000000  0.00000000  0.00000000  1
  Ni  Ni1  1  0.35208500  0.35208500  0.35208500  1
  Ni  Ni2  1  0.64791500  0.64791500  0.64791500  1
  Cu  Cu3  1  0.17131100  0.17131100  0.17131100  1
  Cu  Cu4  1  0.82868900  0.82868900  0.82868900  1
  C  C5  1  0.05083500  0.75807100  0.41854800  1
  C  C6  1  0.41854800  0.05083500  0.75807100  1
  C  C7  1  0.75807100  0.41854800  0.05083500  1
  C  C8  1  0.24192900  0.58145200  0.94916500  1
  C  C9  1  0.58145200  0.94916500  0.24192900  1
  C  C10  1  0.94916500  0.24192900  0.58145200  1
