# generated using pymatgen
data_Cu2Ni2C9
_symmetry_space_group_name_H-M   'P 1'
_cell_length_a   3.33235900
_cell_length_b   3.33250902
_cell_length_c   38.09596200
_cell_angle_alpha   90.00104937
_cell_angle_beta   89.99996023
_cell_angle_gamma   120.00082423
_symmetry_Int_Tables_number   1
_chemical_formula_structural   Cu2Ni2C9
_chemical_formula_sum   'Cu2 Ni2 C9'
_cell_volume   366.37774504
_cell_formula_units_Z   1
loop_
 _symmetry_equiv_pos_site_id
 _symmetry_equiv_pos_as_xyz
  1  'x, y, z'
loop_
 _atom_site_type_symbol
 _atom_site_label
 _atom_site_symmetry_multiplicity
 _atom_site_fract_x
 _atom_site_fract_y
 _atom_site_fract_z
 _atom_site_occupancy
  C  C0  1  0.64746800  0.21957500  0.88202400  1
  C  C1  1  0.33337100  0.66673900  0.70740500  1
  C  C2  1  0.33335300  0.66670200  0.60772900  1
  Ni  Ni3  1  0.33338200  0.66666000  0.09386000  1
  Ni  Ni4  1  0.66669000  0.33338200  0.65759600  1
  Cu  Cu5  1  0.33331200  0.66662100  0.46961900  1
  Cu  Cu6  1  0.66668200  0.33336300  0.28181600  1
  C  C7  1  0.33336500  0.66672700  0.32587400  1
  C  C8  1  0.66660700  0.33326600  0.05007200  1
  C  C9  1  0.66661300  0.33327800  0.13769100  1
  C  C10  1  0.33336300  0.66672100  0.23778300  1
  C  C11  1  0.66664700  0.33328600  0.42960700  1
  C  C12  1  0.66665200  0.33329400  0.50967200  1
