# generated using pymatgen
data_Cu4NiC14
_symmetry_space_group_name_H-M   'P 1'
_cell_length_a   6.22729797
_cell_length_b   6.48597323
_cell_length_c   8.61301899
_cell_angle_alpha   113.06997659
_cell_angle_beta   112.22428299
_cell_angle_gamma   87.50578584
_symmetry_Int_Tables_number   1
_chemical_formula_structural   Cu4NiC14
_chemical_formula_sum   'Cu4 Ni1 C14'
_cell_volume   294.03533874
_cell_formula_units_Z   1
loop_
 _symmetry_equiv_pos_site_id
 _symmetry_equiv_pos_as_xyz
  1  'x, y, z'
loop_
 _atom_site_type_symbol
 _atom_site_label
 _atom_site_symmetry_multiplicity
 _atom_site_fract_x
 _atom_site_fract_y
 _atom_site_fract_z
 _atom_site_occupancy
  C  C0  1  0.57327600  0.13933400  0.24255300  1
  C  C1  1  0.41515700  0.90622200  0.80540100  1
  C  C2  1  0.11021700  0.60068500  0.19452100  1
  C  C3  1  0.83063200  0.39777100  0.75729400  1
  Ni  Ni4  1  0.10910900  0.49499200  0.50000400  1
  Cu  Cu5  1  0.94773400  0.01353200  0.00491300  1
  Cu  Cu6  1  0.44307600  0.50759500  0.99502400  1
  Cu  Cu7  1  0.22314600  0.10809300  0.49992100  1
  Cu  Cu8  1  0.78541600  0.79831600  0.50002500  1
  C  C9  1  0.27038900  0.28114000  0.96812400  1
  C  C10  1  0.28723300  0.74225600  0.00408700  1
  C  C11  1  0.78228000  0.23895300  0.99585300  1
  C  C12  1  0.80281800  0.81372500  0.03213000  1
  C  C13  1  0.14254200  0.20707600  0.30645200  1
  C  C14  1  0.86088300  0.84509200  0.73775700  1
  C  C15  1  0.62338600  0.60704700  0.26253900  1
  C  C16  1  0.33599200  0.40029700  0.69350500  1
  C  C17  1  0.93768300  0.04624500  0.50000100  1
  C  C18  1  0.45119600  0.94537800  0.49989400  1
