# generated using pymatgen
data_Cu(NiC6)2
_symmetry_space_group_name_H-M   'P 1'
_cell_length_a   3.91777539
_cell_length_b   4.12899752
_cell_length_c   14.29728473
_cell_angle_alpha   90.00000000
_cell_angle_beta   90.00000000
_cell_angle_gamma   90.00000000
_symmetry_Int_Tables_number   1
_chemical_formula_structural   Cu(NiC6)2
_chemical_formula_sum   'Cu1 Ni2 C12'
_cell_volume   231.27981011
_cell_formula_units_Z   1
loop_
 _symmetry_equiv_pos_site_id
 _symmetry_equiv_pos_as_xyz
  1  'x, y, z'
loop_
 _atom_site_type_symbol
 _atom_site_label
 _atom_site_symmetry_multiplicity
 _atom_site_fract_x
 _atom_site_fract_y
 _atom_site_fract_z
 _atom_site_occupancy
  Ni  Ni0  1  0.50000000  0.50000000  0.07214712  1
  Ni  Ni1  1  0.50000000  0.50000000  0.80587457  1
  Cu  Cu2  1  0.50000000  0.50000000  0.52173800  1
  C  C3  1  0.50000000  0.00000000  0.27398974  1
  C  C4  1  0.00000000  0.00000000  0.40162531  1
  C  C5  1  0.00000000  0.00000000  0.93653862  1
  C  C6  1  0.00000000  0.00000000  0.65594804  1
  C  C7  1  0.00000000  0.50000000  0.44155127  1
  C  C8  1  0.50000000  0.00000000  0.41010333  1
  C  C9  1  0.50000000  0.00000000  0.96884349  1
  C  C10  1  0.00000000  0.00000000  0.23630414  1
  C  C11  1  0.00000000  0.50000000  0.63776222  1
  C  C12  1  0.50000000  0.00000000  0.60972618  1
  C  C13  1  0.00000000  0.00000000  0.78735151  1
  C  C14  1  0.00000000  0.50000000  0.95716347  1
