# generated using pymatgen
data_Cu2Ni6C5
_symmetry_space_group_name_H-M   'P 1'
_cell_length_a   5.20933183
_cell_length_b   5.80725914
_cell_length_c   5.80318350
_cell_angle_alpha   118.99173275
_cell_angle_beta   100.29690101
_cell_angle_gamma   79.66545480
_symmetry_Int_Tables_number   1
_chemical_formula_structural   Cu2Ni6C5
_chemical_formula_sum   'Cu2 Ni6 C5'
_cell_volume   150.20511387
_cell_formula_units_Z   1
loop_
 _symmetry_equiv_pos_site_id
 _symmetry_equiv_pos_as_xyz
  1  'x, y, z'
loop_
 _atom_site_type_symbol
 _atom_site_label
 _atom_site_symmetry_multiplicity
 _atom_site_fract_x
 _atom_site_fract_y
 _atom_site_fract_z
 _atom_site_occupancy
  C  C0  1  0.51481601  0.23212696  0.24711241  1
  C  C1  1  0.42085187  0.95844148  0.52056838  1
  C  C2  1  0.53246217  0.51269802  0.96600943  1
  C  C3  1  0.00088038  0.49719484  0.48851862  1
  C  C4  1  0.00131336  0.99021923  0.98169891  1
  Ni  Ni5  1  0.89334845  0.15144899  0.32810200  1
  Ni  Ni6  1  0.63601407  0.13424285  0.87465988  1
  Ni  Ni7  1  0.63531474  0.60424406  0.34489243  1
  Ni  Ni8  1  0.35504081  0.34103543  0.60015422  1
  Ni  Ni9  1  0.35573492  0.87887902  0.13743804  1
  Ni  Ni10  1  0.13377528  0.83261796  0.64574364  1
  Cu  Cu11  1  0.83854235  0.62616707  0.85429628  1
  Cu  Cu12  1  0.16801658  0.35973208  0.11794875  1
