# generated using pymatgen
data_Cu3NiC
_symmetry_space_group_name_H-M   'P 1'
_cell_length_a   4.79284013
_cell_length_b   4.79284013
_cell_length_c   4.79284006
_cell_angle_alpha   87.55841250
_cell_angle_beta   87.55841250
_cell_angle_gamma   87.55841522
_symmetry_Int_Tables_number   1
_chemical_formula_structural   Cu3NiC
_chemical_formula_sum   'Cu3 Ni1 C1'
_cell_volume   109.80625839
_cell_formula_units_Z   1
loop_
 _symmetry_equiv_pos_site_id
 _symmetry_equiv_pos_as_xyz
  1  'x, y, z'
loop_
 _atom_site_type_symbol
 _atom_site_label
 _atom_site_symmetry_multiplicity
 _atom_site_fract_x
 _atom_site_fract_y
 _atom_site_fract_z
 _atom_site_occupancy
  C  C0  1  0.99830300  0.99830300  0.99830300  1
  Ni  Ni1  1  0.46665800  0.46665800  0.46665800  1
  Cu  Cu2  1  0.52273400  0.11864100  0.52273400  1
  Cu  Cu3  1  0.52273400  0.52273400  0.11864100  1
  Cu  Cu4  1  0.11864100  0.52273400  0.52273400  1
