# generated using pymatgen
data_Cu2(NiC12)3
_symmetry_space_group_name_H-M   'P 1'
_cell_length_a   9.24925543
_cell_length_b   9.25878334
_cell_length_c   22.85577821
_cell_angle_alpha   89.98525942
_cell_angle_beta   89.74744223
_cell_angle_gamma   120.00521828
_symmetry_Int_Tables_number   1
_chemical_formula_structural   Cu2(NiC12)3
_chemical_formula_sum   'Cu6 Ni9 C108'
_cell_volume   1694.95638295
_cell_formula_units_Z   3
loop_
 _symmetry_equiv_pos_site_id
 _symmetry_equiv_pos_as_xyz
  1  'x, y, z'
loop_
 _atom_site_type_symbol
 _atom_site_label
 _atom_site_symmetry_multiplicity
 _atom_site_fract_x
 _atom_site_fract_y
 _atom_site_fract_z
 _atom_site_occupancy
  C  C0  1  0.63288144  0.00427099  0.25458812  1
  C  C1  1  0.36664604  0.37127883  0.24609788  1
  C  C2  1  0.00016517  0.62001683  0.25014580  1
  C  C3  1  0.63410905  0.63743686  0.74791983  1
  C  C4  1  0.99257198  0.36194001  0.74664392  1
  C  C5  1  0.37625092  0.00238683  0.74472651  1
  C  C6  1  0.03386695  0.69389122  0.58142618  1
  C  C7  1  0.66356703  0.97163000  0.58123513  1
  C  C8  1  0.66590772  0.68762237  0.08155057  1
  C  C9  1  0.03053518  0.33898175  0.08709508  1
  C  C10  1  0.95835148  0.66410012  0.92212859  1
  C  C11  1  0.69987464  0.02922907  0.91770965  1
  C  C12  1  0.34107653  0.30504875  0.92036420  1
  C  C13  1  0.96456699  0.30405739  0.41693898  1
  C  C14  1  0.33598982  0.02707566  0.42025436  1
  C  C15  1  0.99902990  0.00010950  0.50012324  1
  C  C16  1  0.00988460  0.99481970  0.00392036  1
  C  C17  1  0.66634135  0.33322514  0.83334354  1
  C  C18  1  0.67711089  0.34222041  0.33787380  1
  C  C19  1  0.32327888  0.66464020  0.16357352  1
  C  C20  1  0.33440861  0.66139039  0.66131349  1
  C  C21  1  0.99597217  0.99920301  0.85190837  1
  C  C22  1  0.66796393  0.33084523  0.67706542  1
  C  C23  1  0.66892749  0.33435099  0.18109445  1
  C  C24  1  0.66363388  0.33629446  0.98934087  1
  C  C25  1  0.32984930  0.66358888  0.31970276  1
  C  C26  1  0.33844471  0.66887678  0.81409143  1
  Ni  Ni27  1  0.99921976  0.28676185  0.25109322  1
  Ni  Ni28  1  0.70597624  0.00244625  0.74738373  1
  Ni  Ni29  1  0.97393890  0.33601989  0.58129317  1
  Ni  Ni30  1  0.36321577  0.02974384  0.58187849  1
  Ni  Ni31  1  0.97870802  0.64569581  0.08372736  1
  Ni  Ni32  1  0.35672029  0.33360280  0.08333006  1
  Ni  Ni33  1  0.62958516  0.66419396  0.91801323  1
  Ni  Ni34  1  0.63301696  0.96786735  0.41772730  1
  Ni  Ni35  1  0.02687529  0.66490825  0.41756955  1
  Cu  Cu36  1  0.99162144  0.99463064  0.35536763  1
  Cu  Cu37  1  0.00376273  0.00634103  0.64495175  1
  Cu  Cu38  1  0.00716250  0.00304223  0.14782534  1
  Cu  Cu39  1  0.66516901  0.33161232  0.48469508  1
  Cu  Cu40  1  0.33502279  0.66962149  0.01905634  1
  Cu  Cu41  1  0.33331780  0.66811628  0.51461503  1
  C  C42  1  0.28469518  0.99961613  0.25228090  1
  C  C43  1  0.71523242  0.71440933  0.24946913  1
  C  C44  1  0.29335823  0.29298946  0.74872100  1
  C  C45  1  0.99843854  0.70697046  0.74716923  1
  C  C46  1  0.66407276  0.63263017  0.58266543  1
  C  C47  1  0.66623483  0.02427692  0.08436591  1
  C  C48  1  0.03915261  0.37306044  0.91833647  1
  C  C49  1  0.33559433  0.96086934  0.91754814  1
  C  C50  1  0.33660567  0.36801084  0.41701212  1
  C  C51  1  0.20334085  0.02315530  0.30888315  1
  C  C52  1  0.82806349  0.79747584  0.30352437  1
  C  C53  1  0.97631686  0.17348400  0.31024345  1
  C  C54  1  0.22218786  0.19550822  0.80612683  1
  C  C55  1  0.98273923  0.78826578  0.80368422  1
  C  C56  1  0.81039221  0.02734697  0.80739270  1
  C  C57  1  0.80110417  0.97354828  0.69006832  1
  C  C58  1  0.17864998  0.19785046  0.69590115  1
  C  C59  1  0.02309222  0.81888099  0.69212250  1
  C  C60  1  0.79615053  0.81854373  0.19279499  1
  C  C61  1  0.02139162  0.19672533  0.19208424  1
  C  C62  1  0.17240419  0.97000986  0.19812143  1
  C  C63  1  0.90530927  0.37922547  0.64056888  1
  C  C64  1  0.47242025  0.10228387  0.64074528  1
  C  C65  1  0.63785143  0.54076138  0.64085115  1
  C  C66  1  0.89940565  0.52380586  0.14085006  1
  C  C67  1  0.64129967  0.10420937  0.13940312  1
  C  C68  1  0.47426184  0.36916587  0.14072136  1
  C  C69  1  0.43417510  0.30547868  0.02376291  1
  C  C70  1  0.86226031  0.56646333  0.02610228  1
  C  C71  1  0.69893203  0.13230759  0.02943066  1
  C  C72  1  0.45198066  0.15066769  0.52449040  1
  C  C73  1  0.69732819  0.54139775  0.53168515  1
  C  C74  1  0.84367956  0.29872748  0.52623459  1
  C  C75  1  0.53487332  0.69298233  0.97532587  1
  C  C76  1  0.14841972  0.46460704  0.97305970  1
  C  C77  1  0.30751233  0.84215402  0.97031497  1
  C  C78  1  0.54380206  0.84896139  0.47534797  1
  C  C79  1  0.30119869  0.45678925  0.46818957  1
  C  C80  1  0.15504179  0.70339168  0.47326151  1
  C  C81  1  0.09821403  0.62194793  0.35881964  1
  C  C82  1  0.52432314  0.89383961  0.35857577  1
  C  C83  1  0.36346321  0.46231127  0.35918208  1
  C  C84  1  0.11415046  0.47436938  0.86196889  1
  C  C85  1  0.35267519  0.88418084  0.86006077  1
  C  C86  1  0.52363431  0.64012020  0.85856874  1
  C  C87  1  0.02776360  0.84477264  0.41229557  1
  C  C88  1  0.82634768  0.99949469  0.41503189  1
  C  C89  1  0.17505470  0.19008666  0.41416065  1
  C  C90  1  0.03302705  0.20245880  0.91754766  1
  C  C91  1  0.17984714  0.98213128  0.91742413  1
  C  C92  1  0.81514624  0.83277501  0.91932395  1
  C  C93  1  0.97473180  0.15747143  0.58561366  1
  C  C94  1  0.16906122  0.99571402  0.58700870  1
  C  C95  1  0.82807783  0.80890613  0.58495696  1
  C  C96  1  0.98072892  0.82403146  0.09111469  1
  C  C97  1  0.82381899  0.00375209  0.08994587  1
  C  C98  1  0.16423141  0.17394535  0.08827867  1
  C  C99  1  0.68777095  0.16994479  0.74531144  1
  C  C100  1  0.47105115  0.31879848  0.74304639  1
  C  C101  1  0.83717946  0.53509030  0.74421994  1
  C  C102  1  0.69507233  0.53821498  0.24674072  1
  C  C103  1  0.82981461  0.30231950  0.25019699  1
  C  C104  1  0.45741763  0.15928672  0.24731207  1
  C  C105  1  0.64863014  0.49735314  0.91980424  1
  C  C106  1  0.86088712  0.34579389  0.92333741  1
  C  C107  1  0.49709018  0.13126401  0.92261682  1
  C  C108  1  0.64735162  0.15449791  0.42398324  1
  C  C109  1  0.48899829  0.34258182  0.42590851  1
  C  C110  1  0.84250703  0.49671083  0.42699839  1
  C  C111  1  0.34168233  0.50559478  0.07869693  1
  C  C112  1  0.16203820  0.65850146  0.07648634  1
  C  C113  1  0.51150257  0.84552591  0.07895512  1
  C  C114  1  0.34987840  0.84420668  0.57529708  1
  C  C115  1  0.51288932  0.65987753  0.57344837  1
  C  C116  1  0.15805891  0.50415759  0.57187979  1
  C  C117  1  0.30500542  0.84352996  0.25449958  1
  C  C118  1  0.54221948  0.70102332  0.25378957  1
  C  C119  1  0.16877034  0.47169050  0.25101057  1
  C  C120  1  0.30002226  0.46388688  0.74905128  1
  C  C121  1  0.15443792  0.68611906  0.74822158  1
  C  C122  1  0.52057151  0.83354497  0.74641191  1
