# generated using pymatgen
data_Cu6NiC12
_symmetry_space_group_name_H-M   'P 1'
_cell_length_a   8.10236965
_cell_length_b   5.76111093
_cell_length_c   6.01803923
_cell_angle_alpha   67.65302479
_cell_angle_beta   64.44028595
_cell_angle_gamma   68.47651988
_symmetry_Int_Tables_number   1
_chemical_formula_structural   Cu6NiC12
_chemical_formula_sum   'Cu6 Ni1 C12'
_cell_volume   227.35876667
_cell_formula_units_Z   1
loop_
 _symmetry_equiv_pos_site_id
 _symmetry_equiv_pos_as_xyz
  1  'x, y, z'
loop_
 _atom_site_type_symbol
 _atom_site_label
 _atom_site_symmetry_multiplicity
 _atom_site_fract_x
 _atom_site_fract_y
 _atom_site_fract_z
 _atom_site_occupancy
  Ni  Ni0  1  0.82881500  0.67804200  0.18187100  1
  Cu  Cu1  1  0.85047400  0.69944200  0.69446600  1
  Cu  Cu2  1  0.65722600  0.29961700  0.34658500  1
  Cu  Cu3  1  0.31181100  0.65269500  0.67828600  1
  Cu  Cu4  1  0.16322700  0.29592700  0.33205300  1
  Cu  Cu5  1  0.48107600  0.98455300  0.00254500  1
  Cu  Cu6  1  0.02038300  0.07300300  0.96726700  1
  C  C7  1  0.66610900  0.02643400  0.65424100  1
  C  C8  1  0.32669300  0.34504700  0.97278800  1
  C  C9  1  0.93538600  0.28075600  0.21453900  1
  C  C10  1  0.02716100  0.79807900  0.82656900  1
  C  C11  1  0.31973100  0.94087200  0.36542400  1
  C  C12  1  0.66064500  0.63072600  0.04540700  1
  C  C13  1  0.00177600  0.34930600  0.67751900  1
  C  C14  1  0.30464900  0.88835900  0.89012800  1
  C  C15  1  0.62803600  0.58832500  0.52959700  1
  C  C16  1  0.70826900  0.05430300  0.12729900  1
  C  C17  1  0.37914000  0.39931100  0.45223900  1
  C  C18  1  0.99725200  0.74139200  0.30308700  1
