# generated using pymatgen
data_Cu6NiC12
_symmetry_space_group_name_H-M   'P 1'
_cell_length_a   5.10481774
_cell_length_b   7.59682888
_cell_length_c   5.70673430
_cell_angle_alpha   98.41046479
_cell_angle_beta   95.74336743
_cell_angle_gamma   86.99786979
_symmetry_Int_Tables_number   1
_chemical_formula_structural   Cu6NiC12
_chemical_formula_sum   'Cu6 Ni1 C12'
_cell_volume   217.67039662
_cell_formula_units_Z   1
loop_
 _symmetry_equiv_pos_site_id
 _symmetry_equiv_pos_as_xyz
  1  'x, y, z'
loop_
 _atom_site_type_symbol
 _atom_site_label
 _atom_site_symmetry_multiplicity
 _atom_site_fract_x
 _atom_site_fract_y
 _atom_site_fract_z
 _atom_site_occupancy
  Ni  Ni0  1  0.00252100  0.50011400  0.99290500  1
  Cu  Cu1  1  0.54323100  0.70366600  0.12228900  1
  Cu  Cu2  1  0.45795100  0.98848900  0.52963200  1
  Cu  Cu3  1  0.47162100  0.31518000  0.88434500  1
  Cu  Cu4  1  0.98435100  0.69214500  0.63544700  1
  Cu  Cu5  1  0.00214100  0.31962800  0.37758800  1
  Cu  Cu6  1  0.01478300  0.00453900  0.99119800  1
  C  C7  1  0.86328600  0.45300400  0.64250200  1
  C  C8  1  0.84964700  0.75949300  0.96338400  1
  C  C9  1  0.67597400  0.09606200  0.80949500  1
  C  C10  1  0.67763300  0.78061600  0.45670900  1
  C  C11  1  0.69319900  0.44042100  0.14467300  1
  C  C12  1  0.32923600  0.56257800  0.86679900  1
  C  C13  1  0.30619200  0.22753400  0.56223300  1
  C  C14  1  0.31526400  0.91526800  0.20689600  1
  C  C15  1  0.16077300  0.25281500  0.05628500  1
  C  C16  1  0.18386500  0.90168300  0.70499000  1
  C  C17  1  0.82140300  0.09700300  0.29413900  1
  C  C18  1  0.16081800  0.57011600  0.34182300  1
