# generated using pymatgen
data_Cu2Ni4C9
_symmetry_space_group_name_H-M   'P 1'
_cell_length_a   6.06240859
_cell_length_b   6.06250550
_cell_length_c   6.21610940
_cell_angle_alpha   91.22544604
_cell_angle_beta   118.49007877
_cell_angle_gamma   119.27594709
_symmetry_Int_Tables_number   1
_chemical_formula_structural   Cu2Ni4C9
_chemical_formula_sum   'Cu2 Ni4 C9'
_cell_volume   165.20470800
_cell_formula_units_Z   1
loop_
 _symmetry_equiv_pos_site_id
 _symmetry_equiv_pos_as_xyz
  1  'x, y, z'
loop_
 _atom_site_type_symbol
 _atom_site_label
 _atom_site_symmetry_multiplicity
 _atom_site_fract_x
 _atom_site_fract_y
 _atom_site_fract_z
 _atom_site_occupancy
  C  C0  1  0.71315275  0.83816445  0.62491776  1
  Ni  Ni1  1  0.22930354  0.85499387  0.62117300  1
  Ni  Ni2  1  0.73381488  0.35811583  0.62882311  1
  Ni  Ni3  1  0.74805039  0.37303787  0.12498955  1
  Ni  Ni4  1  0.23537133  0.36034189  0.62502199  1
  Cu  Cu5  1  0.48304110  0.82601438  0.13813092  1
  Cu  Cu6  1  0.18775232  0.09494869  0.11186637  1
  C  C7  1  0.22088672  0.59959283  0.40004117  1
  C  C8  1  0.77665663  0.14891722  0.40681803  1
  C  C9  1  0.69959713  0.57085873  0.84995574  1
  C  C10  1  0.24223069  0.11990461  0.84326583  1
  C  C11  1  0.76904290  0.60546377  0.40559520  1
  C  C12  1  0.18683522  0.58442050  0.81212179  1
  C  C13  1  0.27227340  0.12468683  0.43788133  1
  C  C14  1  0.69990800  0.11345454  0.84439722  1
