# generated using pymatgen
data_Cu2NiC6
_symmetry_space_group_name_H-M   'P 1'
_cell_length_a   3.47785714
_cell_length_b   3.44159933
_cell_length_c   10.95893167
_cell_angle_alpha   90.00000000
_cell_angle_beta   90.00000000
_cell_angle_gamma   120.34910097
_symmetry_Int_Tables_number   1
_chemical_formula_structural   Cu2NiC6
_chemical_formula_sum   'Cu2 Ni1 C6'
_cell_volume   113.19633732
_cell_formula_units_Z   1
loop_
 _symmetry_equiv_pos_site_id
 _symmetry_equiv_pos_as_xyz
  1  'x, y, z'
loop_
 _atom_site_type_symbol
 _atom_site_label
 _atom_site_symmetry_multiplicity
 _atom_site_fract_x
 _atom_site_fract_y
 _atom_site_fract_z
 _atom_site_occupancy
  C  C0  1  0.51976013  0.03951925  0.25000000  1
  C  C1  1  0.51362586  0.02725273  0.75000000  1
  Ni  Ni2  1  0.17658248  0.35316496  0.75000000  1
  Cu  Cu3  1  0.85571991  0.71143981  0.46240312  1
  Cu  Cu4  1  0.85571991  0.71143981  0.03759688  1
  C  C5  1  0.19003471  0.38006843  0.40272432  1
  C  C6  1  0.84926114  0.69852329  0.64309115  1
  C  C7  1  0.84926114  0.69852329  0.85690885  1
  C  C8  1  0.19003471  0.38006843  0.09727568  1
