# generated using pymatgen
data_Cu3Ni3C35
_symmetry_space_group_name_H-M   'P 1'
_cell_length_a   18.21462769
_cell_length_b   9.04625785
_cell_length_c   21.98982389
_cell_angle_alpha   90.03891460
_cell_angle_beta   90.25371824
_cell_angle_gamma   119.89086326
_symmetry_Int_Tables_number   1
_chemical_formula_structural   Cu3Ni3C35
_chemical_formula_sum   'Cu18 Ni18 C210'
_cell_volume   3141.31536452
_cell_formula_units_Z   6
loop_
 _symmetry_equiv_pos_site_id
 _symmetry_equiv_pos_as_xyz
  1  'x, y, z'
loop_
 _atom_site_type_symbol
 _atom_site_label
 _atom_site_symmetry_multiplicity
 _atom_site_fract_x
 _atom_site_fract_y
 _atom_site_fract_z
 _atom_site_occupancy
  C  C0  1  0.19285198  0.35919750  0.24801741  1
  C  C1  1  0.68727056  0.35456294  0.24571483  1
  C  C2  1  0.99639768  0.63673741  0.25293497  1
  C  C3  1  0.49401436  0.62885223  0.24261660  1
  C  C4  1  0.32105291  0.63474638  0.74819572  1
  C  C5  1  0.81949479  0.62958225  0.73698777  1
  C  C6  1  0.18799052  0.02425329  0.74693692  1
  C  C7  1  0.69099210  0.02619112  0.74656217  1
  C  C8  1  0.15276161  0.32762401  0.57507950  1
  C  C9  1  0.66279576  0.34710211  0.57584471  1
  C  C10  1  0.01028436  0.69295578  0.57797616  1
  C  C11  1  0.51691085  0.69407968  0.58017348  1
  C  C12  1  0.32290239  0.96791309  0.59072898  1
  C  C13  1  0.82227421  0.96060073  0.58990288  1
  C  C14  1  0.15603995  0.97539751  0.07612074  1
  C  C15  1  0.64801768  0.96332159  0.07181165  1
  C  C16  1  0.82094035  0.67670271  0.08814285  1
  C  C17  1  0.01773578  0.33959971  0.07916832  1
  C  C18  1  0.51914339  0.34724394  0.08892726  1
  C  C19  1  0.48973011  0.67594704  0.92061038  1
  C  C20  1  0.98744120  0.67728339  0.91756659  1
  C  C21  1  0.85036722  0.03666272  0.90812620  1
  C  C22  1  0.16267637  0.28368357  0.90685461  1
  C  C23  1  0.66344835  0.28103871  0.91525334  1
  C  C24  1  0.48800891  0.30166867  0.41812860  1
  C  C25  1  0.98314533  0.29444739  0.42161978  1
  C  C26  1  0.16415691  0.04947532  0.41443443  1
  C  C27  1  0.66623399  0.04967362  0.41446175  1
  C  C28  1  0.35322545  0.66311177  0.40627698  1
  C  C29  1  0.85263275  0.66175512  0.41519279  1
  C  C30  1  0.00329462  0.99683927  0.49901195  1
  C  C31  1  0.51115494  0.01306955  0.49625557  1
  C  C32  1  0.00606452  0.00527415  0.99528441  1
  C  C33  1  0.49629962  0.99779146  0.99769629  1
  C  C34  1  0.33670404  0.30801438  0.83103071  1
  C  C35  1  0.83213465  0.32200447  0.82688896  1
  C  C36  1  0.32737578  0.32255005  0.32583233  1
  C  C37  1  0.82288643  0.31962600  0.32918338  1
  C  C38  1  0.18852825  0.68037924  0.16128653  1
  C  C39  1  0.66452316  0.67069761  0.16136026  1
  C  C40  1  0.15880848  0.66077239  0.66429333  1
  C  C41  1  0.66780005  0.66563597  0.66139261  1
  C  C42  1  0.00013274  0.00852825  0.64949889  1
  C  C43  1  0.50575632  0.02177373  0.65426377  1
  C  C44  1  0.00583575  0.99387122  0.15285261  1
  C  C45  1  0.50245001  0.97422488  0.14783500  1
  C  C46  1  0.32180229  0.32271120  0.98628319  1
  C  C47  1  0.17812331  0.67456105  0.30935409  1
  C  C48  1  0.67681844  0.66887214  0.30820056  1
  C  C49  1  0.17570434  0.68588685  0.80960024  1
  C  C50  1  0.67459734  0.68300742  0.80916472  1
  C  C51  1  0.00992226  0.00777188  0.34454271  1
  C  C52  1  0.51079540  0.00835952  0.34312837  1
  C  C53  1  0.00927934  0.01723544  0.84222824  1
  C  C54  1  0.50708524  0.01520856  0.84776322  1
  C  C55  1  0.32261536  0.30104539  0.68605426  1
  C  C56  1  0.82045142  0.31414513  0.68116184  1
  C  C57  1  0.32702488  0.34846596  0.18273717  1
  C  C58  1  0.81941912  0.33108688  0.18496249  1
  C  C59  1  0.81009783  0.29302177  0.98427279  1
  C  C60  1  0.31318163  0.32585344  0.48305171  1
  C  C61  1  0.80769076  0.34555329  0.49119006  1
  C  C62  1  0.17192578  0.66884501  0.01410364  1
  C  C63  1  0.65406985  0.65757886  0.01850001  1
  C  C64  1  0.16405664  0.66622677  0.51398959  1
  C  C65  1  0.67363023  0.66684029  0.51852691  1
  Ni  Ni66  1  0.15524409  0.00052902  0.25351300  1
  Ni  Ni67  1  0.65163421  0.99437628  0.25241376  1
  Ni  Ni68  1  0.35949818  0.71771881  0.25491615  1
  Ni  Ni69  1  0.85832382  0.71204536  0.25352563  1
  Ni  Ni70  1  0.14922079  0.30410203  0.75094153  1
  Ni  Ni71  1  0.65051230  0.30574027  0.75688154  1
  Ni  Ni72  1  0.35899551  0.00622279  0.75323730  1
  Ni  Ni73  1  0.85899795  0.01271205  0.75439027  1
  Ni  Ni74  1  0.17976610  0.02246104  0.58250335  1
  Ni  Ni75  1  0.67682164  0.02405821  0.58346268  1
  Ni  Ni76  1  0.83786081  0.63762135  0.58552360  1
  Ni  Ni77  1  0.47405418  0.61778748  0.08538445  1
  Ni  Ni78  1  0.18032626  0.33852053  0.08658870  1
  Ni  Ni79  1  0.67869884  0.33221682  0.08351248  1
  Ni  Ni80  1  0.16700674  0.95882444  0.92008052  1
  Ni  Ni81  1  0.66464270  0.95779415  0.91708255  1
  Ni  Ni82  1  0.16397312  0.37442683  0.41771685  1
  Ni  Ni83  1  0.66280974  0.37114435  0.41684597  1
  Cu  Cu84  1  0.00299634  0.29765968  0.24973190  1
  Cu  Cu85  1  0.50168385  0.29703483  0.25231413  1
  Cu  Cu86  1  0.00375361  0.70752436  0.75196358  1
  Cu  Cu87  1  0.50281011  0.70653658  0.75002058  1
  Cu  Cu88  1  0.47608298  0.32523692  0.58383133  1
  Cu  Cu89  1  0.97924595  0.32859404  0.58344405  1
  Cu  Cu90  1  0.33831060  0.63612328  0.58407452  1
  Cu  Cu91  1  0.97919574  0.63097295  0.08486868  1
  Cu  Cu92  1  0.33429949  0.04374261  0.08439679  1
  Cu  Cu93  1  0.84081730  0.04614138  0.08360215  1
  Cu  Cu94  1  0.31327653  0.66085113  0.91597119  1
  Cu  Cu95  1  0.81334856  0.66553609  0.91756120  1
  Cu  Cu96  1  0.02016236  0.37897552  0.91785305  1
  Cu  Cu97  1  0.51644076  0.37227284  0.91680940  1
  Cu  Cu98  1  0.31337621  0.96253935  0.41754327  1
  Cu  Cu99  1  0.81331870  0.96186938  0.41558867  1
  Cu  Cu100  1  0.01929188  0.66271483  0.41477105  1
  Cu  Cu101  1  0.51853707  0.65983521  0.41859759  1
  C  C102  1  0.11592710  0.03986976  0.31263245  1
  C  C103  1  0.61570992  0.03739569  0.31244505  1
  C  C104  1  0.40963982  0.80613144  0.31665823  1
  C  C105  1  0.91218638  0.80373784  0.31354009  1
  C  C106  1  0.49552828  0.20787839  0.30959764  1
  C  C107  1  0.99089302  0.20375956  0.30641574  1
  C  C108  1  0.11637881  0.18591569  0.81078482  1
  C  C109  1  0.61305337  0.18523227  0.81481823  1
  C  C110  1  0.49099176  0.77476218  0.80752216  1
  C  C111  1  0.99262222  0.78084863  0.80889393  1
  C  C112  1  0.40743556  -0.00624717  0.81105805  1
  C  C113  1  0.90571539  0.01150955  0.81645289  1
  C  C114  1  0.40170263  0.97151401  0.69022648  1
  C  C115  1  0.90511048  0.97463867  0.69554016  1
  C  C116  1  0.08590642  0.19906129  0.69247512  1
  C  C117  1  0.58529410  0.19905365  0.69615677  1
  C  C118  1  0.01557452  0.82084092  0.69894162  1
  C  C119  1  0.51435398  0.82478485  0.69767455  1
  C  C120  1  0.40786505  0.83919369  0.19513734  1
  C  C121  1  0.90693922  0.83377207  0.19171369  1
  C  C122  1  0.01380699  0.20448377  0.19650264  1
  C  C123  1  0.51204287  0.21021475  0.19868229  1
  C  C124  1  0.08478421  0.97101934  0.19492757  1
  C  C125  1  0.58480184  0.96146804  0.19311347  1
  C  C126  1  0.43215840  0.34627157  0.63575856  1
  C  C127  1  0.93522392  0.34513980  0.63594075  1
  C  C128  1  0.24273344  0.09958047  0.64054803  1
  C  C129  1  0.73725162  0.09900427  0.64248181  1
  C  C130  1  0.33299539  0.53488646  0.63798773  1
  C  C131  1  0.82636256  0.51694740  0.64275505  1
  C  C132  1  0.43469751  0.50120743  0.14453777  1
  C  C133  1  0.93735693  0.52971873  0.13914622  1
  C  C134  1  0.32199148  0.12229746  0.13852154  1
  C  C135  1  0.83613980  0.14331702  0.13493455  1
  C  C136  1  0.23020080  0.36049867  0.14820801  1
  C  C137  1  0.74202450  0.38068346  0.14133233  1
  C  C138  1  0.23118949  0.30241285  0.02815947  1
  C  C139  1  0.71283772  0.27826078  0.02328431  1
  C  C140  1  0.41327833  0.51529835  0.02362915  1
  C  C141  1  0.93136951  0.55077371  0.02831389  1
  C  C142  1  0.33991475  0.15002898  0.02885705  1
  C  C143  1  0.85404899  0.14247801  0.02514021  1
  C  C144  1  0.21536768  0.14132759  0.52162011  1
  C  C145  1  0.71124437  0.14338416  0.52252534  1
  C  C146  1  0.34933458  0.55792851  0.52754420  1
  C  C147  1  0.86313006  0.57464116  0.52249260  1
  C  C148  1  0.42931349  0.30337114  0.52597170  1
  C  C149  1  0.93409360  0.31019491  0.52552714  1
  C  C150  1  0.27176130  0.67645156  0.97007561  1
  C  C151  1  0.77150439  0.67898909  0.97264122  1
  C  C152  1  0.06514703  0.45276068  0.97609141  1
  C  C153  1  0.56173284  0.44390406  0.97514894  1
  C  C154  1  0.15248706  0.84484397  0.98019363  1
  C  C155  1  0.65850514  0.85183518  0.97759132  1
  C  C156  1  0.27288663  0.86846950  0.47381439  1
  C  C157  1  0.77404390  0.87010774  0.47235667  1
  C  C158  1  0.15501980  0.46202533  0.47974641  1
  C  C159  1  0.64986460  0.45508342  0.47805033  1
  C  C160  1  0.06651144  0.67899941  0.47177802  1
  C  C161  1  0.56699078  0.67379952  0.47444675  1
  C  C162  1  0.06863499  0.66123465  0.36093294  1
  C  C163  1  0.56321296  0.65094539  0.36345767  1
  C  C164  1  0.25800206  0.86689848  0.36385735  1
  C  C165  1  0.75745028  0.86363564  0.36236551  1
  C  C166  1  0.17271004  0.50379752  0.35895221  1
  C  C167  1  0.67205639  0.50052403  0.35793641  1
  C  C168  1  0.07027649  0.48628739  0.86610071  1
  C  C169  1  0.56550905  0.48410974  0.86532746  1
  C  C170  1  0.17741274  0.85438195  0.85992087  1
  C  C171  1  0.67224216  0.84638643  0.85754606  1
  C  C172  1  0.26201240  0.64461457  0.85971804  1
  C  C173  1  0.76092870  0.65229692  0.86207125  1
  C  C174  1  0.00755214  0.81439938  0.41468288  1
  C  C175  1  0.50678700  0.81175435  0.41817045  1
  C  C176  1  0.39772160  0.97886040  0.41424467  1
  C  C177  1  0.89789161  0.97649066  0.41204733  1
  C  C178  1  0.07809021  0.18577672  0.41348701  1
  C  C179  1  0.57790610  0.18191559  0.41237903  1
  C  C180  1  0.00830084  0.20328989  0.91520316  1
  C  C181  1  0.50578626  0.19947500  0.91312518  1
  C  C182  1  0.08270510  0.97954318  0.91395474  1
  C  C183  1  0.57874453  0.97329111  0.91458110  1
  C  C184  1  0.40076326  0.80121889  0.91360231  1
  C  C185  1  0.89929074  0.81845300  0.91508455  1
  C  C186  1  0.48270368  0.16297033  0.58905318  1
  C  C187  1  0.98669024  0.16749777  0.58755964  1
  C  C188  1  0.08663945  0.01208544  0.59343158  1
  C  C189  1  0.58135525  0.01180415  0.59438877  1
  C  C190  1  0.41506462  0.81120386  0.58644947  1
  C  C191  1  0.92247700  0.83241839  0.59444359  1
  C  C192  1  0.48305289  0.81257719  0.08701369  1
  C  C193  1  0.98428781  0.80602555  0.08745010  1
  C  C194  1  0.41491018  0.04107521  0.08437045  1
  C  C195  1  0.91812860  0.02530928  0.08799077  1
  C  C196  1  0.08583183  0.15312235  0.08869675  1
  C  C197  1  0.58290430  0.16035338  0.09543627  1
  C  C198  1  0.34048668  0.16183802  0.74970061  1
  C  C199  1  0.83973813  0.16633163  0.74739331  1
  C  C200  1  0.24613717  0.34232083  0.74145087  1
  C  C201  1  0.74476182  0.33593791  0.74716756  1
  C  C202  1  0.42911466  0.53785702  0.73935487  1
  C  C203  1  0.93160642  0.53603386  0.74445108  1
  C  C204  1  0.34460921  0.52583364  0.25150802  1
  C  C205  1  0.84749912  0.52283512  0.24803528  1
  C  C206  1  0.42989451  0.32681257  0.24867426  1
  C  C207  1  0.93301656  0.33110590  0.24035155  1
  C  C208  1  0.24682213  0.16061939  0.24169800  1
  C  C209  1  0.74454810  0.15543003  0.24225131  1
  C  C210  1  0.31418683  0.49271336  0.91777091  1
  C  C211  1  0.82124756  0.50884798  0.91641817  1
  C  C212  1  0.43260995  0.36709081  0.91713404  1
  C  C213  1  0.93600966  0.36982137  0.91693024  1
  C  C214  1  0.25313850  0.15391833  0.92417582  1
  C  C215  1  0.75383283  0.14232725  0.91251482  1
  C  C216  1  0.32043306  0.13365558  0.41555526  1
  C  C217  1  0.82127104  0.13291110  0.41388525  1
  C  C218  1  0.25257209  0.36637784  0.41363672  1
  C  C219  1  0.75127236  0.36409453  0.41365103  1
  C  C220  1  0.43328670  0.50002498  0.41909859  1
  C  C221  1  0.93679727  0.50204963  0.41296249  1
  C  C222  1  0.16312880  0.49557608  0.07483046  1
  C  C223  1  0.67012206  0.50319458  0.07592941  1
  C  C224  1  0.06694684  0.66144844  0.08452298  1
  C  C225  1  0.57148248  0.65702147  0.08102075  1
  C  C226  1  0.25970758  0.87053228  0.07804972  1
  C  C227  1  0.76435103  0.87472714  0.08210101  1
  C  C228  1  0.16544987  0.82777081  0.57595100  1
  C  C229  1  0.66084920  0.83042381  0.57580888  1
  C  C230  1  0.26064443  0.65165170  0.58220438  1
  C  C231  1  0.75334604  0.65754079  0.58257901  1
  C  C232  1  0.06720984  0.47710241  0.58387815  1
  C  C233  1  0.56324325  0.47197635  0.58365646  1
  C  C234  1  0.14847791  0.81003510  0.25643824  1
  C  C235  1  0.64845039  0.80785640  0.25771820  1
  C  C236  1  0.26020539  0.69282752  0.25668091  1
  C  C237  1  0.75992231  0.68680008  0.25467506  1
  C  C238  1  0.08519909  0.46724893  0.25103810  1
  C  C239  1  0.58347611  0.47250212  0.25304701  1
  C  C240  1  0.15530301  0.49348900  0.75925895  1
  C  C241  1  0.65458275  0.49256586  0.75930140  1
  C  C242  1  0.08612386  0.70397555  0.75391901  1
  C  C243  1  0.58394574  0.70012874  0.75052812  1
  C  C244  1  0.25969432  0.82659726  0.75549953  1
  C  C245  1  0.76057040  0.82803028  0.75688256  1
