# generated using pymatgen
data_CuNiC12
_symmetry_space_group_name_H-M   'P 1'
_cell_length_a   9.16227482
_cell_length_b   9.16419818
_cell_length_c   22.38296332
_cell_angle_alpha   89.43343479
_cell_angle_beta   90.17364686
_cell_angle_gamma   119.59865079
_symmetry_Int_Tables_number   1
_chemical_formula_structural   CuNiC12
_chemical_formula_sum   'Cu9 Ni9 C108'
_cell_volume   1634.05252616
_cell_formula_units_Z   9
loop_
 _symmetry_equiv_pos_site_id
 _symmetry_equiv_pos_as_xyz
  1  'x, y, z'
loop_
 _atom_site_type_symbol
 _atom_site_label
 _atom_site_symmetry_multiplicity
 _atom_site_fract_x
 _atom_site_fract_y
 _atom_site_fract_z
 _atom_site_occupancy
  C  C0  1  0.62894241  0.99478080  0.26021600  1
  C  C1  1  0.37096689  0.36832336  0.24336349  1
  C  C2  1  0.00209229  0.62604054  0.25271409  1
  C  C3  1  0.64604113  0.65043650  0.73187329  1
  C  C4  1  0.98109811  0.34351519  0.75132509  1
  C  C5  1  0.38974525  0.01549422  0.73836448  1
  C  C6  1  0.31651438  0.33334812  0.58404061  1
  C  C7  1  0.04068551  0.71711374  0.57286111  1
  C  C8  1  0.65176222  0.94630842  0.58380120  1
  C  C9  1  0.28202634  0.95816792  0.07558016  1
  C  C10  1  0.66418887  0.68230316  0.08612631  1
  C  C11  1  0.05357174  0.35182842  0.07989499  1
  C  C12  1  0.99170842  0.67571718  0.92168332  1
  C  C13  1  0.71083060  0.04355609  0.90530523  1
  C  C14  1  0.30762855  0.28312052  0.92273200  1
  C  C15  1  0.96411579  0.30201134  0.41340887  1
  C  C16  1  0.32635655  0.00143319  0.42369019  1
  C  C17  1  0.71490710  0.69301514  0.42631893  1
  C  C18  1  0.98890966  0.97621551  0.50142688  1
  C  C19  1  0.02227449  0.01206246  0.00082752  1
  C  C20  1  0.66881009  0.31129216  0.83032573  1
  C  C21  1  0.68023528  0.33330951  0.33863458  1
  C  C22  1  0.32024784  0.65280396  0.15880554  1
  C  C23  1  0.35620848  0.68603584  0.65550851  1
  C  C24  1  0.99486606  0.99156263  0.35449720  1
  C  C25  1  0.00131860  0.01230600  0.85193689  1
  C  C26  1  0.98273155  0.98447439  0.64430931  1
  C  C27  1  0.00905325  0.00087741  0.14471369  1
  C  C28  1  0.65854988  0.32075101  0.67834445  1
  C  C29  1  0.66841204  0.34292954  0.17669544  1
  C  C30  1  0.30952219  0.65545152  0.01872316  1
  C  C31  1  0.34713944  0.69288357  0.51630840  1
  C  C32  1  0.33160062  0.68076539  0.32949795  1
  C  C33  1  0.66611132  0.33532168  0.98464761  1
  C  C34  1  0.66199758  0.33193131  0.48410433  1
  C  C35  1  0.33354184  0.67915567  0.81711350  1
  Ni  Ni36  1  0.70939407  0.00350487  0.74993908  1
  Ni  Ni37  1  0.36003029  0.03170320  0.58733843  1
  Ni  Ni38  1  0.66171325  0.62812765  0.58667158  1
  Ni  Ni39  1  0.96621930  0.63427193  0.08802434  1
  Ni  Ni40  1  0.36683716  0.33814836  0.08697413  1
  Ni  Ni41  1  0.03646840  0.36576210  0.91830385  1
  Ni  Ni42  1  0.33059274  0.96627236  0.91996571  1
  Ni  Ni43  1  0.63592821  0.96616972  0.41413582  1
  Ni  Ni44  1  0.03663416  0.66426672  0.41486987  1
  Cu  Cu45  1  0.29543626  0.00047689  0.24916865  1
  Cu  Cu46  1  0.70485224  0.70495913  0.24955707  1
  Cu  Cu47  1  0.99967731  0.28888337  0.24868986  1
  Cu  Cu48  1  0.29442680  0.29347871  0.75074813  1
  Cu  Cu49  1  0.99864659  0.70848812  0.75085647  1
  Cu  Cu50  1  0.96513212  0.33428498  0.58598532  1
  Cu  Cu51  1  0.66783551  0.03761408  0.08728830  1
  Cu  Cu52  1  0.62638484  0.66708102  0.91802202  1
  Cu  Cu53  1  0.33119206  0.37432144  0.41416610  1
  C  C54  1  0.21566357  0.02520670  0.30290142  1
  C  C55  1  0.80785676  0.79000653  0.30296265  1
  C  C56  1  0.98597536  0.18925047  0.30327921  1
  C  C57  1  0.21396135  0.19245499  0.80540596  1
  C  C58  1  0.98278998  0.78724910  0.80598821  1
  C  C59  1  0.81252224  0.02051993  0.81132324  1
  C  C60  1  0.79320974  0.96985229  0.69228959  1
  C  C61  1  0.19399452  0.21842770  0.69759545  1
  C  C62  1  0.02546517  0.81177172  0.69804816  1
  C  C63  1  0.78406225  0.80792112  0.19531143  1
  C  C64  1  0.01342335  0.20348539  0.19497114  1
  C  C65  1  0.19356160  0.98422508  0.19548924  1
  C  C66  1  0.88459376  0.36087225  0.63915897  1
  C  C67  1  0.48164942  0.11680109  0.64430167  1
  C  C68  1  0.64503572  0.51560181  0.64591022  1
  C  C69  1  0.88083168  0.51162865  0.14527774  1
  C  C70  1  0.64016479  0.11879765  0.13967657  1
  C  C71  1  0.47914703  0.35901966  0.14602584  1
  C  C72  1  0.46088734  0.30474906  0.02785275  1
  C  C73  1  0.84504497  0.53618924  0.02769267  1
  C  C74  1  0.69491926  0.14595083  0.03198619  1
  C  C75  1  0.45787315  0.15211209  0.52693457  1
  C  C76  1  0.68827859  0.53262720  0.52760132  1
  C  C77  1  0.85532834  0.30801468  0.53149822  1
  C  C78  1  0.55010364  0.69221435  0.97073674  1
  C  C79  1  0.15394516  0.45319749  0.97483078  1
  C  C80  1  0.31271385  0.85302626  0.97725928  1
  C  C81  1  0.55144711  0.84456246  0.47158640  1
  C  C82  1  0.30564437  0.44803025  0.46777889  1
  C  C83  1  0.15089969  0.68422414  0.47293034  1
  C  C84  1  0.10657898  0.62068117  0.35372608  1
  C  C85  1  0.52271664  0.89033933  0.35352799  1
  C  C86  1  0.35756206  0.47911075  0.35962525  1
  C  C87  1  0.12716670  0.48641109  0.85718701  1
  C  C88  1  0.36546914  0.87806916  0.86003124  1
  C  C89  1  0.52179299  0.64315486  0.86381702  1
  C  C90  1  0.02209056  0.83680275  0.40989701  1
  C  C91  1  0.83007574  0.00264732  0.40874025  1
  C  C92  1  0.18528754  0.20278104  0.40653041  1
  C  C93  1  0.00905912  0.17713439  0.91332456  1
  C  C94  1  0.16092246  0.97863242  0.91027772  1
  C  C95  1  0.79794243  0.81076177  0.91034999  1
  C  C96  1  0.97896596  0.18103387  0.59055207  1
  C  C97  1  0.17971374  0.02860125  0.58994053  1
  C  C98  1  0.82932469  0.81450906  0.58484410  1
  C  C99  1  0.96900822  0.81494975  0.08855478  1
  C  C100  1  0.82247689  0.02552589  0.09241538  1
  C  C101  1  0.17832767  0.17240822  0.08789862  1
  C  C102  1  0.68630539  0.17255108  0.74663117  1
  C  C103  1  0.46707365  0.31737992  0.74827630  1
  C  C104  1  0.85197763  0.53678437  0.74712303  1
  C  C105  1  0.69116586  0.53459265  0.24728301  1
  C  C106  1  0.84337729  0.30491536  0.24703381  1
  C  C107  1  0.46965970  0.15055767  0.24482178  1
  C  C108  1  0.63825146  0.50978260  0.92081317  1
  C  C109  1  0.84923088  0.35620132  0.92055467  1
  C  C110  1  0.50103786  0.15499180  0.92025291  1
  C  C111  1  0.64753298  0.15437926  0.42124276  1
  C  C112  1  0.48794920  0.35758528  0.41852405  1
  C  C113  1  0.84094483  0.49905955  0.42136985  1
  C  C114  1  0.36401569  0.51404365  0.07884646  1
  C  C115  1  0.15453843  0.66061383  0.08198569  1
  C  C116  1  0.52064012  0.87079240  0.07963945  1
  C  C117  1  0.33684689  0.84427591  0.58045465  1
  C  C118  1  0.48660910  0.63394370  0.57912917  1
  C  C119  1  0.13146683  0.48272901  0.57785848  1
  C  C120  1  0.31020680  0.84499943  0.25280859  1
  C  C121  1  0.53097733  0.68173962  0.25394770  1
  C  C122  1  0.15282616  0.45922461  0.25035373  1
  C  C123  1  0.31149030  0.46796357  0.75626073  1
  C  C124  1  0.15561814  0.68781582  0.75445485  1
  C  C125  1  0.51266853  0.82707525  0.75406427  1
