# generated using pymatgen
data_Cu3Ni6C61
_symmetry_space_group_name_H-M   'P 1'
_cell_length_a   17.28620793
_cell_length_b   8.59925278
_cell_length_c   22.34143346
_cell_angle_alpha   90.06678852
_cell_angle_beta   90.20637620
_cell_angle_gamma   120.11287869
_symmetry_Int_Tables_number   1
_chemical_formula_structural   Cu3Ni6C61
_chemical_formula_sum   'Cu9 Ni18 C183'
_cell_volume   2872.77507437
_cell_formula_units_Z   3
loop_
 _symmetry_equiv_pos_site_id
 _symmetry_equiv_pos_as_xyz
  1  'x, y, z'
loop_
 _atom_site_type_symbol
 _atom_site_label
 _atom_site_symmetry_multiplicity
 _atom_site_fract_x
 _atom_site_fract_y
 _atom_site_fract_z
 _atom_site_occupancy
  C  C0  1  0.99857308  0.99365580  0.49937210  1
  C  C1  1  0.50031986  0.00527433  0.99791945  1
  C  C2  1  0.33741746  0.33613160  0.83378449  1
  C  C3  1  0.83406467  0.34082744  0.83158096  1
  C  C4  1  0.33493865  0.32844968  0.33429655  1
  C  C5  1  0.83639798  0.33663339  0.33701837  1
  C  C6  1  0.49559334  0.00746284  0.35698992  1
  C  C7  1  0.99401715  0.98270700  0.85405587  1
  C  C8  1  0.50338316  0.99528540  0.63895149  1
  C  C9  1  0.99803828  0.00287911  0.14271062  1
  C  C10  1  0.66997828  0.66390919  0.02044409  1
  C  C11  1  0.16896077  0.67553164  0.52206420  1
  Ni  Ni12  1  0.00078645  0.99178296  0.35608524  1
  Ni  Ni13  1  0.50210907  0.01387838  0.85192453  1
  Ni  Ni14  1  0.99759758  0.98938161  0.65008550  1
  Ni  Ni15  1  0.50065977  0.00668954  0.15226748  1
  Ni  Ni16  1  0.33295325  0.33774166  0.68280534  1
  Ni  Ni17  1  0.83372851  0.33678539  0.68417121  1
  Ni  Ni18  1  0.33848740  0.33119813  0.18789710  1
  Ni  Ni19  1  0.82989445  0.32409058  0.18363605  1
  Ni  Ni20  1  0.34031311  0.33611850  0.97955511  1
  Ni  Ni21  1  0.83325713  0.33213192  0.98022139  1
  Ni  Ni22  1  0.33498012  0.33429836  0.48168046  1
  Ni  Ni23  1  0.83540253  0.33815793  0.48293944  1
  Ni  Ni24  1  0.16811367  0.66830292  0.01866217  1
  Ni  Ni25  1  0.67035639  0.67958547  0.52431056  1
  Ni  Ni26  1  0.16359223  0.67697358  0.32051646  1
  Ni  Ni27  1  0.66174527  0.66003952  0.31257229  1
  Ni  Ni28  1  0.16346248  0.66582532  0.80836354  1
  Ni  Ni29  1  0.66371240  0.64832383  0.81702425  1
  Cu  Cu30  1  0.50163873  0.29975134  0.24689178  1
  Cu  Cu31  1  0.99889767  0.69792347  0.74505796  1
  Cu  Cu32  1  0.70055901  0.05331735  0.58162522  1
  Cu  Cu33  1  0.32999394  0.60505146  0.58240305  1
  Cu  Cu34  1  0.83029141  0.05543845  0.08206687  1
  Cu  Cu35  1  0.80902950  0.65268461  0.91554940  1
  Cu  Cu36  1  0.51842659  0.37099005  0.91419464  1
  Cu  Cu37  1  0.30797690  0.96481398  0.41646755  1
  Cu  Cu38  1  0.01620332  0.65976470  0.41534402  1
  C  C39  1  0.14534519  0.00007815  0.25052879  1
  C  C40  1  0.64645991  0.00068024  0.24979209  1
  C  C41  1  0.35200540  0.70734462  0.24890641  1
  C  C42  1  0.85429741  0.70671537  0.25046887  1
  C  C43  1  0.00074055  0.29262883  0.25255142  1
  C  C44  1  0.14658020  0.29119458  0.74949596  1
  C  C45  1  0.64498624  0.29128959  0.75067046  1
  C  C46  1  0.50095772  0.71051824  0.75213747  1
  C  C47  1  0.35464409  0.00173767  0.74996270  1
  C  C48  1  0.85148284  0.99637773  0.74895055  1
  C  C49  1  0.47878845  0.33885937  0.58341746  1
  C  C50  1  0.97751859  0.32663773  0.58448875  1
  C  C51  1  0.18747220  0.04891540  0.58448602  1
  C  C52  1  0.83349188  0.62628106  0.58273154  1
  C  C53  1  0.47636612  0.62623979  0.08448728  1
  C  C54  1  0.97994405  0.61830580  0.08337117  1
  C  C55  1  0.33212409  0.03998864  0.08275960  1
  C  C56  1  0.19367639  0.34015181  0.08273048  1
  C  C57  1  0.68730688  0.32679508  0.08437929  1
  C  C58  1  0.30955304  0.66544846  0.91615126  1
  C  C59  1  0.02420786  0.38277230  0.91678479  1
  C  C60  1  0.16874878  0.95614592  0.91735655  1
  C  C61  1  0.66590433  0.95583024  0.91481083  1
  C  C62  1  0.80996884  0.95282099  0.41479823  1
  C  C63  1  0.16649467  0.37660219  0.41499716  1
  C  C64  1  0.66984857  0.38634189  0.41743013  1
  C  C65  1  0.52330270  0.66438268  0.41663166  1
  C  C66  1  0.10537330  0.03591327  0.30310692  1
  C  C67  1  0.60372006  0.03034291  0.30325469  1
  C  C68  1  0.41239519  0.79012805  0.30302582  1
  C  C69  1  0.91251777  0.78807726  0.30299084  1
  C  C70  1  0.48434154  0.16471601  0.30637577  1
  C  C71  1  0.98358325  0.17302359  0.30412211  1
  C  C72  1  0.10340575  0.17725869  0.80405442  1
  C  C73  1  0.60517446  0.17596015  0.80442827  1
  C  C74  1  0.48345975  0.79345903  0.80533314  1
  C  C75  1  0.98348899  0.79995594  0.80627713  1
  C  C76  1  0.41087731  0.03673160  0.80449259  1
  C  C77  1  0.91286804  0.03040149  0.80401548  1
  C  C78  1  0.39631743  0.97338721  0.69680008  1
  C  C79  1  0.89365383  0.96880485  0.69628261  1
  C  C80  1  0.09076717  0.21465809  0.69574997  1
  C  C81  1  0.58660657  0.20339169  0.69754594  1
  C  C82  1  0.01871550  0.83545088  0.69132679  1
  C  C83  1  0.51280298  0.82305974  0.69772230  1
  C  C84  1  0.39385210  0.81805836  0.19514665  1
  C  C85  1  0.89880234  0.82237650  0.19554427  1
  C  C86  1  0.01274561  0.20075749  0.19689973  1
  C  C87  1  0.51812144  0.20446757  0.19043197  1
  C  C88  1  0.08750932  0.97323472  0.19598332  1
  C  C89  1  0.59116795  0.96623791  0.19513355  1
  C  C90  1  0.43965076  0.36700958  0.63812417  1
  C  C91  1  0.94162491  0.36601253  0.63803422  1
  C  C92  1  0.24318509  0.12021412  0.63865719  1
  C  C93  1  0.75385208  0.13850122  0.64335280  1
  C  C94  1  0.31433831  0.49713614  0.64364298  1
  C  C95  1  0.81851567  0.51927976  0.63721737  1
  C  C96  1  0.43696394  0.51275126  0.13770530  1
  C  C97  1  0.94058044  0.51427961  0.13805969  1
  C  C98  1  0.31528446  0.11904210  0.13651479  1
  C  C99  1  0.81634910  0.13225079  0.14358704  1
  C  C100  1  0.24703252  0.36794714  0.13745000  1
  C  C101  1  0.74322868  0.36671764  0.13850956  1
  C  C102  1  0.22958456  0.29982428  0.02898555  1
  C  C103  1  0.72700417  0.30007676  0.03002291  1
  C  C104  1  0.41979133  0.54839934  0.03008324  1
  C  C105  1  0.92381573  0.55083825  0.02982311  1
  C  C106  1  0.34876612  0.15421706  0.02909859  1
  C  C107  1  0.85275865  0.17585715  0.02332136  1
  C  C108  1  0.22697763  0.15355489  0.52982598  1
  C  C109  1  0.73604200  0.17566483  0.52254514  1
  C  C110  1  0.35153369  0.52939988  0.52308706  1
  C  C111  1  0.85319360  0.55265704  0.52900188  1
  C  C112  1  0.42213092  0.29519848  0.52987659  1
  C  C113  1  0.92360752  0.29319657  0.52980382  1
  C  C114  1  0.27123702  0.70048001  0.97144072  1
  C  C115  1  0.76710996  0.69812504  0.97489378  1
  C  C116  1  0.07901085  0.45971387  0.97228825  1
  C  C117  1  0.58108373  0.46666837  0.97476207  1
  C  C118  1  0.14981784  0.84371986  0.97179177  1
  C  C119  1  0.65091524  0.84445730  0.97030289  1
  C  C120  1  0.26650819  0.83465264  0.47480912  1
  C  C121  1  0.77237885  0.84008012  0.46877979  1
  C  C122  1  0.15065167  0.45625618  0.46966758  1
  C  C123  1  0.65024765  0.46007858  0.47099737  1
  C  C124  1  0.08187704  0.69494825  0.47414781  1
  C  C125  1  0.57778077  0.69649206  0.47051762  1
  C  C126  1  0.05847306  0.62053535  0.35647096  1
  C  C127  1  0.56266264  0.63512075  0.36210428  1
  C  C128  1  0.25391034  0.87693320  0.35587592  1
  C  C129  1  0.75394850  0.86961314  0.36003814  1
  C  C130  1  0.18293948  0.48674660  0.36054646  1
  C  C131  1  0.68324810  0.49289118  0.36263429  1
  C  C132  1  0.06520117  0.49460175  0.86355827  1
  C  C133  1  0.56066769  0.49888086  0.85703468  1
  C  C134  1  0.18504857  0.87747097  0.86398717  1
  C  C135  1  0.68275460  0.87839723  0.86118168  1
  C  C136  1  0.25340391  0.63479842  0.86235327  1
  C  C137  1  0.75264546  0.63167468  0.85674342  1
  C  C138  1  0.01136402  0.84456118  0.41037173  1
  C  C139  1  0.51523023  0.82817861  0.40699594  1
  C  C140  1  0.40581521  0.97320289  0.40880639  1
  C  C141  1  0.90098321  0.97474268  0.40792400  1
  C  C142  1  0.08359825  0.19831294  0.40930310  1
  C  C143  1  0.58814408  0.20102486  0.40852686  1
  C  C144  1  0.01618843  0.20373376  0.90882349  1
  C  C145  1  0.51069378  0.17399265  0.91045490  1
  C  C146  1  0.08859204  0.97713993  0.90906375  1
  C  C147  1  0.58391444  0.96894137  0.91004771  1
  C  C148  1  0.39998246  0.82372406  0.90985514  1
  C  C149  1  0.90710773  0.84010289  0.90919117  1
  C  C150  1  0.48693399  0.17458369  0.59332883  1
  C  C151  1  0.98878606  0.16578105  0.59194553  1
  C  C152  1  0.09771711  0.02905944  0.58958047  1
  C  C153  1  0.59816492  0.02939806  0.59411357  1
  C  C154  1  0.41588652  0.81003983  0.59408214  1
  C  C155  1  0.91414994  0.81114000  0.58903331  1
  C  C156  1  0.48712556  0.80898243  0.09169309  1
  C  C157  1  0.99063932  0.80367750  0.09362832  1
  C  C158  1  0.41218505  0.01937943  0.08901931  1
  C  C159  1  0.91820792  0.02453472  0.09410697  1
  C  C160  1  0.10172998  0.17574458  0.09253113  1
  C  C161  1  0.59719939  0.16519384  0.08961408  1
  C  C162  1  0.34504722  0.16477880  0.74233748  1
  C  C163  1  0.84703913  0.16154407  0.74628568  1
  C  C164  1  0.23514131  0.30246930  0.74537109  1
  C  C165  1  0.73309819  0.30716180  0.74458184  1
  C  C166  1  0.42012643  0.52963231  0.74494303  1
  C  C167  1  0.90764141  0.50492195  0.74116598  1
  C  C168  1  0.34442946  0.52808349  0.24284488  1
  C  C169  1  0.84650667  0.52746698  0.24076910  1
  C  C170  1  0.40987420  0.30884041  0.24359822  1
  C  C171  1  0.92055315  0.31020569  0.24398725  1
  C  C172  1  0.23331853  0.16436838  0.24163817  1
  C  C173  1  0.73548706  0.16918266  0.24485908  1
  C  C174  1  0.31604185  0.50044407  0.92425919  1
  C  C175  1  0.82387588  0.48498505  0.92671112  1
  C  C176  1  0.42083491  0.35401868  0.92380252  1
  C  C177  1  0.93461022  0.36136719  0.92237769  1
  C  C178  1  0.24670367  0.13808864  0.92539045  1
  C  C179  1  0.74577075  0.13518960  0.92297658  1
  C  C180  1  0.32365237  0.16341651  0.42635967  1
  C  C181  1  0.81876427  0.13111431  0.42071227  1
  C  C182  1  0.24537240  0.35582552  0.42229975  1
  C  C183  1  0.74670596  0.36031769  0.42200501  1
  C  C184  1  0.43277971  0.50719870  0.42114087  1
  C  C185  1  0.91841166  0.48302521  0.42589146  1
  C  C186  1  0.17911526  0.49406574  0.07479437  1
  C  C187  1  0.67786710  0.48978607  0.07765266  1
  C  C188  1  0.07024807  0.64365241  0.07519556  1
  C  C189  1  0.56494187  0.64412183  0.07594077  1
  C  C190  1  0.25069838  0.85965682  0.07426852  1
  C  C191  1  0.74587816  0.85323157  0.07441124  1
  C  C192  1  0.17784829  0.86625473  0.57783730  1
  C  C193  1  0.67741039  0.84900088  0.57409827  1
  C  C194  1  0.24506169  0.63581970  0.57365742  1
  C  C195  1  0.75223370  0.63943805  0.57419242  1
  C  C196  1  0.06752737  0.48703740  0.57536368  1
  C  C197  1  0.56854528  0.49226435  0.57506236  1
  C  C198  1  0.15262599  0.83794953  0.25470795  1
  C  C199  1  0.65743978  0.84422787  0.25850014  1
  C  C200  1  0.26427570  0.69026228  0.25799668  1
  C  C201  1  0.76782394  0.69462594  0.25654039  1
  C  C202  1  0.08332729  0.46698625  0.25617943  1
  C  C203  1  0.58913622  0.48786617  0.26044359  1
  C  C204  1  0.15736460  0.47029283  0.75913315  1
  C  C205  1  0.65154997  0.46817387  0.75543493  1
  C  C206  1  0.08715489  0.69036547  0.76070150  1
  C  C207  1  0.58268432  0.69944997  0.75741893  1
  C  C208  1  0.26664078  0.83986632  0.75847404  1
  C  C209  1  0.76413644  0.83602798  0.75889178  1
