# generated using pymatgen
data_Cu6NiC15
_symmetry_space_group_name_H-M   'P 1'
_cell_length_a   7.86001075
_cell_length_b   7.86001159
_cell_length_c   10.31069510
_cell_angle_alpha   71.93335478
_cell_angle_beta   108.06664555
_cell_angle_gamma   153.37028512
_symmetry_Int_Tables_number   1
_chemical_formula_structural   Cu6NiC15
_chemical_formula_sum   'Cu6 Ni1 C15'
_cell_volume   270.62752190
_cell_formula_units_Z   1
loop_
 _symmetry_equiv_pos_site_id
 _symmetry_equiv_pos_as_xyz
  1  'x, y, z'
loop_
 _atom_site_type_symbol
 _atom_site_label
 _atom_site_symmetry_multiplicity
 _atom_site_fract_x
 _atom_site_fract_y
 _atom_site_fract_z
 _atom_site_occupancy
  Ni  Ni0  1  0.01491500  0.98508500  0.40071200  1
  Cu  Cu1  1  0.10968500  0.89031500  0.11498900  1
  Cu  Cu2  1  0.87501400  0.12498600  0.87843000  1
  Cu  Cu3  1  0.29879000  0.70121000  0.42452600  1
  Cu  Cu4  1  0.33381500  0.66618500  0.11292400  1
  Cu  Cu5  1  0.66257600  0.33742400  0.89552000  1
  Cu  Cu6  1  0.70630000  0.29370000  0.57710700  1
  C  C7  1  0.18369800  0.81630200  0.95451100  1
  C  C8  1  0.09463400  0.90536600  0.26865700  1
  C  C9  1  0.24734900  0.75265100  0.58118100  1
  C  C10  1  0.36530900  0.63469100  0.92780000  1
  C  C11  1  0.26342900  0.73657100  0.22215700  1
  C  C12  1  0.41385500  0.58614500  0.46518800  1
  C  C13  1  0.43843900  0.56156100  0.22912500  1
  C  C14  1  0.56145100  0.43854900  0.78461100  1
  C  C15  1  0.99824200  0.00175800  0.00124100  1
  C  C16  1  0.58850600  0.41149400  0.49474500  1
  C  C17  1  0.73619600  0.26380400  0.78404400  1
  C  C18  1  0.63348200  0.36651800  0.07929900  1
  C  C19  1  0.75621000  0.24379000  0.42650300  1
  C  C20  1  0.89224800  0.10775200  0.73183800  1
  C  C21  1  0.81752100  0.18247900  0.05738900  1
