# generated using pymatgen
data_Cu2Ni2C13
_symmetry_space_group_name_H-M   'P 1'
_cell_length_a   4.07051896
_cell_length_b   3.97141455
_cell_length_c   19.65904930
_cell_angle_alpha   90.00000000
_cell_angle_beta   90.00000000
_cell_angle_gamma   90.00000000
_symmetry_Int_Tables_number   1
_chemical_formula_structural   Cu2Ni2C13
_chemical_formula_sum   'Cu2 Ni2 C13'
_cell_volume   317.80265153
_cell_formula_units_Z   1
loop_
 _symmetry_equiv_pos_site_id
 _symmetry_equiv_pos_as_xyz
  1  'x, y, z'
loop_
 _atom_site_type_symbol
 _atom_site_label
 _atom_site_symmetry_multiplicity
 _atom_site_fract_x
 _atom_site_fract_y
 _atom_site_fract_z
 _atom_site_occupancy
  C  C0  1  0.25000000  0.25000000  0.72682218  1
  C  C1  1  0.75000000  0.75000000  0.21078504  1
  C  C2  1  0.25000000  0.25000000  0.52725243  1
  C  C3  1  0.75000000  0.75000000  0.39105495  1
  C  C4  1  0.25000000  0.75000000  0.88490366  1
  Ni  Ni5  1  0.75000000  0.75000000  0.61960567  1
  Ni  Ni6  1  0.25000000  0.25000000  0.30562230  1
  Cu  Cu7  1  0.25000000  0.75000000  0.04969225  1
  Cu  Cu8  1  0.75000000  0.25000000  0.04871144  1
  C  C9  1  0.75000000  0.75000000  0.96506295  1
  C  C10  1  0.25000000  0.25000000  0.13300249  1
  C  C11  1  0.25000000  0.75000000  0.78939320  1
  C  C12  1  0.75000000  0.25000000  0.64517490  1
  C  C13  1  0.75000000  0.25000000  0.29697409  1
  C  C14  1  0.25000000  0.75000000  0.29514215  1
  C  C15  1  0.75000000  0.75000000  0.52288875  1
  C  C16  1  0.25000000  0.25000000  0.40934053  1
