# generated using pymatgen
data_CuNi2C5
_symmetry_space_group_name_H-M   'P 1'
_cell_length_a   4.72336259
_cell_length_b   4.72336259
_cell_length_c   12.80519854
_cell_angle_alpha   88.90163283
_cell_angle_beta   88.90163283
_cell_angle_gamma   59.88334890
_symmetry_Int_Tables_number   1
_chemical_formula_structural   CuNi2C5
_chemical_formula_sum   'Cu2 Ni4 C10'
_cell_volume   247.05948750
_cell_formula_units_Z   2
loop_
 _symmetry_equiv_pos_site_id
 _symmetry_equiv_pos_as_xyz
  1  'x, y, z'
loop_
 _atom_site_type_symbol
 _atom_site_label
 _atom_site_symmetry_multiplicity
 _atom_site_fract_x
 _atom_site_fract_y
 _atom_site_fract_z
 _atom_site_occupancy
  Ni  Ni0  1  0.69241000  0.64321700  0.29528500  1
  Ni  Ni1  1  0.35678300  0.30759000  0.20471500  1
  Ni  Ni2  1  0.30759000  0.35678300  0.70471500  1
  Ni  Ni3  1  0.64321700  0.69241000  0.79528500  1
  Cu  Cu4  1  0.00000000  0.00000000  0.50000000  1
  Cu  Cu5  1  0.00000000  0.00000000  0.00000000  1
  C  C6  1  0.42304200  0.57695800  0.25000000  1
  C  C7  1  0.96162500  0.65169000  0.73845500  1
  C  C8  1  0.65169000  0.96162500  0.23845500  1
  C  C9  1  0.03837500  0.34831000  0.26154500  1
  C  C10  1  0.34831000  0.03837500  0.76154500  1
  C  C11  1  0.67649200  0.66513900  0.91314900  1
  C  C12  1  0.33486100  0.32350800  0.58685100  1
  C  C13  1  0.32350800  0.33486100  0.08685100  1
  C  C14  1  0.66513900  0.67649200  0.41314900  1
  C  C15  1  0.57695800  0.42304200  0.75000000  1
