# generated using pymatgen
data_Cu(Ni3C)2
_symmetry_space_group_name_H-M   'P 1'
_cell_length_a   8.48019000
_cell_length_b   9.21882600
_cell_length_c   15.49374600
_cell_angle_alpha   90.00000000
_cell_angle_beta   90.00000000
_cell_angle_gamma   90.00000000
_symmetry_Int_Tables_number   1
_chemical_formula_structural   Cu(Ni3C)2
_chemical_formula_sum   'Cu8 Ni48 C16'
_cell_volume   1211.26071745
_cell_formula_units_Z   8
loop_
 _symmetry_equiv_pos_site_id
 _symmetry_equiv_pos_as_xyz
  1  'x, y, z'
loop_
 _atom_site_type_symbol
 _atom_site_label
 _atom_site_symmetry_multiplicity
 _atom_site_fract_x
 _atom_site_fract_y
 _atom_site_fract_z
 _atom_site_occupancy
  C  C0  1  0.74235000  0.89442100  0.03594600  1
  C  C1  1  0.24235000  0.10557900  0.46405400  1
  C  C2  1  0.75765000  0.39442100  0.46405400  1
  C  C3  1  0.25765000  0.60557900  0.03594600  1
  C  C4  1  0.25765000  0.10557900  0.96405400  1
  C  C5  1  0.75765000  0.89442100  0.53594600  1
  C  C6  1  0.24235000  0.60557900  0.53594600  1
  C  C7  1  0.74235000  0.39442100  0.96405400  1
  C  C8  1  0.90242700  0.01698100  0.21575400  1
  C  C9  1  0.40242700  0.98301900  0.28424600  1
  C  C10  1  0.59757300  0.51698100  0.28424600  1
  C  C11  1  0.09757300  0.48301900  0.21575400  1
  C  C12  1  0.09757300  0.98301900  0.78424600  1
  C  C13  1  0.59757300  0.01698100  0.71575400  1
  C  C14  1  0.40242700  0.48301900  0.71575400  1
  C  C15  1  0.90242700  0.51698100  0.78424600  1
  Ni  Ni16  1  0.90624300  0.88106400  0.00211400  1
  Ni  Ni17  1  0.40624300  0.11893600  0.49788600  1
  Ni  Ni18  1  0.59375700  0.38106400  0.49788600  1
  Ni  Ni19  1  0.09375700  0.61893600  0.00211400  1
  Ni  Ni20  1  0.09375700  0.11893600  0.99788600  1
  Ni  Ni21  1  0.59375700  0.88106400  0.50211400  1
  Ni  Ni22  1  0.40624300  0.61893600  0.50211400  1
  Ni  Ni23  1  0.90624300  0.38106400  0.99788600  1
  Ni  Ni24  1  0.69751300  0.75783900  0.08131700  1
  Ni  Ni25  1  0.19751300  0.24216100  0.41868300  1
  Ni  Ni26  1  0.80248700  0.25783900  0.41868300  1
  Ni  Ni27  1  0.30248700  0.74216100  0.08131700  1
  Ni  Ni28  1  0.30248700  0.24216100  0.91868300  1
  Ni  Ni29  1  0.80248700  0.75783900  0.58131700  1
  Ni  Ni30  1  0.19751300  0.74216100  0.58131700  1
  Ni  Ni31  1  0.69751300  0.25783900  0.91868300  1
  Ni  Ni32  1  0.62917200  0.92608000  0.96500600  1
  Ni  Ni33  1  0.12917200  0.07392000  0.53499400  1
  Ni  Ni34  1  0.87082800  0.42608000  0.53499400  1
  Ni  Ni35  1  0.37082800  0.57392000  0.96500600  1
  Ni  Ni36  1  0.37082800  0.07392000  0.03499400  1
  Ni  Ni37  1  0.87082800  0.92608000  0.46500600  1
  Ni  Ni38  1  0.12917200  0.57392000  0.46500600  1
  Ni  Ni39  1  0.62917200  0.42608000  0.03499400  1
  Ni  Ni40  1  0.06213800  0.02046000  0.17546600  1
  Ni  Ni41  1  0.56213800  0.97954000  0.32453400  1
  Ni  Ni42  1  0.43786200  0.52046000  0.32453400  1
  Ni  Ni43  1  0.93786200  0.47954000  0.17546600  1
  Ni  Ni44  1  0.93786200  0.97954000  0.82453400  1
  Ni  Ni45  1  0.43786200  0.02046000  0.67546600  1
  Ni  Ni46  1  0.56213800  0.47954000  0.67546600  1
  Ni  Ni47  1  0.06213800  0.52046000  0.82453400  1
  Ni  Ni48  1  0.86965300  0.86900300  0.25006400  1
  Ni  Ni49  1  0.36965300  0.13099700  0.24993600  1
  Ni  Ni50  1  0.63034700  0.36900300  0.24993600  1
  Ni  Ni51  1  0.13034700  0.63099700  0.25006400  1
  Ni  Ni52  1  0.13034700  0.13099700  0.74993600  1
  Ni  Ni53  1  0.63034700  0.86900300  0.75006400  1
  Ni  Ni54  1  0.36965300  0.63099700  0.75006400  1
  Ni  Ni55  1  0.86965300  0.36900300  0.74993600  1
  Ni  Ni56  1  0.89047800  0.12831700  0.28499200  1
  Ni  Ni57  1  0.39047800  0.87168300  0.21500800  1
  Ni  Ni58  1  0.60952200  0.62831700  0.21500800  1
  Ni  Ni59  1  0.10952200  0.37168300  0.28499200  1
  Ni  Ni60  1  0.10952200  0.87168300  0.71500800  1
  Ni  Ni61  1  0.60952200  0.12831700  0.78499200  1
  Ni  Ni62  1  0.39047800  0.37168300  0.78499200  1
  Ni  Ni63  1  0.89047800  0.62831700  0.71500800  1
  Cu  Cu64  1  0.72437800  0.07689800  0.12269900  1
  Cu  Cu65  1  0.22437800  0.92310200  0.37730100  1
  Cu  Cu66  1  0.77562200  0.57689800  0.37730100  1
  Cu  Cu67  1  0.27562200  0.42310200  0.12269900  1
  Cu  Cu68  1  0.27562200  0.92310200  0.87730100  1
  Cu  Cu69  1  0.77562200  0.07689800  0.62269900  1
  Cu  Cu70  1  0.22437800  0.42310200  0.62269900  1
  Cu  Cu71  1  0.72437800  0.57689800  0.87730100  1
