# generated using pymatgen
data_CuNiC9
_symmetry_space_group_name_H-M   'P 1'
_cell_length_a   6.19186982
_cell_length_b   6.19370579
_cell_length_c   6.94955364
_cell_angle_alpha   63.77511582
_cell_angle_beta   63.29256401
_cell_angle_gamma   60.00397476
_symmetry_Int_Tables_number   1
_chemical_formula_structural   CuNiC9
_chemical_formula_sum   'Cu1 Ni1 C9'
_cell_volume   197.90340475
_cell_formula_units_Z   1
loop_
 _symmetry_equiv_pos_site_id
 _symmetry_equiv_pos_as_xyz
  1  'x, y, z'
loop_
 _atom_site_type_symbol
 _atom_site_label
 _atom_site_symmetry_multiplicity
 _atom_site_fract_x
 _atom_site_fract_y
 _atom_site_fract_z
 _atom_site_occupancy
  C  C0  1  0.18257397  0.18266871  0.45167590  1
  C  C1  1  0.76452595  0.77453678  0.69039259  1
  Ni  Ni2  1  0.40383662  0.40674509  0.78360451  1
  Cu  Cu3  1  0.00136273  0.00538129  0.98918540  1
  C  C4  1  0.57394596  0.57240459  0.28014244  1
  C  C5  1  0.23179019  0.76132170  0.77687895  1
  C  C6  1  0.23057114  0.74095010  0.28703693  1
  C  C7  1  0.75863221  0.23055790  0.77799812  1
  C  C8  1  0.23257211  0.22940593  0.77755658  1
  C  C9  1  0.74261766  0.22933450  0.28502356  1
  C  C10  1  0.74215348  0.74169342  0.28592002  1
