# generated using pymatgen
data_Cu4NiC10
_symmetry_space_group_name_H-M   'P 1'
_cell_length_a   5.60330600
_cell_length_b   5.60330707
_cell_length_c   9.31142500
_cell_angle_alpha   90.00000000
_cell_angle_beta   90.00000000
_cell_angle_gamma   120.00000549
_symmetry_Int_Tables_number   1
_chemical_formula_structural   Cu4NiC10
_chemical_formula_sum   'Cu4 Ni1 C10'
_cell_volume   253.18357075
_cell_formula_units_Z   1
loop_
 _symmetry_equiv_pos_site_id
 _symmetry_equiv_pos_as_xyz
  1  'x, y, z'
loop_
 _atom_site_type_symbol
 _atom_site_label
 _atom_site_symmetry_multiplicity
 _atom_site_fract_x
 _atom_site_fract_y
 _atom_site_fract_z
 _atom_site_occupancy
  C  C0  1  0.00000000  0.00000000  0.75000000  1
  C  C1  1  0.00000000  0.00000000  0.25000000  1
  Ni  Ni2  1  0.66666700  0.33333300  0.25000000  1
  Cu  Cu3  1  0.33333300  0.66666700  0.45426200  1
  Cu  Cu4  1  0.66666700  0.33333300  0.95048100  1
  Cu  Cu5  1  0.66666700  0.33333300  0.54951900  1
  Cu  Cu6  1  0.33333300  0.66666700  0.04573800  1
  C  C7  1  0.66533400  0.99687100  0.50339900  1
  C  C8  1  0.66533400  0.66846400  0.99660100  1
  C  C9  1  0.00312900  0.33466600  0.99660100  1
  C  C10  1  0.00312900  0.66846400  0.50339900  1
  C  C11  1  0.33153600  0.33466600  0.50339900  1
  C  C12  1  0.33153600  0.99687100  0.99660100  1
  C  C13  1  0.33333300  0.66666700  0.25000000  1
  C  C14  1  0.66666700  0.33333300  0.75000000  1
