# generated using pymatgen
data_Cu7Ni4C71
_symmetry_space_group_name_H-M   'P 1'
_cell_length_a   19.07228965
_cell_length_b   9.54040096
_cell_length_c   23.61788601
_cell_angle_alpha   89.97726483
_cell_angle_beta   89.88260009
_cell_angle_gamma   120.06863007
_symmetry_Int_Tables_number   1
_chemical_formula_structural   Cu7Ni4C71
_chemical_formula_sum   'Cu21 Ni12 C213'
_cell_volume   3719.10858672
_cell_formula_units_Z   3
loop_
 _symmetry_equiv_pos_site_id
 _symmetry_equiv_pos_as_xyz
  1  'x, y, z'
loop_
 _atom_site_type_symbol
 _atom_site_label
 _atom_site_symmetry_multiplicity
 _atom_site_fract_x
 _atom_site_fract_y
 _atom_site_fract_z
 _atom_site_occupancy
  C  C0  1  0.80978657  0.98928948  0.24268814  1
  C  C1  1  0.18780527  0.36469651  0.26040508  1
  C  C2  1  0.69139316  0.36880220  0.25616319  1
  C  C3  1  0.99681143  0.64678807  0.24080351  1
  C  C4  1  0.50418335  0.65484121  0.24641651  1
  C  C5  1  0.30957001  0.63382486  0.75482732  1
  C  C6  1  0.00214810  0.35109565  0.75038363  1
  C  C7  1  0.49993932  0.35092250  0.74772505  1
  C  C8  1  0.18785163  0.00742775  0.76158624  1
  C  C9  1  0.68968368  0.01204161  0.76415423  1
  C  C10  1  0.14112543  0.33286745  0.58321341  1
  C  C11  1  0.63991334  0.33366922  0.58437497  1
  C  C12  1  0.33861085  0.97972418  0.57776568  1
  C  C13  1  0.84019971  0.98190763  0.57968368  1
  C  C14  1  0.13604721  0.94519308  0.08621785  1
  C  C15  1  0.65261115  0.95589655  0.08562741  1
  C  C16  1  0.33975212  0.69738010  0.07952523  1
  C  C17  1  0.83860392  0.71536746  0.07765592  1
  C  C18  1  0.48707846  0.68758673  0.92495198  1
  C  C19  1  0.98258416  0.67845149  0.92571308  1
  C  C20  1  0.34309360  0.01615761  0.91231805  1
  C  C21  1  0.84282557  0.02174687  0.92085270  1
  C  C22  1  0.17047208  0.29788730  0.90755450  1
  C  C23  1  0.67647624  0.30639546  0.90962802  1
  C  C24  1  0.48494099  0.28665267  0.41923132  1
  C  C25  1  0.98363356  0.28190270  0.42044471  1
  C  C26  1  0.17200837  0.04191523  0.40373725  1
  C  C27  1  0.67190380  0.04440410  0.40369415  1
  C  C28  1  0.34365723  0.66877697  0.40732322  1
  C  C29  1  0.84299601  0.66948829  0.40795942  1
  C  C30  1  0.99756852  0.01616319  0.49318355  1
  C  C31  1  0.49785374  0.01674438  0.49248777  1
  C  C32  1  0.98726630  0.97961646  0.00120258  1
  C  C33  1  0.50070389  0.98162971  0.99541265  1
  C  C34  1  0.32403008  0.32289557  0.83506996  1
  C  C35  1  0.82133688  0.32791355  0.83818071  1
  C  C36  1  0.32207898  0.31598349  0.33192449  1
  C  C37  1  0.82354955  0.32509709  0.32821203  1
  C  C38  1  0.16285890  0.68022613  0.17177892  1
  C  C39  1  0.66796357  0.68492298  0.16486552  1
  C  C40  1  0.15871082  0.64947951  0.67332531  1
  C  C41  1  0.66626621  0.64985772  0.67470044  1
  C  C42  1  0.99883656  0.00944233  0.65363685  1
  C  C43  1  0.49554662  0.00602095  0.65193182  1
  C  C44  1  0.99134661  0.98938942  0.14891282  1
  C  C45  1  0.50026323  0.98859312  0.15254045  1
  C  C46  1  0.83604756  0.33815025  0.68825654  1
  C  C47  1  0.33580896  0.33234706  0.18764855  1
  C  C48  1  0.15981535  0.66663547  0.01250047  1
  C  C49  1  0.67000379  0.68358885  0.01484929  1
  C  C50  1  0.16516696  0.65881552  0.51141149  1
  C  C51  1  0.66148110  0.65473929  0.51167247  1
  C  C52  1  0.18017182  0.68758922  0.31765441  1
  C  C53  1  0.68126734  0.67322942  0.82026920  1
  Ni  Ni54  1  0.99724482  0.99510845  0.34659245  1
  Ni  Ni55  1  0.50145673  0.00188072  0.34630089  1
  Ni  Ni56  1  0.00156158  0.00065357  0.84725155  1
  Ni  Ni57  1  0.49837060  0.00055951  0.84815864  1
  Ni  Ni58  1  0.33431569  0.32542246  0.68709242  1
  Ni  Ni59  1  0.83444600  0.33336072  0.18243519  1
  Ni  Ni60  1  0.33338569  0.34268580  0.98040235  1
  Ni  Ni61  1  0.83509753  0.33405722  0.98602639  1
  Ni  Ni62  1  0.33463109  0.32693185  0.48225774  1
  Ni  Ni63  1  0.83328705  0.32347390  0.48022006  1
  Ni  Ni64  1  0.68010460  0.67900830  0.31950154  1
  Ni  Ni65  1  0.17876214  0.67925366  0.82096642  1
  Cu  Cu66  1  0.14535994  0.99937927  0.25115607  1
  Cu  Cu67  1  0.65341287  0.99783197  0.25373285  1
  Cu  Cu68  1  0.35103994  0.69794738  0.25200345  1
  Cu  Cu69  1  0.84682643  0.68960946  0.25321873  1
  Cu  Cu70  1  0.15402369  0.30956663  0.75085823  1
  Cu  Cu71  1  0.64654419  0.29558450  0.75124427  1
  Cu  Cu72  1  0.34640994  0.99850254  0.75241362  1
  Cu  Cu73  1  0.85081557  0.00220716  0.75120438  1
  Cu  Cu74  1  0.47800265  0.33802345  0.58452703  1
  Cu  Cu75  1  0.98266478  0.33484500  0.58084868  1
  Cu  Cu76  1  0.48090878  0.63024506  0.08076729  1
  Cu  Cu77  1  0.97991734  0.62187819  0.08453843  1
  Cu  Cu78  1  0.83379220  0.04625159  0.08261237  1
  Cu  Cu79  1  0.32018106  0.66709602  0.91590419  1
  Cu  Cu80  1  0.82692158  0.66533736  0.92058079  1
  Cu  Cu81  1  0.16691708  0.97607514  0.91444140  1
  Cu  Cu82  1  0.66490143  0.98341911  0.91490680  1
  Cu  Cu83  1  0.32634387  0.98236022  0.42211721  1
  Cu  Cu84  1  0.82037566  0.97266601  0.41688843  1
  Cu  Cu85  1  0.16643919  0.34891588  0.41762272  1
  Cu  Cu86  1  0.66639750  0.35748086  0.41585543  1
  C  C87  1  0.99672642  0.29896348  0.25335621  1
  C  C88  1  0.50637605  0.30828400  0.25663854  1
  C  C89  1  0.00703035  0.70497775  0.75572213  1
  C  C90  1  0.49559751  0.69393401  0.75129715  1
  C  C91  1  0.18997692  0.04575894  0.58397011  1
  C  C92  1  0.68556508  0.04011075  0.58041130  1
  C  C93  1  0.33280791  0.61673729  0.58320077  1
  C  C94  1  0.83369157  0.62882514  0.57802267  1
  C  C95  1  0.33367225  0.03809280  0.07771240  1
  C  C96  1  0.18713305  0.33312473  0.08026645  1
  C  C97  1  0.68860983  0.33384765  0.08368377  1
  C  C98  1  0.01595395  0.36306401  0.91035422  1
  C  C99  1  0.51044492  0.35612538  0.91576044  1
  C  C100  1  0.00988989  0.66560265  0.41595433  1
  C  C101  1  0.51413911  0.66747283  0.41275778  1
  C  C102  1  0.10065676  0.02160637  0.30823591  1
  C  C103  1  0.61016874  0.03367034  0.30838087  1
  C  C104  1  0.40506948  0.79662443  0.30828949  1
  C  C105  1  0.90360597  0.77523251  0.30974000  1
  C  C106  1  0.49590985  0.20967276  0.30802351  1
  C  C107  1  0.98720683  0.20161579  0.30537575  1
  C  C108  1  0.11158781  0.18376931  0.80437502  1
  C  C109  1  0.59880474  0.17795356  0.80574168  1
  C  C110  1  0.48511713  0.77154658  0.80262043  1
  C  C111  1  0.99794953  0.78513087  0.80626495  1
  C  C112  1  0.40592083  0.02708457  0.80659670  1
  C  C113  1  0.90921718  0.01701060  0.80493322  1
  C  C114  1  0.38124867  0.96123986  0.69417603  1
  C  C115  1  0.88817052  0.98158723  0.69101212  1
  C  C116  1  0.10180067  0.23683646  0.69223184  1
  C  C117  1  0.60060383  0.21624997  0.69045545  1
  C  C118  1  0.01638318  0.79958380  0.70366649  1
  C  C119  1  0.50794102  0.79409225  0.70049839  1
  C  C120  1  0.39048027  0.79816623  0.19336498  1
  C  C121  1  0.88335107  0.80458019  0.19749012  1
  C  C122  1  0.00993745  0.22363076  0.20318807  1
  C  C123  1  0.51535526  0.23037512  0.20533729  1
  C  C124  1  0.09943240  0.98999358  0.19167302  1
  C  C125  1  0.59870086  0.96440451  0.19628297  1
  C  C126  1  0.43317056  0.34749887  0.64306968  1
  C  C127  1  0.94033879  0.34453756  0.63963224  1
  C  C128  1  0.23630388  0.12748546  0.63593660  1
  C  C129  1  0.73133241  0.11835479  0.63229668  1
  C  C130  1  0.32691981  0.52396706  0.63516182  1
  C  C131  1  0.82623513  0.53556819  0.62944081  1
  C  C132  1  0.43728120  0.53585141  0.13963498  1
  C  C133  1  0.93609427  0.52734548  0.14388353  1
  C  C134  1  0.32612216  0.11679000  0.12917521  1
  C  C135  1  0.82239905  0.12935115  0.14101208  1
  C  C136  1  0.23344496  0.34765744  0.13212401  1
  C  C137  1  0.73465723  0.34706907  0.13611297  1
  C  C138  1  0.22790469  0.31495096  0.02907849  1
  C  C139  1  0.72793293  0.31758098  0.03190510  1
  C  C140  1  0.42413140  0.53501756  0.02465476  1
  C  C141  1  0.92953857  0.53568725  0.02635270  1
  C  C142  1  0.33694968  0.12941879  0.02606966  1
  C  C143  1  0.83647529  0.13941874  0.02326845  1
  C  C144  1  0.22904213  0.14263292  0.53225753  1
  C  C145  1  0.72653067  0.14112300  0.52943901  1
  C  C146  1  0.33636187  0.53485199  0.53081510  1
  C  C147  1  0.83708984  0.54416587  0.52639851  1
  C  C148  1  0.42590402  0.32423415  0.52725101  1
  C  C149  1  0.92641209  0.31839626  0.52475114  1
  C  C150  1  0.28100977  0.69961765  0.97271741  1
  C  C151  1  0.78895512  0.70352222  0.97698132  1
  C  C152  1  0.06562793  0.43479635  0.96151278  1
  C  C153  1  0.56343560  0.43717956  0.96478824  1
  C  C154  1  0.14633958  0.86386634  0.97132459  1
  C  C155  1  0.64371650  0.86204660  0.96951368  1
  C  C156  1  0.29009967  0.87559716  0.48086488  1
  C  C157  1  0.78342383  0.86535435  0.47498996  1
  C  C158  1  0.14772591  0.42753519  0.47385228  1
  C  C159  1  0.64535035  0.42448727  0.47390628  1
  C  C160  1  0.06217332  0.69187612  0.46588657  1
  C  C161  1  0.56358920  0.69468360  0.46417395  1
  C  C162  1  0.04593535  0.63665179  0.36526233  1
  C  C163  1  0.55327541  0.64021568  0.36306604  1
  C  C164  1  0.25851552  0.89610895  0.37262234  1
  C  C165  1  0.75716372  0.88904722  0.36391068  1
  C  C166  1  0.18501071  0.46701958  0.36267520  1
  C  C167  1  0.68206426  0.48248062  0.36270460  1
  C  C168  1  0.05683508  0.46823799  0.86021339  1
  C  C169  1  0.54498600  0.45325226  0.86376455  1
  C  C170  1  0.18348186  0.88635612  0.86002271  1
  C  C171  1  0.68074906  0.90150782  0.85877174  1
  C  C172  1  0.25970240  0.62568727  0.86076682  1
  C  C173  1  0.76175973  0.61404087  0.86871148  1
  C  C174  1  0.00157192  0.81269995  0.41191299  1
  C  C175  1  0.50549559  0.81430498  0.40763118  1
  C  C176  1  0.41472923  0.99145617  0.41115945  1
  C  C177  1  0.91092692  0.98931645  0.40801950  1
  C  C178  1  0.08502855  0.16608072  0.41151217  1
  C  C179  1  0.58694381  0.17307920  0.40852222  1
  C  C180  1  0.00747027  0.19918106  0.90539666  1
  C  C181  1  0.50097755  0.19106877  0.91199817  1
  C  C182  1  0.08891974  0.00439271  0.90673822  1
  C  C183  1  0.58293609  0.00323136  0.91016419  1
  C  C184  1  0.41036070  0.83211818  0.90778748  1
  C  C185  1  0.91556387  0.83417687  0.90997880  1
  C  C186  1  0.48249065  0.16627928  0.58194697  1
  C  C187  1  0.98860059  0.16463709  0.57816048  1
  C  C188  1  0.10784309  0.02657223  0.58623218  1
  C  C189  1  0.60354359  0.02279764  0.58186249  1
  C  C190  1  0.40480927  0.78320952  0.58365028  1
  C  C191  1  0.90647806  0.79430113  0.57948974  1
  C  C192  1  0.48580419  0.81118610  0.07811596  1
  C  C193  1  0.98858458  0.80509815  0.08172105  1
  C  C194  1  0.40646916  0.01920043  0.07940005  1
  C  C195  1  0.91161626  0.01689592  0.08058724  1
  C  C196  1  0.10573353  0.18638041  0.08197394  1
  C  C197  1  0.60712692  0.18537641  0.08596608  1
  C  C198  1  0.34010011  0.16700358  0.74908823  1
  C  C199  1  0.84975677  0.17506082  0.75358755  1
  C  C200  1  0.24725271  0.33398521  0.74412900  1
  C  C201  1  0.73524071  0.30556330  0.75218203  1
  C  C202  1  0.41893401  0.53263162  0.74661533  1
  C  C203  1  0.93511905  0.53955816  0.75305911  1
  C  C204  1  0.35053739  0.52370825  0.25455242  1
  C  C205  1  0.84063512  0.50907662  0.24737980  1
  C  C206  1  0.43435175  0.32970314  0.25366843  1
  C  C207  1  0.92118191  0.30861226  0.24903174  1
  C  C208  1  0.23501952  0.16614336  0.25336777  1
  C  C209  1  0.74466253  0.16183433  0.24795985  1
  C  C210  1  0.33042492  0.50362333  0.91861288  1
  C  C211  1  0.83904751  0.50499555  0.92489115  1
  C  C212  1  0.42761062  0.33578692  0.92276505  1
  C  C213  1  0.93454428  0.34681460  0.91569298  1
  C  C214  1  0.25286293  0.15483494  0.92121344  1
  C  C215  1  0.74831182  0.16303802  0.92242567  1
  C  C216  1  0.33963717  0.16807472  0.42288913  1
  C  C217  1  0.83134826  0.15731571  0.41944839  1
  C  C218  1  0.25128905  0.33928331  0.42593104  1
  C  C219  1  0.75199171  0.34989392  0.42207717  1
  C  C220  1  0.43149522  0.52187616  0.41929830  1
  C  C221  1  0.92732452  0.52069990  0.42321754  1
  C  C222  1  0.18285627  0.48410491  0.07672981  1
  C  C223  1  0.68205619  0.48256566  0.08102469  1
  C  C224  1  0.07489851  0.65644326  0.08545993  1
  C  C225  1  0.57336556  0.66116058  0.08075579  1
  C  C226  1  0.25962574  0.87197158  0.07749531  1
  C  C227  1  0.75090473  0.86229162  0.08473089  1
  C  C228  1  0.18603475  0.88581768  0.58134636  1
  C  C229  1  0.68108754  0.88039820  0.57670058  1
  C  C230  1  0.25788202  0.63233353  0.58271600  1
  C  C231  1  0.75945627  0.64637983  0.57766916  1
  C  C232  1  0.07688529  0.48983788  0.58051786  1
  C  C233  1  0.57287105  0.48904722  0.58458490  1
  C  C234  1  0.14407040  0.82503686  0.25345824  1
  C  C235  1  0.65711349  0.82722824  0.26073906  1
  C  C236  1  0.25555618  0.65353347  0.25031671  1
  C  C237  1  0.75407722  0.66327492  0.25702902  1
  C  C238  1  0.06785262  0.46491259  0.25812020  1
  C  C239  1  0.58031842  0.47218690  0.26085110  1
  C  C240  1  0.15831543  0.48756960  0.75891817  1
  C  C241  1  0.64440536  0.46605254  0.75318288  1
  C  C242  1  0.08122994  0.68866856  0.75945114  1
  C  C243  1  0.56592382  0.66818310  0.75615630  1
  C  C244  1  0.25405039  0.83900133  0.75647450  1
  C  C245  1  0.75558488  0.85471633  0.75053768  1
