# generated using pymatgen
data_Cu2Ni2C9
_symmetry_space_group_name_H-M   'P 1'
_cell_length_a   9.78327549
_cell_length_b   9.78327549
_cell_length_c   7.47353100
_cell_angle_alpha   90.00000000
_cell_angle_beta   90.00000000
_cell_angle_gamma   106.66450570
_symmetry_Int_Tables_number   1
_chemical_formula_structural   Cu2Ni2C9
_chemical_formula_sum   'Cu8 Ni8 C36'
_cell_volume   685.26738899
_cell_formula_units_Z   4
loop_
 _symmetry_equiv_pos_site_id
 _symmetry_equiv_pos_as_xyz
  1  'x, y, z'
loop_
 _atom_site_type_symbol
 _atom_site_label
 _atom_site_symmetry_multiplicity
 _atom_site_fract_x
 _atom_site_fract_y
 _atom_site_fract_z
 _atom_site_occupancy
  Ni  Ni0  1  0.79332600  0.20667400  0.75000000  1
  Ni  Ni1  1  0.20667400  0.79332600  0.25000000  1
  Ni  Ni2  1  0.23857800  0.76142200  0.75000000  1
  Ni  Ni3  1  0.76142200  0.23857800  0.25000000  1
  Ni  Ni4  1  0.13445300  0.38988300  0.48738200  1
  Ni  Ni5  1  0.86554800  0.61011700  0.98738200  1
  Ni  Ni6  1  0.38988300  0.13445300  0.51261800  1
  Ni  Ni7  1  0.61011700  0.86554800  0.01261800  1
  Cu  Cu8  1  0.99130500  0.99130500  0.50000000  1
  Cu  Cu9  1  0.00869500  0.00869500  0.00000000  1
  Cu  Cu10  1  0.49460300  0.50539700  0.75000000  1
  Cu  Cu11  1  0.50539700  0.49460300  0.25000000  1
  Cu  Cu12  1  0.60034500  0.85458200  0.50143300  1
  Cu  Cu13  1  0.39965500  0.14541800  0.00143300  1
  Cu  Cu14  1  0.85458200  0.60034500  0.49856700  1
  Cu  Cu15  1  0.14541800  0.39965500  0.99856700  1
  C  C16  1  0.17618800  0.17618800  0.50000000  1
  C  C17  1  0.82381200  0.82381200  0.00000000  1
  C  C18  1  0.81779700  0.81779700  0.50000000  1
  C  C19  1  0.18220300  0.18220300  0.00000000  1
  C  C20  1  0.43107200  0.43107200  0.50000000  1
  C  C21  1  0.56892800  0.56892800  0.00000000  1
  C  C22  1  0.97306000  0.02694000  0.75000000  1
  C  C23  1  0.02694000  0.97306000  0.25000000  1
  C  C24  1  0.29240900  0.49087100  0.80143100  1
  C  C25  1  0.70759100  0.50912900  0.30143100  1
  C  C26  1  0.49087100  0.29240900  0.19856900  1
  C  C27  1  0.50912900  0.70759100  0.69856900  1
  C  C28  1  0.37113300  0.79176700  0.02013300  1
  C  C29  1  0.62886700  0.20823300  0.52013300  1
  C  C30  1  0.79176700  0.37113300  0.97986700  1
  C  C31  1  0.20823300  0.62886700  0.47986700  1
  C  C32  1  0.10115300  0.85252700  0.96893700  1
  C  C33  1  0.89884700  0.14747300  0.46893700  1
  C  C34  1  0.85252700  0.10115300  0.03106300  1
  C  C35  1  0.14747300  0.89884700  0.53106300  1
  C  C36  1  0.66967700  0.96649200  0.71703600  1
  C  C37  1  0.33032300  0.03350800  0.21703600  1
  C  C38  1  0.96649200  0.66967700  0.28296400  1
  C  C39  1  0.03350800  0.33032300  0.78296400  1
  C  C40  1  0.65749700  0.97805400  0.29651800  1
  C  C41  1  0.34250300  0.02194600  0.79651800  1
  C  C42  1  0.97805400  0.65749700  0.70348200  1
  C  C43  1  0.02194600  0.34250300  0.20348200  1
  C  C44  1  0.58313500  0.10703200  0.99979800  1
  C  C45  1  0.41686500  0.89296800  0.49979800  1
  C  C46  1  0.10703200  0.58313500  0.00020200  1
  C  C47  1  0.89296800  0.41686500  0.50020200  1
  C  C48  1  0.54354600  0.69712700  0.32099600  1
  C  C49  1  0.45645400  0.30287300  0.82099600  1
  C  C50  1  0.69712700  0.54354600  0.67900400  1
  C  C51  1  0.30287300  0.45645400  0.17900400  1
