# generated using pymatgen
data_Cu2Ni9C49
_symmetry_space_group_name_H-M   'P 1'
_cell_length_a   9.14723066
_cell_length_b   27.38428855
_cell_length_c   22.47998826
_cell_angle_alpha   89.91624556
_cell_angle_beta   89.97700764
_cell_angle_gamma   119.96286016
_symmetry_Int_Tables_number   1
_chemical_formula_structural   Cu2Ni9C49
_chemical_formula_sum   'Cu12 Ni54 C294'
_cell_volume   4878.42218145
_cell_formula_units_Z   6
loop_
 _symmetry_equiv_pos_site_id
 _symmetry_equiv_pos_as_xyz
  1  'x, y, z'
loop_
 _atom_site_type_symbol
 _atom_site_label
 _atom_site_symmetry_multiplicity
 _atom_site_fract_x
 _atom_site_fract_y
 _atom_site_fract_z
 _atom_site_occupancy
  Ni  Ni0  1  0.02234278  0.99949838  0.49606046  1
  Ni  Ni1  1  0.01467055  0.32862910  0.50281778  1
  Ni  Ni2  1  0.99818037  0.66666754  0.49930517  1
  Ni  Ni3  1  0.97970048  0.00768981  0.00200778  1
  Ni  Ni4  1  0.02447900  0.34404898  0.00258459  1
  Ni  Ni5  1  0.99801857  0.66675961  0.00318400  1
  Ni  Ni6  1  0.69758435  0.10989465  0.83563144  1
  Ni  Ni7  1  0.64615893  0.44677499  0.84151695  1
  Ni  Ni8  1  0.68171924  0.77751535  0.83088312  1
  Ni  Ni9  1  0.66121719  0.10414112  0.32657891  1
  Ni  Ni10  1  0.67295490  0.44289189  0.33488773  1
  Ni  Ni11  1  0.66889184  0.78118194  0.33358716  1
  Ni  Ni12  1  0.31736860  0.21786467  0.16091115  1
  Ni  Ni13  1  0.31176862  0.55648886  0.16799272  1
  Ni  Ni14  1  0.34066446  0.89518284  0.16424903  1
  Ni  Ni15  1  0.31597400  0.21684339  0.66377127  1
  Ni  Ni16  1  0.34388668  0.55617842  0.66763582  1
  Ni  Ni17  1  0.27433717  0.88385293  0.66376166  1
  Ni  Ni18  1  0.64137851  0.66295896  0.25442939  1
  Ni  Ni19  1  0.37876426  0.12062642  0.24501895  1
  Ni  Ni20  1  0.34743838  0.45457870  0.25785454  1
  Ni  Ni21  1  0.33865180  0.78510843  0.23267266  1
  Ni  Ni22  1  0.99887604  0.21429926  0.24730489  1
  Ni  Ni23  1  0.02683533  0.54955025  0.24847686  1
  Ni  Ni24  1  0.60818068  0.20705996  0.74991645  1
  Ni  Ni25  1  0.61896096  0.54072320  0.75925597  1
  Ni  Ni26  1  0.62177877  0.86965076  0.74447101  1
  Ni  Ni27  1  0.98821696  0.12492258  0.74655088  1
  Ni  Ni28  1  0.01904616  0.46164848  0.75572285  1
  Ni  Ni29  1  0.38920088  0.00452036  0.74178380  1
  Ni  Ni30  1  0.37519249  0.32888689  0.75643915  1
  Ni  Ni31  1  0.37580279  0.66769862  0.75059322  1
  Ni  Ni32  1  0.32250181  0.78121269  0.57463032  1
  Ni  Ni33  1  0.00879247  0.56287194  0.57187115  1
  Ni  Ni34  1  0.67577499  0.32774806  0.57220363  1
  Ni  Ni35  1  0.65888052  0.99020315  0.57384571  1
  Ni  Ni36  1  0.30830156  0.32653703  0.06965366  1
  Ni  Ni37  1  0.30701061  0.98770990  0.07234138  1
  Ni  Ni38  1  0.65804837  0.22481921  0.09104046  1
  Ni  Ni39  1  0.68035679  0.57104416  0.08979481  1
  Ni  Ni40  1  0.66173913  0.89894140  0.07177058  1
  Ni  Ni41  1  0.05350457  0.78033978  0.08343372  1
  Ni  Ni42  1  0.96797953  0.55018891  0.92900427  1
  Ni  Ni43  1  0.99973032  0.89388054  0.92037403  1
  Ni  Ni44  1  0.68948923  0.34180124  0.92256070  1
  Ni  Ni45  1  0.35017829  0.10802912  0.90788818  1
  Ni  Ni46  1  0.32668196  0.77235021  0.92754937  1
  Ni  Ni47  1  0.98819586  0.10096598  0.40928527  1
  Ni  Ni48  1  0.95162250  0.43387665  0.42322988  1
  Ni  Ni49  1  0.00191614  0.77478249  0.43354544  1
  Ni  Ni50  1  0.30646318  0.00696816  0.41712436  1
  Ni  Ni51  1  0.34182236  0.34256354  0.42678344  1
  Ni  Ni52  1  0.69174495  0.55224420  0.43025618  1
  Ni  Ni53  1  0.69027766  0.89330652  0.40914750  1
  Cu  Cu54  1  0.98691964  0.99592727  0.34431105  1
  Cu  Cu55  1  0.01248447  0.67118376  0.14401854  1
  Cu  Cu56  1  0.68116947  0.11728944  0.68318924  1
  Cu  Cu57  1  0.66739791  0.77332555  0.69116478  1
  Cu  Cu58  1  0.68478181  0.11932427  0.18133864  1
  Cu  Cu59  1  0.64575976  0.43823237  0.98559809  1
  Cu  Cu60  1  0.65798082  0.44152631  0.48782397  1
  Cu  Cu61  1  0.33212427  0.88774417  0.01572200  1
  Cu  Cu62  1  0.32642635  0.88749514  0.51751547  1
  Cu  Cu63  1  0.34301514  0.55918750  0.31981139  1
  Cu  Cu64  1  0.31837530  0.21528269  0.81689724  1
  Cu  Cu65  1  0.34169263  0.56129434  0.81331640  1
  C  C66  1  0.99099899  0.33351461  0.35460462  1
  C  C67  1  0.00987851  0.66610289  0.34856378  1
  C  C68  1  0.00390835  0.00322360  0.85434633  1
  C  C69  1  0.01038037  0.33669255  0.85478508  1
  C  C70  1  0.98873002  0.66214388  0.85482760  1
  C  C71  1  0.00126210  0.99760278  0.64365964  1
  C  C72  1  -0.00018222  0.33128583  0.64586070  1
  C  C73  1  0.00262465  0.67187073  0.64586793  1
  C  C74  1  0.99339980  0.99851742  0.15261805  1
  C  C75  1  0.98890449  0.32959749  0.14943199  1
  C  C76  1  0.66803807  0.44472057  0.68345947  1
  C  C77  1  0.66533292  0.44045147  0.18308792  1
  C  C78  1  0.65749090  0.77299958  0.18727775  1
  C  C79  1  0.67051905  0.11021094  0.98686938  1
  C  C80  1  0.67232964  0.78177063  0.97796243  1
  C  C81  1  0.66985569  0.11555117  0.48515565  1
  C  C82  1  0.67351206  0.77833540  0.48372513  1
  C  C83  1  0.33181236  0.22158122  0.01069304  1
  C  C84  1  0.33047367  0.55544565  0.01746652  1
  C  C85  1  0.33825729  0.22425184  0.51990486  1
  C  C86  1  0.33551819  0.55621389  0.51682632  1
  C  C87  1  0.34320306  0.22179493  0.31253561  1
  C  C88  1  0.32453379  0.88968468  0.31712113  1
  C  C89  1  0.33279700  0.88954044  0.81483009  1
  C  C90  1  0.28784556  0.33383681  0.25112519  1
  C  C91  1  0.30194617  0.66421695  0.24553887  1
  C  C92  1  0.70324054  0.23460006  0.25163492  1
  C  C93  1  0.68076029  0.89795846  0.25048849  1
  C  C94  1  0.98485240  0.42662986  0.25237031  1
  C  C95  1  0.99544594  0.76564182  0.24840488  1
  C  C96  1  0.29690297  0.42807636  0.74949910  1
  C  C97  1  0.28151634  0.76262373  0.75209527  1
  C  C98  1  0.99755498  0.57075341  0.74825437  1
  C  C99  1  0.00963187  0.90575276  0.75215759  1
  C  C100  1  0.70872189  0.99690189  0.74955971  1
  C  C101  1  0.71718889  0.33586110  0.74796389  1
  C  C102  1  0.96775354  0.11037320  0.58458402  1
  C  C103  1  0.96990988  0.44359248  0.58074612  1
  C  C104  1  0.36342525  0.34138674  0.58390122  1
  C  C105  1  0.36844457  0.67886611  0.58665080  1
  C  C106  1  0.66734949  0.21273896  0.58890659  1
  C  C107  1  0.66146072  0.54523373  0.58390262  1
  C  C108  1  0.97520691  0.21298373  0.08595875  1
  C  C109  1  0.95388332  0.87425334  0.08516537  1
  C  C110  1  0.66079341  0.34097093  0.07905875  1
  C  C111  1  0.65995024  0.68107509  0.08111594  1
  C  C112  1  0.36300175  0.11068589  0.08502019  1
  C  C113  1  0.36421292  0.44411957  0.08781919  1
  C  C114  1  0.63855374  0.22222949  0.91533532  1
  C  C115  1  0.63959074  0.89177759  0.91607932  1
  C  C116  1  0.02609189  0.12311486  0.90946077  1
  C  C117  1  0.03299608  0.78833801  0.91837865  1
  C  C118  1  0.33063718  0.65621015  0.91381375  1
  C  C119  1  0.34297778  0.99134325  0.91744208  1
  C  C120  1  0.62805743  0.31993038  0.41691018  1
  C  C121  1  0.64285845  0.65574139  0.41505595  1
  C  C122  1  0.34817216  0.12849558  0.41570442  1
  C  C123  1  0.34063150  0.78985417  0.41747742  1
  C  C124  1  0.04879055  0.22194311  0.41564846  1
  C  C125  1  0.02836694  0.89063281  0.42151372  1
  C  C126  1  0.29579760  0.99775426  0.25336785  1
  C  C127  1  0.71200922  0.56464154  0.24768627  1
  C  C128  1  0.01367204  0.10294515  0.25276466  1
  C  C129  1  0.27949833  0.09648341  0.74754412  1
  C  C130  1  0.98878668  0.23708733  0.75237710  1
  C  C131  1  0.71599817  0.66602431  0.75009208  1
  C  C132  1  0.96768721  0.77779201  0.58711051  1
  C  C133  1  0.36950483  0.01420851  0.58668938  1
  C  C134  1  0.68043748  0.87753693  0.58548119  1
  C  C135  1  0.96578223  0.53953349  0.07923099  1
  C  C136  1  0.67039546  0.01238720  0.08963534  1
  C  C137  1  0.38233286  0.77792516  0.08241470  1
  C  C138  1  0.63028775  0.55570958  0.91569510  1
  C  C139  1  0.04037585  0.45616453  0.91310885  1
  C  C140  1  0.32931459  0.32225391  0.91021247  1
  C  C141  1  0.62214009  0.99218233  0.41797543  1
  C  C142  1  0.31746481  0.45330742  0.41573484  1
  C  C143  1  0.03067825  0.55559151  0.41021995  1
  C  C144  1  0.23096184  0.00478978  0.31310459  1
  C  C145  1  0.19935391  0.34848208  0.30764168  1
  C  C146  1  0.18343653  0.66474380  0.30447348  1
  C  C147  1  0.83457986  0.27947285  0.30226366  1
  C  C148  1  0.82727452  0.59701468  0.30336677  1
  C  C149  1  0.77204591  0.91324717  0.31314538  1
  C  C150  1  0.01932743  0.07772589  0.31191096  1
  C  C151  1  0.97805183  0.39704911  0.31826551  1
  C  C152  1  0.96245054  0.71503538  0.29831555  1
  C  C153  1  0.17598717  0.06964337  0.80566943  1
  C  C154  1  0.20521216  0.39362508  0.81232904  1
  C  C155  1  0.15826185  0.71556181  0.80269857  1
  C  C156  1  0.00112081  0.27622567  0.80651993  1
  C  C157  1  0.97417322  0.59548349  0.81295506  1
  C  C158  1  0.02927423  0.94974197  0.80589142  1
  C  C159  1  0.82684011  0.99960878  0.80604799  1
  C  C160  1  0.84630751  0.34555975  0.80589034  1
  C  C161  1  0.80338992  0.65478211  0.80425267  1
  C  C162  1  0.81362751  0.33192977  0.68876352  1
  C  C163  1  0.83956577  0.67800748  0.69677801  1
  C  C164  1  0.80652957  0.98900401  0.69033982  1
  C  C165  1  0.16791278  0.05772015  0.69499421  1
  C  C166  1  0.17189815  0.38368128  0.69943348  1
  C  C167  1  0.18680246  0.73704951  0.68709150  1
  C  C168  1  0.96360147  0.26617516  0.69715258  1
  C  C169  1  0.01140655  0.61660848  0.69707313  1
  C  C170  1  0.02476072  0.94187914  0.69020529  1
  C  C171  1  0.79871334  0.26228833  0.18835680  1
  C  C172  1  0.77879783  0.59975173  0.19145775  1
  C  C173  1  0.80034963  0.94497454  0.19795989  1
  C  C174  1  0.02353849  0.06434074  0.20111847  1
  C  C175  1  0.97683302  0.37879991  0.20625879  1
  C  C176  1  0.05277814  0.75296963  0.18598533  1
  C  C177  1  0.16209184  0.31951682  0.19382563  1
  C  C178  1  0.18955743  0.65750595  0.18975023  1
  C  C179  1  0.16236370  0.99021928  0.20178606  1
  C  C180  1  0.91962343  0.12451914  0.64776889  1
  C  C181  1  0.86419595  0.45502313  0.63578215  1
  C  C182  1  0.87977751  0.77831246  0.64311772  1
  C  C183  1  0.45997156  0.04330606  0.64356242  1
  C  C184  1  0.50283582  0.38022447  0.63790935  1
  C  C185  1  0.44501398  0.69183282  0.65165864  1
  C  C186  1  0.63878066  0.18562546  0.65292776  1
  C  C187  1  0.63185057  0.50052750  0.63943255  1
  C  C188  1  0.65748717  0.84434504  0.64204462  1
  C  C189  1  0.94591201  0.18917067  0.15188795  1
  C  C190  1  0.86863192  0.50035383  0.13546333  1
  C  C191  1  0.82622114  0.82676837  0.13408240  1
  C  C192  1  0.65373136  0.04044007  0.14444491  1
  C  C193  1  0.63417687  0.38039170  0.13205759  1
  C  C194  1  0.64028349  0.70562473  0.14634150  1
  C  C195  1  0.47647340  0.13747504  0.14351896  1
  C  C196  1  0.50448894  0.45891616  0.14344641  1
  C  C197  1  0.46730588  0.76515120  0.13586566  1
  C  C198  1  0.46160126  0.09453901  0.03339971  1
  C  C199  1  0.41093956  0.41656036  0.03411784  1
  C  C200  1  0.50240438  0.79055868  0.02747012  1
  C  C201  1  0.81611508  0.16945190  0.04281143  1
  C  C202  1  0.87506714  0.51159699  0.02267823  1
  C  C203  1  0.85490241  0.85038280  0.02046293  1
  C  C204  1  0.68397993  0.04754966  0.03232301  1
  C  C205  1  0.69516894  0.37089585  0.01652136  1
  C  C206  1  0.67616827  0.72880131  0.03226025  1
  C  C207  1  0.46661052  0.05165992  0.52975830  1
  C  C208  1  0.41610390  0.37290627  0.52155154  1
  C  C209  1  0.48991256  0.72944117  0.53804949  1
  C  C210  1  0.68867394  0.17287073  0.53612346  1
  C  C211  1  0.72679953  0.52843904  0.52539234  1
  C  C212  1  0.69551233  0.84539715  0.52920494  1
  C  C213  1  0.82211619  0.09809874  0.53171842  1
  C  C214  1  0.85476871  0.42243709  0.52223594  1
  C  C215  1  0.86755980  0.77994308  0.53019579  1
  C  C216  1  0.53997884  0.23727610  0.96871167  1
  C  C217  1  0.52253136  0.55902405  0.96931939  1
  C  C218  1  0.57457815  0.90148955  0.97796394  1
  C  C219  1  0.18649265  0.16755997  0.95280939  1
  C  C220  1  0.15450303  0.49019422  0.96806543  1
  C  C221  1  0.13739054  0.80321294  0.97923589  1
  C  C222  1  0.33371369  0.28846908  0.96668390  1
  C  C223  1  0.30192228  0.60674347  0.96419788  1
  C  C224  1  0.27719757  0.95189438  0.97550895  1
  C  C225  1  0.53756821  0.29038863  0.47947327  1
  C  C226  1  0.52153681  0.60453351  0.46338131  1
  C  C227  1  0.56037856  0.95962147  0.47575801  1
  C  C228  1  0.34293926  0.17309003  0.46297876  1
  C  C229  1  0.29728630  0.48827321  0.46773687  1
  C  C230  1  0.27814976  0.80263677  0.47873733  1
  C  C231  1  0.18279811  0.23955909  0.47038265  1
  C  C232  1  0.14668382  0.55763507  0.46317196  1
  C  C233  1  0.14001593  0.90062400  0.47851433  1
  C  C234  1  0.13196597  0.20703007  0.35743070  1
  C  C235  1  0.10134180  0.55173622  0.35072256  1
  C  C236  1  0.14494574  0.88711868  0.36391254  1
  C  C237  1  0.49839302  0.27673089  0.36462483  1
  C  C238  1  0.56152557  0.64208778  0.35076472  1
  C  C239  1  0.49723322  0.95734860  0.36535035  1
  C  C240  1  0.35993024  0.16035888  0.35027901  1
  C  C241  1  0.31835748  0.47962866  0.35655298  1
  C  C242  1  0.37645482  0.83964650  0.36716972  1
  C  C243  1  0.05564647  0.14589891  0.84310209  1
  C  C244  1  0.12261401  0.48654054  0.85554337  1
  C  C245  1  0.14520054  0.83784986  0.86747673  1
  C  C246  1  0.32664060  0.29205279  0.85347194  1
  C  C247  1  0.36672349  0.64100583  0.84944244  1
  C  C248  1  0.36138185  0.95622316  0.85977100  1
  C  C249  1  0.52405896  0.20077617  0.85651067  1
  C  C250  1  0.54505100  0.55143164  0.85669344  1
  C  C251  1  0.50963194  0.88349420  0.86020495  1
  C  C252  1  0.02795188  0.27752705  0.40297855  1
  C  C253  1  0.01462304  0.61065663  0.41380446  1
  C  C254  1  0.98432285  0.94017501  0.41607070  1
  C  C255  1  0.81566129  0.32411519  0.41291979  1
  C  C256  1  0.83390364  0.66184140  0.41476135  1
  C  C257  1  0.80067038  0.00410658  0.40542658  1
  C  C258  1  0.18377948  0.06708935  0.42164554  1
  C  C259  1  0.15674196  0.39240812  0.42047807  1
  C  C260  1  0.17791485  0.73013263  0.39333735  1
  C  C261  1  0.02160335  0.06187367  0.91525675  1
  C  C262  1  0.02437339  0.39580525  0.91544803  1
  C  C263  1  0.00159089  0.72620977  0.89827307  1
  C  C264  1  0.16435704  0.32685710  0.91550522  1
  C  C265  1  0.15173158  0.65964600  0.91534959  1
  C  C266  1  0.19238217  0.00672703  0.90285935  1
  C  C267  1  0.82090331  0.28150585  0.90837033  1
  C  C268  1  0.80912881  0.61156951  0.91874988  1
  C  C269  1  0.83847827  0.94234108  0.90604557  1
  C  C270  1  0.97372968  0.05022017  0.58713778  1
  C  C271  1  0.01336723  0.39400848  0.59782502  1
  C  C272  1  0.97496746  0.72079720  0.58098832  1
  C  C273  1  0.18905706  0.00829714  0.58548839  1
  C  C274  1  0.17276034  0.32765821  0.60002319  1
  C  C275  1  0.17471579  0.67221764  0.58445284  1
  C  C276  1  0.83339666  0.27740068  0.58376779  1
  C  C277  1  0.81892887  0.60807666  0.60222706  1
  C  C278  1  0.84667764  0.93681928  0.58538400  1
  C  C279  1  0.99494877  0.27717781  0.08232964  1
  C  C280  1  0.97440489  0.59654124  0.08475175  1
  C  C281  1  0.96139881  0.93589258  0.09656129  1
  C  C282  1  0.83679676  0.00705042  0.09150241  1
  C  C283  1  0.81535828  0.33003775  0.09763692  1
  C  C284  1  0.82224124  0.67332713  0.07628744  1
  C  C285  1  0.18121913  0.05147087  0.09639889  1
  C  C286  1  0.17289706  0.39515681  0.10835515  1
  C  C287  1  0.20895323  0.72880980  0.06785793  1
  C  C288  1  0.69090622  0.05216506  0.75000115  1
  C  C289  1  0.71186346  0.39571374  0.74167700  1
  C  C290  1  0.69063929  0.71549252  0.76302860  1
  C  C291  1  0.44773313  0.09799388  0.75385746  1
  C  C292  1  0.48352419  0.43124071  0.74561951  1
  C  C293  1  0.46480521  0.76883369  0.75731505  1
  C  C294  1  0.83172715  0.17989146  0.76319313  1
  C  C295  1  0.82063208  0.50979597  0.73889489  1
  C  C296  1  0.83689896  0.84776016  0.75907592  1
  C  C297  1  0.68386920  0.17387542  0.26270120  1
  C  C298  1  0.71824049  0.50794140  0.24430104  1
  C  C299  1  0.65004949  0.83583284  0.22780482  1
  C  C300  1  0.86411118  0.11211992  0.24876379  1
  C  C301  1  0.81301868  0.43161693  0.24197153  1
  C  C302  1  0.82072808  0.76968718  0.24656466  1
  C  C303  1  0.46280881  0.05061985  0.23981073  1
  C  C304  1  0.47193996  0.39086889  0.23807163  1
  C  C305  1  0.47992820  0.72623292  0.24904071  1
  C  C306  1  0.65710103  0.16872086  0.93980970  1
  C  C307  1  0.66494960  0.50711667  0.92291478  1
  C  C308  1  0.64860678  0.83233854  0.91683403  1
  C  C309  1  0.85288616  0.11727893  0.93750457  1
  C  C310  1  0.86263740  0.44814020  0.91648632  1
  C  C311  1  0.84908750  0.78608027  0.92276551  1
  C  C312  1  0.51285626  0.05391171  0.92501991  1
  C  C313  1  0.48887247  0.38006834  0.91024809  1
  C  C314  1  0.48043648  0.71943660  0.93515065  1
  C  C315  1  0.62279988  0.04988321  0.42044186  1
  C  C316  1  0.64388371  0.38056167  0.40717953  1
  C  C317  1  0.66490203  0.71547742  0.44123389  1
  C  C318  1  0.52082436  0.12443226  0.42666909  1
  C  C319  1  0.47884065  0.45019427  0.42182117  1
  C  C320  1  0.51512954  0.78583982  0.42389154  1
  C  C321  1  0.86807399  0.16498493  0.43176867  1
  C  C322  1  0.85217107  0.50410880  0.41660113  1
  C  C323  1  0.84934917  0.82749291  0.42273346  1
  C  C324  1  0.33183772  0.16128638  0.05753988  1
  C  C325  1  0.36795048  0.50422270  0.07330269  1
  C  C326  1  0.37690170  0.83179472  0.09781364  1
  C  C327  1  0.15310321  0.22110741  0.05871595  1
  C  C328  1  0.14816157  0.54604167  0.07755434  1
  C  C329  1  0.13858840  0.88175167  0.08931998  1
  C  C330  1  0.48476908  0.27827306  0.07925136  1
  C  C331  1  0.49015748  0.61839627  0.06779987  1
  C  C332  1  0.51863970  0.95255601  0.08430573  1
  C  C333  1  0.36018504  0.28076586  0.58461680  1
  C  C334  1  0.33791762  0.61777643  0.56003966  1
  C  C335  1  0.36068238  0.95698893  0.58437018  1
  C  C336  1  0.50581887  0.21982799  0.57030607  1
  C  C337  1  0.48775097  0.54924456  0.57336140  1
  C  C338  1  0.53175963  0.88757698  0.57772311  1
  C  C339  1  0.15067721  0.16269339  0.56240690  1
  C  C340  1  0.14446077  0.50502359  0.57201125  1
  C  C341  1  0.15157406  0.82456498  0.58645922  1
  C  C342  1  0.30435540  0.27785278  0.26344013  1
  C  C343  1  0.34250356  0.61365413  0.24780713  1
  C  C344  1  0.30707806  0.94239204  0.25312187  1
  C  C345  1  0.51965929  0.23258347  0.25347478  1
  C  C346  1  0.53071169  0.55054528  0.25871102  1
  C  C347  1  0.48970288  0.89093592  0.25316111  1
  C  C348  1  0.18343150  0.16196819  0.24556313  1
  C  C349  1  0.15008332  0.48722667  0.24316258  1
  C  C350  1  0.15524980  0.82402624  0.27427027  1
  C  C351  1  0.29506857  0.15411685  0.73764068  1
  C  C352  1  0.31597437  0.48928217  0.74428145  1
  C  C353  1  0.29520066  0.82430408  0.76375199  1
  C  C354  1  0.15092582  0.23464290  0.74480963  1
  C  C355  1  0.15936541  0.56296817  0.74293930  1
  C  C356  1  0.18694857  0.90279512  0.75536880  1
  C  C357  1  0.53291636  0.28160256  0.75376488  1
  C  C358  1  0.55107792  0.61141328  0.73693257  1
  C  C359  1  0.52245405  0.93856573  0.75543425  1
