# generated using pymatgen
data_Cu7Ni5C66
_symmetry_space_group_name_H-M   'P 1'
_cell_length_a   18.22693010
_cell_length_b   9.14582058
_cell_length_c   23.10973265
_cell_angle_alpha   89.83791370
_cell_angle_beta   88.99087925
_cell_angle_gamma   120.00154367
_symmetry_Int_Tables_number   1
_chemical_formula_structural   Cu7Ni5C66
_chemical_formula_sum   'Cu21 Ni15 C198'
_cell_volume   3335.40386569
_cell_formula_units_Z   3
loop_
 _symmetry_equiv_pos_site_id
 _symmetry_equiv_pos_as_xyz
  1  'x, y, z'
loop_
 _atom_site_type_symbol
 _atom_site_label
 _atom_site_symmetry_multiplicity
 _atom_site_fract_x
 _atom_site_fract_y
 _atom_site_fract_z
 _atom_site_occupancy
  C  C0  1  0.32807795  0.00009994  0.24843522  1
  C  C1  1  0.82696550  0.99934338  0.24946091  1
  C  C2  1  0.18251317  0.37649797  0.23923158  1
  C  C3  1  0.68276343  0.37710227  0.24039439  1
  C  C4  1  0.99370022  0.62468531  0.26045956  1
  C  C5  1  0.49481339  0.62540786  0.26094759  1
  C  C6  1  0.82827681  0.65431384  0.74682845  1
  C  C7  1  0.99360777  0.36316010  0.76064469  1
  C  C8  1  0.49573980  0.35243660  0.75971902  1
  C  C9  1  0.18020453  0.98576945  0.74217426  1
  C  C10  1  0.02061781  0.71222738  0.58571996  1
  C  C11  1  0.32865453  0.96988223  0.59293239  1
  C  C12  1  0.02271063  0.32996385  0.08389289  1
  C  C13  1  0.52259994  0.32965515  0.08512627  1
  C  C14  1  0.16057584  0.30009174  0.92705053  1
  C  C15  1  0.66265462  0.30259235  0.92791614  1
  C  C16  1  0.16083156  0.02098221  0.42691216  1
  C  C17  1  0.66136631  0.01961530  0.42858307  1
  C  C18  1  0.99885529  0.99687892  0.50030454  1
  C  C19  1  0.51240895  0.98877342  0.50062309  1
  C  C20  1  0.00314268  0.00563009  0.00001831  1
  C  C21  1  0.50308155  0.00457670  0.00226376  1
  C  C22  1  0.34642742  0.33067487  0.83729079  1
  C  C23  1  0.84882274  0.32267652  0.83289023  1
  C  C24  1  0.35428839  0.37317988  0.33510404  1
  C  C25  1  0.85212832  0.37028261  0.33655346  1
  C  C26  1  0.17597819  0.65218910  0.16515373  1
  C  C27  1  0.67618313  0.65205164  0.16618150  1
  C  C28  1  0.17136561  0.67906614  0.67145814  1
  C  C29  1  0.68229166  0.72316843  0.66305307  1
  C  C30  1  0.98998076  0.98527602  0.34892636  1
  C  C31  1  0.49148650  0.98783580  0.34923181  1
  C  C32  1  0.99211491  0.99578622  0.84891689  1
  C  C33  1  0.49333090  0.00633692  0.85084017  1
  C  C34  1  0.99915029  0.99402313  0.65056684  1
  C  C35  1  0.50425721  0.99854630  0.64913926  1
  C  C36  1  0.00135519  0.00575091  0.15044974  1
  C  C37  1  0.50165369  0.00581178  0.15078283  1
  C  C38  1  0.33063044  0.32566706  0.67978291  1
  C  C39  1  0.82936475  0.31764291  0.68473917  1
  C  C40  1  0.33310994  0.34197045  0.18209973  1
  C  C41  1  0.83298405  0.34134543  0.18189878  1
  C  C42  1  0.33520597  0.33449276  0.98324313  1
  C  C43  1  0.83565044  0.33483823  0.98298566  1
  C  C44  1  0.33652226  0.34307057  0.48266781  1
  C  C45  1  0.83308945  0.33430666  0.48390302  1
  C  C46  1  0.16603100  0.65220262  0.01580470  1
  C  C47  1  0.66594916  0.65571514  0.01720457  1
  C  C48  1  0.16097854  0.66778366  0.51458264  1
  C  C49  1  0.66122203  0.68124102  0.51862544  1
  C  C50  1  0.15943214  0.65002821  0.31749877  1
  C  C51  1  0.65979628  0.65017200  0.31815913  1
  C  C52  1  0.16339022  0.66987000  0.81577334  1
  C  C53  1  0.66469992  0.67527342  0.81837181  1
  Ni  Ni54  1  0.35148443  0.70373315  0.24987477  1
  Ni  Ni55  1  0.85129710  0.70293812  0.24963927  1
  Ni  Ni56  1  0.99857331  0.29509412  0.24786574  1
  Ni  Ni57  1  0.49873546  0.29545137  0.24790392  1
  Ni  Ni58  1  0.99858023  0.70103143  0.74796714  1
  Ni  Ni59  1  0.35252730  0.00196480  0.74580433  1
  Ni  Ni60  1  0.84928104  0.99616328  0.75030417  1
  Ni  Ni61  1  0.18283632  0.03596943  0.58037080  1
  Ni  Ni62  1  0.68389148  0.03838438  0.58189782  1
  Ni  Ni63  1  0.18320699  0.32843125  0.08236012  1
  Ni  Ni64  1  0.68306711  0.32798757  0.08231640  1
  Ni  Ni65  1  0.01528670  0.36008508  0.91627267  1
  Ni  Ni66  1  0.51611951  0.36840449  0.91635180  1
  Ni  Ni67  1  0.01325058  0.66976305  0.41685186  1
  Ni  Ni68  1  0.51493518  0.67094070  0.41407361  1
  Cu  Cu69  1  0.14903294  -0.00023094  0.25132852  1
  Cu  Cu70  1  0.64919290  0.99961163  0.25080586  1
  Cu  Cu71  1  0.15101800  0.29859335  0.75026046  1
  Cu  Cu72  1  0.64775371  0.29727023  0.75244393  1
  Cu  Cu73  1  0.49811505  0.70022364  0.75101365  1
  Cu  Cu74  1  0.48323608  0.33433314  0.58392369  1
  Cu  Cu75  1  0.98406387  0.33259414  0.58356253  1
  Cu  Cu76  1  0.33160639  0.63098087  0.58331275  1
  Cu  Cu77  1  0.83103825  0.63003964  0.58370245  1
  Cu  Cu78  1  0.48475588  0.63656233  0.08265289  1
  Cu  Cu79  1  0.98519387  0.63689362  0.08281351  1
  Cu  Cu80  1  0.33080896  0.03124221  0.08326553  1
  Cu  Cu81  1  0.83064249  0.03116015  0.08342814  1
  Cu  Cu82  1  0.31539993  0.66758054  0.91533270  1
  Cu  Cu83  1  0.81554743  0.66639216  0.91659913  1
  Cu  Cu84  1  0.16747980  0.96520245  0.91726542  1
  Cu  Cu85  1  0.66510397  0.96472001  0.91762928  1
  Cu  Cu86  1  0.31445759  0.96311146  0.41743012  1
  Cu  Cu87  1  0.81445750  0.96263776  0.41594786  1
  Cu  Cu88  1  0.16698964  0.36668730  0.41733354  1
  Cu  Cu89  1  0.66694197  0.36834760  0.41774518  1
  C  C90  1  0.11259729  0.03018324  0.30490426  1
  C  C91  1  0.61277517  0.03041979  0.30437076  1
  C  C92  1  0.41395246  0.77294659  0.30470928  1
  C  C93  1  0.91445182  0.77057190  0.30426328  1
  C  C94  1  0.48130468  0.17121606  0.30366315  1
  C  C95  1  0.98253975  0.17251182  0.30377382  1
  C  C96  1  0.11480009  0.19555331  0.80405223  1
  C  C97  1  0.61230078  0.19509115  0.80649096  1
  C  C98  1  0.49013050  0.78282975  0.80386027  1
  C  C99  1  0.98375455  0.79380607  0.80338993  1
  C  C100  1  0.41763197  0.04936930  0.79912617  1
  C  C101  1  0.90908979  0.04198692  0.80652118  1
  C  C102  1  0.39440811  0.97948371  0.68515431  1
  C  C103  1  0.89047636  0.95544831  0.69296669  1
  C  C104  1  0.09760622  0.21735326  0.69957626  1
  C  C105  1  0.59376983  0.21317963  0.70205180  1
  C  C106  1  0.02310221  0.81579794  0.68833692  1
  C  C107  1  0.51096455  0.80169561  0.69770873  1
  C  C108  1  0.39293949  0.82480291  0.19246442  1
  C  C109  1  0.89301755  0.82516285  0.19250005  1
  C  C110  1  0.02150432  0.22864268  0.18822479  1
  C  C111  1  0.52095865  0.22839650  0.18811343  1
  C  C112  1  0.09510603  0.96991494  0.20079369  1
  C  C113  1  0.59527482  0.96981175  0.20037256  1
  C  C114  1  0.44906225  0.36627299  0.63900321  1
  C  C115  1  0.94769493  0.36505251  0.63692353  1
  C  C116  1  0.23988168  0.11488618  0.63862220  1
  C  C117  1  0.73981660  0.13459090  0.63723493  1
  C  C118  1  0.32325036  0.53271842  0.63705018  1
  C  C119  1  0.82211946  0.53819343  0.63905310  1
  C  C120  1  0.44914887  0.53152175  0.13674058  1
  C  C121  1  0.94965309  0.53210284  0.13699745  1
  C  C122  1  0.32095409  0.10545548  0.13844192  1
  C  C123  1  0.82071899  0.10495441  0.13861016  1
  C  C124  1  0.23395998  0.34387109  0.14183005  1
  C  C125  1  0.73389741  0.34332467  0.14166516  1
  C  C126  1  0.22925138  0.31695256  0.02207665  1
  C  C127  1  0.72913415  0.31628573  0.02214224  1
  C  C128  1  0.43275542  0.55121204  0.03206373  1
  C  C129  1  0.93271896  0.55173399  0.03240760  1
  C  C130  1  0.34627738  0.14679764  0.03342111  1
  C  C131  1  0.84545821  0.14592335  0.03356479  1
  C  C132  1  0.23062492  0.14579242  0.52166134  1
  C  C133  1  0.72406674  0.13635700  0.51921951  1
  C  C134  1  0.34475720  0.55395369  0.53133001  1
  C  C135  1  0.84725407  0.54643253  0.53416786  1
  C  C136  1  0.42885790  0.31462147  0.53491368  1
  C  C137  1  0.93364236  0.31468454  0.53203819  1
  C  C138  1  0.27954371  0.69830928  0.96895578  1
  C  C139  1  0.77409455  0.69181515  0.96822332  1
  C  C140  1  0.07315330  0.44420157  0.97413483  1
  C  C141  1  0.57449916  0.45381207  0.97303922  1
  C  C142  1  0.16185958  0.86288610  0.96866477  1
  C  C143  1  0.65725562  0.86385169  0.96983691  1
  C  C144  1  0.27455382  0.86081521  0.47117574  1
  C  C145  1  0.77225479  0.85421871  0.46770963  1
  C  C146  1  0.16083952  0.45707892  0.46882620  1
  C  C147  1  0.66105375  0.46146401  0.46846858  1
  C  C148  1  0.07190361  0.70367581  0.47446758  1
  C  C149  1  0.57860749  0.70494789  0.46752654  1
  C  C150  1  0.05707244  0.64842628  0.35679125  1
  C  C151  1  0.55386413  0.64786939  0.35208378  1
  C  C152  1  0.26428785  0.87693967  0.36550927  1
  C  C153  1  0.76719048  0.88217180  0.36218686  1
  C  C154  1  0.18033482  0.46476669  0.36267585  1
  C  C155  1  0.67950475  0.46291147  0.36216705  1
  C  C156  1  0.05995397  0.46890702  0.85639437  1
  C  C157  1  0.55870050  0.47455076  0.85529061  1
  C  C158  1  0.18013341  0.89409319  0.86242674  1
  C  C159  1  0.67973088  0.89277580  0.86410548  1
  C  C160  1  0.26419198  0.65193310  0.86419536  1
  C  C161  1  0.76700518  0.64933720  0.86327497  1
  C  C162  1  0.01298023  0.85102362  0.41344898  1
  C  C163  1  0.51349282  0.85129450  0.41286958  1
  C  C164  1  0.40142241  0.99108492  0.41519767  1
  C  C165  1  0.90169557  0.99225331  0.41469198  1
  C  C166  1  0.08923839  0.19823081  0.41561597  1
  C  C167  1  0.58921060  0.19866104  0.41625226  1
  C  C168  1  0.01430522  0.17703270  0.91322654  1
  C  C169  1  0.51528264  0.18516343  0.91433484  1
  C  C170  1  0.08966755  0.97935583  0.91562092  1
  C  C171  1  0.58590528  0.97620406  0.91377945  1
  C  C172  1  0.40388633  0.81019755  0.91037596  1
  C  C173  1  0.90269158  0.81089618  0.91463037  1
  C  C174  1  0.48431345  0.17307888  0.58781685  1
  C  C175  1  0.99323765  0.18141048  0.58860206  1
  C  C176  1  0.08640723  0.00808240  0.58360546  1
  C  C177  1  0.58783076  0.01812719  0.58544925  1
  C  C178  1  0.40534615  0.80640051  0.58603221  1
  C  C179  1  0.90824350  0.80189566  0.58442168  1
  C  C180  1  0.49200162  0.80406204  0.08746057  1
  C  C181  1  0.99241757  0.80460831  0.08785441  1
  C  C182  1  0.40810181  0.01467443  0.08455960  1
  C  C183  1  0.90785459  0.01446170  0.08456391  1
  C  C184  1  0.08615453  0.16042239  0.08324812  1
  C  C185  1  0.58589995  0.15958267  0.08314828  1
  C  C186  1  0.34331288  0.17543915  0.74354858  1
  C  C187  1  0.84105770  0.16592414  0.74637397  1
  C  C188  1  0.23670024  0.31616757  0.74348084  1
  C  C189  1  0.73535719  0.33142839  0.74595580  1
  C  C190  1  0.42032683  0.52902661  0.74711695  1
  C  C191  1  0.91064325  0.51604589  0.74254115  1
  C  C192  1  0.33368592  0.50886212  0.24498315  1
  C  C193  1  0.83351557  0.50819550  0.24462786  1
  C  C194  1  0.41094348  0.30738343  0.24282396  1
  C  C195  1  0.91085440  0.30679542  0.24285042  1
  C  C196  1  0.23480419  0.15108560  0.24408854  1
  C  C197  1  0.73494192  0.15119069  0.24365940  1
  C  C198  1  0.31609914  0.50527258  0.91917528  1
  C  C199  1  0.81640511  0.50443594  0.92083548  1
  C  C200  1  0.42122658  0.34733475  0.92121489  1
  C  C201  1  0.92089988  0.34223836  0.92179081  1
  C  C202  1  0.24184580  0.14099715  0.91975730  1
  C  C203  1  0.73796675  0.14097754  0.92056481  1
  C  C204  1  0.31566766  0.12731394  0.42019310  1
  C  C205  1  0.81563564  0.12694741  0.41946012  1
  C  C206  1  0.24119858  0.34005038  0.42034556  1
  C  C207  1  0.74136136  0.34196562  0.42031637  1
  C  C208  1  0.42125147  0.50009153  0.42107880  1
  C  C209  1  0.92019145  0.49810339  0.42307380  1
  C  C210  1  0.17066211  0.49748603  0.08164161  1
  C  C211  1  0.66981472  0.49626291  0.08181342  1
  C  C212  1  0.07115883  0.65565645  0.07655149  1
  C  C213  1  0.57073604  0.65521948  0.07689769  1
  C  C214  1  0.25327808  0.86474347  0.07674960  1
  C  C215  1  0.75301680  0.86429634  0.07712539  1
  C  C216  1  0.17666871  0.84632299  0.57891913  1
  C  C217  1  0.67573682  0.84991053  0.58244085  1
  C  C218  1  0.25319149  0.64469928  0.57968346  1
  C  C219  1  0.75315702  0.64161703  0.57660221  1
  C  C220  1  0.07059212  0.48747237  0.57808561  1
  C  C221  1  0.57124107  0.47757779  0.57711437  1
  C  C222  1  0.16019926  0.85001377  0.25647115  1
  C  C223  1  0.66058084  0.85017166  0.25581580  1
  C  C224  1  0.25838515  0.69485138  0.25772522  1
  C  C225  1  0.75846058  0.69417190  0.25774251  1
  C  C226  1  0.08064938  0.48770755  0.25274756  1
  C  C227  1  0.58119193  0.48683285  0.25285551  1
  C  C228  1  0.15911598  0.46789654  0.75462247  1
  C  C229  1  0.65086497  0.46371643  0.75641481  1
  C  C230  1  0.07997357  0.66965290  0.75300091  1
  C  C231  1  0.57243887  0.67283273  0.75324119  1
  C  C232  1  0.25645247  0.83906326  0.75431641  1
  C  C233  1  0.75695730  0.81576229  0.75688908  1
