# generated using pymatgen
data_Cu(Ni2C3)2
_symmetry_space_group_name_H-M   'P 1'
_cell_length_a   8.83562500
_cell_length_b   6.50222700
_cell_length_c   9.17736335
_cell_angle_alpha   55.20183063
_cell_angle_beta   90.00000000
_cell_angle_gamma   90.00000000
_symmetry_Int_Tables_number   1
_chemical_formula_structural   Cu(Ni2C3)2
_chemical_formula_sum   'Cu4 Ni16 C24'
_cell_volume   432.96127298
_cell_formula_units_Z   4
loop_
 _symmetry_equiv_pos_site_id
 _symmetry_equiv_pos_as_xyz
  1  'x, y, z'
loop_
 _atom_site_type_symbol
 _atom_site_label
 _atom_site_symmetry_multiplicity
 _atom_site_fract_x
 _atom_site_fract_y
 _atom_site_fract_z
 _atom_site_occupancy
  C  C0  1  0.63795000  0.33263700  0.01822500  1
  C  C1  1  0.13795000  0.66736300  0.48177500  1
  C  C2  1  0.36205000  0.66736300  0.98177500  1
  C  C3  1  0.86205000  0.33263700  0.51822500  1
  Ni  Ni4  1  0.63474400  0.42585100  0.64169900  1
  Ni  Ni5  1  0.13474400  0.57414900  0.85830100  1
  Ni  Ni6  1  0.36525600  0.57414900  0.35830100  1
  Ni  Ni7  1  0.86525600  0.42585100  0.14169900  1
  Ni  Ni8  1  0.57730700  0.19737400  0.63128400  1
  Ni  Ni9  1  0.07730700  0.80262600  0.86871600  1
  Ni  Ni10  1  0.42269300  0.80262600  0.36871600  1
  Ni  Ni11  1  0.92269300  0.19737400  0.13128400  1
  Ni  Ni12  1  0.14666800  0.92908100  0.12781300  1
  Ni  Ni13  1  0.64666800  0.07091900  0.37218700  1
  Ni  Ni14  1  0.01709300  0.19726800  0.79368400  1
  Ni  Ni15  1  0.51709300  0.80273200  0.70631600  1
  Ni  Ni16  1  0.98290700  0.80273200  0.20631600  1
  Ni  Ni17  1  0.48290700  0.19726800  0.29368400  1
  Ni  Ni18  1  0.85333200  0.07091900  0.87218700  1
  Ni  Ni19  1  0.35333200  0.92908100  0.62781300  1
  Cu  Cu20  1  0.15503100  0.26094000  0.33755900  1
  Cu  Cu21  1  0.65503100  0.73906000  0.16244100  1
  Cu  Cu22  1  0.84496900  0.73906000  0.66244100  1
  Cu  Cu23  1  0.34496900  0.26094000  0.83755900  1
  C  C24  1  0.20409900  0.95656500  0.50264700  1
  C  C25  1  0.90847000  0.63803200  0.53326000  1
  C  C26  1  0.79590100  0.04343500  0.49735300  1
  C  C27  1  0.29590100  0.95656500  0.00264700  1
  C  C28  1  0.56312500  0.09276500  0.28953800  1
  C  C29  1  0.06312500  0.90723500  0.21046200  1
  C  C30  1  0.40847000  0.36196800  0.96674000  1
  C  C31  1  0.93687500  0.09276500  0.78953800  1
  C  C32  1  0.85811400  0.34731000  0.07485500  1
  C  C33  1  0.35811400  0.65269000  0.42514500  1
  C  C34  1  0.14188600  0.65269000  0.92514500  1
  C  C35  1  0.64188600  0.34731000  0.57485500  1
  C  C36  1  0.09153000  0.36196800  0.46674000  1
  C  C37  1  0.59153000  0.63803200  0.03326000  1
  C  C38  1  0.16921400  0.40802400  0.76604200  1
  C  C39  1  0.66921400  0.59197600  0.73395800  1
  C  C40  1  0.83078600  0.59197600  0.23395800  1
  C  C41  1  0.33078600  0.40802400  0.26604200  1
  C  C42  1  0.70409900  0.04343500  0.99735300  1
  C  C43  1  0.43687500  0.90723500  0.71046200  1
