# generated using pymatgen
data_Cu2Ni10C7
_symmetry_space_group_name_H-M   'P 1'
_cell_length_a   5.08511048
_cell_length_b   5.12392952
_cell_length_c   8.73643651
_cell_angle_alpha   89.99219043
_cell_angle_beta   89.95830173
_cell_angle_gamma   100.54357515
_symmetry_Int_Tables_number   1
_chemical_formula_structural   Cu2Ni10C7
_chemical_formula_sum   'Cu2 Ni10 C7'
_cell_volume   223.79094488
_cell_formula_units_Z   1
loop_
 _symmetry_equiv_pos_site_id
 _symmetry_equiv_pos_as_xyz
  1  'x, y, z'
loop_
 _atom_site_type_symbol
 _atom_site_label
 _atom_site_symmetry_multiplicity
 _atom_site_fract_x
 _atom_site_fract_y
 _atom_site_fract_z
 _atom_site_occupancy
  C  C0  1  0.52346138  0.05507839  0.00158302  1
  C  C1  1  0.00677337  0.95751309  0.00287856  1
  C  C2  1  0.99151402  0.00581886  0.32672509  1
  C  C3  1  -0.00043583  0.99623710  0.66072822  1
  C  C4  1  0.43252598  0.55551957  0.17695780  1
  C  C5  1  0.42901522  0.55709370  0.81535947  1
  C  C6  1  0.57882610  0.42203242  0.49593042  1
  Ni  Ni7  1  0.22682799  0.84178712  0.15919927  1
  Ni  Ni8  1  0.20767612  0.84320586  0.83428096  1
  Ni  Ni9  1  0.29518051  0.32376794  0.99205944  1
  Ni  Ni10  1  0.31010485  0.30502513  0.33385411  1
  Ni  Ni11  1  0.30349623  0.30863818  0.66108129  1
  Ni  Ni12  1  0.66116041  0.70504558  0.98870307  1
  Ni  Ni13  1  0.70880533  0.67193350  0.32940220  1
  Ni  Ni14  1  0.70086705  0.67780080  0.66483353  1
  Ni  Ni15  1  0.82625265  0.13506373  0.14960178  1
  Ni  Ni16  1  0.82047463  0.16432240  0.49865934  1
  Cu  Cu17  1  0.17372444  0.83219388  0.49502020  1
  Cu  Cu18  1  0.80374953  0.15581177  0.83457222  1
