# generated using pymatgen
data_CuNiC8
_symmetry_space_group_name_H-M   'P 1'
_cell_length_a   3.88233800
_cell_length_b   3.88234000
_cell_length_c   9.44270000
_cell_angle_alpha   90.00000000
_cell_angle_beta   90.00000000
_cell_angle_gamma   90.00000000
_symmetry_Int_Tables_number   1
_chemical_formula_structural   CuNiC8
_chemical_formula_sum   'Cu1 Ni1 C8'
_cell_volume   142.32562559
_cell_formula_units_Z   1
loop_
 _symmetry_equiv_pos_site_id
 _symmetry_equiv_pos_as_xyz
  1  'x, y, z'
loop_
 _atom_site_type_symbol
 _atom_site_label
 _atom_site_symmetry_multiplicity
 _atom_site_fract_x
 _atom_site_fract_y
 _atom_site_fract_z
 _atom_site_occupancy
  C  C0  1  0.00000000  0.00000000  0.03840600  1
  C  C1  1  0.00000000  0.00000000  0.41486300  1
  Ni  Ni2  1  0.00000000  0.00000000  0.69974500  1
  C  C3  1  0.49999900  0.49999900  0.72251900  1
  Cu  Cu4  1  0.49999900  0.49999900  0.26947800  1
  C  C5  1  0.00000000  0.49999900  0.62486400  1
  C  C6  1  0.49999900  0.00000000  0.62486300  1
  C  C7  1  0.00000000  0.49999900  0.28637100  1
  C  C8  1  0.49999900  0.00000000  0.28637100  1
  C  C9  1  0.49999900  0.49999900  0.94543700  1
