# generated using pymatgen
data_Cu12Ni7C59
_symmetry_space_group_name_H-M   'P 1'
_cell_length_a   17.40446144
_cell_length_b   8.71072163
_cell_length_c   21.89444905
_cell_angle_alpha   89.98150928
_cell_angle_beta   89.96072744
_cell_angle_gamma   120.04091746
_symmetry_Int_Tables_number   1
_chemical_formula_structural   Cu12Ni7C59
_chemical_formula_sum   'Cu36 Ni21 C177'
_cell_volume   2873.42545231
_cell_formula_units_Z   3
loop_
 _symmetry_equiv_pos_site_id
 _symmetry_equiv_pos_as_xyz
  1  'x, y, z'
loop_
 _atom_site_type_symbol
 _atom_site_label
 _atom_site_symmetry_multiplicity
 _atom_site_fract_x
 _atom_site_fract_y
 _atom_site_fract_z
 _atom_site_occupancy
  C  C0  1  0.31779560  0.99945661  0.25155717  1
  C  C1  1  0.68274104  0.36357847  0.25156064  1
  C  C2  1  0.31634576  0.63299731  0.75155776  1
  C  C3  1  0.81633796  0.63301783  0.75142228  1
  C  C4  1  0.15028114  0.33403839  0.58280400  1
  C  C5  1  0.65030212  0.33361191  0.58246283  1
  C  C6  1  0.01607755  0.69873090  0.58308985  1
  C  C7  1  0.51644639  0.69936004  0.58312662  1
  C  C8  1  0.33314902  0.96742484  0.58255991  1
  C  C9  1  0.83291479  0.96752226  0.58264619  1
  C  C10  1  0.15045915  0.96735666  0.08281234  1
  C  C11  1  0.65082124  0.96811243  0.08371682  1
  C  C12  1  0.33304662  0.69844277  0.08349079  1
  C  C13  1  0.83326070  0.69882971  0.08296666  1
  C  C14  1  0.01596622  0.33374014  0.08313468  1
  C  C15  1  0.51600887  0.33350602  0.08349482  1
  C  C16  1  0.66555723  0.03398397  0.41453381  1
  C  C17  1  0.35076083  0.66848880  0.41423955  1
  C  C18  1  0.00017979  0.99927754  0.49965614  1
  C  C19  1  0.49958234  0.01076800  0.49614710  1
  C  C20  1  0.00009894  0.99996297  0.00094431  1
  C  C21  1  0.50010114  0.99981733  0.00111620  1
  C  C22  1  0.33386821  0.32415020  0.83592603  1
  C  C23  1  0.83384008  0.32416513  0.83591326  1
  C  C24  1  0.33486668  0.33498822  0.33281371  1
  C  C25  1  0.84165935  0.34037068  0.33288458  1
  C  C26  1  0.16274706  0.65561579  0.17082712  1
  C  C27  1  0.66565630  0.67664559  0.17073519  1
  C  C28  1  0.16192633  0.66732403  0.67091635  1
  C  C29  1  0.66211017  0.66737113  0.67092287  1
  C  C30  1  0.00008787  0.99870865  0.35370982  1
  C  C31  1  0.00068366  0.00209996  0.85654850  1
  C  C32  1  0.50072912  0.00228661  0.85652155  1
  Ni  Ni33  1  0.49923843  0.00618941  0.35050480  1
  Ni  Ni34  1  0.00097424  0.00123510  0.65203452  1
  Ni  Ni35  1  0.50114833  0.00109865  0.65185954  1
  Ni  Ni36  1  0.00013675  0.00169208  0.15165639  1
  Ni  Ni37  1  0.50040612  0.99796041  0.15315443  1
  Ni  Ni38  1  0.33383786  0.32745743  0.68663255  1
  Ni  Ni39  1  0.83403980  0.32795260  0.68646127  1
  Ni  Ni40  1  0.33432832  0.34339929  0.18607923  1
  Ni  Ni41  1  0.83572209  0.32862719  0.18652425  1
  Ni  Ni42  1  0.33323384  0.33363539  0.97977955  1
  Ni  Ni43  1  0.83353208  0.33367931  0.97986439  1
  Ni  Ni44  1  0.33309507  0.32395834  0.47992679  1
  Ni  Ni45  1  0.83620572  0.34086481  0.47988022  1
  Ni  Ni46  1  0.16630761  0.66670895  0.01519523  1
  Ni  Ni47  1  0.66639612  0.66685934  0.01513339  1
  Ni  Ni48  1  0.16622608  0.66859121  0.51433148  1
  Ni  Ni49  1  0.66578540  0.66220603  0.51378517  1
  Ni  Ni50  1  0.16440643  0.66074532  0.31463649  1
  Ni  Ni51  1  0.66462398  0.66962096  0.31522205  1
  Ni  Ni52  1  0.16348623  0.66766176  0.81608476  1
  Ni  Ni53  1  0.66347425  0.66762567  0.81609724  1
  Cu  Cu54  1  0.14761755  0.99928889  0.24727438  1
  Cu  Cu55  1  0.64672536  0.99714076  0.25031160  1
  Cu  Cu56  1  0.35346285  0.70462443  0.25113563  1
  Cu  Cu57  1  0.85195334  0.70457377  0.24740893  1
  Cu  Cu58  1  0.00072754  0.29700127  0.24777546  1
  Cu  Cu59  1  0.49972576  0.29525256  0.24927389  1
  Cu  Cu60  1  0.14725009  0.29532922  0.74791263  1
  Cu  Cu61  1  0.64729734  0.29536954  0.74789185  1
  Cu  Cu62  1  0.00181978  0.70538816  0.74795243  1
  Cu  Cu63  1  0.50178791  0.70550019  0.74791017  1
  Cu  Cu64  1  0.35219769  0.00155359  0.74846534  1
  Cu  Cu65  1  0.85217486  0.00166806  0.74849205  1
  Cu  Cu66  1  0.47838331  0.33336736  0.58375297  1
  Cu  Cu67  1  0.97814413  0.33367416  0.58326646  1
  Cu  Cu68  1  0.18838370  0.04374822  0.58339863  1
  Cu  Cu69  1  0.68815721  0.04262280  0.58272090  1
  Cu  Cu70  1  0.33327559  0.62406972  0.58336028  1
  Cu  Cu71  1  0.83326487  0.62422051  0.58437166  1
  Cu  Cu72  1  0.47815310  0.62292770  0.08293094  1
  Cu  Cu73  1  0.97790434  0.62262609  0.08331705  1
  Cu  Cu74  1  0.33332847  0.04352890  0.08407780  1
  Cu  Cu75  1  0.83339109  0.04348593  0.08288881  1
  Cu  Cu76  1  0.18839151  0.33313851  0.08290251  1
  Cu  Cu77  1  0.68845930  0.33341937  0.08395322  1
  Cu  Cu78  1  0.30800815  0.65732775  0.91666079  1
  Cu  Cu79  1  0.80802062  0.65711016  0.91667238  1
  Cu  Cu80  1  0.02055481  0.38418668  0.91759775  1
  Cu  Cu81  1  0.52054454  0.38420362  0.91766447  1
  Cu  Cu82  1  0.17149280  0.95871345  0.91747958  1
  Cu  Cu83  1  0.67149433  0.95882943  0.91746122  1
  Cu  Cu84  1  0.31241554  0.96081282  0.41553358  1
  Cu  Cu85  1  0.81010680  0.95770514  0.41815928  1
  Cu  Cu86  1  0.16862154  0.37956357  0.41831480  1
  Cu  Cu87  1  0.66695838  0.37540370  0.41579114  1
  Cu  Cu88  1  0.02103208  0.65924423  0.41725623  1
  Cu  Cu89  1  0.51973684  0.66295467  0.41684650  1
  C  C90  1  0.09941493  0.02531620  0.30367709  1
  C  C91  1  0.60559555  0.03630570  0.30716734  1
  C  C92  1  0.41032595  0.78945380  0.30880695  1
  C  C93  1  0.91320479  0.80117955  0.30383967  1
  C  C94  1  0.47984278  0.16994553  0.30442679  1
  C  C95  1  0.98814105  0.17277861  0.30401477  1
  C  C96  1  0.09939742  0.17287151  0.80361182  1
  C  C97  1  0.59935212  0.17290062  0.80363268  1
  C  C98  1  0.48563555  0.80037395  0.80313191  1
  C  C99  1  0.98571597  0.80046685  0.80315896  1
  C  C100  1  0.41340988  0.02598751  0.80417757  1
  C  C101  1  0.91344065  0.02619177  0.80416256  1
  C  C102  1  0.39179039  0.96203715  0.69051083  1
  C  C103  1  0.89180347  0.96216109  0.69053593  1
  C  C104  1  0.09165281  0.21558609  0.68918303  1
  C  C105  1  0.59165895  0.21568987  0.68920237  1
  C  C106  1  0.01632290  0.81621462  0.68895367  1
  C  C107  1  0.51628301  0.81620404  0.68891673  1
  C  C108  1  0.39267629  0.82364849  0.19269281  1
  C  C109  1  0.89307336  0.81757964  0.18946637  1
  C  C110  1  0.01604468  0.21622921  0.18927955  1
  C  C111  1  0.51936904  0.21718363  0.19063254  1
  C  C112  1  0.09121144  0.96872058  0.18941704  1
  C  C113  1  0.59112217  0.96722103  0.19099306  1
  C  C114  1  0.43916924  0.37600997  0.64003159  1
  C  C115  1  0.93897093  0.37574203  0.63980564  1
  C  C116  1  0.24845433  0.12184508  0.63989082  1
  C  C117  1  0.74926486  0.12508105  0.63858605  1
  C  C118  1  0.31451379  0.50739485  0.64107722  1
  C  C119  1  0.81408759  0.50946052  0.64249762  1
  C  C120  1  0.43919600  0.50279702  0.13947971  1
  C  C121  1  0.93844940  0.50240533  0.13999544  1
  C  C122  1  0.31387984  0.11929136  0.14231654  1
  C  C123  1  0.81238833  0.12095436  0.13963489  1
  C  C124  1  0.24800679  0.37408108  0.13964797  1
  C  C125  1  0.74586471  0.37271387  0.14224012  1
  C  C126  1  0.22784860  0.29174235  0.02670093  1
  C  C127  1  0.72962424  0.29346798  0.02834110  1
  C  C128  1  0.41798058  0.54465434  0.02673328  1
  C  C129  1  0.91794559  0.54428603  0.02693276  1
  C  C130  1  0.35316641  0.16543597  0.02835679  1
  C  C131  1  0.85410564  0.16375867  0.02667587  1
  C  C132  1  0.22762983  0.16460085  0.52714023  1
  C  C133  1  0.72642909  0.15826654  0.52474600  1
  C  C134  1  0.35183266  0.54383194  0.52614927  1
  C  C135  1  0.85340950  0.54215315  0.52859746  1
  C  C136  1  0.41827726  0.29137993  0.52729939  1
  C  C137  1  0.91760905  0.29134139  0.52696509  1
  C  C138  1  0.27202524  0.69801499  0.97540274  1
  C  C139  1  0.77204229  0.69788640  0.97538656  1
  C  C140  1  0.07562104  0.45249144  0.97696439  1
  C  C141  1  0.57571565  0.45266873  0.97698132  1
  C  C142  1  0.15013750  0.84805220  0.97683742  1
  C  C143  1  0.65006211  0.84809740  0.97680131  1
  C  C144  1  0.27375290  0.84276855  0.47441052  1
  C  C145  1  0.77422657  0.84897836  0.47791987  1
  C  C146  1  0.14955977  0.45160324  0.47765568  1
  C  C147  1  0.65096317  0.45245307  0.47573254  1
  C  C148  1  0.07476568  0.69953519  0.47737635  1
  C  C149  1  0.57759531  0.70412742  0.47597450  1
  C  C150  1  0.06478752  0.63413621  0.36109700  1
  C  C151  1  0.56335839  0.63274599  0.36121407  1
  C  C152  1  0.25593548  0.87540157  0.35822203  1
  C  C153  1  0.75054840  0.87259544  0.36268415  1
  C  C154  1  0.18610532  0.49893078  0.36269707  1
  C  C155  1  0.68186427  0.48882175  0.35847100  1
  C  C156  1  0.06390221  0.49393825  0.86072642  1
  C  C157  1  0.56379860  0.49399892  0.86079142  1
  C  C158  1  0.18395545  0.87280526  0.86074665  1
  C  C159  1  0.68398862  0.87296997  0.86073216  1
  C  C160  1  0.25524222  0.63538208  0.85815879  1
  C  C161  1  0.75525745  0.63522942  0.85816133  1
  C  C162  1  0.01176246  0.82998888  0.40965261  1
  C  C163  1  0.51112981  0.83262455  0.41173374  1
  C  C164  1  0.40443869  0.97209550  0.41121196  1
  C  C165  1  0.90391967  0.97643530  0.41064950  1
  C  C166  1  0.08453090  0.19168639  0.41086095  1
  C  C167  1  0.58419894  0.18613469  0.41099902  1
  C  C168  1  0.01210528  0.19439983  0.91024553  1
  C  C169  1  0.51212352  0.19451098  0.91030022  1
  C  C170  1  0.08515863  0.97590641  0.90974791  1
  C  C171  1  0.58514395  0.97597426  0.90969166  1
  C  C172  1  0.40306835  0.83021043  0.90985575  1
  C  C173  1  0.90305911  0.83002548  0.90984881  1
  C  C174  1  0.48888696  0.16656735  0.58982427  1
  C  C175  1  0.98880947  0.16666916  0.58939380  1
  C  C176  1  0.09403523  0.02194588  0.58911239  1
  C  C177  1  0.59430563  0.02294028  0.58882112  1
  C  C178  1  0.41705282  0.81240307  0.58881511  1
  C  C179  1  0.91699375  0.81275259  0.58923268  1
  C  C180  1  0.48888468  0.81148031  0.08942174  1
  C  C181  1  0.98914817  0.81150210  0.08921368  1
  C  C182  1  0.41691458  0.02152171  0.08947985  1
  C  C183  1  0.91683331  0.02182585  0.08891315  1
  C  C184  1  0.09399176  0.16628268  0.08885397  1
  C  C185  1  0.59390498  0.16582123  0.08915316  1
  C  C186  1  0.34677853  0.17097342  0.74517933  1
  C  C187  1  0.84664410  0.17089636  0.74499785  1
  C  C188  1  0.24000509  0.31386324  0.74492705  1
  C  C189  1  0.73996327  0.31345862  0.74506764  1
  C  C190  1  0.41434088  0.52615427  0.74489636  1
  C  C191  1  0.91444291  0.52610146  0.74503978  1
  C  C192  1  0.34510779  0.52151059  0.24491258  1
  C  C193  1  0.84377394  0.52059579  0.24530526  1
  C  C194  1  0.41434765  0.30577975  0.24336920  1
  C  C195  1  0.91516473  0.30593522  0.24596253  1
  C  C196  1  0.23994758  0.16611033  0.24512278  1
  C  C197  1  0.73787712  0.17081839  0.24471306  1
  C  C198  1  0.32100442  0.49726087  0.92183983  1
  C  C199  1  0.82096949  0.49704876  0.92197838  1
  C  C200  1  0.42728546  0.35713581  0.92268498  1
  C  C201  1  0.92733906  0.35745443  0.92239964  1
  C  C202  1  0.25156442  0.14492561  0.92258141  1
  C  C203  1  0.75137715  0.14521860  0.92263081  1
  C  C204  1  0.32080695  0.14420298  0.42181123  1
  C  C205  1  0.81913989  0.14214345  0.42286602  1
  C  C206  1  0.25233436  0.36314396  0.42323314  1
  C  C207  1  0.74933690  0.35138786  0.42136752  1
  C  C208  1  0.42550490  0.50110567  0.42280929  1
  C  C209  1  0.92762785  0.49766048  0.42187702  1
  C  C210  1  0.17753638  0.49987887  0.07716890  1
  C  C211  1  0.67786295  0.50025385  0.07758661  1
  C  C212  1  0.07223376  0.64420556  0.07761533  1
  C  C213  1  0.57252658  0.64514821  0.07726744  1
  C  C214  1  0.24977767  0.85505106  0.07773407  1
  C  C215  1  0.75000353  0.85481397  0.07713567  1
  C  C216  1  0.17776367  0.85574496  0.57718631  1
  C  C217  1  0.67708329  0.85426363  0.57755906  1
  C  C218  1  0.24961189  0.64519043  0.57788244  1
  C  C219  1  0.74956732  0.64414663  0.57806808  1
  C  C220  1  0.07231709  0.50045597  0.57741992  1
  C  C221  1  0.57251644  0.50008239  0.57739407  1
  C  C222  1  0.15757904  0.83490522  0.25491858  1
  C  C223  1  0.65568957  0.83157998  0.25613131  1
  C  C224  1  0.26185977  0.69419020  0.25584337  1
  C  C225  1  0.75974047  0.68411764  0.25529538  1
  C  C226  1  0.08442131  0.47738769  0.25599087  1
  C  C227  1  0.58532159  0.47607646  0.25552518  1
  C  C228  1  0.15830549  0.48098800  0.75520371  1
  C  C229  1  0.65833185  0.48100756  0.75526806  1
  C  C230  1  0.08479978  0.68971622  0.75541576  1
  C  C231  1  0.58472872  0.68959545  0.75538332  1
  C  C232  1  0.26210933  0.83009690  0.75569292  1
  C  C233  1  0.76212975  0.83017196  0.75567287  1
