# generated using pymatgen
data_CuNi3C
_symmetry_space_group_name_H-M   'P 1'
_cell_length_a   3.86775600
_cell_length_b   13.98673500
_cell_length_c   13.98673500
_cell_angle_alpha   90.00000000
_cell_angle_beta   90.00000000
_cell_angle_gamma   90.00000000
_symmetry_Int_Tables_number   1
_chemical_formula_structural   CuNi3C
_chemical_formula_sum   'Cu4 Ni12 C4'
_cell_volume   756.64429464
_cell_formula_units_Z   4
loop_
 _symmetry_equiv_pos_site_id
 _symmetry_equiv_pos_as_xyz
  1  'x, y, z'
loop_
 _atom_site_type_symbol
 _atom_site_label
 _atom_site_symmetry_multiplicity
 _atom_site_fract_x
 _atom_site_fract_y
 _atom_site_fract_z
 _atom_site_occupancy
  C  C0  1  0.00000000  0.89300100  0.89300100  1
  C  C1  1  0.49999900  0.60699800  0.39300100  1
  C  C2  1  0.49999900  0.39300100  0.60699800  1
  C  C3  1  0.00000000  0.10699900  0.10699900  1
  Ni  Ni4  1  0.00000000  0.90078900  0.09921200  1
  Ni  Ni5  1  0.49999900  0.59921200  0.59921200  1
  Ni  Ni6  1  0.49999900  0.40078900  0.40078900  1
  Ni  Ni7  1  0.00000000  0.09921200  0.90078900  1
  Ni  Ni8  1  0.00000000  0.30067300  0.09868000  1
  Ni  Ni9  1  0.49999900  0.40132100  0.80067300  1
  Ni  Ni10  1  0.00000000  0.90132100  0.69932700  1
  Ni  Ni11  1  0.00000000  0.69932700  0.90132100  1
  Ni  Ni12  1  0.49999900  0.80067300  0.40132100  1
  Ni  Ni13  1  0.49999900  0.19932700  0.59868000  1
  Ni  Ni14  1  0.00000000  0.09868000  0.30067300  1
  Ni  Ni15  1  0.49999900  0.59868000  0.19932700  1
  Cu  Cu16  1  0.49999900  0.89792300  0.89792300  1
  Cu  Cu17  1  0.00000000  0.60207700  0.39792300  1
  Cu  Cu18  1  0.00000000  0.39792300  0.60207700  1
  Cu  Cu19  1  0.49999900  0.10207700  0.10207700  1
