# generated using pymatgen
data_Cu2NiC
_symmetry_space_group_name_H-M   'P 1'
_cell_length_a   4.43817100
_cell_length_b   11.44960000
_cell_length_c   14.41327800
_cell_angle_alpha   90.00000000
_cell_angle_beta   90.00000000
_cell_angle_gamma   90.00000000
_symmetry_Int_Tables_number   1
_chemical_formula_structural   Cu2NiC
_chemical_formula_sum   'Cu16 Ni8 C8'
_cell_volume   732.41479594
_cell_formula_units_Z   8
loop_
 _symmetry_equiv_pos_site_id
 _symmetry_equiv_pos_as_xyz
  1  'x, y, z'
loop_
 _atom_site_type_symbol
 _atom_site_label
 _atom_site_symmetry_multiplicity
 _atom_site_fract_x
 _atom_site_fract_y
 _atom_site_fract_z
 _atom_site_occupancy
  C  C0  1  0.25000000  0.52326400  0.19613900  1
  C  C1  1  0.25000000  0.74103400  0.93844200  1
  C  C2  1  0.75000000  0.25896600  0.06155800  1
  C  C3  1  0.75000000  0.24103400  0.56155800  1
  C  C4  1  0.25000000  0.75896600  0.43844200  1
  C  C5  1  0.25000000  0.97673600  0.69613900  1
  C  C6  1  0.75000000  0.02326400  0.30386100  1
  C  C7  1  0.75000000  0.47673600  0.80386100  1
  Ni  Ni8  1  0.25000000  0.44203600  0.43992100  1
  Ni  Ni9  1  0.75000000  0.55796400  0.56007900  1
  Ni  Ni10  1  0.75000000  0.94203600  0.06007900  1
  Ni  Ni11  1  0.25000000  0.05796400  0.93992100  1
  Ni  Ni12  1  0.25000000  0.67996200  0.69010300  1
  Ni  Ni13  1  0.75000000  0.32003800  0.30989700  1
  Ni  Ni14  1  0.75000000  0.17996200  0.80989700  1
  Ni  Ni15  1  0.25000000  0.82003800  0.19010300  1
  Cu  Cu16  1  0.75000000  0.95221700  0.86773300  1
  Cu  Cu17  1  0.25000000  0.45221700  0.63226700  1
  Cu  Cu18  1  0.75000000  0.54778300  0.36773300  1
  Cu  Cu19  1  0.25000000  0.02790000  0.46677000  1
  Cu  Cu20  1  0.25000000  0.04778300  0.13226700  1
  Cu  Cu21  1  0.25000000  0.27419100  0.72290900  1
  Cu  Cu22  1  0.75000000  0.72580900  0.27709100  1
  Cu  Cu23  1  0.75000000  0.77419100  0.77709100  1
  Cu  Cu24  1  0.25000000  0.21168000  0.39332600  1
  Cu  Cu25  1  0.75000000  0.97210000  0.53323000  1
  Cu  Cu26  1  0.75000000  0.52790000  0.03323000  1
  Cu  Cu27  1  0.25000000  0.47210000  0.96677000  1
  Cu  Cu28  1  0.25000000  0.28832000  0.89332600  1
  Cu  Cu29  1  0.75000000  0.78832000  0.60667400  1
  Cu  Cu30  1  0.75000000  0.71168000  0.10667400  1
  Cu  Cu31  1  0.25000000  0.22580900  0.22290900  1
