# generated using pymatgen
data_Cu3NiC16
_symmetry_space_group_name_H-M   'P 1'
_cell_length_a   15.71708199
_cell_length_b   9.10676079
_cell_length_c   8.95335169
_cell_angle_alpha   90.00000000
_cell_angle_beta   124.68215718
_cell_angle_gamma   90.00000000
_symmetry_Int_Tables_number   1
_chemical_formula_structural   Cu3NiC16
_chemical_formula_sum   'Cu12 Ni4 C64'
_cell_volume   1053.81171705
_cell_formula_units_Z   4
loop_
 _symmetry_equiv_pos_site_id
 _symmetry_equiv_pos_as_xyz
  1  'x, y, z'
loop_
 _atom_site_type_symbol
 _atom_site_label
 _atom_site_symmetry_multiplicity
 _atom_site_fract_x
 _atom_site_fract_y
 _atom_site_fract_z
 _atom_site_occupancy
  C  C0  1  0.25057788  0.72299343  0.97972069  1
  C  C1  1  0.75057788  0.77700657  0.47972069  1
  C  C2  1  0.75057788  0.22299343  0.97972069  1
  C  C3  1  0.25057788  0.27700657  0.47972069  1
  C  C4  1  0.50271496  0.11341209  0.74473014  1
  C  C5  1  0.50271496  0.88658791  0.24473014  1
  C  C6  1  0.00271496  0.61341209  0.74473014  1
  C  C7  1  0.00271496  0.38658791  0.24473014  1
  C  C8  1  0.18513080  0.94418397  0.28787080  1
  C  C9  1  0.18513080  0.05581603  0.78787080  1
  C  C10  1  0.68513080  0.44418397  0.28787080  1
  C  C11  1  0.68513080  0.55581603  0.78787080  1
  C  C12  1  0.89408160  0.75861901  0.94121224  1
  C  C13  1  0.89408160  0.24138099  0.44121224  1
  C  C14  1  0.39408160  0.25861901  0.94121224  1
  C  C15  1  0.39408160  0.74138099  0.44121224  1
  Ni  Ni16  1  0.09699794  0.75108227  0.54772608  1
  Ni  Ni17  1  0.09699794  0.24891773  0.04772608  1
  Ni  Ni18  1  0.59699794  0.25108227  0.54772608  1
  Ni  Ni19  1  0.59699794  0.74891773  0.04772608  1
  Cu  Cu20  1  0.00453769  0.94952863  0.76280084  1
  Cu  Cu21  1  0.00453769  0.05047137  0.26280084  1
  Cu  Cu22  1  0.50453769  0.44952863  0.76280084  1
  Cu  Cu23  1  0.50453769  0.55047137  0.26280084  1
  Cu  Cu24  1  0.35157438  0.89851244  0.76222297  1
  Cu  Cu25  1  0.64392274  0.89503530  0.74529503  1
  Cu  Cu26  1  0.64392274  0.10496470  0.24529503  1
  Cu  Cu27  1  0.35157438  0.10148756  0.26222297  1
  Cu  Cu28  1  0.85157438  0.39851244  0.76222297  1
  Cu  Cu29  1  0.14392274  0.39503530  0.74529503  1
  Cu  Cu30  1  0.14392274  0.60496470  0.24529503  1
  Cu  Cu31  1  0.85157438  0.60148756  0.26222297  1
  C  C32  1  0.15112896  0.56216047  0.73996750  1
  C  C33  1  0.84627950  0.57295599  0.75503921  1
  C  C34  1  0.84627950  0.42704401  0.25503921  1
  C  C35  1  0.15112896  0.43783953  0.23996750  1
  C  C36  1  0.65112896  0.06216047  0.73996750  1
  C  C37  1  0.34627950  0.07295599  0.75503921  1
  C  C38  1  0.34627950  0.92704401  0.25503921  1
  C  C39  1  0.65112896  0.93783953  0.23996750  1
  C  C40  1  0.44620300  0.55662093  0.59629254  1
  C  C41  1  0.56884582  0.53768239  0.93850902  1
  C  C42  1  0.56884582  0.46231761  0.43850902  1
  C  C43  1  0.44620300  0.44337907  0.09629254  1
  C  C44  1  0.94620300  0.05662093  0.59629254  1
  C  C45  1  0.06884582  0.03768239  0.93850902  1
  C  C46  1  0.06884582  0.96231761  0.43850902  1
  C  C47  1  0.94620300  0.94337907  0.09629254  1
  C  C48  1  0.25626262  0.84188209  0.75136724  1
  C  C49  1  0.73531159  0.81735357  0.74895001  1
  C  C50  1  0.73531159  0.18264643  0.24895001  1
  C  C51  1  0.25626262  0.15811791  0.25136724  1
  C  C52  1  0.75626262  0.34188209  0.75136724  1
  C  C53  1  0.23531159  0.31735357  0.74895001  1
  C  C54  1  0.23531159  0.68264643  0.24895001  1
  C  C55  1  0.75626262  0.65811791  0.25136724  1
  C  C56  1  0.34998311  0.85621347  0.58889267  1
  C  C57  1  0.64557451  0.84445075  0.90907261  1
  C  C58  1  0.64557451  0.15554925  0.40907261  1
  C  C59  1  0.34998311  0.14378653  0.08889267  1
  C  C60  1  0.84998311  0.35621347  0.58889267  1
  C  C61  1  0.14557451  0.34445075  0.90907261  1
  C  C62  1  0.14557451  0.65554925  0.40907261  1
  C  C63  1  0.84998311  0.64378653  0.08889267  1
  C  C64  1  0.45256086  0.84853186  0.93402861  1
  C  C65  1  0.54192737  0.83573548  0.56724546  1
  C  C66  1  0.54192737  0.16426452  0.06724546  1
  C  C67  1  0.45256086  0.15146814  0.43402861  1
  C  C68  1  0.95256086  0.34853186  0.93402861  1
  C  C69  1  0.04192737  0.33573548  0.56724546  1
  C  C70  1  0.04192737  0.66426452  0.06724546  1
  C  C71  1  0.95256086  0.65146814  0.43402861  1
  C  C72  1  0.07760979  0.84627927  0.74807981  1
  C  C73  1  0.91877487  0.85146652  0.75097653  1
  C  C74  1  0.91877487  0.14853348  0.25097653  1
  C  C75  1  0.07760979  0.15372073  0.24807981  1
  C  C76  1  0.57760979  0.34627927  0.74807981  1
  C  C77  1  0.41877487  0.35146652  0.75097653  1
  C  C78  1  0.41877487  0.64853348  0.25097653  1
  C  C79  1  0.57760979  0.65372073  0.24807981  1
