# generated using pymatgen
data_Cu3NiC6
_symmetry_space_group_name_H-M   'P 1'
_cell_length_a   7.98227500
_cell_length_b   8.78707400
_cell_length_c   14.88855600
_cell_angle_alpha   90.00000000
_cell_angle_beta   90.00000000
_cell_angle_gamma   90.00000000
_symmetry_Int_Tables_number   1
_chemical_formula_structural   Cu3NiC6
_chemical_formula_sum   'Cu24 Ni8 C48'
_cell_volume   1044.29584080
_cell_formula_units_Z   8
loop_
 _symmetry_equiv_pos_site_id
 _symmetry_equiv_pos_as_xyz
  1  'x, y, z'
loop_
 _atom_site_type_symbol
 _atom_site_label
 _atom_site_symmetry_multiplicity
 _atom_site_fract_x
 _atom_site_fract_y
 _atom_site_fract_z
 _atom_site_occupancy
  C  C0  1  0.13606900  0.18439300  0.41747800  1
  C  C1  1  0.63606900  0.31560700  0.58252200  1
  C  C2  1  0.86393100  0.68439300  0.08252200  1
  C  C3  1  0.36393100  0.81560700  0.91747800  1
  C  C4  1  0.86393100  0.81560700  0.58252200  1
  C  C5  1  0.36393100  0.68439300  0.41747800  1
  C  C6  1  0.13606900  0.31560700  0.91747800  1
  C  C7  1  0.63606900  0.18439300  0.08252200  1
  Ni  Ni8  1  0.64982200  0.06202000  0.38529300  1
  Ni  Ni9  1  0.14982200  0.43798000  0.61470700  1
  Ni  Ni10  1  0.35017800  0.56202000  0.11470700  1
  Ni  Ni11  1  0.85017800  0.93798000  0.88529300  1
  Ni  Ni12  1  0.35017800  0.93798000  0.61470700  1
  Ni  Ni13  1  0.85017800  0.56202000  0.38529300  1
  Ni  Ni14  1  0.64982200  0.43798000  0.88529300  1
  Ni  Ni15  1  0.14982200  0.06202000  0.11470700  1
  Cu  Cu16  1  0.90120500  0.40048400  0.22582400  1
  Cu  Cu17  1  0.40120500  0.09951600  0.77417600  1
  Cu  Cu18  1  0.09879500  0.90048400  0.27417600  1
  Cu  Cu19  1  0.59879500  0.59951600  0.72582400  1
  Cu  Cu20  1  0.09879500  0.59951600  0.77417600  1
  Cu  Cu21  1  0.59879500  0.90048400  0.22582400  1
  Cu  Cu22  1  0.90120500  0.09951600  0.72582400  1
  Cu  Cu23  1  0.40120500  0.40048400  0.27417600  1
  Cu  Cu24  1  0.94901500  0.32227500  0.13184000  1
  Cu  Cu25  1  0.44901500  0.17772500  0.86816000  1
  Cu  Cu26  1  0.05098500  0.82227500  0.36816000  1
  Cu  Cu27  1  0.55098500  0.67772500  0.63184000  1
  Cu  Cu28  1  0.05098500  0.67772500  0.86816000  1
  Cu  Cu29  1  0.55098500  0.82227500  0.13184000  1
  Cu  Cu30  1  0.94901500  0.17772500  0.63184000  1
  Cu  Cu31  1  0.44901500  0.32227500  0.36816000  1
  Cu  Cu32  1  0.77434000  0.25980700  0.30916700  1
  Cu  Cu33  1  0.27434000  0.24019300  0.69083300  1
  Cu  Cu34  1  0.22566000  0.75980700  0.19083300  1
  Cu  Cu35  1  0.72566000  0.74019300  0.80916700  1
  Cu  Cu36  1  0.22566000  0.74019300  0.69083300  1
  Cu  Cu37  1  0.72566000  0.75980700  0.30916700  1
  Cu  Cu38  1  0.77434000  0.24019300  0.80916700  1
  Cu  Cu39  1  0.27434000  0.25980700  0.19083300  1
  C  C40  1  0.37773400  0.09758000  0.83996200  1
  C  C41  1  0.87773400  0.40242000  0.16003800  1
  C  C42  1  0.62226600  0.59758000  0.66003800  1
  C  C43  1  0.12226600  0.90242000  0.33996200  1
  C  C44  1  0.62226600  0.90242000  0.16003800  1
  C  C45  1  0.12226600  0.59758000  0.83996200  1
  C  C46  1  0.37773400  0.40242000  0.33996200  1
  C  C47  1  0.87773400  0.09758000  0.66003800  1
  C  C48  1  0.48955400  0.16325100  0.43314800  1
  C  C49  1  0.98955400  0.33674900  0.56685200  1
  C  C50  1  0.51044600  0.66325100  0.06685200  1
  C  C51  1  0.01044600  0.83674900  0.93314800  1
  C  C52  1  0.51044600  0.83674900  0.56685200  1
  C  C53  1  0.01044600  0.66325100  0.43314800  1
  C  C54  1  0.48955400  0.33674900  0.93314800  1
  C  C55  1  0.98955400  0.16325100  0.06685200  1
  C  C56  1  0.81476300  0.05638200  0.45785500  1
  C  C57  1  0.31476300  0.44361800  0.54214500  1
  C  C58  1  0.18523700  0.55638200  0.04214500  1
  C  C59  1  0.68523700  0.94361800  0.95785500  1
  C  C60  1  0.18523700  0.94361800  0.54214500  1
  C  C61  1  0.68523700  0.55638200  0.45785500  1
  C  C62  1  0.81476300  0.44361800  0.95785500  1
  C  C63  1  0.31476300  0.05638200  0.04214500  1
  C  C64  1  0.59024300  0.88979800  0.34188800  1
  C  C65  1  0.09024300  0.61020200  0.65811200  1
  C  C66  1  0.40975700  0.38979800  0.15811200  1
  C  C67  1  0.90975700  0.11020200  0.84188800  1
  C  C68  1  0.40975700  0.11020200  0.65811200  1
  C  C69  1  0.90975700  0.38979800  0.34188800  1
  C  C70  1  0.59024300  0.61020200  0.84188800  1
  C  C71  1  0.09024300  0.88979800  0.15811200  1
  C  C72  1  0.71064300  0.16699300  0.28726900  1
  C  C73  1  0.21064300  0.33300700  0.71273100  1
  C  C74  1  0.28935700  0.66699300  0.21273100  1
  C  C75  1  0.78935700  0.83300700  0.78726900  1
  C  C76  1  0.28935700  0.83300700  0.71273100  1
  C  C77  1  0.78935700  0.66699300  0.28726900  1
  C  C78  1  0.71064300  0.33300700  0.78726900  1
  C  C79  1  0.21064300  0.16699300  0.21273100  1
