# generated using pymatgen
data_Cu(NiC4)2
_symmetry_space_group_name_H-M   'P 1'
_cell_length_a   6.08606261
_cell_length_b   6.26704841
_cell_length_c   6.26704933
_cell_angle_alpha   56.13311132
_cell_angle_beta   60.95080094
_cell_angle_gamma   60.95079577
_symmetry_Int_Tables_number   1
_chemical_formula_structural   Cu(NiC4)2
_chemical_formula_sum   'Cu1 Ni2 C8'
_cell_volume   165.72755463
_cell_formula_units_Z   1
loop_
 _symmetry_equiv_pos_site_id
 _symmetry_equiv_pos_as_xyz
  1  'x, y, z'
loop_
 _atom_site_type_symbol
 _atom_site_label
 _atom_site_symmetry_multiplicity
 _atom_site_fract_x
 _atom_site_fract_y
 _atom_site_fract_z
 _atom_site_occupancy
  Ni  Ni0  1  0.80947400  0.69052600  0.69052600  1
  Ni  Ni1  1  0.19052600  0.30947400  0.30947400  1
  Cu  Cu2  1  0.50000000  0.50000000  0.50000000  1
  C  C3  1  0.50000000  0.00000000  0.00000000  1
  C  C4  1  0.00000000  0.00000000  0.00000000  1
  C  C5  1  0.23739300  0.76260700  0.76260700  1
  C  C6  1  0.25761100  0.76900500  0.23099500  1
  C  C7  1  0.74238900  0.23099500  0.76900500  1
  C  C8  1  0.25761100  0.23099500  0.76900500  1
  C  C9  1  0.76260700  0.23739300  0.23739300  1
  C  C10  1  0.74238900  0.76900500  0.23099500  1
