# generated using pymatgen
data_Cu12NiC65
_symmetry_space_group_name_H-M   'P 1'
_cell_length_a   18.05914975
_cell_length_b   9.03196300
_cell_length_c   22.51866256
_cell_angle_alpha   90.00713537
_cell_angle_beta   90.01239296
_cell_angle_gamma   120.00292876
_symmetry_Int_Tables_number   1
_chemical_formula_structural   Cu12NiC65
_chemical_formula_sum   'Cu36 Ni3 C195'
_cell_volume   3180.82539713
_cell_formula_units_Z   3
loop_
 _symmetry_equiv_pos_site_id
 _symmetry_equiv_pos_as_xyz
  1  'x, y, z'
loop_
 _atom_site_type_symbol
 _atom_site_label
 _atom_site_symmetry_multiplicity
 _atom_site_fract_x
 _atom_site_fract_y
 _atom_site_fract_z
 _atom_site_occupancy
  C  C0  1  0.81617906  0.00973097  0.24624738  1
  C  C1  1  0.18315891  0.36618667  0.24910523  1
  C  C2  1  0.68861572  0.36671348  0.24567400  1
  C  C3  1  0.99470512  0.62029521  0.24631294  1
  C  C4  1  0.31619186  0.62280155  0.74680644  1
  C  C5  1  0.81655969  0.62289989  0.74629401  1
  C  C6  1  0.99466776  0.36598360  0.74592527  1
  C  C7  1  0.49459512  0.36535741  0.74602518  1
  C  C8  1  0.18863462  0.01050090  0.74721051  1
  C  C9  1  0.68872011  0.01105686  0.74663914  1
  C  C10  1  0.15211129  0.33656895  0.58462197  1
  C  C11  1  0.65320803  0.33638236  0.58391312  1
  C  C12  1  0.33361702  0.97050201  0.58396351  1
  C  C13  1  0.83413290  0.97270486  0.58379961  1
  C  C14  1  0.65181750  0.96965572  0.08505712  1
  C  C15  1  0.83245100  0.69511892  0.08412215  1
  C  C16  1  0.01587827  0.33567643  0.08315378  1
  C  C17  1  0.48297323  0.29847097  0.41687717  1
  C  C18  1  -0.00000419  0.99124395  0.49692533  1
  C  C19  1  0.50131724  0.98482458  0.49804695  1
  C  C20  1  0.00485948  0.99936654  0.99707669  1
  C  C21  1  0.49568329  0.00114485  0.99908357  1
  C  C22  1  0.33299007  0.33300957  0.83346870  1
  C  C23  1  0.83346773  0.33307385  0.83285602  1
  C  C24  1  0.33311950  0.33318128  0.33246983  1
  C  C25  1  0.83293923  0.33222024  0.33209940  1
  C  C26  1  0.17489902  0.68484965  0.16443749  1
  C  C27  1  0.65764524  0.65570770  0.16622301  1
  C  C28  1  0.16224649  0.66697907  0.66570214  1
  C  C29  1  0.66230015  0.66716120  0.66551225  1
  C  C30  1  0.99908072  -0.00019848  0.35593915  1
  C  C31  1  0.50038314  0.99666905  0.35402561  1
  C  C32  1  0.00012459  0.00089240  0.85627216  1
  C  C33  1  0.49988215  0.99917916  0.85634631  1
  C  C34  1  0.99982229  0.99575123  0.64517692  1
  C  C35  1  0.50041962  0.99678257  0.64521083  1
  C  C36  1  0.00322090  0.00006399  0.14480337  1
  C  C37  1  0.49697142  0.99924589  0.14419937  1
  C  C38  1  0.33666246  0.33375848  0.18724321  1
  C  C39  1  0.33281415  0.33274013  0.97719448  1
  C  C40  1  0.83356013  0.33390781  0.97763546  1
  C  C41  1  0.33026024  0.33495022  0.47895525  1
  C  C42  1  0.83434848  0.33421054  0.47759851  1
  C  C43  1  0.16949333  0.67314408  0.02134732  1
  C  C44  1  0.66375926  0.65970460  0.02031092  1
  C  C45  1  0.16378295  0.66598460  0.52014998  1
  C  C46  1  0.66536364  0.66859687  0.52077927  1
  C  C47  1  0.16907686  0.67135293  0.31282109  1
  C  C48  1  0.66500828  0.66694030  0.31212423  1
  C  C49  1  0.16678824  0.66628951  0.81476284  1
  C  C50  1  0.66685659  0.66661318  0.81449774  1
  Ni  Ni51  1  0.33384337  0.33355434  0.68534288  1
  Ni  Ni52  1  0.83383823  0.33395278  0.68500396  1
  Ni  Ni53  1  0.83270122  0.33323760  0.18509867  1
  Cu  Cu54  1  0.14578595  0.00052195  0.25120276  1
  Cu  Cu55  1  0.64553097  0.00163212  0.24789456  1
  Cu  Cu56  1  0.35579996  0.71032245  0.24984865  1
  Cu  Cu57  1  0.85545972  0.70761311  0.24913905  1
  Cu  Cu58  1  0.99808365  0.28962327  0.24942564  1
  Cu  Cu59  1  0.49871428  0.28712433  0.25100494  1
  Cu  Cu60  1  0.14633025  0.28956776  0.74931514  1
  Cu  Cu61  1  0.64633846  0.28954312  0.74952113  1
  Cu  Cu62  1  0.99825845  0.70638160  0.75052518  1
  Cu  Cu63  1  0.49823200  0.70627589  0.75032925  1
  Cu  Cu64  1  0.35506814  0.00325068  0.74962690  1
  Cu  Cu65  1  0.85500562  0.00345518  0.74968431  1
  Cu  Cu66  1  0.47641949  0.33746451  0.58558508  1
  Cu  Cu67  1  0.97628963  0.33752323  0.58656325  1
  Cu  Cu68  1  0.19025606  0.04534476  0.58649529  1
  Cu  Cu69  1  0.69138381  0.04842721  0.58568742  1
  Cu  Cu70  1  0.33404001  0.61952041  0.58622651  1
  Cu  Cu71  1  0.83431220  0.61761661  0.58534047  1
  Cu  Cu72  1  0.47690022  0.62186580  0.08212725  1
  Cu  Cu73  1  0.97661310  0.61749543  0.08578069  1
  Cu  Cu74  1  0.33305284  0.04621825  0.08241386  1
  Cu  Cu75  1  0.83274112  0.04727620  0.08577204  1
  Cu  Cu76  1  0.19106653  0.33619580  0.08379876  1
  Cu  Cu77  1  0.69022509  0.33318438  0.08582441  1
  Cu  Cu78  1  0.31210947  0.66529675  0.91678996  1
  Cu  Cu79  1  0.81225442  0.66682039  0.91750120  1
  Cu  Cu80  1  0.02188064  0.37733562  0.91824918  1
  Cu  Cu81  1  0.51961513  0.37398101  0.91577100  1
  Cu  Cu82  1  0.16697836  0.95802642  0.91666047  1
  Cu  Cu83  1  0.66694140  0.95782575  0.91755061  1
  Cu  Cu84  1  0.31209283  0.95716662  0.41807633  1
  Cu  Cu85  1  0.81131193  0.95627143  0.41664908  1
  Cu  Cu86  1  0.16603611  0.37628247  0.41632374  1
  Cu  Cu87  1  0.66867520  0.37762246  0.41623834  1
  Cu  Cu88  1  0.02099155  0.66585134  0.41504836  1
  Cu  Cu89  1  0.52118751  0.66920241  0.41683861  1
  C  C90  1  0.09847444  0.03241953  0.30738912  1
  C  C91  1  0.59491045  0.02744306  0.30513154  1
  C  C92  1  0.41539733  0.80764643  0.30790647  1
  C  C93  1  0.91895947  0.80791633  0.30545203  1
  C  C94  1  0.48647122  0.17454440  0.31111008  1
  C  C95  1  0.98551188  0.16350493  0.30572433  1
  C  C96  1  0.09638987  0.16282289  0.80527726  1
  C  C97  1  0.59638517  0.16247085  0.80529031  1
  C  C98  1  0.48476596  0.80465525  0.80656629  1
  C  C99  1  0.98482792  0.80545384  0.80658944  1
  C  C100  1  0.41854309  0.02929830  0.80539413  1
  C  C101  1  0.91822607  0.02910519  0.80552061  1
  C  C102  1  0.39946732  0.96821973  0.69050982  1
  C  C103  1  0.89921195  0.96800715  0.69065960  1
  C  C104  1  0.08423103  0.20182960  0.69033109  1
  C  C105  1  0.58428226  0.20253633  0.69043719  1
  C  C106  1  0.01609010  0.83665480  0.69310048  1
  C  C107  1  0.51606838  0.83676129  0.69308317  1
  C  C108  1  0.40305469  0.83136809  0.19234282  1
  C  C109  1  0.89978975  0.83228974  0.19072132  1
  C  C110  1  0.01621169  0.20056576  0.19107207  1
  C  C111  1  0.51544059  0.19309112  0.19449376  1
  C  C112  1  0.08266877  0.96842189  0.19346562  1
  C  C113  1  0.58626338  0.97203804  0.18919490  1
  C  C114  1  0.43605484  0.36421788  0.64555186  1
  C  C115  1  0.93732198  0.36516554  0.64700781  1
  C  C116  1  0.24835493  0.12302431  0.64513719  1
  C  C117  1  0.74846749  0.12291352  0.64529034  1
  C  C118  1  0.31300186  0.50110831  0.64449269  1
  C  C119  1  0.81277162  0.50169926  0.64460672  1
  C  C120  1  0.43027059  0.50271723  0.14084864  1
  C  C121  1  0.93774186  0.50217436  0.14508932  1
  C  C122  1  0.32044835  0.14028310  0.14108957  1
  C  C123  1  0.81255542  0.12354313  0.14495891  1
  C  C124  1  0.24661298  0.35924140  0.14423056  1
  C  C125  1  0.74883464  0.37571666  0.14494333  1
  C  C126  1  0.23734992  0.30773159  0.02652309  1
  C  C127  1  0.73636786  0.30037945  0.02826164  1
  C  C128  1  0.41740907  0.52711268  0.02489740  1
  C  C129  1  0.91364310  0.52875485  0.02819674  1
  C  C130  1  0.34664701  0.16588280  0.02498783  1
  C  C131  1  0.85048984  0.17266290  0.02835143  1
  C  C132  1  0.23653520  0.16984017  0.52822553  1
  C  C133  1  0.73593576  0.17157019  0.52795158  1
  C  C134  1  0.34691517  0.52616940  0.52728489  1
  C  C135  1  0.84717755  0.52570926  0.52690596  1
  C  C136  1  0.41695439  0.30239575  0.52583133  1
  C  C137  1  0.91411759  0.30056914  0.52877862  1
  C  C138  1  0.26240586  0.69063786  0.97337800  1
  C  C139  1  0.76513975  0.69185896  0.97576224  1
  C  C140  1  0.08067244  0.46829626  0.97667316  1
  C  C141  1  0.58244822  0.47477696  0.97245826  1
  C  C142  1  0.15402211  0.83326781  0.97314765  1
  C  C143  1  0.65440730  0.83866840  0.97589201  1
  C  C144  1  0.26637342  0.84103936  0.47702427  1
  C  C145  1  0.76491386  0.83770842  0.47554730  1
  C  C146  1  0.15554163  0.47048166  0.47555808  1
  C  C147  1  0.65232149  0.46922373  0.47434926  1
  C  C148  1  0.08329120  0.69027829  0.47241275  1
  C  C149  1  0.58181439  0.69176803  0.47438724  1
  C  C150  1  0.06779534  0.64071331  0.35636659  1
  C  C151  1  0.56866426  0.63708598  0.36003600  1
  C  C152  1  0.25063954  0.85873786  0.36068792  1
  C  C153  1  0.75167422  0.86138635  0.35809307  1
  C  C154  1  0.17910169  0.49426228  0.35746671  1
  C  C155  1  0.67909602  0.49487017  0.35751067  1
  C  C156  1  0.06897995  0.49585649  0.85857512  1
  C  C157  1  0.56780669  0.49343462  0.85675757  1
  C  C158  1  0.17904010  0.86410365  0.85697458  1
  C  C159  1  0.67885343  0.86227498  0.85833693  1
  C  C160  1  0.25316748  0.64194549  0.85699880  1
  C  C161  1  0.75247318  0.64224173  0.85825404  1
  C  C162  1  0.01351610  0.83737059  0.41019593  1
  C  C163  1  0.51287121  0.83882644  0.41143970  1
  C  C164  1  0.40777830  0.98209434  0.41204876  1
  C  C165  1  0.90506631  0.97234727  0.41028542  1
  C  C166  1  0.08109197  0.18886845  0.41087020  1
  C  C167  1  0.58003623  0.19265028  0.41105299  1
  C  C168  1  0.01337912  0.18977797  0.90983583  1
  C  C169  1  0.51365509  0.18906831  0.91005519  1
  C  C170  1  0.08116726  0.97323925  0.91006328  1
  C  C171  1  0.58136348  0.97304461  0.91010046  1
  C  C172  1  0.40515418  0.83780747  0.90999558  1
  C  C173  1  0.90545598  0.83807446  0.91035162  1
  C  C174  1  0.48669160  0.16360258  0.58891234  1
  C  C175  1  0.98693434  0.16409247  0.58950751  1
  C  C176  1  0.09639598  0.03395563  0.58908027  1
  C  C177  1  0.59639198  0.03320626  0.58956297  1
  C  C178  1  0.41736563  0.81447908  0.58878097  1
  C  C179  1  0.91694244  0.81429143  0.58912075  1
  C  C180  1  0.49055240  0.81485643  0.08838006  1
  C  C181  1  0.98348967  0.80710372  0.09003464  1
  C  C182  1  0.41833647  0.02738409  0.08997883  1
  C  C183  1  0.91877135  0.02698390  0.08950852  1
  C  C184  1  0.09383342  0.16650212  0.08936799  1
  C  C185  1  0.59569407  0.15984107  0.08957513  1
  C  C186  1  0.34525490  0.17166898  0.74587512  1
  C  C187  1  0.84495580  0.17155072  0.74617425  1
  C  C188  1  0.24025472  0.30871447  0.74507526  1
  C  C189  1  0.74030243  0.30879961  0.74521255  1
  C  C190  1  0.41390243  0.51950285  0.74498999  1
  C  C191  1  0.91371162  0.51974854  0.74531541  1
  C  C192  1  0.34225880  0.51816599  0.24554683  1
  C  C193  1  0.84621368  0.51967799  0.24558562  1
  C  C194  1  0.41499444  0.30945028  0.24478251  1
  C  C195  1  0.91317164  0.30701327  0.24560471  1
  C  C196  1  0.23803442  0.17376617  0.24472619  1
  C  C197  1  0.73935472  0.17228603  0.24600413  1
  C  C198  1  0.31985158  0.49484344  0.92175871  1
  C  C199  1  0.81961969  0.49526733  0.92290817  1
  C  C200  1  0.42704772  0.35923690  0.92136568  1
  C  C201  1  0.92809541  0.36111601  0.92316697  1
  C  C202  1  0.25199255  0.14454942  0.92186825  1
  C  C203  1  0.75257855  0.14413945  0.92301911  1
  C  C204  1  0.32365691  0.14841501  0.42257897  1
  C  C205  1  0.81972554  0.14325529  0.42343809  1
  C  C206  1  0.25206986  0.35953810  0.42251526  1
  C  C207  1  0.75266782  0.35840809  0.42225357  1
  C  C208  1  0.42963133  0.49242680  0.42283476  1
  C  C209  1  0.92833024  0.49503086  0.42304699  1
  C  C210  1  0.17552458  0.49979777  0.07863011  1
  C  C211  1  0.68084990  0.50462193  0.07627470  1
  C  C212  1  0.07136725  0.63779792  0.07661244  1
  C  C213  1  0.57395605  0.64803365  0.07816510  1
  C  C214  1  0.24836592  0.85602724  0.07773185  1
  C  C215  1  0.74927759  0.85365033  0.07725346  1
  C  C216  1  0.18071409  0.85610813  0.57691560  1
  C  C217  1  0.68136661  0.85759855  0.57685320  1
  C  C218  1  0.24967945  0.64429646  0.57730565  1
  C  C219  1  0.74983681  0.64381265  0.57656640  1
  C  C220  1  0.07507302  0.49860159  0.57760281  1
  C  C221  1  0.57526871  0.49820700  0.57755764  1
  C  C222  1  0.15025699  0.82463695  0.25536590  1
  C  C223  1  0.65615263  0.83166381  0.25585965  1
  C  C224  1  0.25956285  0.68688110  0.25554824  1
  C  C225  1  0.76121447  0.69414844  0.25502912  1
  C  C226  1  0.08580218  0.47739783  0.25522826  1
  C  C227  1  0.58715236  0.47385673  0.25556712  1
  C  C228  1  0.15240038  0.47777869  0.75467773  1
  C  C229  1  0.65284918  0.47818523  0.75487123  1
  C  C230  1  0.08616455  0.69436739  0.75455451  1
  C  C231  1  0.58646218  0.69520789  0.75452170  1
  C  C232  1  0.26093928  0.82718668  0.75455247  1
  C  C233  1  0.76085940  0.82710841  0.75482751  1
