# generated using pymatgen
data_Cu5NiC5
_symmetry_space_group_name_H-M   'P 1'
_cell_length_a   13.00210900
_cell_length_b   6.77249700
_cell_length_c   11.00674767
_cell_angle_alpha   60.70747405
_cell_angle_beta   90.00000000
_cell_angle_gamma   90.00000000
_symmetry_Int_Tables_number   1
_chemical_formula_structural   Cu5NiC5
_chemical_formula_sum   'Cu40 Ni8 C40'
_cell_volume   845.28741934
_cell_formula_units_Z   8
loop_
 _symmetry_equiv_pos_site_id
 _symmetry_equiv_pos_as_xyz
  1  'x, y, z'
loop_
 _atom_site_type_symbol
 _atom_site_label
 _atom_site_symmetry_multiplicity
 _atom_site_fract_x
 _atom_site_fract_y
 _atom_site_fract_z
 _atom_site_occupancy
  C  C0  1  0.77417700  0.27995800  0.95927600  1
  C  C1  1  0.03634800  0.12023900  0.74231200  1
  C  C2  1  0.46365200  0.12023900  0.24231200  1
  C  C3  1  0.53634800  0.87976100  0.75768800  1
  C  C4  1  0.27417700  0.72004200  0.54072400  1
  C  C5  1  0.22582300  0.72004200  0.04072400  1
  C  C6  1  0.72582300  0.27995800  0.45927600  1
  C  C7  1  0.84997500  0.45622900  0.83674900  1
  C  C8  1  0.34997500  0.54377100  0.66325100  1
  C  C9  1  0.15002500  0.54377100  0.16325100  1
  C  C10  1  0.65002500  0.45622900  0.33674900  1
  C  C11  1  0.66609600  0.57499100  0.59557500  1
  C  C12  1  0.16609600  0.42500900  0.90442500  1
  C  C13  1  0.33390400  0.42500900  0.40442500  1
  C  C14  1  0.83390400  0.57499100  0.09557500  1
  C  C15  1  0.71364100  0.42064900  0.76650700  1
  C  C16  1  0.21364100  0.57935100  0.73349300  1
  C  C17  1  0.28635900  0.57935100  0.23349300  1
  C  C18  1  0.78635900  0.42064900  0.26650700  1
  C  C19  1  0.58726600  0.40700600  0.71948300  1
  C  C20  1  0.08726600  0.59299400  0.78051700  1
  C  C21  1  0.41273400  0.59299400  0.28051700  1
  C  C22  1  0.91273400  0.40700600  0.21948300  1
  C  C23  1  0.83127300  0.91161000  0.22468400  1
  C  C24  1  0.96365200  0.87976100  0.25768800  1
  C  C25  1  0.66872700  0.91161000  0.72468400  1
  C  C26  1  0.16872700  0.08839000  0.77531600  1
  C  C27  1  0.33127300  0.08839000  0.27531600  1
  C  C28  1  0.20893600  0.07462600  0.40195300  1
  C  C29  1  0.29106400  0.07462600  0.90195300  1
  C  C30  1  0.79106400  0.92537400  0.59804700  1
  C  C31  1  0.68727100  0.06211100  0.17667100  1
  C  C32  1  0.18727100  0.93788900  0.32332900  1
  C  C33  1  0.31272900  0.93788900  0.82332900  1
  C  C34  1  0.81272900  0.06211100  0.67667100  1
  C  C35  1  0.87919200  0.79183100  0.39139400  1
  C  C36  1  0.37919200  0.20816900  0.10860600  1
  C  C37  1  0.12080800  0.20816900  0.60860600  1
  C  C38  1  0.62080800  0.79183100  0.89139400  1
  C  C39  1  0.70893600  0.92537400  0.09804700  1
  Ni  Ni40  1  0.58152000  0.88465700  0.40448100  1
  Ni  Ni41  1  0.08152000  0.11534300  0.09551900  1
  Ni  Ni42  1  0.41848000  0.11534300  0.59551900  1
  Ni  Ni43  1  0.91848000  0.88465700  0.90448100  1
  Ni  Ni44  1  0.96084900  0.69990100  0.60406900  1
  Ni  Ni45  1  0.46084900  0.30009900  0.89593100  1
  Ni  Ni46  1  0.03915100  0.30009900  0.39593100  1
  Ni  Ni47  1  0.53915100  0.69990100  0.10406900  1
  Cu  Cu48  1  0.77782400  0.41664900  0.86599500  1
  Cu  Cu49  1  0.27782400  0.58335100  0.63400500  1
  Cu  Cu50  1  0.22217600  0.58335100  0.13400500  1
  Cu  Cu51  1  0.66154900  0.42488300  0.68665600  1
  Cu  Cu52  1  0.16154900  0.57511700  0.81334400  1
  Cu  Cu53  1  0.33845100  0.57511700  0.31334400  1
  Cu  Cu54  1  0.83845100  0.42488300  0.18665600  1
  Cu  Cu55  1  0.50168700  0.79695000  0.47087800  1
  Cu  Cu56  1  0.00168700  0.20305000  0.02912200  1
  Cu  Cu57  1  0.49831300  0.20305000  0.52912200  1
  Cu  Cu58  1  0.99831300  0.79695000  0.97087800  1
  Cu  Cu59  1  0.67060700  0.80982700  0.45250400  1
  Cu  Cu60  1  0.17060700  0.19017300  0.04749600  1
  Cu  Cu61  1  0.32939300  0.19017300  0.54749600  1
  Cu  Cu62  1  0.82939300  0.80982700  0.95250400  1
  Cu  Cu63  1  0.57674900  0.05903700  0.28080700  1
  Cu  Cu64  1  0.07674900  0.94096300  0.21919300  1
  Cu  Cu65  1  0.42325100  0.94096300  0.71919300  1
  Cu  Cu66  1  0.92325100  0.05903700  0.78080700  1
  Cu  Cu67  1  0.74179400  0.02995700  0.12518000  1
  Cu  Cu68  1  0.24179400  0.97004300  0.37482000  1
  Cu  Cu69  1  0.25820600  0.97004300  0.87482000  1
  Cu  Cu70  1  0.75820600  0.02995700  0.62518000  1
  Cu  Cu71  1  0.89013800  0.81831000  0.29255600  1
  Cu  Cu72  1  0.39013800  0.18169000  0.20744400  1
  Cu  Cu73  1  0.10986200  0.18169000  0.70744400  1
  Cu  Cu74  1  0.60986200  0.81831000  0.79255600  1
  Cu  Cu75  1  0.03887600  0.73659400  0.53134000  1
  Cu  Cu76  1  0.53887600  0.26340600  0.96866000  1
  Cu  Cu77  1  0.96112400  0.26340600  0.46866000  1
  Cu  Cu78  1  0.46112400  0.73659400  0.03134000  1
  Cu  Cu79  1  0.87030800  0.73974300  0.54956500  1
  Cu  Cu80  1  0.37030800  0.26025700  0.95043500  1
  Cu  Cu81  1  0.12969200  0.26025700  0.45043500  1
  Cu  Cu82  1  0.62969200  0.73974300  0.04956500  1
  Cu  Cu83  1  0.96707400  0.62136400  0.73589200  1
  Cu  Cu84  1  0.46707400  0.37863600  0.76410800  1
  Cu  Cu85  1  0.03292600  0.37863600  0.26410800  1
  Cu  Cu86  1  0.53292600  0.62136400  0.23589200  1
  Cu  Cu87  1  0.72217600  0.41664900  0.36599500  1
