# generated using pymatgen
data_Cu6NiC
_symmetry_space_group_name_H-M   'P 1'
_cell_length_a   9.59385300
_cell_length_b   5.45755900
_cell_length_c   10.28486629
_cell_angle_alpha   70.35350432
_cell_angle_beta   90.00000000
_cell_angle_gamma   90.00000000
_symmetry_Int_Tables_number   1
_chemical_formula_structural   Cu6NiC
_chemical_formula_sum   'Cu24 Ni4 C4'
_cell_volume   507.15636734
_cell_formula_units_Z   4
loop_
 _symmetry_equiv_pos_site_id
 _symmetry_equiv_pos_as_xyz
  1  'x, y, z'
loop_
 _atom_site_type_symbol
 _atom_site_label
 _atom_site_symmetry_multiplicity
 _atom_site_fract_x
 _atom_site_fract_y
 _atom_site_fract_z
 _atom_site_occupancy
  C  C0  1  0.61025200  0.68796500  0.71489500  1
  C  C1  1  0.11025200  0.31203500  0.78510500  1
  C  C2  1  0.38974800  0.31203500  0.28510500  1
  C  C3  1  0.88974800  0.68796500  0.21489500  1
  Ni  Ni4  1  0.72485200  0.90489200  0.60184200  1
  Ni  Ni5  1  0.22485200  0.09510800  0.89815800  1
  Ni  Ni6  1  0.27514800  0.09510800  0.39815800  1
  Ni  Ni7  1  0.77514800  0.90489200  0.10184200  1
  Cu  Cu8  1  0.68481300  0.05595500  0.02010700  1
  Cu  Cu9  1  0.18481300  0.94404500  0.47989300  1
  Cu  Cu10  1  0.31518700  0.94404500  0.97989300  1
  Cu  Cu11  1  0.81518700  0.05595500  0.52010700  1
  Cu  Cu12  1  0.00974600  0.44169000  0.34076300  1
  Cu  Cu13  1  0.50974600  0.55831000  0.15923700  1
  Cu  Cu14  1  0.99025400  0.55831000  0.65923700  1
  Cu  Cu15  1  0.49025400  0.44169000  0.84076300  1
  Cu  Cu16  1  0.80270700  0.38856600  0.20105400  1
  Cu  Cu17  1  0.30270700  0.61143400  0.29894600  1
  Cu  Cu18  1  0.19729300  0.61143400  0.79894600  1
  Cu  Cu19  1  0.69729300  0.38856600  0.70105400  1
  Cu  Cu20  1  0.78562100  0.66150500  0.37435100  1
  Cu  Cu21  1  0.28562100  0.33849500  0.12564900  1
  Cu  Cu22  1  0.21437900  0.33849500  0.62564900  1
  Cu  Cu23  1  0.71437900  0.66150500  0.87435100  1
  Cu  Cu24  1  0.00234500  0.94161500  0.24957300  1
  Cu  Cu25  1  0.50234500  0.05838500  0.25042700  1
  Cu  Cu26  1  0.99765500  0.05838500  0.75042700  1
  Cu  Cu27  1  0.49765500  0.94161500  0.74957300  1
  Cu  Cu28  1  0.01951200  0.68107100  0.07859200  1
  Cu  Cu29  1  0.51951200  0.31892900  0.42140800  1
  Cu  Cu30  1  0.98048800  0.31892900  0.92140800  1
  Cu  Cu31  1  0.48048800  0.68107100  0.57859200  1
