# generated using pymatgen
data_Cu(NiC4)2
_symmetry_space_group_name_H-M   'P 1'
_cell_length_a   6.75880253
_cell_length_b   6.75552657
_cell_length_c   6.75552659
_cell_angle_alpha   52.21155876
_cell_angle_beta   52.20916348
_cell_angle_gamma   52.20915989
_symmetry_Int_Tables_number   1
_chemical_formula_structural   Cu(NiC4)2
_chemical_formula_sum   'Cu1 Ni2 C8'
_cell_volume   178.18665205
_cell_formula_units_Z   1
loop_
 _symmetry_equiv_pos_site_id
 _symmetry_equiv_pos_as_xyz
  1  'x, y, z'
loop_
 _atom_site_type_symbol
 _atom_site_label
 _atom_site_symmetry_multiplicity
 _atom_site_fract_x
 _atom_site_fract_y
 _atom_site_fract_z
 _atom_site_occupancy
  Ni  Ni0  1  0.72853825  0.72709876  0.72709876  1
  Ni  Ni1  1  0.30412451  0.30242806  0.30242806  1
  Cu  Cu2  1  0.50774911  0.50615662  0.50615662  1
  C  C3  1  0.13483648  0.13366110  0.13366110  1
  C  C4  1  0.98087619  0.97947543  0.97947543  1
  C  C5  1  0.25074908  0.75562616  0.75562616  1
  C  C6  1  0.23022068  0.75401839  0.23015319  1
  C  C7  1  0.75674312  0.25024211  0.75546298  1
  C  C8  1  0.23022068  0.23015319  0.75401839  1
  C  C9  1  0.75461578  0.23067721  0.23067721  1
  C  C10  1  0.75674312  0.75546298  0.25024211  1
