# generated using pymatgen
data_Cu5NiC29
_symmetry_space_group_name_H-M   'P 1'
_cell_length_a   8.46315945
_cell_length_b   8.45956892
_cell_length_c   22.06652755
_cell_angle_alpha   89.83599394
_cell_angle_beta   90.33289523
_cell_angle_gamma   119.88214150
_symmetry_Int_Tables_number   1
_chemical_formula_structural   Cu5NiC29
_chemical_formula_sum   'Cu15 Ni3 C87'
_cell_volume   1369.78563412
_cell_formula_units_Z   3
loop_
 _symmetry_equiv_pos_site_id
 _symmetry_equiv_pos_as_xyz
  1  'x, y, z'
loop_
 _atom_site_type_symbol
 _atom_site_label
 _atom_site_symmetry_multiplicity
 _atom_site_fract_x
 _atom_site_fract_y
 _atom_site_fract_z
 _atom_site_occupancy
  C  C0  1  0.99951065  0.99639145  0.99863093  1
  C  C1  1  0.66302577  0.33270420  0.83572589  1
  C  C2  1  0.66959121  0.33272152  0.33171898  1
  C  C3  1  0.99821929  0.00508580  0.35088001  1
  C  C4  1  0.99883812  0.99205660  0.85562355  1
  C  C5  1  0.00032335  0.00056321  0.64769147  1
  C  C6  1  0.00152441  0.00725066  0.14910265  1
  C  C7  1  0.66633638  0.33302631  0.68531543  1
  C  C8  1  0.67441842  0.33305158  0.18486731  1
  C  C9  1  0.65827691  0.33276356  0.97874411  1
  C  C10  1  0.66638779  0.33296839  0.48259327  1
  C  C11  1  0.33994862  0.67467944  0.01723055  1
  C  C12  1  0.33341813  0.66711665  0.52018109  1
  C  C13  1  0.32752229  0.66008763  0.31019194  1
  C  C14  1  0.34101353  0.67277352  0.81726734  1
  Ni  Ni15  1  0.99952869  0.29017756  0.25001172  1
  Ni  Ni16  1  0.62256283  0.66655502  0.91682572  1
  Ni  Ni17  1  0.33401666  0.95620245  0.91676346  1
  Cu  Cu18  1  0.29033881  -0.00000787  0.25020171  1
  Cu  Cu19  1  0.70930603  0.70971439  0.25009902  1
  Cu  Cu20  1  0.28911643  0.29172993  0.75019574  1
  Cu  Cu21  1  0.00202372  0.70889423  0.74961542  1
  Cu  Cu22  1  0.70982222  0.99900956  0.74981088  1
  Cu  Cu23  1  0.95829952  0.33344936  0.58345611  1
  Cu  Cu24  1  0.37490704  0.04189605  0.58335196  1
  Cu  Cu25  1  0.66707006  0.62505213  0.58335598  1
  Cu  Cu26  1  0.95932205  0.62461872  0.08296215  1
  Cu  Cu27  1  0.66556120  0.04241437  0.08289065  1
  Cu  Cu28  1  0.37648683  0.33520559  0.08386146  1
  Cu  Cu29  1  0.04388516  0.37749143  0.91668990  1
  Cu  Cu30  1  0.62276809  0.95498419  0.41640652  1
  Cu  Cu31  1  0.33282220  0.37591882  0.41694952  1
  Cu  Cu32  1  0.04312946  0.66882116  0.41654090  1
  C  C33  1  0.21246323  0.03490182  0.30545085  1
  C  C34  1  0.82451513  0.78549566  0.30543431  1
  C  C35  1  0.96039178  0.17125418  0.30740287  1
  C  C36  1  0.21022821  0.17456539  0.80412794  1
  C  C37  1  0.96250797  0.78666940  0.80343424  1
  C  C38  1  0.82700296  0.03773502  0.80409096  1
  C  C39  1  0.78992849  0.96784117  0.69452368  1
  C  C40  1  0.17807243  0.21107345  0.69444874  1
  C  C41  1  0.03305601  0.82126821  0.69441523  1
  C  C42  1  0.78840645  0.82109378  0.19532819  1
  C  C43  1  0.03541807  0.20791188  0.19362077  1
  C  C44  1  0.17681245  0.96377892  0.19536037  1
  C  C45  1  0.87838953  0.36953254  0.63765668  1
  C  C46  1  0.49156020  0.12174563  0.63782179  1
  C  C47  1  0.63086624  0.50876915  0.63776732  1
  C  C48  1  0.87893722  0.51321747  0.13819664  1
  C  C49  1  0.63282834  0.12151972  0.13799146  1
  C  C50  1  0.48983232  0.36611252  0.13897119  1
  C  C51  1  0.45407965  0.29664994  0.02957998  1
  C  C52  1  0.84189811  0.54438885  0.02870067  1
  C  C53  1  0.70359347  0.15982293  0.02874979  1
  C  C54  1  0.45417665  0.15726397  0.52863062  1
  C  C55  1  0.70251111  0.54546706  0.52868993  1
  C  C56  1  0.84255896  0.29723354  0.52849603  1
  C  C57  1  0.54298478  0.70176247  0.97401258  1
  C  C58  1  0.15514933  0.45312941  0.97195007  1
  C  C59  1  0.29369932  0.83865707  0.97386022  1
  C  C60  1  0.54324126  0.84390671  0.47169635  1
  C  C61  1  0.30050853  0.45590821  0.47180556  1
  C  C62  1  0.15518836  0.70054329  0.47185876  1
  C  C63  1  0.12159085  0.63125910  0.36257145  1
  C  C64  1  0.50673405  0.87611294  0.36189784  1
  C  C65  1  0.37133030  0.49214447  0.36269197  1
  C  C66  1  0.11920097  0.48788095  0.86108847  1
  C  C67  1  0.36838782  0.87720080  0.85889590  1
  C  C68  1  0.50606064  0.62645649  0.85899578  1
  C  C69  1  0.02407198  0.83118011  0.40836649  1
  C  C70  1  0.80372553  0.97296262  0.40968414  1
  C  C71  1  0.17175419  0.19431107  0.40950403  1
  C  C72  1  0.02562344  0.19503759  0.90956437  1
  C  C73  1  0.16482287  0.97890810  0.90951260  1
  C  C74  1  0.81125665  0.83884773  0.90946481  1
  C  C75  1  0.97509733  0.16945006  0.59147768  1
  C  C76  1  0.19443817  0.02495290  0.59138869  1
  C  C77  1  0.83033201  0.80552187  0.59153736  1
  C  C78  1  0.97511809  0.80776301  0.09081181  1
  C  C79  1  0.83139034  0.02409656  0.08977414  1
  C  C80  1  0.19410969  0.16711636  0.09002854  1
  C  C81  1  0.69301052  0.16650535  0.74248740  1
  C  C82  1  0.47293110  0.30783959  0.74267252  1
  C  C83  1  0.83414530  0.52582495  0.74221660  1
  C  C84  1  0.68922294  0.52596939  0.24335854  1
  C  C85  1  0.82733743  0.30945679  0.24303385  1
  C  C86  1  0.47175483  0.16555952  0.24327258  1
  C  C87  1  0.64583811  0.49778510  0.92364854  1
  C  C88  1  0.86150341  0.35865341  0.92341891  1
  C  C89  1  0.50585956  0.14522963  0.92379222  1
  C  C90  1  0.64085036  0.13951736  0.42367557  1
  C  C91  1  0.49966781  0.35846157  0.42421238  1
  C  C92  1  0.85964700  0.50213002  0.42395988  1
  C  C93  1  0.35648742  0.49614916  0.07590366  1
  C  C94  1  0.13866438  0.64077466  0.07576092  1
  C  C95  1  0.50345622  0.86209900  0.07668382  1
  C  C96  1  0.35871361  0.86160855  0.57507738  1
  C  C97  1  0.50301509  0.64153580  0.57495966  1
  C  C98  1  0.13831307  0.49684722  0.57503798  1
  C  C99  1  0.31012792  0.83836217  0.25840215  1
  C  C100  1  0.53035042  0.69475891  0.25837909  1
  C  C101  1  0.16832074  0.47742321  0.25895497  1
  C  C102  1  0.30698644  0.47188286  0.75716481  1
  C  C103  1  0.16264706  0.68867699  0.75738782  1
  C  C104  1  0.52930990  0.83782505  0.75612153  1
