# generated using pymatgen
data_Cu2Ni2C9
_symmetry_space_group_name_H-M   'P 1'
_cell_length_a   3.19075200
_cell_length_b   3.19076474
_cell_length_c   44.08899200
_cell_angle_alpha   89.99885655
_cell_angle_beta   89.99978959
_cell_angle_gamma   119.99986792
_symmetry_Int_Tables_number   1
_chemical_formula_structural   Cu2Ni2C9
_chemical_formula_sum   'Cu2 Ni2 C9'
_cell_volume   388.73103412
_cell_formula_units_Z   1
loop_
 _symmetry_equiv_pos_site_id
 _symmetry_equiv_pos_as_xyz
  1  'x, y, z'
loop_
 _atom_site_type_symbol
 _atom_site_label
 _atom_site_symmetry_multiplicity
 _atom_site_fract_x
 _atom_site_fract_y
 _atom_site_fract_z
 _atom_site_occupancy
  C  C0  1  0.99997400  0.99995600  0.55953100  1
  Ni  Ni1  1  0.33328600  0.66658700  0.09381400  1
  Ni  Ni2  1  0.33333000  0.66664000  0.46198500  1
  Cu  Cu3  1  0.66668100  0.33336400  0.28171100  1
  Cu  Cu4  1  0.66671500  0.33343100  0.66644600  1
  C  C5  1  0.33333800  0.66668100  0.31740000  1
  C  C6  1  0.33337900  0.66676200  0.70211100  1
  C  C7  1  0.66663200  0.33327200  0.05830000  1
  C  C8  1  0.66667300  0.33332800  0.42662900  1
  C  C9  1  0.66660400  0.33322700  0.12932300  1
  C  C10  1  0.66665100  0.33328500  0.49789300  1
  C  C11  1  0.33335600  0.66671100  0.24602500  1
  C  C12  1  0.33338000  0.66675800  0.63054200  1
