# generated using pymatgen
data_Cu7Ni5C99
_symmetry_space_group_name_H-M   'P 1'
_cell_length_a   8.83189815
_cell_length_b   8.78706600
_cell_length_c   22.64200930
_cell_angle_alpha   89.99478854
_cell_angle_beta   90.16368237
_cell_angle_gamma   119.90203615
_symmetry_Int_Tables_number   1
_chemical_formula_structural   Cu7Ni5C99
_chemical_formula_sum   'Cu7 Ni5 C99'
_cell_volume   1523.24274402
_cell_formula_units_Z   1
loop_
 _symmetry_equiv_pos_site_id
 _symmetry_equiv_pos_as_xyz
  1  'x, y, z'
loop_
 _atom_site_type_symbol
 _atom_site_label
 _atom_site_symmetry_multiplicity
 _atom_site_fract_x
 _atom_site_fract_y
 _atom_site_fract_z
 _atom_site_occupancy
  C  C0  1  0.98854917  0.63174518  0.24600993  1
  C  C1  1  0.65636132  0.69094548  0.07937078  1
  C  C2  1  0.32336644  0.29898917  0.91313422  1
  C  C3  1  0.00018971  0.99983717  0.49564311  1
  C  C4  1  0.99782877  0.99702690  0.99116348  1
  C  C5  1  0.67578991  0.33470202  0.82376167  1
  C  C6  1  0.65571479  0.32315035  0.32626133  1
  C  C7  1  0.33122325  0.66718782  0.15703688  1
  C  C8  1  0.33350968  0.66664764  0.67046272  1
  Ni  Ni9  1  0.00038528  0.00052114  0.35412370  1
  Ni  Ni10  1  0.99370712  0.99440693  0.85194769  1
  Ni  Ni11  1  0.66619453  0.33311143  0.68728930  1
  Ni  Ni12  1  0.66080188  0.32747472  0.18515016  1
  Ni  Ni13  1  0.32769566  0.66692515  0.01834616  1
  Cu  Cu14  1  0.99931828  0.99967469  0.65066380  1
  Cu  Cu15  1  0.00587304  0.00734261  0.14529744  1
  Cu  Cu16  1  0.67150589  0.33123427  0.97852459  1
  Cu  Cu17  1  0.66738670  0.33400961  0.47945761  1
  Cu  Cu18  1  0.33280444  0.66667506  0.52151372  1
  Cu  Cu19  1  0.33939628  0.66749975  0.31004869  1
  Cu  Cu20  1  0.33270392  0.66883671  0.81247433  1
  C  C21  1  0.29315542  0.00933614  0.25296710  1
  C  C22  1  0.71525490  0.71122588  0.25109987  1
  C  C23  1  0.99373310  0.28463530  0.25314958  1
  C  C24  1  0.29502353  0.28995913  0.75376685  1
  C  C25  1  0.99480944  0.70540833  0.75292465  1
  C  C26  1  0.71093518  0.00496296  0.75302279  1
  C  C27  1  0.95323804  0.33133634  0.58495681  1
  C  C28  1  0.37786852  0.04797190  0.58487265  1
  C  C29  1  0.66883128  0.62238578  0.58500337  1
  C  C30  1  0.96132412  0.62050466  0.08669845  1
  C  C31  1  0.66202964  0.04171788  0.08588673  1
  C  C32  1  0.38035248  0.33663865  0.08398125  1
  C  C33  1  0.62745598  0.67401293  0.91976936  1
  C  C34  1  0.04659071  0.37684158  0.91798638  1
  C  C35  1  0.32837655  0.95296719  0.91887212  1
  C  C36  1  0.62515189  0.95498599  0.41695432  1
  C  C37  1  0.33033910  0.37436855  0.41686341  1
  C  C38  1  0.04480825  0.66923973  0.41591710  1
  C  C39  1  0.20380342  0.02384166  0.30687080  1
  C  C40  1  0.82684990  0.79625679  0.30442669  1
  C  C41  1  0.97355082  0.17843180  0.30675924  1
  C  C42  1  0.21009391  0.18745897  0.80869615  1
  C  C43  1  0.97784090  0.79595320  0.80574989  1
  C  C44  1  0.81976037  0.02442493  0.80576404  1
  C  C45  1  0.80135616  0.97180389  0.69520095  1
  C  C46  1  0.16940195  0.19647312  0.69689113  1
  C  C47  1  0.02710183  0.82807422  0.69502826  1
  C  C48  1  0.79489717  0.82575568  0.19347597  1
  C  C49  1  0.02821462  0.20045419  0.19606100  1
  C  C50  1  0.16902502  0.96785274  0.19636797  1
  C  C51  1  0.87900932  0.36819509  0.63814681  1
  C  C52  1  0.48882048  0.12161300  0.63827669  1
  C  C53  1  0.63248670  0.51113828  0.63826313  1
  C  C54  1  0.87708345  0.52153771  0.14268102  1
  C  C55  1  0.64236982  0.12791278  0.13941192  1
  C  C56  1  0.49320758  0.36473686  0.13701771  1
  C  C57  1  0.46119479  0.30253239  0.02643736  1
  C  C58  1  0.83447950  0.53179343  0.03127270  1
  C  C59  1  0.69419486  0.16017463  0.02890432  1
  C  C60  1  0.46922539  0.16140715  0.52784948  1
  C  C61  1  0.69192253  0.53150003  0.52789670  1
  C  C62  1  0.83917701  0.30784518  0.52783706  1
  C  C63  1  0.54339031  0.68873373  0.97577764  1
  C  C64  1  0.15865840  0.46012678  0.97128949  1
  C  C65  1  0.30827609  0.84713617  0.97248290  1
  C  C66  1  0.52531577  0.84098496  0.47144389  1
  C  C67  1  0.31635603  0.47434514  0.47151837  1
  C  C68  1  0.16002093  0.68345704  0.47050764  1
  C  C69  1  0.12932129  0.63707080  0.36023961  1
  C  C70  1  0.50434911  0.86569348  0.36193617  1
  C  C71  1  0.36195790  0.49591591  0.36209042  1
  C  C72  1  0.13282575  0.49652011  0.86148862  1
  C  C73  1  0.36077413  0.86741915  0.86193286  1
  C  C74  1  0.50045074  0.63481276  0.86447158  1
  C  C75  1  0.02527960  0.82849203  0.41325056  1
  C  C76  1  0.80185515  0.97302871  0.41306917  1
  C  C77  1  0.17169437  0.19705246  0.41309756  1
  C  C78  1  0.02275461  0.19514986  0.90902935  1
  C  C79  1  0.18085269  0.99259578  0.91034058  1
  C  C80  1  0.80858326  0.82551157  0.91080678  1
  C  C81  1  0.97612215  0.16768721  0.58800654  1
  C  C82  1  0.19236209  0.02506764  0.58800177  1
  C  C83  1  0.83211217  0.80820919  0.58802830  1
  C  C84  1  0.96638140  0.80602447  0.09036024  1
  C  C85  1  0.83593640  0.02669657  0.09031614  1
  C  C86  1  0.19419154  0.16452616  0.09082371  1
  C  C87  1  0.68380178  0.15815720  0.74209119  1
  C  C88  1  0.47339086  0.31459734  0.74270507  1
  C  C89  1  0.84191769  0.52529959  0.74227954  1
  C  C90  1  0.68874415  0.52804874  0.24298701  1
  C  C91  1  0.84757641  0.32547052  0.24409391  1
  C  C92  1  0.47490822  0.15846061  0.24383440  1
  C  C93  1  0.63337559  0.49377871  0.92386994  1
  C  C94  1  0.86154108  0.36401497  0.92395246  1
  C  C95  1  0.50282364  0.14236787  0.92362528  1
  C  C96  1  0.63343556  0.13655455  0.42414046  1
  C  C97  1  0.50270744  0.36598685  0.42416521  1
  C  C98  1  0.86330209  0.49701718  0.42457315  1
  C  C99  1  0.35544683  0.49443409  0.07600227  1
  C  C100  1  0.14186280  0.64942612  0.07747206  1
  C  C101  1  0.51395760  0.85476826  0.07721479  1
  C  C102  1  0.35226755  0.85927519  0.57243174  1
  C  C103  1  0.50679429  0.64790446  0.57251806  1
  C  C104  1  0.14066787  0.49346652  0.57245042  1
  C  C105  1  0.29891429  0.82789536  0.25746450  1
  C  C106  1  0.52813984  0.69661200  0.25753922  1
  C  C107  1  0.16870534  0.47462154  0.25776969  1
  C  C108  1  0.30351085  0.47468707  0.75627324  1
  C  C109  1  0.17075346  0.69708872  0.75596891  1
  C  C110  1  0.52698123  0.82889839  0.75660650  1
