# generated using pymatgen
data_Cu6NiC12
_symmetry_space_group_name_H-M   'P 1'
_cell_length_a   5.09363236
_cell_length_b   5.18379189
_cell_length_c   8.93094097
_cell_angle_alpha   90.01015227
_cell_angle_beta   89.99313732
_cell_angle_gamma   101.94924154
_symmetry_Int_Tables_number   1
_chemical_formula_structural   Cu6NiC12
_chemical_formula_sum   'Cu6 Ni1 C12'
_cell_volume   230.70571869
_cell_formula_units_Z   1
loop_
 _symmetry_equiv_pos_site_id
 _symmetry_equiv_pos_as_xyz
  1  'x, y, z'
loop_
 _atom_site_type_symbol
 _atom_site_label
 _atom_site_symmetry_multiplicity
 _atom_site_fract_x
 _atom_site_fract_y
 _atom_site_fract_z
 _atom_site_occupancy
  Ni  Ni0  1  0.50360435  0.03418119  0.66661226  1
  Cu  Cu1  1  0.02460689  0.98550390  0.00201219  1
  Cu  Cu2  1  0.02460969  0.98544894  0.33104450  1
  Cu  Cu3  1  0.00519083  0.98834168  0.66656532  1
  Cu  Cu4  1  0.46327416  0.53602592  0.84200991  1
  Cu  Cu5  1  0.49690717  0.51484669  0.16653033  1
  Cu  Cu6  1  0.46328614  0.53596652  0.49106215  1
  C  C7  1  0.19606650  0.85653649  0.51617355  1
  C  C8  1  0.19611219  0.85662496  0.81692919  1
  C  C9  1  0.30861968  0.31114267  -0.00001198  1
  C  C10  1  0.30859293  0.31106495  0.33308072  1
  C  C11  1  0.29732067  0.31746013  0.66652521  1
  C  C12  1  0.70609653  0.68782438  0.99630445  1
  C  C13  1  0.70610195  0.68775233  0.33673655  1
  C  C14  1  0.66992261  0.71787103  0.66655180  1
  C  C15  1  0.87224995  0.11732828  0.16655545  1
  C  C16  1  0.22658509  0.79268976  0.16643660  1
  C  C17  1  0.80005147  0.16628447  0.52102337  1
  C  C18  1  0.80024719  0.16654869  0.81214543  1
