# generated using pymatgen
data_Cu9NiC50
_symmetry_space_group_name_H-M   'P 1'
_cell_length_a   15.80921126
_cell_length_b   27.27015434
_cell_length_c   9.07561348
_cell_angle_alpha   89.84484434
_cell_angle_beta   124.98947876
_cell_angle_gamma   90.11878465
_symmetry_Int_Tables_number   1
_chemical_formula_structural   Cu9NiC50
_chemical_formula_sum   'Cu36 Ni4 C200'
_cell_volume   3205.47548952
_cell_formula_units_Z   4
loop_
 _symmetry_equiv_pos_site_id
 _symmetry_equiv_pos_as_xyz
  1  'x, y, z'
loop_
 _atom_site_type_symbol
 _atom_site_label
 _atom_site_symmetry_multiplicity
 _atom_site_fract_x
 _atom_site_fract_y
 _atom_site_fract_z
 _atom_site_occupancy
  C  C0  1  0.25679241  0.25413248  0.01880610  1
  C  C1  1  0.25982183  0.58881654  0.02193056  1
  C  C2  1  0.24799435  0.91512172  0.99807979  1
  C  C3  1  0.74886492  0.25567080  0.50371718  1
  C  C4  1  0.74300174  0.57717354  0.49717652  1
  C  C5  1  0.75093422  0.91469909  0.50642765  1
  C  C6  1  0.75982071  0.08881647  0.02192771  1
  C  C7  1  0.74799428  0.41512174  0.99807968  1
  C  C8  1  0.75679233  0.75413236  0.01880635  1
  C  C9  1  0.24300194  0.07717356  0.49717678  1
  C  C10  1  0.25093422  0.41469906  0.50642773  1
  C  C11  1  0.24886487  0.75567077  0.50371699  1
  C  C12  1  0.50259379  0.03693355  0.75408137  1
  C  C13  1  0.48853769  0.36242540  0.71966307  1
  C  C14  1  0.48935972  0.69717169  0.72687225  1
  C  C15  1  0.49890448  0.28946754  0.26902692  1
  C  C16  1  0.49918275  0.62475967  0.27450117  1
  C  C17  1  0.49943879  0.96497633  0.25382605  1
  C  C18  1  0.98935937  0.19717195  0.72687140  1
  C  C19  1  0.00259376  0.53693353  0.75408138  1
  C  C20  1  0.98853768  0.86242543  0.71966314  1
  C  C21  1  0.99918289  0.12475954  0.27450067  1
  C  C22  1  0.99943880  0.46497634  0.25382605  1
  C  C23  1  0.99890478  0.78946750  0.26902736  1
  C  C24  1  0.80759062  0.65363016  0.23835805  1
  C  C25  1  0.81616089  0.98565401  0.24621017  1
  C  C26  1  0.20541603  0.30677097  0.29168048  1
  C  C27  1  0.20865637  0.64385159  0.28564228  1
  C  C28  1  0.81469701  0.02578062  0.68107794  1
  C  C29  1  0.81204033  0.69201393  0.67854268  1
  C  C30  1  0.30759223  0.15363108  0.23836091  1
  C  C31  1  0.31616040  0.48565414  0.24621008  1
  C  C32  1  0.70865626  0.14385161  0.28564227  1
  C  C33  1  0.70541605  0.80677099  0.29168048  1
  C  C34  1  0.31204159  0.19201327  0.67854368  1
  C  C35  1  0.31469698  0.52578066  0.68107785  1
  C  C36  1  0.10803890  0.25040417  0.57615397  1
  C  C37  1  0.10866732  0.58459992  0.57433708  1
  C  C38  1  0.10877131  0.91731030  0.57193245  1
  C  C39  1  0.88912565  0.25187029  0.93186261  1
  C  C40  1  0.89311679  0.58205834  0.93269979  1
  C  C41  1  0.89665905  0.91745056  0.93579021  1
  C  C42  1  0.89063021  0.41525476  0.43005152  1
  C  C43  1  0.10248167  0.08125784  0.05881770  1
  C  C44  1  0.10624184  0.41536086  0.06759193  1
  C  C45  1  0.10766680  0.75064280  0.06133718  1
  C  C46  1  0.60866713  0.08459981  0.57433661  1
  C  C47  1  0.60877149  0.41731032  0.57193277  1
  C  C48  1  0.60803900  0.75040411  0.57615498  1
  C  C49  1  0.39311679  0.08205823  0.93269984  1
  C  C50  1  0.39665887  0.41745051  0.93579002  1
  C  C51  1  0.38912573  0.75187017  0.93186256  1
  C  C52  1  0.39062976  0.91525477  0.43005126  1
  C  C53  1  0.60766596  0.25064294  0.06133541  1
  C  C54  1  0.60248193  0.58125805  0.05881816  1
  C  C55  1  0.60624183  0.91536091  0.06759170  1
  Ni  Ni56  1  0.90315723  0.08230940  0.44544578  1
  Ni  Ni57  1  0.90192548  0.74890885  0.44460066  1
  Ni  Ni58  1  0.40192544  0.24890886  0.44460063  1
  Ni  Ni59  1  0.40315727  0.58230942  0.44544575  1
  Cu  Cu60  1  0.99984556  0.31947486  0.75046844  1
  Cu  Cu61  1  0.00027197  0.65323596  0.74429776  1
  Cu  Cu62  1  0.99794666  0.98553530  0.73544958  1
  Cu  Cu63  1  0.00330832  0.01387283  0.24997415  1
  Cu  Cu64  1  0.00112286  0.34639416  0.25209888  1
  Cu  Cu65  1  0.00256541  0.67981629  0.24803968  1
  Cu  Cu66  1  0.50027191  0.15323595  0.74429769  1
  Cu  Cu67  1  0.49794660  0.48553530  0.73544954  1
  Cu  Cu68  1  0.49984561  0.81947487  0.75046851  1
  Cu  Cu69  1  0.50256542  0.17981629  0.24803967  1
  Cu  Cu70  1  0.50330831  0.51387285  0.24997403  1
  Cu  Cu71  1  0.50112279  0.84639415  0.25209891  1
  Cu  Cu72  1  0.35443152  0.29797701  0.75297602  1
  Cu  Cu73  1  0.35215750  0.63195526  0.74811991  1
  Cu  Cu74  1  0.35517563  0.96355410  0.75337034  1
  Cu  Cu75  1  0.64209918  0.29808605  0.73300700  1
  Cu  Cu76  1  0.64508665  0.63057123  0.74156539  1
  Cu  Cu77  1  0.64539917  0.96329912  0.74358910  1
  Cu  Cu78  1  0.64367965  0.03361222  0.24540431  1
  Cu  Cu79  1  0.64293779  0.36818035  0.24712134  1
  Cu  Cu80  1  0.63959751  0.70080653  0.24111444  1
  Cu  Cu81  1  0.35468443  0.03589346  0.25683996  1
  Cu  Cu82  1  0.35637462  0.36985341  0.25724495  1
  Cu  Cu83  1  0.35521997  0.70448643  0.25750267  1
  Cu  Cu84  1  0.85215748  0.13195519  0.74811978  1
  Cu  Cu85  1  0.85517557  0.46355408  0.75337029  1
  Cu  Cu86  1  0.85443137  0.79797700  0.75297591  1
  Cu  Cu87  1  0.14508654  0.13057119  0.74156542  1
  Cu  Cu88  1  0.14539913  0.46329911  0.74358915  1
  Cu  Cu89  1  0.14209924  0.79808606  0.73300684  1
  Cu  Cu90  1  0.13959754  0.20080654  0.24111451  1
  Cu  Cu91  1  0.14367961  0.53361218  0.24540419  1
  Cu  Cu92  1  0.14293779  0.86818037  0.24712129  1
  Cu  Cu93  1  0.85521986  0.20448632  0.25750266  1
  Cu  Cu94  1  0.85468431  0.53589344  0.25683979  1
  Cu  Cu95  1  0.85637466  0.86985345  0.25724482  1
  C  C96  1  0.15331119  0.19172377  0.74564948  1
  C  C97  1  0.14810840  0.52362052  0.73892596  1
  C  C98  1  0.14937590  0.85864734  0.74458787  1
  C  C99  1  0.84527205  0.19112196  0.76995326  1
  C  C100  1  0.84830392  0.52360152  0.75368164  1
  C  C101  1  0.84791115  0.85738725  0.77480919  1
  C  C102  1  0.84366611  0.14598668  0.24751927  1
  C  C103  1  0.84987503  0.47579905  0.26145500  1
  C  C104  1  0.84150346  0.81165195  0.24261163  1
  C  C105  1  0.14478436  0.14024569  0.23883460  1
  C  C106  1  0.15127366  0.47269367  0.24838993  1
  C  C107  1  0.14610534  0.80818089  0.23868492  1
  C  C108  1  0.64810842  0.02362047  0.73892590  1
  C  C109  1  0.64937584  0.35864735  0.74458795  1
  C  C110  1  0.65331111  0.69172386  0.74564934  1
  C  C111  1  0.34830370  0.02360146  0.75368162  1
  C  C112  1  0.34791126  0.35738723  0.77480917  1
  C  C113  1  0.34527211  0.69112183  0.76995334  1
  C  C114  1  0.34150338  0.31165196  0.24261160  1
  C  C115  1  0.34366603  0.64598665  0.24751893  1
  C  C116  1  0.34987528  0.97579922  0.26145515  1
  C  C117  1  0.64610547  0.30818097  0.23868506  1
  C  C118  1  0.64478441  0.64024560  0.23883445  1
  C  C119  1  0.65127363  0.97269376  0.24838999  1
  C  C120  1  0.41759452  0.18268993  0.56353892  1
  C  C121  1  0.41639945  0.51509456  0.55361915  1
  C  C122  1  0.43624938  0.85672859  0.57724868  1
  C  C123  1  0.56775829  0.18935104  0.92250744  1
  C  C124  1  0.56205735  0.52421577  0.90955983  1
  C  C125  1  0.56796834  0.85490004  0.93090199  1
  C  C126  1  0.56836511  0.14175779  0.42412568  1
  C  C127  1  0.56562693  0.47648966  0.42555421  1
  C  C128  1  0.56944128  0.80939083  0.42597320  1
  C  C129  1  0.44479902  0.14077020  0.07770056  1
  C  C130  1  0.44362487  0.47793710  0.07146053  1
  C  C131  1  0.43692889  0.81303194  0.07164554  1
  C  C132  1  0.91639937  0.01509465  0.55361901  1
  C  C133  1  0.93624918  0.35672856  0.57724856  1
  C  C134  1  0.91759448  0.68269004  0.56353826  1
  C  C135  1  0.06205744  0.02421576  0.90955989  1
  C  C136  1  0.06796851  0.35490009  0.93090225  1
  C  C137  1  0.06775845  0.68935116  0.92250764  1
  C  C138  1  0.06944142  0.30939089  0.42597346  1
  C  C139  1  0.06836538  0.64175776  0.42412612  1
  C  C140  1  0.06562692  0.97648966  0.42555412  1
  C  C141  1  0.93692869  0.31303190  0.07164522  1
  C  C142  1  0.94479879  0.64077006  0.07770005  1
  C  C143  1  0.94362467  0.97793709  0.07146028  1
  C  C144  1  0.25971018  0.26953748  0.74570550  1
  C  C145  1  0.25956951  0.60233268  0.74603516  1
  C  C146  1  0.25815932  0.93792323  0.73927941  1
  C  C147  1  0.74667465  0.27632570  0.76097658  1
  C  C148  1  0.75121732  0.61074866  0.76476321  1
  C  C149  1  0.74607578  0.94322017  0.75437059  1
  C  C150  1  0.73098278  0.05915620  0.23413905  1
  C  C151  1  0.74423417  0.39302112  0.26796715  1
  C  C152  1  0.73125823  0.72565326  0.23912666  1
  C  C153  1  0.25904472  0.06438215  0.24070579  1
  C  C154  1  0.25801933  0.39679423  0.24568688  1
  C  C155  1  0.25692352  0.73013460  0.24592839  1
  C  C156  1  0.75956930  0.10233261  0.74603508  1
  C  C157  1  0.75815930  0.43792319  0.73927943  1
  C  C158  1  0.75971044  0.76953753  0.74570539  1
  C  C159  1  0.25121720  0.11074873  0.76476325  1
  C  C160  1  0.24607591  0.44322020  0.75437072  1
  C  C161  1  0.24667425  0.77632573  0.76097633  1
  C  C162  1  0.23125840  0.22565332  0.23912648  1
  C  C163  1  0.23098304  0.55915624  0.23413903  1
  C  C164  1  0.24423424  0.89302113  0.26796714  1
  C  C165  1  0.75692333  0.23013451  0.24592822  1
  C  C166  1  0.75904438  0.56438217  0.24070546  1
  C  C167  1  0.75801932  0.89679424  0.24568698  1
  C  C168  1  0.35258854  0.29000684  0.57558153  1
  C  C169  1  0.34932264  0.62214970  0.57117848  1
  C  C170  1  0.36298298  0.95079962  0.58420750  1
  C  C171  1  0.63483444  0.28325203  0.90575673  1
  C  C172  1  0.64420747  0.61842990  0.92093158  1
  C  C173  1  0.64433197  0.95035651  0.92259801  1
  C  C174  1  0.64585231  0.04665007  0.42674200  1
  C  C175  1  0.63699925  0.38129569  0.41764344  1
  C  C176  1  0.64381832  0.71436587  0.42537645  1
  C  C177  1  0.35711779  0.04954655  0.08216078  1
  C  C178  1  0.35960896  0.39131724  0.08994084  1
  C  C179  1  0.35716784  0.72399282  0.08774994  1
  C  C180  1  0.84932269  0.12214969  0.57117828  1
  C  C181  1  0.86298302  0.45079965  0.58420770  1
  C  C182  1  0.85258845  0.79000675  0.57558168  1
  C  C183  1  0.14420735  0.11842993  0.92093123  1
  C  C184  1  0.14433180  0.45035655  0.92259808  1
  C  C185  1  0.13483439  0.78325199  0.90575679  1
  C  C186  1  0.14381822  0.21436591  0.42537651  1
  C  C187  1  0.14585237  0.54665006  0.42674240  1
  C  C188  1  0.13699940  0.88129567  0.41764357  1
  C  C189  1  0.85716793  0.22399284  0.08774973  1
  C  C190  1  0.85711767  0.54954655  0.08216032  1
  C  C191  1  0.85960895  0.89131721  0.08994089  1
  C  C192  1  0.46300359  0.27520000  0.93269178  1
  C  C193  1  0.46225655  0.60876063  0.92553607  1
  C  C194  1  0.46478475  0.94342039  0.93702922  1
  C  C195  1  0.54126017  0.27879198  0.54871408  1
  C  C196  1  0.54532048  0.61108822  0.55872100  1
  C  C197  1  0.53737705  0.94280775  0.56528136  1
  C  C198  1  0.52831329  0.04799272  0.06870963  1
  C  C199  1  0.53692025  0.38823500  0.06312690  1
  C  C200  1  0.52842868  0.72087181  0.06804921  1
  C  C201  1  0.46413706  0.05577222  0.43790014  1
  C  C202  1  0.46230178  0.39074495  0.44218878  1
  C  C203  1  0.46551645  0.72333833  0.44275961  1
  C  C204  1  0.96225675  0.10876055  0.92553636  1
  C  C205  1  0.96478471  0.44342042  0.93702918  1
  C  C206  1  0.96300368  0.77519997  0.93269185  1
  C  C207  1  0.04532063  0.11108827  0.55872133  1
  C  C208  1  0.03737676  0.44280772  0.56528118  1
  C  C209  1  0.04126039  0.77879197  0.54871444  1
  C  C210  1  0.02842841  0.22087183  0.06804900  1
  C  C211  1  0.02831293  0.54799275  0.06870896  1
  C  C212  1  0.03692038  0.88823495  0.06312707  1
  C  C213  1  0.96551649  0.22333825  0.44275968  1
  C  C214  1  0.96413739  0.55577232  0.43790061  1
  C  C215  1  0.96230172  0.89074499  0.44218852  1
  C  C216  1  0.08222794  0.28495448  0.74266815  1
  C  C217  1  0.08359448  0.61707848  0.74283464  1
  C  C218  1  0.08469966  0.95030772  0.74558431  1
  C  C219  1  0.92046019  0.28281091  0.75580462  1
  C  C220  1  0.92968155  0.61413896  0.77313454  1
  C  C221  1  0.92265115  0.94878671  0.76061687  1
  C  C222  1  0.91745430  0.04773238  0.24161744  1
  C  C223  1  0.92350274  0.38394543  0.26134502  1
  C  C224  1  0.91627677  0.71265966  0.24067291  1
  C  C225  1  0.08764434  0.04759511  0.24309428  1
  C  C226  1  0.08747459  0.37994269  0.24856612  1
  C  C227  1  0.08933189  0.71219679  0.24544037  1
  C  C228  1  0.58359445  0.11707848  0.74283467  1
  C  C229  1  0.58469953  0.45030770  0.74558406  1
  C  C230  1  0.58222806  0.78495449  0.74266811  1
  C  C231  1  0.42968178  0.11413909  0.77313446  1
  C  C232  1  0.42265113  0.44878672  0.76061686  1
  C  C233  1  0.42046035  0.78281096  0.75580456  1
  C  C234  1  0.41627681  0.21265962  0.24067267  1
  C  C235  1  0.41745434  0.54773232  0.24161749  1
  C  C236  1  0.42350285  0.88394540  0.26134496  1
  C  C237  1  0.58933188  0.21219677  0.24544050  1
  C  C238  1  0.58764445  0.54759520  0.24309407  1
  C  C239  1  0.58747445  0.87994268  0.24856597  1
