# generated using pymatgen
data_Cu2Ni4C
_symmetry_space_group_name_H-M   'P 1'
_cell_length_a   12.74655052
_cell_length_b   12.74655052
_cell_length_c   12.74655052
_cell_angle_alpha   131.33875310
_cell_angle_beta   131.33875310
_cell_angle_gamma   71.27542111
_symmetry_Int_Tables_number   1
_chemical_formula_structural   Cu2Ni4C
_chemical_formula_sum   'Cu32 Ni64 C16'
_cell_volume   1142.81262432
_cell_formula_units_Z   16
loop_
 _symmetry_equiv_pos_site_id
 _symmetry_equiv_pos_as_xyz
  1  'x, y, z'
loop_
 _atom_site_type_symbol
 _atom_site_label
 _atom_site_symmetry_multiplicity
 _atom_site_fract_x
 _atom_site_fract_y
 _atom_site_fract_z
 _atom_site_occupancy
  C  C0  1  0.16922800  0.93241200  0.98016200  1
  C  C1  1  0.31093300  0.54774900  0.98016200  1
  C  C2  1  0.56758800  0.33077200  0.01983800  1
  C  C3  1  0.08077200  0.56093300  0.26318400  1
  C  C4  1  0.29774900  0.81758800  0.73681600  1
  C  C5  1  0.68241200  0.20225100  0.26318400  1
  C  C6  1  0.93906700  0.41922800  0.73681600  1
  C  C7  1  0.95225100  0.18906700  0.01983800  1
  C  C8  1  0.58077200  0.31758800  0.51983800  1
  C  C9  1  0.43906700  0.70225100  0.51983800  1
  C  C10  1  0.18241200  0.91922800  0.48016200  1
  C  C11  1  0.66922800  0.68906700  0.23681600  1
  C  C12  1  0.45225100  0.43241200  0.76318400  1
  C  C13  1  0.06758800  0.04774900  0.23681600  1
  C  C14  1  0.81093300  0.83077200  0.76318400  1
  C  C15  1  0.79774900  0.06093300  0.48016200  1
  Ni  Ni16  1  0.00562500  0.67941700  0.73924500  1
  Ni  Ni17  1  0.23362000  0.55982800  0.73924500  1
  Ni  Ni18  1  0.82058300  0.49437500  0.26075500  1
  Ni  Ni19  1  0.24437500  0.48362000  0.17379100  1
  Ni  Ni20  1  0.30982800  0.07058300  0.82620900  1
  Ni  Ni21  1  0.42941700  0.19017200  0.17379100  1
  Ni  Ni22  1  0.01638000  0.25562500  0.82620900  1
  Ni  Ni23  1  0.94017200  0.26638000  0.26075500  1
  Ni  Ni24  1  0.74437500  0.57058300  0.76075500  1
  Ni  Ni25  1  0.51638000  0.69017200  0.76075500  1
  Ni  Ni26  1  0.92941700  0.75562500  0.23924500  1
  Ni  Ni27  1  0.50562500  0.76638000  0.32620900  1
  Ni  Ni28  1  0.44017200  0.17941700  0.67379100  1
  Ni  Ni29  1  0.32058300  0.05982800  0.32620900  1
  Ni  Ni30  1  0.73362000  0.99437500  0.67379100  1
  Ni  Ni31  1  0.80982800  0.98362000  0.23924500  1
  Ni  Ni32  1  0.95061000  0.74400500  0.64090100  1
  Ni  Ni33  1  0.19029200  0.39689700  0.64090100  1
  Ni  Ni34  1  0.75599500  0.54939000  0.35909900  1
  Ni  Ni35  1  0.29939000  0.44029200  0.29339500  1
  Ni  Ni36  1  0.14689700  0.00599500  0.70660500  1
  Ni  Ni37  1  0.49400500  0.35310300  0.29339500  1
  Ni  Ni38  1  0.05970800  0.20061000  0.70660500  1
  Ni  Ni39  1  0.10310300  0.30970800  0.35909900  1
  Ni  Ni40  1  0.79939000  0.50599500  0.85909900  1
  Ni  Ni41  1  0.55970800  0.85310300  0.85909900  1
  Ni  Ni42  1  0.99400500  0.70061000  0.14090100  1
  Ni  Ni43  1  0.65662600  0.58006100  0.53806500  1
  Ni  Ni44  1  0.45061000  0.80970800  0.20660500  1
  Ni  Ni45  1  0.25599500  0.89689700  0.20660500  1
  Ni  Ni46  1  0.69029200  0.04939000  0.79339500  1
  Ni  Ni47  1  0.64689700  0.94029200  0.14090100  1
  Ni  Ni48  1  0.84600000  0.45380600  0.50791400  1
  Ni  Ni49  1  0.16191400  0.55410800  0.50791400  1
  Ni  Ni50  1  0.04619400  0.65400000  0.49208600  1
  Ni  Ni51  1  0.40400000  0.41191400  0.10780600  1
  Ni  Ni52  1  0.30410800  0.29619400  0.89219400  1
  Ni  Ni53  1  0.20380600  0.19589200  0.10780600  1
  Ni  Ni54  1  0.08808600  0.09600000  0.89219400  1
  Ni  Ni55  1  0.94589200  0.33808600  0.49208600  1
  Ni  Ni56  1  0.90400000  0.79619400  0.99208600  1
  Ni  Ni57  1  0.58808600  0.69589200  0.99208600  1
  Ni  Ni58  1  0.70380600  0.59600000  0.00791400  1
  Ni  Ni59  1  0.34600000  0.83808600  0.39219400  1
  Ni  Ni60  1  0.44589200  0.95380600  0.60780600  1
  Ni  Ni61  1  0.54619400  0.05410800  0.39219400  1
  Ni  Ni62  1  0.66191400  0.15400000  0.60780600  1
  Ni  Ni63  1  0.80410800  0.91191400  0.00791400  1
  Ni  Ni64  1  0.70800300  0.13143900  0.03806500  1
  Ni  Ni65  1  0.88143900  0.34337400  0.92343500  1
  Ni  Ni66  1  0.41993900  0.95800300  0.07656500  1
  Ni  Ni67  1  0.54199700  0.08006100  0.92343500  1
  Ni  Ni68  1  0.15662600  0.61856100  0.07656500  1
  Ni  Ni69  1  0.83006100  0.40662600  0.03806500  1
  Ni  Ni70  1  0.36856100  0.79199700  0.96193500  1
  Ni  Ni71  1  0.09337400  0.66993900  0.96193500  1
  Ni  Ni72  1  0.04199700  0.11856100  0.46193500  1
  Ni  Ni73  1  0.86856100  0.90662600  0.57656500  1
  Ni  Ni74  1  0.33006100  0.29199700  0.42343500  1
  Ni  Ni75  1  0.20800300  0.16993900  0.57656500  1
  Ni  Ni76  1  0.59337400  0.63143900  0.42343500  1
  Ni  Ni77  1  0.91993900  0.84337400  0.46193500  1
  Ni  Ni78  1  0.38143900  0.45800300  0.53806500  1
  Ni  Ni79  1  0.60310300  0.24400500  0.79339500  1
  Cu  Cu80  1  0.52197200  0.26629500  0.28974900  1
  Cu  Cu81  1  0.26777700  0.52345400  0.28974900  1
  Cu  Cu82  1  0.23370500  0.97802800  0.71025100  1
  Cu  Cu83  1  0.72802800  0.51777700  0.24432300  1
  Cu  Cu84  1  0.27345400  0.48370500  0.75567700  1
  Cu  Cu85  1  0.01629500  0.22654600  0.24432300  1
  Cu  Cu86  1  0.98222300  0.77197200  0.75567700  1
  Cu  Cu87  1  0.97654600  0.23222300  0.71025100  1
  Cu  Cu88  1  0.22802800  0.98370500  0.21025100  1
  Cu  Cu89  1  0.48222300  0.72654600  0.21025100  1
  Cu  Cu90  1  0.51629500  0.27197200  0.78974900  1
  Cu  Cu91  1  0.02197200  0.73222300  0.25567700  1
  Cu  Cu92  1  0.47654600  0.76629500  0.74432300  1
  Cu  Cu93  1  0.73370500  0.02345400  0.25567700  1
  Cu  Cu94  1  0.76777700  0.47802800  0.74432300  1
  Cu  Cu95  1  0.77345400  0.01777700  0.78974900  1
  Cu  Cu96  1  0.13490600  0.63490600  0.50000000  1
  Cu  Cu97  1  0.38490600  0.38490600  0.00000000  1
  Cu  Cu98  1  0.11509400  0.11509400  0.00000000  1
  Cu  Cu99  1  0.86509400  0.36509400  0.50000000  1
  Cu  Cu100  1  0.61509400  0.61509400  0.00000000  1
  Cu  Cu101  1  0.36509400  0.86509400  0.50000000  1
  Cu  Cu102  1  0.63490600  0.13490600  0.50000000  1
  Cu  Cu103  1  0.88490600  0.88490600  0.00000000  1
  Cu  Cu104  1  0.62500000  0.66667100  0.54167100  1
  Cu  Cu105  1  0.41667100  0.37500000  0.54167100  1
  Cu  Cu106  1  0.83332900  0.87500000  0.45832900  1
  Cu  Cu107  1  0.12500000  0.08332900  0.45832900  1
  Cu  Cu108  1  0.12500000  0.58332900  0.95832900  1
  Cu  Cu109  1  0.33332900  0.87500000  0.95832900  1
  Cu  Cu110  1  0.91667100  0.37500000  0.04167100  1
  Cu  Cu111  1  0.62500000  0.16667100  0.04167100  1
