# generated using pymatgen
data_Cu4NiC3
_symmetry_space_group_name_H-M   'P 1'
_cell_length_a   15.29907223
_cell_length_b   13.56852267
_cell_length_c   8.55221848
_cell_angle_alpha   84.26692253
_cell_angle_beta   61.93923328
_cell_angle_gamma   33.79384418
_symmetry_Int_Tables_number   1
_chemical_formula_structural   Cu4NiC3
_chemical_formula_sum   'Cu8 Ni2 C6'
_cell_volume   701.65859997
_cell_formula_units_Z   2
loop_
 _symmetry_equiv_pos_site_id
 _symmetry_equiv_pos_as_xyz
  1  'x, y, z'
loop_
 _atom_site_type_symbol
 _atom_site_label
 _atom_site_symmetry_multiplicity
 _atom_site_fract_x
 _atom_site_fract_y
 _atom_site_fract_z
 _atom_site_occupancy
  C  C0  1  0.81572900  0.81572900  0.18427100  1
  C  C1  1  0.18427100  0.18427100  0.81572900  1
  C  C2  1  0.43427100  0.43427100  0.06572900  1
  C  C3  1  0.06572900  0.06572900  0.43427100  1
  C  C4  1  0.75000000  0.75000000  0.75000000  1
  C  C5  1  0.50000000  0.50000000  0.50000000  1
  Ni  Ni6  1  0.25000000  0.25000000  0.25000000  1
  Ni  Ni7  1  0.00000000  0.00000000  0.00000000  1
  Cu  Cu8  1  0.41029200  0.70970700  0.78540500  1
  Cu  Cu9  1  0.09459600  0.78540500  0.70970700  1
  Cu  Cu10  1  0.78540500  0.09459600  0.41029200  1
  Cu  Cu11  1  0.70970700  0.41029200  0.09459600  1
  Cu  Cu12  1  0.83970800  0.54029300  0.46459500  1
  Cu  Cu13  1  0.15540400  0.46459500  0.54029300  1
  Cu  Cu14  1  0.46459500  0.15540400  0.83970800  1
  Cu  Cu15  1  0.54029300  0.83970800  0.15540400  1
