# generated using pymatgen
data_CuNiC11
_symmetry_space_group_name_H-M   'P 1'
_cell_length_a   4.87175500
_cell_length_b   8.05274400
_cell_length_c   15.52956957
_cell_angle_alpha   66.47918828
_cell_angle_beta   90.00000000
_cell_angle_gamma   90.00000000
_symmetry_Int_Tables_number   1
_chemical_formula_structural   CuNiC11
_chemical_formula_sum   'Cu4 Ni4 C44'
_cell_volume   558.62184068
_cell_formula_units_Z   4
loop_
 _symmetry_equiv_pos_site_id
 _symmetry_equiv_pos_as_xyz
  1  'x, y, z'
loop_
 _atom_site_type_symbol
 _atom_site_label
 _atom_site_symmetry_multiplicity
 _atom_site_fract_x
 _atom_site_fract_y
 _atom_site_fract_z
 _atom_site_occupancy
  C  C0  1  0.99464500  0.55543500  0.13341600  1
  C  C1  1  0.49464500  0.44456500  0.36658400  1
  C  C2  1  0.00535500  0.44456500  0.86658400  1
  C  C3  1  0.50535500  0.55543500  0.63341600  1
  C  C4  1  0.97548300  0.09754600  0.30710000  1
  C  C5  1  0.47548300  0.90245400  0.19290000  1
  C  C6  1  0.02451700  0.90245400  0.69290000  1
  C  C7  1  0.52451700  0.09754600  0.80710000  1
  Ni  Ni8  1  0.52863400  0.30285500  0.20101200  1
  Ni  Ni9  1  0.02863400  0.69714500  0.29898800  1
  Ni  Ni10  1  0.47136600  0.69714500  0.79898800  1
  Ni  Ni11  1  0.97136600  0.30285500  0.70101200  1
  C  C12  1  0.99955200  0.78163200  0.96627800  1
  C  C13  1  0.49955200  0.21836800  0.53372200  1
  C  C14  1  0.00044800  0.21836800  0.03372200  1
  C  C15  1  0.50044800  0.78163200  0.46627800  1
  C  C16  1  0.23755400  0.63848200  0.96716000  1
  C  C17  1  0.26244600  0.63848200  0.46716000  1
  C  C18  1  0.73755400  0.36151800  0.53284000  1
  C  C19  1  0.76244600  0.36151800  0.03284000  1
  Cu  Cu20  1  0.11913600  0.06716300  0.49207400  1
  Cu  Cu21  1  0.61913600  0.93283700  0.00792600  1
  Cu  Cu22  1  0.88086400  0.93283700  0.50792600  1
  Cu  Cu23  1  0.38086400  0.06716300  0.99207400  1
  C  C24  1  0.35373200  0.69845100  0.50518400  1
  C  C25  1  0.79018600  0.69410800  0.80166300  1
  C  C26  1  0.70981400  0.69410800  0.30166300  1
  C  C27  1  0.20981400  0.30589200  0.19833700  1
  C  C28  1  0.84662000  0.33838700  0.78456400  1
  C  C29  1  0.34662000  0.66161300  0.71543600  1
  C  C30  1  0.15338000  0.66161300  0.21543600  1
  C  C31  1  0.29018600  0.30589200  0.69833700  1
  C  C32  1  0.85761200  0.11110700  0.71691800  1
  C  C33  1  0.35761200  0.88889300  0.78308200  1
  C  C34  1  0.14238800  0.88889300  0.28308200  1
  C  C35  1  0.64238800  0.11110700  0.21691800  1
  C  C36  1  0.85187200  0.44769000  0.60868000  1
  C  C37  1  0.35187200  0.55231000  0.89132000  1
  C  C38  1  0.14812800  0.55231000  0.39132000  1
  C  C39  1  0.64812800  0.44769000  0.10868000  1
  C  C40  1  0.72759500  0.92535200  0.93526200  1
  C  C41  1  0.22759500  0.07464800  0.56473800  1
  C  C42  1  0.27240500  0.07464800  0.06473800  1
  C  C43  1  0.77240500  0.92535200  0.43526200  1
  C  C44  1  0.69123600  0.84052200  0.09204800  1
  C  C45  1  0.19123600  0.15947800  0.40795200  1
  C  C46  1  0.30876400  0.15947800  0.90795200  1
  C  C47  1  0.80876400  0.84052200  0.59204800  1
  C  C48  1  0.64626800  0.30154900  0.49481600  1
  C  C49  1  0.14626800  0.69845100  0.00518400  1
  C  C50  1  0.65338000  0.33838700  0.28456400  1
  C  C51  1  0.85373200  0.30154900  0.99481600  1
