# generated using pymatgen
data_CuNiC9
_symmetry_space_group_name_H-M   'P 1'
_cell_length_a   5.90341677
_cell_length_b   5.49224080
_cell_length_c   5.11548766
_cell_angle_alpha   95.10831953
_cell_angle_beta   108.73932081
_cell_angle_gamma   75.16486552
_symmetry_Int_Tables_number   1
_chemical_formula_structural   CuNiC9
_chemical_formula_sum   'Cu1 Ni1 C9'
_cell_volume   151.82742796
_cell_formula_units_Z   1
loop_
 _symmetry_equiv_pos_site_id
 _symmetry_equiv_pos_as_xyz
  1  'x, y, z'
loop_
 _atom_site_type_symbol
 _atom_site_label
 _atom_site_symmetry_multiplicity
 _atom_site_fract_x
 _atom_site_fract_y
 _atom_site_fract_z
 _atom_site_occupancy
  Ni  Ni0  1  0.50834500  0.17192120  0.88274141  1
  Cu  Cu1  1  0.09383924  0.06568366  0.06604052  1
  C  C2  1  0.29259234  0.68277427  0.57063228  1
  C  C3  1  0.64758490  0.28823780  0.42117285  1
  C  C4  1  0.56184812  0.57811413  0.50874203  1
  C  C5  1  0.25439784  0.46558306  0.70189560  1
  C  C6  1  0.10650579  0.76877910  0.29309704  1
  C  C7  1  0.33187238  0.90166997  0.77975677  1
  C  C8  1  0.77203827  0.13884260  0.69262815  1
  C  C9  1  0.79804005  0.27802011  0.22569797  1
  C  C10  1  0.41761708  0.19505210  0.24648438  1
