# generated using pymatgen
data_CuNiC6
_symmetry_space_group_name_H-M   'P 1'
_cell_length_a   10.98407706
_cell_length_b   10.98407706
_cell_length_c   8.07858932
_cell_angle_alpha   70.02286629
_cell_angle_beta   70.02286629
_cell_angle_gamma   79.12585992
_symmetry_Int_Tables_number   1
_chemical_formula_structural   CuNiC6
_chemical_formula_sum   'Cu2 Ni2 C12'
_cell_volume   858.05576091
_cell_formula_units_Z   2
loop_
 _symmetry_equiv_pos_site_id
 _symmetry_equiv_pos_as_xyz
  1  'x, y, z'
loop_
 _atom_site_type_symbol
 _atom_site_label
 _atom_site_symmetry_multiplicity
 _atom_site_fract_x
 _atom_site_fract_y
 _atom_site_fract_z
 _atom_site_occupancy
  Ni  Ni0  1  0.19646100  0.19646100  0.65137100  1
  Ni  Ni1  1  0.80353900  0.80353900  0.34862900  1
  Cu  Cu2  1  0.80959200  0.19040800  0.00000000  1
  Cu  Cu3  1  0.19040800  0.80959200  0.00000000  1
  C  C4  1  0.21464700  0.57706400  0.92541000  1
  C  C5  1  0.42293600  0.78535300  0.07459000  1
  C  C6  1  0.78535300  0.42293600  0.07459000  1
  C  C7  1  0.57706400  0.21464700  0.92541000  1
  C  C8  1  0.02468700  0.72236800  0.42193400  1
  C  C9  1  0.27763200  0.97531300  0.57806600  1
  C  C10  1  0.97531300  0.27763200  0.57806600  1
  C  C11  1  0.72236800  0.02468700  0.42193400  1
  C  C12  1  0.85801200  0.85801200  0.99526300  1
  C  C13  1  0.14198800  0.14198800  0.00473700  1
  C  C14  1  0.64002100  0.64002100  0.53314300  1
  C  C15  1  0.35997900  0.35997900  0.46685700  1
