# generated using pymatgen
data_Cu2NiC16
_symmetry_space_group_name_H-M   'P 1'
_cell_length_a   8.82831239
_cell_length_b   8.83651050
_cell_length_c   22.47673536
_cell_angle_alpha   89.82946487
_cell_angle_beta   90.00000000
_cell_angle_gamma   119.96931492
_symmetry_Int_Tables_number   1
_chemical_formula_structural   Cu2NiC16
_chemical_formula_sum   'Cu12 Ni6 C96'
_cell_volume   1518.98677532
_cell_formula_units_Z   6
loop_
 _symmetry_equiv_pos_site_id
 _symmetry_equiv_pos_as_xyz
  1  'x, y, z'
loop_
 _atom_site_type_symbol
 _atom_site_label
 _atom_site_symmetry_multiplicity
 _atom_site_fract_x
 _atom_site_fract_y
 _atom_site_fract_z
 _atom_site_occupancy
  C  C0  1  0.30347760  0.33499792  0.58089380  1
  C  C1  1  0.67060677  0.97242856  0.58950331  1
  C  C2  1  0.30182279  0.97242856  0.08950331  1
  C  C3  1  0.03152132  0.33499792  0.08089380  1
  C  C4  1  0.96498924  0.66324853  0.91121245  1
  C  C5  1  0.69825829  0.66324853  0.41121245  1
  C  C6  1  0.02088447  0.00940695  0.49506420  1
  C  C7  1  0.98852248  0.00940695  0.99506420  1
  C  C8  1  0.67308261  0.32222731  0.82750122  1
  C  C9  1  0.64914570  0.32222731  0.32750122  1
  C  C10  1  0.35295554  0.67521346  0.16581066  1
  C  C11  1  0.32225692  0.67521346  0.66581066  1
  C  C12  1  0.01460449  0.00735902  0.34878222  1
  C  C13  1  0.99275453  0.00735902  0.84878222  1
  C  C14  1  0.99209280  0.98505684  0.65627098  1
  C  C15  1  0.99296404  0.98505684  0.15627098  1
  C  C16  1  0.67741035  0.33582744  0.68885848  1
  C  C17  1  0.65841809  0.33582744  0.18885848  1
  C  C18  1  0.66716171  0.32872254  0.97979559  1
  C  C19  1  0.66156182  0.32872254  0.47979559  1
  C  C20  1  0.33888423  0.66052256  0.01439990  1
  C  C21  1  0.32163733  0.66052256  0.51439990  1
  C  C22  1  0.33760956  0.66454689  0.31077147  1
  C  C23  1  0.32693632  0.66454689  0.81077147  1
  Ni  Ni24  1  0.29694516  0.00479614  0.24911813  1
  Ni  Ni25  1  0.71720275  0.70684211  0.25322586  1
  Ni  Ni26  1  0.98963936  0.70684211  0.75322586  1
  Ni  Ni27  1  0.70785098  0.00479614  0.74911813  1
  Ni  Ni28  1  0.03943870  0.36744850  0.92005352  1
  Ni  Ni29  1  0.32800880  0.36744850  0.42005352  1
  Cu  Cu30  1  0.99557317  0.29016841  0.24921039  1
  Cu  Cu31  1  0.29459524  0.29016841  0.74921039  1
  Cu  Cu32  1  0.96034028  0.33470838  0.58289673  1
  Cu  Cu33  1  0.37283901  0.04046628  0.58312534  1
  Cu  Cu34  1  0.66941021  0.62859288  0.58197093  1
  Cu  Cu35  1  0.95918368  0.62859288  0.08197093  1
  Cu  Cu36  1  0.66762826  0.04046628  0.08312534  1
  Cu  Cu37  1  0.37436910  0.33470838  0.08289673  1
  Cu  Cu38  1  0.62690954  0.66695977  0.91763217  1
  Cu  Cu39  1  0.33401403  0.96105546  0.91820791  1
  Cu  Cu40  1  0.62704043  0.96105546  0.41820791  1
  Cu  Cu41  1  0.04004923  0.66695977  0.41763217  1
  C  C42  1  0.20751598  0.02569394  0.30257521  1
  C  C43  1  0.80915774  0.78849194  0.31147547  1
  C  C44  1  0.97544934  0.18685777  0.30186848  1
  C  C45  1  0.21140843  0.18685777  0.80186848  1
  C  C46  1  0.97933420  0.78849194  0.81147547  1
  C  C47  1  0.81817796  0.02569394  0.80257521  1
  C  C48  1  0.76851387  0.96405659  0.69005168  1
  C  C49  1  0.19157921  0.22359365  0.69396492  1
  C  C50  1  0.03771289  0.81939853  0.69778865  1
  C  C51  1  0.78168565  0.81939853  0.19778865  1
  C  C52  1  0.03201445  0.22359365  0.19396492  1
  C  C53  1  0.19554272  0.96405659  0.19005168  1
  C  C54  1  0.87720204  0.35497610  0.63644583  1
  C  C55  1  0.48275338  0.12140181  0.63611811  1
  C  C56  1  0.64072056  0.51466559  0.63382141  1
  C  C57  1  0.87394603  0.51466559  0.13382141  1
  C  C58  1  0.63864942  0.12140181  0.13611811  1
  C  C59  1  0.47777505  0.35497610  0.13644583  1
  C  C60  1  0.45547205  0.30726741  0.02969354  1
  C  C61  1  0.86034657  0.54963888  0.02664467  1
  C  C62  1  0.69471569  0.14891724  0.02925293  1
  C  C63  1  0.45420255  0.14891724  0.52925293  1
  C  C64  1  0.68929331  0.54963888  0.52664467  1
  C  C65  1  0.85179636  0.30726741  0.52969354  1
  C  C66  1  0.54645340  0.69246721  0.97059764  1
  C  C67  1  0.14142208  0.45253833  0.97715377  1
  C  C68  1  0.30899998  0.85465094  0.97240066  1
  C  C69  1  0.54564995  0.85465094  0.47240066  1
  C  C70  1  0.31111525  0.45253833  0.47715377  1
  C  C71  1  0.14601281  0.69246721  0.47059764  1
  C  C72  1  0.13088765  0.64895836  0.36393715  1
  C  C73  1  0.51250498  0.86955610  0.36477555  1
  C  C74  1  0.34917268  0.49741354  0.36570698  1
  C  C75  1  0.14823987  0.49741354  0.86570698  1
  C  C76  1  0.35705012  0.86955610  0.86477555  1
  C  C77  1  0.51806971  0.64895836  0.86393715  1
  C  C78  1  0.01409629  0.81963984  0.41200692  1
  C  C79  1  0.79749574  0.97035258  0.41053554  1
  C  C80  1  0.16650045  0.19058899  0.41117143  1
  C  C81  1  0.02408854  0.19058899  0.91117143  1
  C  C82  1  0.17285684  0.97035258  0.91053554  1
  C  C83  1  0.80554354  0.81963984  0.91200692  1
  C  C84  1  0.98271958  0.17604939  0.58778384  1
  C  C85  1  0.19779872  0.02624953  0.58894028  1
  C  C86  1  0.82396426  0.80743802  0.58721350  1
  C  C87  1  0.98347376  0.80743802  0.08721350  1
  C  C88  1  0.82845081  0.02624953  0.08894028  1
  C  C89  1  0.19332981  0.17604939  0.08778384  1
  C  C90  1  0.66873538  0.15404664  0.74426656  1
  C  C91  1  0.47262561  0.31934537  0.74303507  1
  C  C92  1  0.83674238  0.52156993  0.74660828  1
  C  C93  1  0.68482855  0.52156993  0.24660828  1
  C  C94  1  0.84672076  0.31934537  0.24303507  1
  C  C95  1  0.48531226  0.15404664  0.24426656  1
  C  C96  1  0.64049238  0.50620198  0.92105241  1
  C  C97  1  0.86445100  0.36857953  0.91852198  1
  C  C98  1  0.49125839  0.13384516  0.92101056  1
  C  C99  1  0.64258777  0.13384516  0.42101056  1
  C  C100  1  0.50412953  0.36857953  0.41852198  1
  C  C101  1  0.86571060  0.50620198  0.42105241  1
  C  C102  1  0.35017290  0.49050489  0.07821886  1
  C  C103  1  0.14082757  0.64951023  0.07843950  1
  C  C104  1  0.50682359  0.86452506  0.07660882  1
  C  C105  1  0.35770048  0.86452506  0.57660882  1
  C  C106  1  0.50868166  0.64951023  0.57843950  1
  C  C107  1  0.14033099  0.49050489  0.57821886  1
  C  C108  1  0.31114215  0.82960750  0.26156382  1
  C  C109  1  0.52062560  0.68559900  0.26089184  1
  C  C110  1  0.16096566  0.47323950  0.25688587  1
  C  C111  1  0.31227284  0.47323950  0.75688587  1
  C  C112  1  0.16497240  0.68559900  0.76089184  1
  C  C113  1  0.51846435  0.82960750  0.76156382  1
