# generated using pymatgen
data_Cu6NiC
_symmetry_space_group_name_H-M   'P 1'
_cell_length_a   13.27959924
_cell_length_b   13.27959924
_cell_length_c   13.27959924
_cell_angle_alpha   105.14400258
_cell_angle_beta   105.14400258
_cell_angle_gamma   118.52278405
_symmetry_Int_Tables_number   1
_chemical_formula_structural   Cu6NiC
_chemical_formula_sum   'Cu48 Ni8 C8'
_cell_volume   1768.51826333
_cell_formula_units_Z   8
loop_
 _symmetry_equiv_pos_site_id
 _symmetry_equiv_pos_as_xyz
  1  'x, y, z'
loop_
 _atom_site_type_symbol
 _atom_site_label
 _atom_site_symmetry_multiplicity
 _atom_site_fract_x
 _atom_site_fract_y
 _atom_site_fract_z
 _atom_site_occupancy
  C  C0  1  0.07566900  0.57566900  0.65133800  1
  C  C1  1  0.82566900  0.67433100  0.00000000  1
  C  C2  1  0.67433100  0.82566900  0.00000000  1
  C  C3  1  0.92433100  0.42433100  0.34866200  1
  C  C4  1  0.17433100  0.17433100  0.84866200  1
  C  C5  1  0.42433100  0.07566900  0.50000000  1
  C  C6  1  0.57566900  0.92433100  0.50000000  1
  C  C7  1  0.32566900  0.32566900  0.15133800  1
  Ni  Ni8  1  0.87500000  0.55557500  0.18057500  1
  Ni  Ni9  1  0.87500000  0.05557500  0.68057500  1
  Ni  Ni10  1  0.30557500  0.12500000  0.68057500  1
  Ni  Ni11  1  0.44442500  0.62500000  0.31942500  1
  Ni  Ni12  1  0.37500000  0.19442500  0.31942500  1
  Ni  Ni13  1  0.37500000  0.69442500  0.81942500  1
  Ni  Ni14  1  0.94442500  0.62500000  0.81942500  1
  Ni  Ni15  1  0.80557500  0.12500000  0.18057500  1
  Cu  Cu16  1  0.17384900  0.08442700  0.99739000  1
  Cu  Cu17  1  0.22031500  0.50513900  0.72113200  1
  Cu  Cu18  1  0.75513900  0.53400700  0.78482400  1
  Cu  Cu19  1  0.74918300  0.97031500  0.21517600  1
  Cu  Cu20  1  0.78400700  0.49918300  0.27886800  1
  Cu  Cu21  1  0.99486100  0.27968500  0.27886800  1
  Cu  Cu22  1  0.96599300  0.74486100  0.21517600  1
  Cu  Cu23  1  0.52968500  0.75081700  0.78482400  1
  Cu  Cu24  1  0.16296200  0.57354100  0.49739000  1
  Cu  Cu25  1  0.82354100  0.82615100  0.91057800  1
  Cu  Cu26  1  0.91557300  0.91296200  0.08942200  1
  Cu  Cu27  1  0.07615100  0.66557300  0.50261000  1
  Cu  Cu28  1  0.92645900  0.33703800  0.50261000  1
  Cu  Cu29  1  0.67384900  0.67645900  0.08942200  1
  Cu  Cu30  1  0.58703800  0.58442700  0.91057800  1
  Cu  Cu31  1  0.83442700  0.42384900  0.49739000  1
  Cu  Cu32  1  0.08703800  0.17645900  0.00261000  1
  Cu  Cu33  1  0.42645900  0.92384900  0.58942200  1
  Cu  Cu34  1  0.33442700  0.83703800  0.41057800  1
  Cu  Cu35  1  0.00081700  0.71599300  0.72113200  1
  Cu  Cu36  1  0.32354100  0.41296200  0.99739000  1
  Cu  Cu37  1  0.57615100  0.07354100  0.41057800  1
  Cu  Cu38  1  0.66296200  0.16557300  0.58942200  1
  Cu  Cu39  1  0.41557300  0.32615100  0.00261000  1
  Cu  Cu40  1  0.50379600  0.71319300  0.49711400  1
  Cu  Cu41  1  0.96319300  0.96607800  0.70939600  1
  Cu  Cu42  1  0.25668200  0.25379600  0.29060400  1
  Cu  Cu43  1  0.21607800  0.00668200  0.50288600  1
  Cu  Cu44  1  0.78680700  0.99620400  0.50288600  1
  Cu  Cu45  1  0.53392200  0.53680700  0.29060400  1
  Cu  Cu46  1  0.24620400  0.24331800  0.70939600  1
  Cu  Cu47  1  0.49331800  0.28392200  0.49711400  1
  Cu  Cu48  1  0.74620400  0.03680700  0.00288600  1
  Cu  Cu49  1  0.28680700  0.78392200  0.79060400  1
  Cu  Cu50  1  0.99331800  0.49620400  0.20939600  1
  Cu  Cu51  1  0.03392200  0.74331800  0.99711400  1
  Cu  Cu52  1  0.46319300  0.75379600  0.99711400  1
  Cu  Cu53  1  0.71607800  0.21319300  0.20939600  1
  Cu  Cu54  1  0.00379600  0.50668200  0.79060400  1
  Cu  Cu55  1  0.75668200  0.46607800  0.00288600  1
  Cu  Cu56  1  0.24918300  0.03400700  0.77886800  1
  Cu  Cu57  1  0.49486100  0.21599300  0.71517600  1
  Cu  Cu58  1  0.50081700  0.77968500  0.28482400  1
  Cu  Cu59  1  0.46599300  0.25081700  0.22113200  1
  Cu  Cu60  1  0.25513900  0.47031500  0.22113200  1
  Cu  Cu61  1  0.28400700  0.00513900  0.28482400  1
  Cu  Cu62  1  0.72031500  0.99918300  0.71517600  1
  Cu  Cu63  1  0.02968500  0.24486100  0.77886800  1
