# generated using pymatgen
data_CuNiC11
_symmetry_space_group_name_H-M   'P 1'
_cell_length_a   6.05461684
_cell_length_b   6.05461704
_cell_length_c   10.30725165
_cell_angle_alpha   90.00000000
_cell_angle_beta   90.00000000
_cell_angle_gamma   119.99999888
_symmetry_Int_Tables_number   1
_chemical_formula_structural   CuNiC11
_chemical_formula_sum   'Cu1 Ni1 C11'
_cell_volume   327.22528878
_cell_formula_units_Z   1
loop_
 _symmetry_equiv_pos_site_id
 _symmetry_equiv_pos_as_xyz
  1  'x, y, z'
loop_
 _atom_site_type_symbol
 _atom_site_label
 _atom_site_symmetry_multiplicity
 _atom_site_fract_x
 _atom_site_fract_y
 _atom_site_fract_z
 _atom_site_occupancy
  C  C0  1  0.00000000  0.00000000  0.52725118  1
  Ni  Ni1  1  0.00000000  0.00000000  0.18053923  1
  Cu  Cu2  1  0.00000000  0.00000000  0.90248844  1
  C  C3  1  0.33333400  0.66666700  0.31386221  1
  C  C4  1  0.66666600  0.33333400  0.71699603  1
  C  C5  1  0.83249115  0.16750885  0.77235448  1
  C  C6  1  0.83249115  0.66498431  0.77235448  1
  C  C7  1  0.33501669  0.16750885  0.77235448  1
  C  C8  1  0.66244719  0.83122310  0.25646757  1
  C  C9  1  0.33333400  0.66666700  0.48611256  1
  C  C10  1  0.66666600  0.33333400  0.54461820  1
  C  C11  1  0.16877590  0.33755281  0.25646757  1
  C  C12  1  0.16877590  0.83122310  0.25646757  1
