# generated using pymatgen
data_Cu3Ni3C29
_symmetry_space_group_name_H-M   'P 1'
_cell_length_a   8.83428715
_cell_length_b   8.82667781
_cell_length_c   23.01194629
_cell_angle_alpha   89.31705217
_cell_angle_beta   91.02083123
_cell_angle_gamma   119.78167491
_symmetry_Int_Tables_number   1
_chemical_formula_structural   Cu3Ni3C29
_chemical_formula_sum   'Cu9 Ni9 C87'
_cell_volume   1557.15685067
_cell_formula_units_Z   3
loop_
 _symmetry_equiv_pos_site_id
 _symmetry_equiv_pos_as_xyz
  1  'x, y, z'
loop_
 _atom_site_type_symbol
 _atom_site_label
 _atom_site_symmetry_multiplicity
 _atom_site_fract_x
 _atom_site_fract_y
 _atom_site_fract_z
 _atom_site_occupancy
  C  C0  1  0.01413164  0.99426899  0.99469736  1
  C  C1  1  0.64953707  0.31229003  0.82918425  1
  C  C2  1  0.68488519  0.34008667  0.33485689  1
  C  C3  1  0.00088134  0.00316531  0.64631719  1
  C  C4  1  0.01230438  0.01158672  0.14290233  1
  C  C5  1  0.32938416  0.67645340  0.52653611  1
  Ni  Ni6  1  0.99384414  0.28480388  0.25097182  1
  Ni  Ni7  1  0.29046464  0.29670763  0.75172909  1
  Ni  Ni8  1  0.71953467  0.00911572  0.75028126  1
  Ni  Ni9  1  0.37821135  0.05543803  0.58199836  1
  Ni  Ni10  1  0.67115669  0.62466533  0.58434252  1
  Ni  Ni11  1  0.95398836  0.62135527  0.08211715  1
  Ni  Ni12  1  0.38657094  0.34381059  0.08323681  1
  Ni  Ni13  1  0.33285986  0.95626637  0.91548152  1
  Ni  Ni14  1  0.03586552  0.66133738  0.41618338  1
  Cu  Cu15  1  0.99537679  0.99854553  0.35618064  1
  Cu  Cu16  1  0.01350054  0.00850977  0.84969656  1
  Cu  Cu17  1  0.64165400  0.31916665  0.68851977  1
  Cu  Cu18  1  0.67905931  0.34451919  0.18370485  1
  Cu  Cu19  1  0.65355276  0.33120915  0.98045132  1
  Cu  Cu20  1  0.66991991  0.34824485  0.48483892  1
  Cu  Cu21  1  0.31814672  0.66399245  0.02133944  1
  Cu  Cu22  1  0.31278079  0.65235779  0.31194261  1
  Cu  Cu23  1  0.34945927  0.68436575  0.80630784  1
  C  C24  1  0.29281145  0.00323568  0.25018755  1
  C  C25  1  0.70650674  0.71099437  0.25120198  1
  C  C26  1  0.99598920  0.70784179  0.74942883  1
  C  C27  1  0.95783261  0.33321854  0.58357483  1
  C  C28  1  0.66674217  0.04017412  0.08405842  1
  C  C29  1  0.62586003  0.67018095  0.91723052  1
  C  C30  1  0.03862438  0.37395242  0.91650614  1
  C  C31  1  0.61683798  0.95252694  0.41601320  1
  C  C32  1  0.33476405  0.37761958  0.41619469  1
  C  C33  1  0.21484252  0.03107160  0.30239150  1
  C  C34  1  0.81746148  0.78362780  0.30442470  1
  C  C35  1  0.96201456  0.16604730  0.30962886  1
  C  C36  1  0.22190359  0.17418839  0.80955335  1
  C  C37  1  0.96233348  0.77848750  0.80308801  1
  C  C38  1  0.82710776  0.03127023  0.81128121  1
  C  C39  1  0.81748197  0.98319546  0.69441872  1
  C  C40  1  0.17111576  0.19311952  0.69446465  1
  C  C41  1  0.02222308  0.82044242  0.69784969  1
  C  C42  1  0.79079547  0.81525745  0.19916475  1
  C  C43  1  0.01321785  0.17852972  0.19557171  1
  C  C44  1  0.17943108  0.97402358  0.19772745  1
  C  C45  1  0.88761897  0.37349665  0.63399358  1
  C  C46  1  0.50689296  0.11875141  0.63729839  1
  C  C47  1  0.63298277  0.50148046  0.64019947  1
  C  C48  1  0.88244638  0.50889466  0.14139403  1
  C  C49  1  0.63632978  0.11516916  0.13656340  1
  C  C50  1  0.48858122  0.36030641  0.14431253  1
  C  C51  1  0.44829169  0.28034873  0.02741719  1
  C  C52  1  0.83142989  0.54038183  0.02430251  1
  C  C53  1  0.70956021  0.15276254  0.03197576  1
  C  C54  1  0.45835371  0.16050740  0.52120886  1
  C  C55  1  0.71776262  0.55951184  0.52500116  1
  C  C56  1  0.85164557  0.29725271  0.52946180  1
  C  C57  1  0.54712810  0.69157999  0.97037006  1
  C  C58  1  0.14674597  0.44698479  0.97017124  1
  C  C59  1  0.30804325  0.84623933  0.97529417  1
  C  C60  1  0.53185767  0.84195729  0.46767432  1
  C  C61  1  0.31428641  0.46381359  0.46720350  1
  C  C62  1  0.16345722  0.68340965  0.47169654  1
  C  C63  1  0.11885871  0.63016633  0.35758811  1
  C  C64  1  0.51240104  0.87429882  0.36138030  1
  C  C65  1  0.37120454  0.48661152  0.36211869  1
  C  C66  1  0.11818364  0.47937728  0.86451730  1
  C  C67  1  0.35845492  0.86441743  0.85883058  1
  C  C68  1  0.51633799  0.63822258  0.86472302  1
  C  C69  1  0.02446971  0.84010640  0.40834495  1
  C  C70  1  0.78959601  0.96509782  0.41205550  1
  C  C71  1  0.17484285  0.20693090  0.40989175  1
  C  C72  1  0.01615498  0.19532971  0.91368321  1
  C  C73  1  0.15301442  0.97139703  0.91251028  1
  C  C74  1  0.80086215  0.82751739  0.91228188  1
  C  C75  1  0.98051738  0.18036960  0.59112803  1
  C  C76  1  0.18608795  0.02446411  0.59473667  1
  C  C77  1  0.83285035  0.81895770  0.59690407  1
  C  C78  1  0.96805010  0.81460025  0.09588787  1
  C  C79  1  0.82643887  0.02186526  0.09343707  1
  C  C80  1  0.18611009  0.16807511  0.09449180  1
  C  C81  1  0.71506642  0.19165245  0.74438189  1
  C  C82  1  0.48620939  0.32271679  0.74850676  1
  C  C83  1  0.84318459  0.53405291  0.74169586  1
  C  C84  1  0.68184299  0.53141600  0.24723421  1
  C  C85  1  0.81562555  0.30035683  0.24559014  1
  C  C86  1  0.46568557  0.15928142  0.24308954  1
  C  C87  1  0.64728583  0.51205538  0.92052345  1
  C  C88  1  0.86408888  0.36019084  0.92301901  1
  C  C89  1  0.51227629  0.15118805  0.92032643  1
  C  C90  1  0.63619582  0.12782599  0.42134196  1
  C  C91  1  0.48861728  0.35249965  0.42012133  1
  C  C92  1  0.84372966  0.48371712  0.42199431  1
  C  C93  1  0.36412025  0.51060902  0.07257990  1
  C  C94  1  0.14827278  0.65443916  0.07684885  1
  C  C95  1  0.51937088  0.86603200  0.07626262  1
  C  C96  1  0.35380877  0.85697370  0.57041925  1
  C  C97  1  0.49590297  0.64064933  0.56724879  1
  C  C98  1  0.13635017  0.48727296  0.57290581  1
  C  C99  1  0.31144781  0.84603205  0.25537668  1
  C  C100  1  0.53623723  0.70336903  0.25855886  1
  C  C101  1  0.17381133  0.47159626  0.25436634  1
  C  C102  1  0.28886997  0.47791363  0.75942960  1
  C  C103  1  0.15496116  0.69617890  0.75480725  1
  C  C104  1  0.52955504  0.83672504  0.75220888  1
