# generated using pymatgen
data_Cu4Ni4C3
_symmetry_space_group_name_H-M   'P 1'
_cell_length_a   3.86229198
_cell_length_b   7.90235512
_cell_length_c   8.79228703
_cell_angle_alpha   103.85347193
_cell_angle_beta   102.71281492
_cell_angle_gamma   90.05812656
_symmetry_Int_Tables_number   1
_chemical_formula_structural   Cu4Ni4C3
_chemical_formula_sum   'Cu4 Ni4 C3'
_cell_volume   253.74904079
_cell_formula_units_Z   1
loop_
 _symmetry_equiv_pos_site_id
 _symmetry_equiv_pos_as_xyz
  1  'x, y, z'
loop_
 _atom_site_type_symbol
 _atom_site_label
 _atom_site_symmetry_multiplicity
 _atom_site_fract_x
 _atom_site_fract_y
 _atom_site_fract_z
 _atom_site_occupancy
  C  C0  1  0.41611800  0.68859000  0.83399900  1
  C  C1  1  0.00065800  0.46838400  0.00173300  1
  C  C2  1  0.00650000  0.98453200  0.01586800  1
  Ni  Ni3  1  0.83457100  0.87489800  0.68581300  1
  Ni  Ni4  1  0.84522900  0.40576800  0.68139300  1
  Ni  Ni5  1  0.15206500  0.03890200  0.31036600  1
  Ni  Ni6  1  0.15425000  0.54766900  0.29982900  1
  Cu  Cu7  1  0.49837600  0.95297200  0.99967800  1
  Cu  Cu8  1  0.49194400  0.47639300  0.98343300  1
  Cu  Cu9  1  0.98521400  0.72034700  0.97163300  1
  Cu  Cu10  1  0.00290600  0.21081900  0.00650700  1
