# generated using pymatgen
data_Cu4NiC14
_symmetry_space_group_name_H-M   'P 1'
_cell_length_a   5.91201425
_cell_length_b   5.75664500
_cell_length_c   8.97617828
_cell_angle_alpha   110.16666426
_cell_angle_beta   110.66148961
_cell_angle_gamma   85.75066562
_symmetry_Int_Tables_number   1
_chemical_formula_structural   Cu4NiC14
_chemical_formula_sum   'Cu4 Ni1 C14'
_cell_volume   267.92363186
_cell_formula_units_Z   1
loop_
 _symmetry_equiv_pos_site_id
 _symmetry_equiv_pos_as_xyz
  1  'x, y, z'
loop_
 _atom_site_type_symbol
 _atom_site_label
 _atom_site_symmetry_multiplicity
 _atom_site_fract_x
 _atom_site_fract_y
 _atom_site_fract_z
 _atom_site_occupancy
  C  C0  1  0.57014400  0.05957100  0.28639500  1
  C  C1  1  0.39666200  0.89003400  0.75378900  1
  C  C2  1  0.19725800  0.72663800  0.28609500  1
  C  C3  1  0.83694300  0.36387400  0.75387300  1
  Ni  Ni4  1  0.85019200  0.36003400  0.21965100  1
  Cu  Cu5  1  0.98658900  0.97706400  0.98280300  1
  Cu  Cu6  1  0.47629600  0.50552400  0.98263000  1
  Cu  Cu7  1  0.17228100  0.30791900  0.50414900  1
  Cu  Cu8  1  0.81211400  0.69637900  0.50427200  1
  C  C9  1  0.20671400  0.21681200  0.93300700  1
  C  C10  1  0.24533500  0.75508700  0.00931100  1
  C  C11  1  0.72659700  0.23651200  0.97287100  1
  C  C12  1  0.75215800  0.76168500  0.02320400  1
  C  C13  1  0.14135400  0.15490700  0.24891600  1
  C  C14  1  0.83445300  0.79533800  0.73920900  1
  C  C15  1  0.58832900  0.59434700  0.24880700  1
  C  C16  1  0.38492700  0.44313600  0.73901000  1
  C  C17  1  0.99304000  0.00206500  0.50460900  1
  C  C18  1  0.50185400  0.01021800  0.52168500  1
