# generated using pymatgen
data_Cu2NiC10
_symmetry_space_group_name_H-M   'P 1'
_cell_length_a   5.44964059
_cell_length_b   6.25871320
_cell_length_c   6.70648219
_cell_angle_alpha   117.81490127
_cell_angle_beta   111.37661427
_cell_angle_gamma   90.00000068
_symmetry_Int_Tables_number   1
_chemical_formula_structural   Cu2NiC10
_chemical_formula_sum   'Cu2 Ni1 C10'
_cell_volume   184.33487418
_cell_formula_units_Z   1
loop_
 _symmetry_equiv_pos_site_id
 _symmetry_equiv_pos_as_xyz
  1  'x, y, z'
loop_
 _atom_site_type_symbol
 _atom_site_label
 _atom_site_symmetry_multiplicity
 _atom_site_fract_x
 _atom_site_fract_y
 _atom_site_fract_z
 _atom_site_occupancy
  Ni  Ni0  1  0.75000000  0.59659140  1.00000000  1
  Cu  Cu1  1  0.05240421  0.15242729  0.59201781  1
  Cu  Cu2  1  0.44759579  0.56040948  0.40798219  1
  C  C3  1  0.25000000  0.84197433  0.00000000  1
  C  C4  1  0.75000000  0.12772495  1.00000000  1
  C  C5  1  0.96991461  0.44677257  0.22435478  1
  C  C6  1  0.53008539  0.22241779  0.77564522  1
  C  C7  1  0.98086408  0.54159214  0.79602923  1
  C  C8  1  0.51913592  0.74556291  0.20397077  1
  C  C9  1  0.00549543  0.95997456  0.19297260  1
  C  C10  1  0.49450457  0.76700096  0.80702740  1
  C  C11  1  0.98559368  0.99252341  0.81207719  1
  C  C12  1  0.51440632  0.18044621  0.18792281  1
