# generated using pymatgen
data_Cu2NiC14
_symmetry_space_group_name_H-M   'P 1'
_cell_length_a   4.11465186
_cell_length_b   4.11465186
_cell_length_c   16.46022803
_cell_angle_alpha   90.00000000
_cell_angle_beta   90.00000000
_cell_angle_gamma   90.00000000
_symmetry_Int_Tables_number   1
_chemical_formula_structural   Cu2NiC14
_chemical_formula_sum   'Cu2 Ni1 C14'
_cell_volume   278.67758506
_cell_formula_units_Z   1
loop_
 _symmetry_equiv_pos_site_id
 _symmetry_equiv_pos_as_xyz
  1  'x, y, z'
loop_
 _atom_site_type_symbol
 _atom_site_label
 _atom_site_symmetry_multiplicity
 _atom_site_fract_x
 _atom_site_fract_y
 _atom_site_fract_z
 _atom_site_occupancy
  Ni  Ni0  1  0.50000000  0.50000000  0.43943461  1
  Cu  Cu1  1  0.50000000  0.50000000  0.88367418  1
  Cu  Cu2  1  0.50000000  0.50000000  0.14009415  1
  C  C3  1  0.50000000  0.50000000  0.67643137  1
  C  C4  1  0.00000000  0.00000000  0.27230362  1
  C  C5  1  0.00000000  0.00000000  0.73823692  1
  C  C6  1  0.00000000  0.00000000  0.00457291  1
  C  C7  1  0.00000000  0.00000000  0.38274338  1
  C  C8  1  0.50000000  0.00000000  0.25420839  1
  C  C9  1  0.50000000  0.00000000  0.74206630  1
  C  C10  1  0.00000000  0.50000000  0.74206630  1
  C  C11  1  0.00000000  0.00000000  0.12443546  1
  C  C12  1  0.00000000  0.50000000  0.25420839  1
  C  C13  1  0.00000000  0.00000000  0.62455775  1
  C  C14  1  0.00000000  0.00000000  0.87422478  1
  C  C15  1  0.00000000  0.50000000  0.00045424  1
  C  C16  1  0.50000000  0.00000000  0.00045424  1
