# generated using pymatgen
data_Cu11Ni4C67
_symmetry_space_group_name_H-M   'P 1'
_cell_length_a   18.44685212
_cell_length_b   9.21116186
_cell_length_c   22.56518782
_cell_angle_alpha   89.92486002
_cell_angle_beta   90.06219747
_cell_angle_gamma   119.99889141
_symmetry_Int_Tables_number   1
_chemical_formula_structural   Cu11Ni4C67
_chemical_formula_sum   'Cu33 Ni12 C201'
_cell_volume   3320.55508381
_cell_formula_units_Z   3
loop_
 _symmetry_equiv_pos_site_id
 _symmetry_equiv_pos_as_xyz
  1  'x, y, z'
loop_
 _atom_site_type_symbol
 _atom_site_label
 _atom_site_symmetry_multiplicity
 _atom_site_fract_x
 _atom_site_fract_y
 _atom_site_fract_z
 _atom_site_occupancy
  C  C0  1  0.32349154  0.99973411  0.25002625  1
  C  C1  1  0.82419263  0.00041376  0.24995574  1
  C  C2  1  0.32113702  0.63404990  0.74908430  1
  C  C3  1  0.82323552  0.64539757  0.74872237  1
  C  C4  1  0.49350341  0.36039442  0.74766939  1
  C  C5  1  0.68120813  0.00473171  0.75101618  1
  C  C6  1  0.14964433  0.32449712  0.58274830  1
  C  C7  1  0.65282213  0.32938566  0.58155706  1
  C  C8  1  0.01496162  0.70819434  0.58501788  1
  C  C9  1  0.51077374  0.68879554  0.58296195  1
  C  C10  1  0.33146323  0.97938125  0.58289349  1
  C  C11  1  0.84050566  0.97247921  0.58556924  1
  C  C12  1  0.14583675  0.95595509  0.08046329  1
  C  C13  1  0.64566125  0.95576039  0.08003112  1
  C  C14  1  0.33226682  0.71261501  0.08301335  1
  C  C15  1  0.83240555  0.71241374  0.08354842  1
  C  C16  1  0.02380604  0.33469296  0.08343004  1
  C  C17  1  0.52330827  0.33411702  0.08344596  1
  C  C18  1  0.48471851  0.68001119  0.91417084  1
  C  C19  1  0.98572653  0.67777006  0.91467780  1
  C  C20  1  0.35486509  0.02822924  0.91457767  1
  C  C21  1  0.85416157  0.02927608  0.91459640  1
  C  C22  1  0.16114737  0.29823265  0.91826407  1
  C  C23  1  0.65986379  0.29148036  0.91511924  1
  C  C24  1  0.47565141  0.28730541  0.41600602  1
  C  C25  1  0.97707498  0.28858180  0.41680576  1
  C  C26  1  0.16795836  0.04441701  0.42095741  1
  C  C27  1  0.66783975  0.04356046  0.41898319  1
  C  C28  1  0.35540461  0.66498060  0.41604595  1
  C  C29  1  0.85668429  0.66550108  0.41649828  1
  C  C30  1  0.00056118  0.99905734  0.50050514  1
  C  C31  1  0.49855259  0.99856990  0.49534574  1
  C  C32  1  0.99943124  0.00134862  -0.00000089  1
  C  C33  1  0.49917453  0.99996800  0.99912831  1
  C  C34  1  0.33290511  0.32383358  0.82877473  1
  C  C35  1  0.83947010  0.33454112  0.83207355  1
  C  C36  1  0.33745418  0.34729856  0.33612296  1
  C  C37  1  0.83843605  0.34888874  0.33564840  1
  C  C38  1  0.16411141  0.65178736  0.16433715  1
  C  C39  1  0.66402250  0.65183616  0.16421621  1
  C  C40  1  0.16308939  0.67726197  0.66849026  1
  C  C41  1  0.66666873  0.66644732  0.66679906  1
  C  C42  1  0.49796213  0.99771434  0.64944858  1
  C  C43  1  0.83738470  0.33705125  0.68508358  1
  C  C44  1  0.33892947  0.34761173  0.18592010  1
  C  C45  1  0.83930062  0.34823829  0.18592567  1
  C  C46  1  0.33347417  0.33554778  0.97904739  1
  C  C47  1  0.83288740  0.33299676  0.97924033  1
  C  C48  1  0.16539078  0.66846586  0.51958215  1
  C  C49  1  0.66720361  0.66603573  0.51951492  1
  C  C50  1  0.16522908  0.65196633  0.31398864  1
  C  C51  1  0.66507589  0.65244367  0.31368829  1
  C  C52  1  0.16614494  0.67647693  0.81695165  1
  C  C53  1  0.66653909  0.66861866  0.81508510  1
  Ni  Ni54  1  0.99496520  0.99622543  0.35192076  1
  Ni  Ni55  1  0.49444581  0.99539688  0.35144270  1
  Ni  Ni56  1  0.99542900  0.99372060  0.84915810  1
  Ni  Ni57  1  0.50039684  0.00106495  0.84974805  1
  Ni  Ni58  1  0.99837259  0.99152819  0.65047113  1
  Ni  Ni59  1  0.99671109  0.00421163  0.14793826  1
  Ni  Ni60  1  0.49649451  0.00419580  0.14774267  1
  Ni  Ni61  1  0.33387510  0.32709583  0.67970375  1
  Ni  Ni62  1  0.33472118  0.33422124  0.48220330  1
  Ni  Ni63  1  0.83309035  0.33019460  0.48096203  1
  Ni  Ni64  1  0.16664048  0.66635646  0.01936150  1
  Ni  Ni65  1  0.66704025  0.66620267  0.01999915  1
  Cu  Cu66  1  0.35117800  0.70224754  0.25041722  1
  Cu  Cu67  1  0.85129831  0.70262088  0.25047464  1
  Cu  Cu68  1  0.00003874  0.29747623  0.24945671  1
  Cu  Cu69  1  0.49984437  0.29732830  0.24940045  1
  Cu  Cu70  1  0.64860435  0.29721851  0.75032624  1
  Cu  Cu71  1  0.00228890  0.70145569  0.74966324  1
  Cu  Cu72  1  0.49809297  0.70042299  0.75158203  1
  Cu  Cu73  1  0.34951188  -0.00057111  0.75207712  1
  Cu  Cu74  1  0.85142154  0.00257475  0.75030671  1
  Cu  Cu75  1  0.48272788  0.33252824  0.58281344  1
  Cu  Cu76  1  0.98126560  0.33249515  0.58143132  1
  Cu  Cu77  1  0.18499828  0.03972447  0.58088828  1
  Cu  Cu78  1  0.68571836  0.03892794  0.58323129  1
  Cu  Cu79  1  0.33268517  0.62832820  0.58392967  1
  Cu  Cu80  1  0.83328235  0.62641442  0.58103647  1
  Cu  Cu81  1  0.48007011  0.62783716  0.08212419  1
  Cu  Cu82  1  0.97999250  0.62771440  0.08172983  1
  Cu  Cu83  1  0.33246077  0.04508440  0.08425978  1
  Cu  Cu84  1  0.83253566  0.04456761  0.08467717  1
  Cu  Cu85  1  0.18813995  0.33060498  0.08367361  1
  Cu  Cu86  1  0.68817759  0.33037909  0.08374856  1
  Cu  Cu87  1  0.31290399  0.66659703  0.91765816  1
  Cu  Cu88  1  0.81297893  0.66515823  0.91847008  1
  Cu  Cu89  1  0.02056593  0.37318113  0.91869149  1
  Cu  Cu90  1  0.51979164  0.37375577  0.91849294  1
  Cu  Cu91  1  0.16680138  0.96420704  0.91912566  1
  Cu  Cu92  1  0.66651283  0.96097899  0.91916758  1
  Cu  Cu93  1  0.31046927  0.95666363  0.41498444  1
  Cu  Cu94  1  0.81065815  0.95599327  0.41526270  1
  Cu  Cu95  1  0.16650190  0.37239694  0.41853471  1
  Cu  Cu96  1  0.66654309  0.37178487  0.41722207  1
  Cu  Cu97  1  0.02188613  0.66817458  0.41516504  1
  Cu  Cu98  1  0.52279604  0.66911553  0.41641815  1
  C  C99  1  0.14989899  0.00001832  0.24982491  1
  C  C100  1  0.64989164  0.00013848  0.24992479  1
  C  C101  1  0.14934669  0.30121249  0.75137232  1
  C  C102  1  0.11179998  0.02358490  0.30385202  1
  C  C103  1  0.61178821  0.02344661  0.30417273  1
  C  C104  1  0.40548261  0.77283078  0.31088707  1
  C  C105  1  0.90549167  0.77381620  0.31081156  1
  C  C106  1  0.47836161  0.17957280  0.30825872  1
  C  C107  1  0.97779726  0.17883845  0.30809726  1
  C  C108  1  0.10898090  0.20159248  0.80507001  1
  C  C109  1  0.61473955  0.18414940  0.80934826  1
  C  C110  1  0.48383276  0.78012864  0.81072112  1
  C  C111  1  0.97872744  0.77310142  0.80794335  1
  C  C112  1  0.40634866  0.03334276  0.81071178  1
  C  C113  1  0.90367249  0.03503102  0.81087570  1
  C  C114  1  0.40182801  0.97402202  0.69475719  1
  C  C115  1  0.88759196  0.95576971  0.69234414  1
  C  C116  1  0.10102862  0.22461540  0.69674220  1
  C  C117  1  0.58474058  0.19813718  0.69391775  1
  C  C118  1  0.01853894  0.80775231  0.68919472  1
  C  C119  1  0.51311255  0.82950656  0.69445224  1
  C  C120  1  0.38873770  0.82066952  0.19183406  1
  C  C121  1  0.88840352  0.82037558  0.19167269  1
  C  C122  1  0.01881620  0.22643769  0.18914313  1
  C  C123  1  0.51918647  0.22674853  0.18924177  1
  C  C124  1  0.09992799  0.97639964  0.19577707  1
  C  C125  1  0.59985574  0.97638668  0.19605790  1
  C  C126  1  0.45000566  0.38321533  0.64146625  1
  C  C127  1  0.92861332  0.36118337  0.63664222  1
  C  C128  1  0.24935129  0.11103053  0.63616745  1
  C  C129  1  0.74834239  0.13508297  0.63975042  1
  C  C130  1  0.31024359  0.51237044  0.64287184  1
  C  C131  1  0.81833393  0.50119810  0.63893040  1
  C  C132  1  0.42817890  0.50341907  0.13900347  1
  C  C133  1  0.92827720  0.50362491  0.13876321  1
  C  C134  1  0.32368752  0.14385408  0.14238896  1
  C  C135  1  0.82379944  0.14411156  0.14248964  1
  C  C136  1  0.25118069  0.34878496  0.13871137  1
  C  C137  1  0.75133555  0.34904337  0.13869485  1
  C  C138  1  0.23721043  0.31260242  0.02354458  1
  C  C139  1  0.73764479  0.31267653  0.02359866  1
  C  C140  1  0.41890176  0.52840623  0.02400747  1
  C  C141  1  0.91876783  0.52782026  0.02360599  1
  C  C142  1  0.34214107  0.16672414  0.02547520  1
  C  C143  1  0.84196233  0.16579966  0.02562491  1
  C  C144  1  0.22183535  0.15202306  0.52094068  1
  C  C145  1  0.71796526  0.15109256  0.52353562  1
  C  C146  1  0.35957423  0.56145419  0.52604588  1
  C  C147  1  0.84956977  0.54810646  0.52203771  1
  C  C148  1  0.42399405  0.28400347  0.52443335  1
  C  C149  1  0.92402427  0.28871035  0.52240418  1
  C  C150  1  0.27487593  0.70298066  0.97670105  1
  C  C151  1  0.77519061  0.70171339  0.97710120  1
  C  C152  1  0.07462365  0.44411447  0.97893124  1
  C  C153  1  0.57598725  0.44953793  0.97722961  1
  C  C154  1  0.14502373  0.84882641  0.97754388  1
  C  C155  1  0.64899222  0.84924088  0.97798984  1
  C  C156  1  0.25885546  0.83571153  0.47323811  1
  C  C157  1  0.75990428  0.83607340  0.47446685  1
  C  C158  1  0.15433840  0.46953213  0.47659030  1
  C  C159  1  0.65654684  0.47327197  0.47500185  1
  C  C160  1  0.07953758  0.68417936  0.47474235  1
  C  C161  1  0.58068117  0.68686580  0.47669430  1
  C  C162  1  0.07613230  0.65026488  0.36038773  1
  C  C163  1  0.57629822  0.65023777  0.36146838  1
  C  C164  1  0.25219369  0.85711506  0.35703616  1
  C  C165  1  0.75145226  0.85606879  0.35780252  1
  C  C166  1  0.17660108  0.49644913  0.36125511  1
  C  C167  1  0.67629197  0.49563225  0.36043739  1
  C  C168  1  0.07280701  0.50725963  0.86354954  1
  C  C169  1  0.56898685  0.50000603  0.85990073  1
  C  C170  1  0.18296522  0.86309099  0.86262163  1
  C  C171  1  0.67950398  0.86075398  0.86087689  1
  C  C172  1  0.24991283  0.63597162  0.85965075  1
  C  C173  1  0.75033921  0.63919041  0.85973527  1
  C  C174  1  0.01948185  0.84211385  0.41406050  1
  C  C175  1  0.52004558  0.84286659  0.41488421  1
  C  C176  1  0.40085145  0.96494287  0.41778975  1
  C  C177  1  0.90091712  0.96556284  0.41771942  1
  C  C178  1  0.08183537  0.19177679  0.41377511  1
  C  C179  1  0.58103720  0.19190361  0.41429147  1
  C  C180  1  0.00870426  0.18770975  0.91010000  1
  C  C181  1  0.50681945  0.18765932  0.91161962  1
  C  C182  1  0.08868629  0.99428699  0.90786589  1
  C  C183  1  0.58734705  0.98940225  0.91274637  1
  C  C184  1  0.40683705  0.82537142  0.91233842  1
  C  C185  1  0.90687623  0.82459549  0.91306008  1
  C  C186  1  0.49527755  0.16661437  0.59218243  1
  C  C187  1  0.99634855  0.17614110  0.59262855  1
  C  C188  1  0.09189166  0.01739710  0.58728232  1
  C  C189  1  0.59097948  0.01201859  0.59473152  1
  C  C190  1  0.41619994  0.82055005  0.59335949  1
  C  C191  1  0.91289568  0.81390323  0.58652371  1
  C  C192  1  0.48498125  0.80786963  0.08592458  1
  C  C193  1  0.98468764  0.80761045  0.08567616  1
  C  C194  1  0.41820739  0.03580871  0.08204043  1
  C  C195  1  0.91833963  0.03571835  0.08204055  1
  C  C196  1  0.09861461  0.15713521  0.08524089  1
  C  C197  1  0.59874424  0.15722903  0.08528772  1
  C  C198  1  0.34269253  0.16699719  0.74483791  1
  C  C199  1  0.83411699  0.16172249  0.74161930  1
  C  C200  1  0.23544010  0.32577738  0.74887851  1
  C  C201  1  0.74255805  0.32301531  0.73923632  1
  C  C202  1  0.41561632  0.51628357  0.74483645  1
  C  C203  1  0.91508271  0.51379696  0.74103724  1
  C  C204  1  0.33670243  0.51025998  0.24154908  1
  C  C205  1  0.83664811  0.51046449  0.24153484  1
  C  C206  1  0.41258455  0.30981652  0.24239031  1
  C  C207  1  0.91272228  0.31040418  0.24228778  1
  C  C208  1  0.23657801  0.15047373  0.24515518  1
  C  C209  1  0.73654379  0.15029439  0.24533342  1
  C  C210  1  0.31682191  0.48930003  0.92086724  1
  C  C211  1  0.81683432  0.48855114  0.91980948  1
  C  C212  1  0.42775915  0.36643280  0.92095579  1
  C  C213  1  0.92797761  0.36406192  0.92097285  1
  C  C214  1  0.25562434  0.14551492  0.92106617  1
  C  C215  1  0.75581333  0.14434152  0.92056926  1
  C  C216  1  0.31748478  0.13941174  0.41618419  1
  C  C217  1  0.81527601  0.13653181  0.41683559  1
  C  C218  1  0.25326646  0.36909439  0.41806422  1
  C  C219  1  0.75187048  0.36406874  0.41656765  1
  C  C220  1  0.43240996  0.49890959  0.41774044  1
  C  C221  1  0.93153898  0.49801786  0.41621104  1
  C  C222  1  0.18306579  0.50103776  0.08372439  1
  C  C223  1  0.68305867  0.50071654  0.08368810  1
  C  C224  1  0.06902705  0.63437587  0.08306910  1
  C  C225  1  0.56899264  0.63401267  0.08341575  1
  C  C226  1  0.24760755  0.86332582  0.08330135  1
  C  C227  1  0.74785051  0.86284431  0.08401909  1
  C  C228  1  0.17406821  0.84749140  0.57416799  1
  C  C229  1  0.67733806  0.85084083  0.57965061  1
  C  C230  1  0.25044151  0.65451244  0.57548610  1
  C  C231  1  0.74593323  0.63857989  0.57863845  1
  C  C232  1  0.07276839  0.50846295  0.57920646  1
  C  C233  1  0.57772100  0.49872416  0.57509929  1
  C  C234  1  0.16167321  0.84990028  0.25447363  1
  C  C235  1  0.66153755  0.84974446  0.25475149  1
  C  C236  1  0.25765539  0.68984863  0.25762405  1
  C  C237  1  0.75757783  0.69012401  0.25785772  1
  C  C238  1  0.08164025  0.48912857  0.25846721  1
  C  C239  1  0.58131731  0.48940061  0.25864577  1
  C  C240  1  0.15795961  0.47371089  0.75570188  1
  C  C241  1  0.65545172  0.48330184  0.75438079  1
  C  C242  1  0.08470046  0.67694690  0.75955058  1
  C  C243  1  0.58590936  0.69048925  0.75469390  1
  C  C244  1  0.25991960  0.81786117  0.75561728  1
  C  C245  1  0.75571057  0.83137449  0.75809971  1
