# generated using pymatgen
data_Cu3Ni
_symmetry_space_group_name_H-M   'P 1'
_cell_length_a   4.89773000
_cell_length_b   5.53472800
_cell_length_c   7.70890100
_cell_angle_alpha   90.00000000
_cell_angle_beta   90.00000000
_cell_angle_gamma   90.00000000
_symmetry_Int_Tables_number   1
_chemical_formula_structural   Cu3Ni
_chemical_formula_sum   'Cu12 Ni4'
_cell_volume   208.96983071
_cell_formula_units_Z   4
loop_
 _symmetry_equiv_pos_site_id
 _symmetry_equiv_pos_as_xyz
  1  'x, y, z'
loop_
 _atom_site_type_symbol
 _atom_site_label
 _atom_site_symmetry_multiplicity
 _atom_site_fract_x
 _atom_site_fract_y
 _atom_site_fract_z
 _atom_site_occupancy
  Ni  Ni0  1  0.56553200  0.11232000  0.75000000  1
  Ni  Ni1  1  0.06553200  0.38768000  0.25000000  1
  Ni  Ni2  1  0.93446800  0.61232000  0.75000000  1
  Ni  Ni3  1  0.43446800  0.88768000  0.25000000  1
  Cu  Cu4  1  0.67393000  0.82087800  0.92782900  1
  Cu  Cu5  1  0.17393000  0.67912200  0.07217100  1
  Cu  Cu6  1  0.82607000  0.32087800  0.57217100  1
  Cu  Cu7  1  0.32607000  0.17912200  0.42782900  1
  Cu  Cu8  1  0.84209500  0.03920300  0.25000000  1
  Cu  Cu9  1  0.34209500  0.46079700  0.75000000  1
  Cu  Cu10  1  0.65790500  0.53920300  0.25000000  1
  Cu  Cu11  1  0.15790500  0.96079700  0.75000000  1
  Cu  Cu12  1  0.67393000  0.82087800  0.57217100  1
  Cu  Cu13  1  0.17393000  0.67912200  0.42782900  1
  Cu  Cu14  1  0.82607000  0.32087800  0.92782900  1
  Cu  Cu15  1  0.32607000  0.17912200  0.07217100  1
