# generated using pymatgen
data_Cu6NiC2
_symmetry_space_group_name_H-M   'P 1'
_cell_length_a   8.50225900
_cell_length_b   8.20945700
_cell_length_c   14.27361814
_cell_angle_alpha   55.02381220
_cell_angle_beta   90.00000000
_cell_angle_gamma   90.00000000
_symmetry_Int_Tables_number   1
_chemical_formula_structural   Cu6NiC2
_chemical_formula_sum   'Cu12 Ni2 C4'
_cell_volume   816.34489870
_cell_formula_units_Z   2
loop_
 _symmetry_equiv_pos_site_id
 _symmetry_equiv_pos_as_xyz
  1  'x, y, z'
loop_
 _atom_site_type_symbol
 _atom_site_label
 _atom_site_symmetry_multiplicity
 _atom_site_fract_x
 _atom_site_fract_y
 _atom_site_fract_z
 _atom_site_occupancy
  C  C0  1  0.57656800  0.72590500  0.25256000  1
  C  C1  1  0.07656800  0.27409500  0.24744000  1
  C  C2  1  0.42343200  0.27409500  0.74744000  1
  C  C3  1  0.92343200  0.72590500  0.75256000  1
  Ni  Ni4  1  0.00000000  0.00000000  0.00000000  1
  Ni  Ni5  1  0.50000000  0.00000000  0.50000000  1
  Cu  Cu6  1  0.99374800  0.83362800  0.24802700  1
  Cu  Cu7  1  0.49374800  0.16637200  0.25197300  1
  Cu  Cu8  1  0.00625200  0.16637200  0.75197300  1
  Cu  Cu9  1  0.50625200  0.83362800  0.74802700  1
  Cu  Cu10  1  0.69557700  0.65965400  0.54568800  1
  Cu  Cu11  1  0.19557700  0.34034600  0.95431200  1
  Cu  Cu12  1  0.30442300  0.34034600  0.45431200  1
  Cu  Cu13  1  0.80442300  0.65965400  0.04568800  1
  Cu  Cu14  1  0.70688600  0.22873000  0.96440400  1
  Cu  Cu15  1  0.20688600  0.77127000  0.53559600  1
  Cu  Cu16  1  0.29311400  0.77127000  0.03559600  1
  Cu  Cu17  1  0.79311400  0.22873000  0.46440400  1
