# generated using pymatgen
data_Cu(NiC7)5
_symmetry_space_group_name_H-M   'P 1'
_cell_length_a   8.81742315
_cell_length_b   8.80702261
_cell_length_c   21.57567796
_cell_angle_alpha   90.03379307
_cell_angle_beta   90.01355666
_cell_angle_gamma   119.93620835
_symmetry_Int_Tables_number   1
_chemical_formula_structural   Cu(NiC7)5
_chemical_formula_sum   'Cu3 Ni15 C105'
_cell_volume   1451.92615632
_cell_formula_units_Z   3
loop_
 _symmetry_equiv_pos_site_id
 _symmetry_equiv_pos_as_xyz
  1  'x, y, z'
loop_
 _atom_site_type_symbol
 _atom_site_label
 _atom_site_symmetry_multiplicity
 _atom_site_fract_x
 _atom_site_fract_y
 _atom_site_fract_z
 _atom_site_occupancy
  C  C0  1  0.63877789  0.99336411  0.25162998  1
  C  C1  1  -0.00049724  0.63225001  0.25523734  1
  C  C2  1  0.63457937  0.64176409  0.74756594  1
  C  C3  1  0.00807895  0.36701120  0.75209809  1
  C  C4  1  0.36218845  0.99365392  0.75203106  1
  C  C5  1  0.29012362  0.33281497  0.58681091  1
  C  C6  1  0.04577838  0.71199635  0.58276658  1
  C  C7  1  0.66947102  0.95548185  0.58357541  1
  C  C8  1  0.29030034  0.95507965  0.07944777  1
  C  C9  1  0.66796196  0.70978609  0.08729495  1
  C  C10  1  0.04477070  0.33165314  0.08427924  1
  C  C11  1  0.98806305  0.66831311  0.91614669  1
  C  C12  1  0.32835881  0.31056730  0.92054855  1
  C  C13  1  0.97545437  0.31777895  0.41373576  1
  C  C14  1  0.68862394  0.67159667  0.41946091  1
  C  C15  1  0.01129916  0.99509767  0.49991864  1
  C  C16  1  0.99328451  0.00779295  -0.00044364  1
  C  C17  1  0.66872829  0.31069327  0.83559109  1
  C  C18  1  0.65091640  0.32519615  0.33397207  1
  C  C19  1  0.33412931  0.64019665  0.16929714  1
  C  C20  1  0.33442875  0.66886613  0.66721820  1
  C  C21  1  0.00024104  0.00090014  0.64679502  1
  C  C22  1  0.99764190  0.00204702  0.14663188  1
  C  C23  1  0.32745958  0.66554882  0.01757678  1
  C  C24  1  0.33415089  0.67759060  0.51739645  1
  C  C25  1  0.33276792  0.66475232  0.31808946  1
  C  C26  1  0.32845772  0.67113381  0.81823233  1
  C  C27  1  0.98674547  0.99104882  0.34853662  1
  C  C28  1  0.00591502  0.00940274  0.84718863  1
  C  C29  1  0.66782709  0.33303865  0.68672359  1
  C  C30  1  0.67159756  0.33879450  0.18537032  1
  C  C31  1  0.66705596  0.32180423  0.98342233  1
  C  C32  1  0.67023984  0.32962489  0.48312002  1
  Ni  Ni33  1  0.70200356  0.69705582  0.24797227  1
  Ni  Ni34  1  -0.00205411  0.29307496  0.24867055  1
  Ni  Ni35  1  0.29965384  0.29492670  0.74881300  1
  Ni  Ni36  1  0.99449412  0.70548330  0.74906125  1
  Ni  Ni37  1  0.71056429  0.00356029  0.74765709  1
  Ni  Ni38  1  0.95377102  0.33559465  0.58383183  1
  Ni  Ni39  1  0.38738546  0.05262372  0.58432748  1
  Ni  Ni40  1  0.66457016  0.61385709  0.58279617  1
  Ni  Ni41  1  0.95063550  0.61545528  0.08275288  1
  Ni  Ni42  1  0.66399284  0.04682057  0.08624137  1
  Ni  Ni43  1  0.38852871  0.33499198  0.08269244  1
  Ni  Ni44  1  0.02344446  0.35612858  0.91665473  1
  Ni  Ni45  1  0.33351201  0.97405557  0.91617757  1
  Ni  Ni46  1  0.63667992  0.97282965  0.41558575  1
  Ni  Ni47  1  0.02851655  0.67146541  0.41694794  1
  Cu  Cu48  1  0.29210807  0.00831981  0.24973004  1
  Cu  Cu49  1  0.63839384  0.67190208  0.91655176  1
  Cu  Cu50  1  0.33130025  0.35896529  0.41735351  1
  C  C51  1  0.19462975  0.02219012  0.30369155  1
  C  C52  1  0.82465900  0.79280703  0.30509612  1
  C  C53  1  0.97556767  0.17166251  0.30540449  1
  C  C54  1  0.20659535  0.17459658  0.80588523  1
  C  C55  1  0.97125529  0.80090997  0.80674345  1
  C  C56  1  0.83839947  0.03088535  0.80183152  1
  C  C57  1  0.78130154  0.97176573  0.68731772  1
  C  C58  1  0.18909223  0.21760994  0.69054511  1
  C  C59  1  0.02233987  0.81273086  0.69044927  1
  C  C60  1  0.78714001  0.80653546  0.18970945  1
  C  C61  1  0.01846932  0.21369888  0.18879499  1
  C  C62  1  0.19456727  0.98463640  0.19165586  1
  C  C63  1  0.86156352  0.35348234  0.64259947  1
  C  C64  1  0.49206068  0.13886903  0.64473242  1
  C  C65  1  0.64679395  0.50573931  0.64218599  1
  C  C66  1  0.86398743  0.50690697  0.14228240  1
  C  C67  1  0.64481711  0.13493343  0.14627771  1
  C  C68  1  0.50245871  0.35326115  0.13962125  1
  C  C69  1  0.47793750  0.32059230  0.02258836  1
  C  C70  1  0.83786365  0.52355157  0.02461318  1
  C  C71  1  0.68360066  0.16134477  0.02964397  1
  C  C72  1  0.48432062  0.16690990  0.52784927  1
  C  C73  1  0.67894969  0.51999282  0.52403194  1
  C  C74  1  0.84732584  0.32085559  0.52462470  1
  C  C75  1  0.55667976  0.69128329  0.97367314  1
  C  C76  1  0.14399331  0.43652527  0.97379457  1
  C  C77  1  0.29789180  0.85593149  0.97350829  1
  C  C78  1  0.55882167  0.85273257  0.47247962  1
  C  C79  1  0.29857041  0.43385492  0.47441946  1
  C  C80  1  0.13400599  0.69541184  0.47605342  1
  C  C81  1  0.11168230  0.63325913  0.36083556  1
  C  C82  1  0.52900429  0.88868197  0.35733400  1
  C  C83  1  0.36395094  0.47774867  0.36489003  1
  C  C84  1  0.10710755  0.47626764  0.86021089  1
  C  C85  1  0.35881965  0.89162653  0.85808208  1
  C  C86  1  0.52797866  0.64627474  0.86222384  1
  C  C87  1  0.00440922  0.83491928  0.40734329  1
  C  C88  1  0.82759216  0.99788966  0.40784302  1
  C  C89  1  0.17275256  0.18330105  0.40763770  1
  C  C90  1  0.00588046  0.17244677  0.90651679  1
  C  C91  1  0.16377872  0.99237218  0.90899580  1
  C  C92  1  0.81830296  0.82759058  0.91062194  1
  C  C93  1  0.97137751  0.16952468  0.58469572  1
  C  C94  1  0.20243359  0.03197939  0.58530496  1
  C  C95  1  0.83072142  0.79732632  0.58363348  1
  C  C96  1  0.97194061  0.80097913  0.08493083  1
  C  C97  1  0.82936999  0.02787784  0.08648228  1
  C  C98  1  0.20441320  0.16876681  0.08491258  1
  C  C99  1  0.69616559  0.17496371  0.74543418  1
  C  C100  1  0.48378889  0.30813121  0.74528854  1
  C  C101  1  0.82428535  0.51986170  0.74605952  1
  C  C102  1  0.69122507  0.51399838  0.24457724  1
  C  C103  1  0.82206608  0.30334981  0.24746251  1
  C  C104  1  0.46989312  0.16737431  0.24853037  1
  C  C105  1  0.65961621  0.51216540  0.92026034  1
  C  C106  1  0.84075193  0.34194330  0.92564307  1
  C  C107  1  0.49345470  0.16346203  0.92423015  1
  C  C108  1  0.66337177  0.16118526  0.42414561  1
  C  C109  1  0.48982830  0.34001872  0.42348227  1
  C  C110  1  0.83714555  0.50580528  0.42251711  1
  C  C111  1  0.36843861  0.50000535  0.08017146  1
  C  C112  1  0.13366141  0.63246393  0.07943416  1
  C  C113  1  0.49930343  0.86271970  0.08162532  1
  C  C114  1  0.36944003  0.86873153  0.58087938  1
  C  C115  1  0.49895921  0.63245795  0.58000047  1
  C  C116  1  0.13819888  0.50043860  0.58127950  1
  C  C117  1  0.31355881  0.85111982  0.25589988  1
  C  C118  1  0.52176158  0.68065605  0.25635736  1
  C  C119  1  0.15119992  0.48086486  0.25641801  1
  C  C120  1  0.32733114  0.48092793  0.75815739  1
  C  C121  1  0.15388647  0.67864423  0.75582503  1
  C  C122  1  0.52580657  0.84468566  0.75730466  1
