# generated using pymatgen
data_CuNiC6
_symmetry_space_group_name_H-M   'P 1'
_cell_length_a   3.92011844
_cell_length_b   3.92011870
_cell_length_c   9.83943858
_cell_angle_alpha   101.49043902
_cell_angle_beta   101.49043166
_cell_angle_gamma   90.00000897
_symmetry_Int_Tables_number   1
_chemical_formula_structural   CuNiC6
_chemical_formula_sum   'Cu1 Ni1 C6'
_cell_volume   145.08166226
_cell_formula_units_Z   1
loop_
 _symmetry_equiv_pos_site_id
 _symmetry_equiv_pos_as_xyz
  1  'x, y, z'
loop_
 _atom_site_type_symbol
 _atom_site_label
 _atom_site_symmetry_multiplicity
 _atom_site_fract_x
 _atom_site_fract_y
 _atom_site_fract_z
 _atom_site_occupancy
  C  C0  1  0.68616008  0.68616108  0.37232216  1
  C  C1  1  0.31383892  0.31383892  0.62767784  1
  Ni  Ni2  1  0.50000000  0.50000000  0.00000000  1
  Cu  Cu3  1  -0.00000000  0.00000000  0.00000000  1
  C  C4  1  0.80923338  0.80923338  0.61846876  1
  C  C5  1  0.19076562  0.19076462  0.38153124  1
  C  C6  1  0.99999900  0.50000100  0.00000100  1
  C  C7  1  0.50000100  0.00000000  0.00000100  1
