# generated using pymatgen
data_Cu4Ni8C7
_symmetry_space_group_name_H-M   'P 1'
_cell_length_a   4.94612275
_cell_length_b   5.00952336
_cell_length_c   8.95415700
_cell_angle_alpha   88.89803239
_cell_angle_beta   89.32840271
_cell_angle_gamma   89.44100690
_symmetry_Int_Tables_number   1
_chemical_formula_structural   Cu4Ni8C7
_chemical_formula_sum   'Cu4 Ni8 C7'
_cell_volume   221.79722149
_cell_formula_units_Z   1
loop_
 _symmetry_equiv_pos_site_id
 _symmetry_equiv_pos_as_xyz
  1  'x, y, z'
loop_
 _atom_site_type_symbol
 _atom_site_label
 _atom_site_symmetry_multiplicity
 _atom_site_fract_x
 _atom_site_fract_y
 _atom_site_fract_z
 _atom_site_occupancy
  C  C0  1  0.48676000  0.96846500  0.16469500  1
  C  C1  1  0.99373200  0.00200300  0.99365100  1
  C  C2  1  0.96366000  0.97224200  0.35615600  1
  C  C3  1  0.03000800  0.03576100  0.66474500  1
  C  C4  1  0.46302300  0.52595000  0.84326800  1
  C  C5  1  0.55753800  0.46600400  0.16193100  1
  C  C6  1  0.49715900  0.51006400  0.50768500  1
  Ni  Ni7  1  0.17467700  0.80933000  0.50928000  1
  Ni  Ni8  1  0.16518300  0.82965500  0.83381800  1
  Ni  Ni9  1  0.35278400  0.26775900  0.01391200  1
  Ni  Ni10  1  0.33082500  0.33447400  0.67713400  1
  Ni  Ni11  1  0.65114600  0.72253900  0.00843600  1
  Ni  Ni12  1  0.64761600  0.69430000  0.32291100  1
  Ni  Ni13  1  0.83193300  0.16131000  0.17485100  1
  Ni  Ni14  1  0.82940900  0.21219200  0.50369800  1
  Cu  Cu15  1  0.16028900  0.76288800  0.18047200  1
  Cu  Cu16  1  0.34879800  0.23998200  0.31672800  1
  Cu  Cu17  1  0.66934700  0.73045500  0.68189500  1
  Cu  Cu18  1  0.83222300  0.24074000  0.82759200  1
