# generated using pymatgen
data_Cu2Ni3C32
_symmetry_space_group_name_H-M   'P 1'
_cell_length_a   8.94707707
_cell_length_b   8.93925654
_cell_length_c   22.73953922
_cell_angle_alpha   90.10831567
_cell_angle_beta   90.04156018
_cell_angle_gamma   119.54010359
_symmetry_Int_Tables_number   1
_chemical_formula_structural   Cu2Ni3C32
_chemical_formula_sum   'Cu6 Ni9 C96'
_cell_volume   1582.29453124
_cell_formula_units_Z   3
loop_
 _symmetry_equiv_pos_site_id
 _symmetry_equiv_pos_as_xyz
  1  'x, y, z'
loop_
 _atom_site_type_symbol
 _atom_site_label
 _atom_site_symmetry_multiplicity
 _atom_site_fract_x
 _atom_site_fract_y
 _atom_site_fract_z
 _atom_site_occupancy
  Ni  Ni0  1  0.00364855  0.36043292  0.75225831  1
  Ni  Ni1  1  0.67062519  0.95382603  0.58309753  1
  Ni  Ni2  1  0.04942478  0.33064546  0.08338698  1
  Ni  Ni3  1  0.01790141  0.99422880  0.49409468  1
  Ni  Ni4  1  0.00702779  0.98742351  0.99320684  1
  Ni  Ni5  1  0.65342286  0.32458776  0.83506478  1
  Ni  Ni6  1  0.67616845  0.33369448  0.33325500  1
  Ni  Ni7  1  0.35413518  0.67546091  0.16948965  1
  Ni  Ni8  1  0.33551403  0.66960831  0.66904973  1
  Cu  Cu9  1  0.01079073  0.99730444  0.64329877  1
  Cu  Cu10  1  0.99708901  0.98960996  0.14378924  1
  Cu  Cu11  1  0.33494655  0.67469106  0.01782442  1
  Cu  Cu12  1  0.32241826  0.66510630  0.51785375  1
  Cu  Cu13  1  0.32592811  0.66380760  0.31841866  1
  Cu  Cu14  1  0.33792065  0.67924165  0.82026315  1
  C  C15  1  0.97281632  0.98739706  0.34838227  1
  C  C16  1  0.01035787  0.00894451  0.84682134  1
  C  C17  1  0.66195567  0.33850379  0.68769891  1
  C  C18  1  0.67388140  0.34163726  0.18677289  1
  C  C19  1  0.66220830  0.32269213  0.98196956  1
  C  C20  1  0.67757967  0.34001547  0.48194520  1
  C  C21  1  0.70341593  0.69549316  0.24896519  1
  C  C22  1  0.98837573  0.28670457  0.24684086  1
  C  C23  1  0.29947543  0.29224978  0.74991075  1
  C  C24  1  0.98815333  0.69930123  0.75100632  1
  C  C25  1  0.71024892  0.00667277  0.74626740  1
  C  C26  1  0.95036831  0.34137842  0.58623275  1
  C  C27  1  0.39452010  0.05985626  0.58193466  1
  C  C28  1  0.66020311  0.61113327  0.58326968  1
  C  C29  1  0.94409679  0.60851272  0.08169517  1
  C  C30  1  0.66040130  0.05070511  0.08511952  1
  C  C31  1  0.39169758  0.33872040  0.08452303  1
  C  C32  1  0.01978979  0.35110681  0.91696395  1
  C  C33  1  0.33006028  0.98261710  0.91718206  1
  C  C34  1  0.64106206  0.97777645  0.41951134  1
  C  C35  1  0.01910131  0.67148771  0.41617380  1
  C  C36  1  0.30161104  0.01340890  0.25173888  1
  C  C37  1  0.65116439  0.66924946  0.91701878  1
  C  C38  1  0.32960777  0.34861650  0.41666996  1
  C  C39  1  0.20485103  0.02195576  0.30314186  1
  C  C40  1  0.82063765  0.79910727  0.30361369  1
  C  C41  1  0.97252409  0.16010795  0.29833043  1
  C  C42  1  0.20069700  0.17221197  0.80366303  1
  C  C43  1  0.97851118  0.80405310  0.80449205  1
  C  C44  1  0.83977733  0.02877639  0.79718098  1
  C  C45  1  0.78126932  0.98520827  0.68743066  1
  C  C46  1  0.18877552  0.21802376  0.69527588  1
  C  C47  1  0.01638423  0.79931278  0.69445096  1
  C  C48  1  0.78569458  0.79962756  0.19406822  1
  C  C49  1  0.01441869  0.21758031  0.18835377  1
  C  C50  1  0.20662181  0.99277823  0.19650621  1
  C  C51  1  0.85559232  0.34567217  0.64331086  1
  C  C52  1  0.49621767  0.15696403  0.63879884  1
  C  C53  1  0.65948868  0.51084375  0.64009946  1
  C  C54  1  0.84952431  0.50873035  0.13940107  1
  C  C55  1  0.65857262  0.15245790  0.14026046  1
  C  C56  1  0.49385882  0.34392899  0.14121696  1
  C  C57  1  0.49229888  0.33767892  0.02951697  1
  C  C58  1  0.84207714  0.50406099  0.02779008  1
  C  C59  1  0.66107124  0.15061455  0.02867536  1
  C  C60  1  0.49726575  0.15860742  0.52721964  1
  C  C61  1  0.65971540  0.50961579  0.52844369  1
  C  C62  1  0.84717706  0.34241420  0.53074868  1
  C  C63  1  0.56896807  0.69771501  0.96912672  1
  C  C64  1  0.13255958  0.42812012  0.97238857  1
  C  C65  1  0.29451209  0.86624813  0.97083399  1
  C  C66  1  0.57584880  0.87177271  0.47640793  1
  C  C67  1  0.30031637  0.42957582  0.46922616  1
  C  C68  1  0.13399841  0.70985785  0.47075694  1
  C  C69  1  0.09298345  0.62586405  0.36327074  1
  C  C70  1  0.51933635  0.89063384  0.36823360  1
  C  C71  1  0.36159108  0.45896043  0.36470352  1
  C  C72  1  0.09971359  0.46649132  0.86302787  1
  C  C73  1  0.37681008  0.91201912  0.86348978  1
  C  C74  1  0.54249534  0.63772042  0.86438942  1
  C  C75  1  0.00075820  0.83321631  0.40388788  1
  C  C76  1  0.82329256  0.99812918  0.40466745  1
  C  C77  1  0.17532664  0.17770823  0.40794220  1
  C  C78  1  0.99792193  0.16927032  0.90443168  1
  C  C79  1  0.16688211  0.99818352  0.90565824  1
  C  C80  1  0.82155930  0.82410415  0.90919090  1
  C  C81  1  0.95466365  0.17201411  0.58212858  1
  C  C82  1  0.21727175  0.04380923  0.57881907  1
  C  C83  1  0.82080833  0.79056893  0.58116779  1
  C  C84  1  0.96135303  0.78605427  0.07904552  1
  C  C85  1  0.82945964  0.04523880  0.08188247  1
  C  C86  1  0.21195621  0.17751059  0.08321791  1
  C  C87  1  0.70372865  0.17891832  0.74578931  1
  C  C88  1  0.47633318  0.30195584  0.74504046  1
  C  C89  1  0.81997099  0.52013771  0.74784764  1
  C  C90  1  0.69798198  0.51912228  0.24633886  1
  C  C91  1  0.81880443  0.29629040  0.24504281  1
  C  C92  1  0.47170082  0.17365334  0.24963178  1
  C  C93  1  0.67288206  0.51631124  0.92477071  1
  C  C94  1  0.83529629  0.32510679  0.92648623  1
  C  C95  1  0.48320845  0.16733450  0.92808668  1
  C  C96  1  0.67422627  0.16444818  0.42700256  1
  C  C97  1  0.48271999  0.32716665  0.42455553  1
  C  C98  1  0.83521921  0.51631172  0.42762037  1
  C  C99  1  0.36779743  0.49806864  0.08434551  1
  C  C100  1  0.11952275  0.61566626  0.08310993  1
  C  C101  1  0.50203480  0.87295786  0.08540728  1
  C  C102  1  0.38492938  0.88270613  0.58377138  1
  C  C103  1  0.50021202  0.63268286  0.58454628  1
  C  C104  1  0.12848850  0.49983879  0.58586372  1
  C  C105  1  0.32864544  0.86277949  0.25553999  1
  C  C106  1  0.52383601  0.67080804  0.25658802  1
  C  C107  1  0.14134777  0.46553492  0.25725403  1
  C  C108  1  0.31753593  0.46948768  0.75983655  1
  C  C109  1  0.13788867  0.66132644  0.75760739  1
  C  C110  1  0.53180018  0.85308303  0.75573246  1
