# generated using pymatgen
data_Cu5NiC31
_symmetry_space_group_name_H-M   'P 1'
_cell_length_a   9.27051900
_cell_length_b   8.72100115
_cell_length_c   8.77430530
_cell_angle_alpha   59.43501619
_cell_angle_beta   57.54903788
_cell_angle_gamma   58.28860344
_symmetry_Int_Tables_number   1
_chemical_formula_structural   Cu5NiC31
_chemical_formula_sum   'Cu5 Ni1 C31'
_cell_volume   483.24237877
_cell_formula_units_Z   1
loop_
 _symmetry_equiv_pos_site_id
 _symmetry_equiv_pos_as_xyz
  1  'x, y, z'
loop_
 _atom_site_type_symbol
 _atom_site_label
 _atom_site_symmetry_multiplicity
 _atom_site_fract_x
 _atom_site_fract_y
 _atom_site_fract_z
 _atom_site_occupancy
  Ni  Ni0  1  0.64013800  0.14026200  0.11041600  1
  Cu  Cu1  1  0.03218400  0.98370600  0.99477400  1
  Cu  Cu2  1  0.06266500  0.64866200  0.63664600  1
  Cu  Cu3  1  0.48871300  0.49515800  0.50766500  1
  Cu  Cu4  1  0.46709500  0.85012900  0.84098200  1
  Cu  Cu5  1  0.89445800  0.37240700  0.35154500  1
  C  C6  1  0.26783100  0.23126800  0.26438000  1
  C  C7  1  0.26521000  0.23787700  0.55731400  1
  C  C8  1  0.26905900  0.93779200  0.24926500  1
  C  C9  1  0.26245800  0.53730300  0.95591500  1
  C  C10  1  0.76313400  0.46557600  0.02518800  1
  C  C11  1  0.76198000  0.04391300  0.73990700  1
  C  C12  1  0.77506400  0.74475700  0.44188000  1
  C  C13  1  0.10227200  0.12410100  0.29059900  1
  C  C14  1  0.09546800  0.48216500  0.14231500  1
  C  C15  1  0.10475700  0.26444000  0.52099100  1
  C  C16  1  0.26985100  0.07171900  0.74405600  1
  C  C17  1  0.43106000  0.20156000  0.37002900  1
  C  C18  1  0.25841400  0.40958400  0.57360600  1
  C  C19  1  0.27166100  0.92044900  0.08250200  1
  C  C20  1  0.26488000  0.75132500  0.41733500  1
  C  C21  1  0.59862600  0.59718400  0.96114700  1
  C  C22  1  0.27710600  0.54602000  0.77062500  1
  C  C23  1  0.81638900  0.26200200  0.03039600  1
  C  C24  1  0.58731800  0.00541400  0.82525600  1
  C  C25  1  0.42815000  0.98188500  0.21735400  1
  C  C26  1  0.24695800  0.72498000  0.94572200  1
  C  C27  1  0.70598600  0.46198100  0.22963700  1
  C  C28  1  0.42515100  0.35871100  0.01279400  1
  C  C29  1  0.72708400  0.24550300  0.57653000  1
  C  C30  1  0.80385400  0.05724800  0.87935000  1
  C  C31  1  0.73019800  0.59212200  0.44100000  1
  C  C32  1  0.59552400  0.83631900  0.58755700  1
  C  C33  1  0.80484300  0.89899200  0.24264600  1
  C  C34  1  0.94122800  0.65436800  0.49190400  1
  C  C35  1  0.92890600  0.53137000  0.89546200  1
  C  C36  1  0.93121000  0.90206700  0.63781500  1
