# generated using pymatgen
data_Cu2Ni9C49
_symmetry_space_group_name_H-M   'P 1'
_cell_length_a   9.19925663
_cell_length_b   27.54998605
_cell_length_c   22.52027462
_cell_angle_alpha   89.90396474
_cell_angle_beta   90.02784411
_cell_angle_gamma   119.96364472
_symmetry_Int_Tables_number   1
_chemical_formula_structural   Cu2Ni9C49
_chemical_formula_sum   'Cu12 Ni54 C294'
_cell_volume   4944.66380450
_cell_formula_units_Z   6
loop_
 _symmetry_equiv_pos_site_id
 _symmetry_equiv_pos_as_xyz
  1  'x, y, z'
loop_
 _atom_site_type_symbol
 _atom_site_label
 _atom_site_symmetry_multiplicity
 _atom_site_fract_x
 _atom_site_fract_y
 _atom_site_fract_z
 _atom_site_occupancy
  Ni  Ni0  1  0.02018137  0.99910632  0.49590984  1
  Ni  Ni1  1  0.00888181  0.32990943  0.50148151  1
  Ni  Ni2  1  0.99706522  0.66649887  0.49914573  1
  Ni  Ni3  1  0.98491016  0.00592723  0.00209691  1
  Ni  Ni4  1  0.01865805  0.34049532  0.00056363  1
  Ni  Ni5  1  0.00101301  0.66739350  0.00527755  1
  Ni  Ni6  1  0.68895500  0.11096980  0.83388736  1
  Ni  Ni7  1  0.64524220  0.44445928  0.84235646  1
  Ni  Ni8  1  0.68065389  0.77636405  0.82826390  1
  Ni  Ni9  1  0.66382529  0.10724874  0.32676277  1
  Ni  Ni10  1  0.67023119  0.44158930  0.33593569  1
  Ni  Ni11  1  0.66773698  0.77990815  0.33357770  1
  Ni  Ni12  1  0.32447357  0.21970887  0.16395529  1
  Ni  Ni13  1  0.31374035  0.55655951  0.16953842  1
  Ni  Ni14  1  0.33675290  0.89344389  0.16448703  1
  Ni  Ni15  1  0.32194258  0.21764552  0.66576760  1
  Ni  Ni16  1  0.34239238  0.55597408  0.66957894  1
  Ni  Ni17  1  0.28670597  0.88362043  0.66208549  1
  Ni  Ni18  1  0.63445429  0.66259957  0.25676831  1
  Ni  Ni19  1  0.37967883  0.12065478  0.24427813  1
  Ni  Ni20  1  0.35679461  0.45719505  0.25642299  1
  Ni  Ni21  1  0.34697159  0.78662345  0.23901504  1
  Ni  Ni22  1  0.99638386  0.21199412  0.24304264  1
  Ni  Ni23  1  0.02552269  0.54987325  0.24913316  1
  Ni  Ni24  1  0.60923173  0.20658298  0.74782441  1
  Ni  Ni25  1  0.61657204  0.54020153  0.75848305  1
  Ni  Ni26  1  0.62147540  0.86968687  0.74530655  1
  Ni  Ni27  1  0.99008188  0.12592454  0.74960004  1
  Ni  Ni28  1  0.01829824  0.46218014  0.75512897  1
  Ni  Ni29  1  0.38969651  0.00444943  0.74379695  1
  Ni  Ni30  1  0.37590606  0.32867929  0.75679906  1
  Ni  Ni31  1  0.38071280  0.66773250  0.74968832  1
  Ni  Ni32  1  0.31671918  0.78134321  0.57454487  1
  Ni  Ni33  1  0.01520050  0.56398139  0.57403752  1
  Ni  Ni34  1  0.67284267  0.32613924  0.57470743  1
  Ni  Ni35  1  0.65532233  0.98852856  0.57606134  1
  Ni  Ni36  1  0.30960615  0.32809866  0.07249145  1
  Ni  Ni37  1  0.30779189  0.98628763  0.07478361  1
  Ni  Ni38  1  0.65943197  0.22638350  0.08915355  1
  Ni  Ni39  1  0.68254332  0.57132369  0.08719719  1
  Ni  Ni40  1  0.66132238  0.90062385  0.07207207  1
  Ni  Ni41  1  0.05531081  0.77962852  0.08353015  1
  Ni  Ni42  1  0.96517903  0.55023570  0.92607454  1
  Ni  Ni43  1  0.99084875  0.89302855  0.91978027  1
  Ni  Ni44  1  0.69138724  0.34404390  0.92487674  1
  Ni  Ni45  1  0.34604845  0.10545907  0.91100889  1
  Ni  Ni46  1  0.32788277  0.77092294  0.92450377  1
  Ni  Ni47  1  0.97783153  0.09829500  0.41024801  1
  Ni  Ni48  1  0.95169035  0.43453244  0.42324624  1
  Ni  Ni49  1  0.99347208  0.77247319  0.42849894  1
  Ni  Ni50  1  0.30730157  0.00651385  0.41708603  1
  Ni  Ni51  1  0.34373074  0.34526581  0.42703101  1
  Ni  Ni52  1  0.69654987  0.55206995  0.42662602  1
  Ni  Ni53  1  0.69848474  0.89334362  0.40831829  1
  Cu  Cu54  1  0.98847581  0.99638022  0.34470064  1
  Cu  Cu55  1  0.00857234  0.67063550  0.14566369  1
  Cu  Cu56  1  0.67827721  0.11643378  0.68221592  1
  Cu  Cu57  1  0.66701827  0.77428282  0.68856333  1
  Cu  Cu58  1  0.67894820  0.11637281  0.18066647  1
  Cu  Cu59  1  0.64968240  0.43958684  0.98609261  1
  Cu  Cu60  1  0.66045292  0.44253114  0.48845024  1
  Cu  Cu61  1  0.33160398  0.88795851  0.01473638  1
  Cu  Cu62  1  0.32729007  0.88692423  0.51689100  1
  Cu  Cu63  1  0.34206127  0.55941413  0.32020887  1
  Cu  Cu64  1  0.32303904  0.21667270  0.81745923  1
  Cu  Cu65  1  0.34049864  0.56027956  0.81505699  1
  C  C66  1  0.99139322  0.33329978  0.35406806  1
  C  C67  1  0.01050898  0.66678769  0.34979624  1
  C  C68  1  0.00001136  0.00164630  0.85503024  1
  C  C69  1  0.00853526  0.33584059  0.85513907  1
  C  C70  1  0.99028187  0.66317217  0.85550178  1
  C  C71  1  0.00168601  0.99811313  0.64343562  1
  C  C72  1  0.00116983  0.33194391  0.64501276  1
  C  C73  1  0.00065376  0.67091941  0.64523207  1
  C  C74  1  0.99538021  0.99958504  0.15135394  1
  C  C75  1  0.99059620  0.33047843  0.14822719  1
  C  C76  1  0.66807272  0.44443930  0.68318048  1
  C  C77  1  0.66599839  0.44103986  0.18333142  1
  C  C78  1  0.66100947  0.77458056  0.18763192  1
  C  C79  1  0.67085042  0.11041621  0.98464993  1
  C  C80  1  0.67125874  0.78067990  0.97755166  1
  C  C81  1  0.66939479  0.11526892  0.48495261  1
  C  C82  1  0.67218951  0.77794913  0.48261766  1
  C  C83  1  0.33008511  0.22120623  0.01301900  1
  C  C84  1  0.33001339  0.55529519  0.01838327  1
  C  C85  1  0.33628232  0.22349608  0.52063208  1
  C  C86  1  0.33746141  0.55626772  0.51898153  1
  C  C87  1  0.34138359  0.22167799  0.31327596  1
  C  C88  1  0.32607389  0.89003190  0.31574645  1
  C  C89  1  0.33102765  0.88888448  0.81476028  1
  C  C90  1  0.28841584  0.33309164  0.25078799  1
  C  C91  1  0.30104946  0.66504972  0.24597110  1
  C  C92  1  0.70250952  0.23458201  0.25141227  1
  C  C93  1  0.68576300  0.89901301  0.25056943  1
  C  C94  1  0.98947440  0.42837914  0.25087602  1
  C  C95  1  0.99658488  0.76609072  0.24899213  1
  C  C96  1  0.29585978  0.42830627  0.74892244  1
  C  C97  1  0.28241641  0.76284981  0.75221423  1
  C  C98  1  0.99686362  0.57052975  0.74784701  1
  C  C99  1  0.00809816  0.90509314  0.75179346  1
  C  C100  1  0.70905807  0.99790399  0.74963408  1
  C  C101  1  0.71541030  0.33507033  0.74826077  1
  C  C102  1  0.96722200  0.11035980  0.58521397  1
  C  C103  1  0.96968839  0.44401938  0.58055709  1
  C  C104  1  0.36447223  0.34181094  0.58271599  1
  C  C105  1  0.36818274  0.67907991  0.58615936  1
  C  C106  1  0.66748462  0.21283973  0.58831993  1
  C  C107  1  0.66305077  0.54480037  0.58332278  1
  C  C108  1  0.97251925  0.21245580  0.08504397  1
  C  C109  1  0.95591906  0.87488775  0.08503222  1
  C  C110  1  0.66212688  0.34147621  0.07940533  1
  C  C111  1  0.65960047  0.68094264  0.08115709  1
  C  C112  1  0.36398074  0.11056178  0.08477860  1
  C  C113  1  0.36546862  0.44448238  0.08701126  1
  C  C114  1  0.63831629  0.22286599  0.91550082  1
  C  C115  1  0.63439736  0.89006135  0.91684778  1
  C  C116  1  0.02749804  0.12201216  0.91131911  1
  C  C117  1  0.03331857  0.78846215  0.91857734  1
  C  C118  1  0.33082046  0.65544784  0.91402423  1
  C  C119  1  0.34019407  0.99042608  0.91781295  1
  C  C120  1  0.62828781  0.32018412  0.41679480  1
  C  C121  1  0.64014903  0.65516596  0.41595649  1
  C  C122  1  0.34466038  0.12715132  0.41708126  1
  C  C123  1  0.34099189  0.78984761  0.41700778  1
  C  C124  1  0.04690443  0.22220787  0.41565541  1
  C  C125  1  0.03097396  0.89038200  0.42017909  1
  C  C126  1  0.29610504  0.99820908  0.25227683  1
  C  C127  1  0.71190885  0.56580265  0.24785893  1
  C  C128  1  0.01180972  0.10217411  0.25271760  1
  C  C129  1  0.28042087  0.09617664  0.74815578  1
  C  C130  1  0.99112453  0.23729252  0.75231348  1
  C  C131  1  0.71542474  0.66656012  0.75018620  1
  C  C132  1  0.96532623  0.77739084  0.58612783  1
  C  C133  1  0.36996742  0.01386751  0.58634638  1
  C  C134  1  0.67791754  0.87707441  0.58571428  1
  C  C135  1  0.96571174  0.54062983  0.07999737  1
  C  C136  1  0.67001322  0.01299182  0.08732550  1
  C  C137  1  0.38054412  0.77781080  0.08243504  1
  C  C138  1  0.63129311  0.55635223  0.91580281  1
  C  C139  1  0.04124662  0.45624504  0.91329619  1
  C  C140  1  0.33030544  0.32176189  0.91105343  1
  C  C141  1  0.62229823  0.99073787  0.41867000  1
  C  C142  1  0.32144914  0.45466471  0.41575364  1
  C  C143  1  0.03171192  0.55575404  0.41263335  1
  C  C144  1  0.22710561  0.00487853  0.31123724  1
  C  C145  1  0.19932368  0.34663412  0.30774037  1
  C  C146  1  0.18352994  0.66692092  0.30490715  1
  C  C147  1  0.83180337  0.27726193  0.30428667  1
  C  C148  1  0.82639493  0.59895697  0.30321618  1
  C  C149  1  0.77645036  0.91512470  0.31299536  1
  C  C150  1  0.01105746  0.07618852  0.31194541  1
  C  C151  1  0.98288706  0.39630541  0.31483160  1
  C  C152  1  0.96645849  0.71853967  0.30212148  1
  C  C153  1  0.18074413  0.06743264  0.80595976  1
  C  C154  1  0.19752623  0.39255515  0.81027282  1
  C  C155  1  0.16577284  0.71827541  0.80571881  1
  C  C156  1  0.99845827  0.27524193  0.80667963  1
  C  C157  1  0.97727343  0.59812851  0.81104934  1
  C  C158  1  0.02032367  0.94674754  0.80711433  1
  C  C159  1  0.82856953  0.00144673  0.80635263  1
  C  C160  1  0.83801593  0.34262149  0.80729233  1
  C  C161  1  0.80838407  0.65861686  0.80459010  1
  C  C162  1  0.81235126  0.32996908  0.68971234  1
  C  C163  1  0.83411541  0.67505848  0.69627582  1
  C  C164  1  0.80741714  0.99135910  0.68987422  1
  C  C165  1  0.17015517  0.05833766  0.69475345  1
  C  C166  1  0.17231150  0.38719135  0.69663281  1
  C  C167  1  0.18334152  0.73467089  0.68853952  1
  C  C168  1  0.97683756  0.26826013  0.69704654  1
  C  C169  1  0.01147847  0.61436314  0.69416147  1
  C  C170  1  0.02105840  0.94260523  0.69123531  1
  C  C171  1  0.80025367  0.26495382  0.18964636  1
  C  C172  1  0.77901501  0.59942430  0.19092049  1
  C  C173  1  0.80578118  0.94519064  0.19745274  1
  C  C174  1  0.02003692  0.06349277  0.20089797  1
  C  C175  1  0.98658233  0.38383670  0.20142978  1
  C  C176  1  0.05097578  0.75149089  0.18737975  1
  C  C177  1  0.16291785  0.31992792  0.19349300  1
  C  C178  1  0.18382250  0.65661375  0.19145969  1
  C  C179  1  0.16877858  0.99197109  0.19916234  1
  C  C180  1  0.91492248  0.12289195  0.64821015  1
  C  C181  1  0.86354734  0.45477235  0.63566817  1
  C  C182  1  0.87784958  0.77900822  0.64128373  1
  C  C183  1  0.46201896  0.04116752  0.64363424  1
  C  C184  1  0.50486437  0.38140464  0.63626593  1
  C  C185  1  0.44867700  0.69337630  0.65037567  1
  C  C186  1  0.63581568  0.18445946  0.65166668  1
  C  C187  1  0.63616482  0.50078937  0.63909205  1
  C  C188  1  0.65215217  0.84391613  0.64232879  1
  C  C189  1  0.93116800  0.18663468  0.14986479  1
  C  C190  1  0.86696129  0.50137929  0.13576582  1
  C  C191  1  0.83309484  0.82901840  0.13624527  1
  C  C192  1  0.64822312  0.03959768  0.14213193  1
  C  C193  1  0.63901228  0.38186264  0.13216749  1
  C  C194  1  0.64310958  0.70777795  0.14507212  1
  C  C195  1  0.47464480  0.13416481  0.14400317  1
  C  C196  1  0.50127353  0.45751368  0.14371917  1
  C  C197  1  0.46957775  0.76855909  0.13704442  1
  C  C198  1  0.46303538  0.09651192  0.03190268  1
  C  C199  1  0.41758380  0.41924995  0.03304584  1
  C  C200  1  0.49653049  0.78708609  0.02727182  1
  C  C201  1  0.82159082  0.16954689  0.03908688  1
  C  C202  1  0.87402029  0.51422042  0.02272783  1
  C  C203  1  0.85272907  0.84818723  0.02178316  1
  C  C204  1  0.68250709  0.04845257  0.03090003  1
  C  C205  1  0.69629234  0.37190407  0.01728219  1
  C  C206  1  0.67593793  0.72673469  0.02977555  1
  C  C207  1  0.46869199  0.05233678  0.53046652  1
  C  C208  1  0.41976145  0.37344356  0.52082513  1
  C  C209  1  0.48797774  0.72782466  0.53563685  1
  C  C210  1  0.68711082  0.17273399  0.53515317  1
  C  C211  1  0.72359229  0.52774835  0.52440362  1
  C  C212  1  0.69162930  0.84463794  0.52969910  1
  C  C213  1  0.82646307  0.09992783  0.53101855  1
  C  C214  1  0.85830162  0.42487227  0.52154120  1
  C  C215  1  0.86540295  0.77841048  0.52885244  1
  C  C216  1  0.53729296  0.23609858  0.96955620  1
  C  C217  1  0.52316693  0.55860710  0.96968220  1
  C  C218  1  0.57109019  0.89969567  0.97871170  1
  C  C219  1  0.17859635  0.16541837  0.95841011  1
  C  C220  1  0.15637969  0.49058792  0.96769095  1
  C  C221  1  0.13875525  0.80383092  0.97895508  1
  C  C222  1  0.32704304  0.28662142  0.96684253  1
  C  C223  1  0.30429859  0.60691475  0.96533153  1
  C  C224  1  0.27605654  0.95203452  0.97631370  1
  C  C225  1  0.53499900  0.28946765  0.47821995  1
  C  C226  1  0.51908642  0.60637268  0.46595370  1
  C  C227  1  0.55949662  0.95914612  0.47686693  1
  C  C228  1  0.34039760  0.17019592  0.46651769  1
  C  C229  1  0.30573835  0.49027235  0.46797228  1
  C  C230  1  0.28313856  0.80390798  0.47818395  1
  C  C231  1  0.17998291  0.23738365  0.47031039  1
  C  C232  1  0.14329817  0.55820201  0.46673369  1
  C  C233  1  0.14524608  0.90017866  0.47613693  1
  C  C234  1  0.13116516  0.20871676  0.35691678  1
  C  C235  1  0.10359561  0.55051512  0.35373824  1
  C  C236  1  0.14467165  0.88578366  0.36219196  1
  C  C237  1  0.50081452  0.27863180  0.36255959  1
  C  C238  1  0.55703756  0.64026355  0.35222640  1
  C  C239  1  0.49980966  0.95511934  0.36594586  1
  C  C240  1  0.35284387  0.16023514  0.35303422  1
  C  C241  1  0.33108059  0.48238115  0.35654909  1
  C  C242  1  0.37121426  0.83665890  0.36416167  1
  C  C243  1  0.06834471  0.14755126  0.84628959  1
  C  C244  1  0.11827141  0.48703046  0.85537467  1
  C  C245  1  0.14361678  0.83618590  0.86602534  1
  C  C246  1  0.33556150  0.29345922  0.85379069  1
  C  C247  1  0.36603396  0.63952808  0.85016683  1
  C  C248  1  0.36081485  0.95486628  0.86112164  1
  C  C249  1  0.52797986  0.20310599  0.85596185  1
  C  C250  1  0.54508353  0.55182228  0.85698984  1
  C  C251  1  0.50312177  0.88168275  0.86165210  1
  C  C252  1  0.03076686  0.27876416  0.40549586  1
  C  C253  1  0.01710879  0.61078395  0.41430486  1
  C  C254  1  0.99095280  0.94049485  0.41512691  1
  C  C255  1  0.81627195  0.32526055  0.41226844  1
  C  C256  1  0.82798488  0.66017273  0.41651956  1
  C  C257  1  0.80014542  0.00203926  0.40728310  1
  C  C258  1  0.18063493  0.06629115  0.42149881  1
  C  C259  1  0.15626349  0.39561304  0.41998690  1
  C  C260  1  0.17697235  0.72886989  0.39694602  1
  C  C261  1  0.02697119  0.06183881  0.91648563  1
  C  C262  1  0.02907733  0.39696941  0.91531828  1
  C  C263  1  0.00174930  0.72618263  0.90021439  1
  C  C264  1  0.16494349  0.32564250  0.91427615  1
  C  C265  1  0.15135738  0.65770802  0.91615570  1
  C  C266  1  0.18705059  0.00426867  0.90373884  1
  C  C267  1  0.81983678  0.28226322  0.91051147  1
  C  C268  1  0.80674254  0.61265181  0.91898282  1
  C  C269  1  0.83116062  0.94129914  0.90675323  1
  C  C270  1  0.97185953  0.05032076  0.58627154  1
  C  C271  1  0.00422437  0.39249620  0.59631583  1
  C  C272  1  0.96950454  0.72020878  0.58141412  1
  C  C273  1  0.19212428  0.00932224  0.58531137  1
  C  C274  1  0.17559056  0.32976383  0.59821049  1
  C  C275  1  0.17770072  0.67371596  0.58343038  1
  C  C276  1  0.83513354  0.27613403  0.58310318  1
  C  C277  1  0.82092088  0.60753249  0.59996558  1
  C  C278  1  0.84496022  0.93564695  0.58549027  1
  C  C279  1  0.98732714  0.27538579  0.08130259  1
  C  C280  1  0.97720987  0.59751632  0.08652258  1
  C  C281  1  0.96273274  0.93621737  0.09477738  1
  C  C282  1  0.83754035  0.00911916  0.08996749  1
  C  C283  1  0.81649145  0.33015218  0.09572744  1
  C  C284  1  0.82129888  0.67348218  0.07665582  1
  C  C285  1  0.18152369  0.05164585  0.09351088  1
  C  C286  1  0.17573556  0.39371774  0.10502561  1
  C  C287  1  0.20655146  0.72794301  0.07111109  1
  C  C288  1  0.68750688  0.05215432  0.75099576  1
  C  C289  1  0.71003073  0.39476089  0.74263806  1
  C  C290  1  0.69106058  0.71628805  0.75995761  1
  C  C291  1  0.44985416  0.09866810  0.75243733  1
  C  C292  1  0.47955950  0.43042711  0.74497979  1
  C  C293  1  0.46498059  0.76917741  0.75642001  1
  C  C294  1  0.83302683  0.18013722  0.76099818  1
  C  C295  1  0.81983555  0.50961349  0.74102896  1
  C  C296  1  0.83676555  0.84723966  0.75656220  1
  C  C297  1  0.68298426  0.17398879  0.26074027  1
  C  C298  1  0.71759566  0.50926867  0.24635595  1
  C  C299  1  0.65473906  0.83629029  0.23093850  1
  C  C300  1  0.86453223  0.11203204  0.24724532  1
  C  C301  1  0.81830279  0.43349890  0.24189529  1
  C  C302  1  0.82028578  0.76863548  0.24744110  1
  C  C303  1  0.46496981  0.05046572  0.24082656  1
  C  C304  1  0.47294492  0.39017721  0.23947538  1
  C  C305  1  0.47772282  0.72670549  0.24920546  1
  C  C306  1  0.65909733  0.16913697  0.93677192  1
  C  C307  1  0.66834431  0.50824330  0.92217284  1
  C  C308  1  0.64560293  0.83151965  0.91644043  1
  C  C309  1  0.84859951  0.11438648  0.93475216  1
  C  C310  1  0.86387795  0.44782657  0.91814525  1
  C  C311  1  0.85241846  0.78775247  0.92150989  1
  C  C312  1  0.50831330  0.05302126  0.92307426  1
  C  C313  1  0.48763088  0.37980620  0.91293269  1
  C  C314  1  0.48067901  0.71896552  0.93324171  1
  C  C315  1  0.61998264  0.04759236  0.41933552  1
  C  C316  1  0.64794726  0.38112329  0.40818584  1
  C  C317  1  0.66425539  0.71618741  0.43807054  1
  C  C318  1  0.51550248  0.12208972  0.42607311  1
  C  C319  1  0.47785709  0.44909380  0.42261755  1
  C  C320  1  0.51565711  0.78637307  0.42234933  1
  C  C321  1  0.86506014  0.16506012  0.42922178  1
  C  C322  1  0.85312401  0.50487839  0.41835251  1
  C  C323  1  0.85231251  0.82808623  0.42155493  1
  C  C324  1  0.33564748  0.16297893  0.06195158  1
  C  C325  1  0.36727587  0.50424638  0.07558858  1
  C  C326  1  0.37513241  0.83218284  0.09378357  1
  C  C327  1  0.15686624  0.22264011  0.06312270  1
  C  C328  1  0.14460298  0.54522436  0.07875218  1
  C  C329  1  0.13913397  0.88194928  0.08873267  1
  C  C330  1  0.48616543  0.28008937  0.08115769  1
  C  C331  1  0.49009107  0.61824180  0.06937954  1
  C  C332  1  0.51995740  0.95320270  0.08124087  1
  C  C333  1  0.36402642  0.28211234  0.58466001  1
  C  C334  1  0.33655411  0.61692021  0.56338899  1
  C  C335  1  0.35756751  0.95659943  0.58201428  1
  C  C336  1  0.50819720  0.22133432  0.57140109  1
  C  C337  1  0.48977624  0.54894997  0.57551441  1
  C  C338  1  0.53028556  0.88765150  0.57854376  1
  C  C339  1  0.15108240  0.16312589  0.56535684  1
  C  C340  1  0.14579672  0.50438643  0.57447955  1
  C  C341  1  0.14924761  0.82408879  0.58535622  1
  C  C342  1  0.30235077  0.27644903  0.26051608  1
  C  C343  1  0.33871851  0.61422507  0.24910749  1
  C  C344  1  0.30623463  0.94305380  0.25188732  1
  C  C345  1  0.51823676  0.23138135  0.25397560  1
  C  C346  1  0.53217021  0.55316083  0.25777924  1
  C  C347  1  0.49646904  0.89231806  0.25176170  1
  C  C348  1  0.18351787  0.15959855  0.24573323  1
  C  C349  1  0.15353204  0.48899593  0.24468668  1
  C  C350  1  0.15865409  0.82594442  0.27034294  1
  C  C351  1  0.29486295  0.15372922  0.73965517  1
  C  C352  1  0.31722418  0.48954788  0.74590145  1
  C  C353  1  0.29842733  0.82504363  0.76081011  1
  C  C354  1  0.15253696  0.23455018  0.74731932  1
  C  C355  1  0.15728674  0.56235159  0.74366489  1
  C  C356  1  0.18570072  0.90310698  0.75483819  1
  C  C357  1  0.53019790  0.28151013  0.75132459  1
  C  C358  1  0.54934202  0.61177888  0.74002672  1
  C  C359  1  0.52525737  0.93934480  0.75579710  1
