# generated using pymatgen
data_Cu2Ni2C35
_symmetry_space_group_name_H-M   'P 1'
_cell_length_a   17.94691498
_cell_length_b   9.03573573
_cell_length_c   22.43078900
_cell_angle_alpha   89.90924730
_cell_angle_beta   89.70919126
_cell_angle_gamma   120.16617695
_symmetry_Int_Tables_number   1
_chemical_formula_structural   Cu2Ni2C35
_chemical_formula_sum   'Cu12 Ni12 C210'
_cell_volume   3144.76559450
_cell_formula_units_Z   6
loop_
 _symmetry_equiv_pos_site_id
 _symmetry_equiv_pos_as_xyz
  1  'x, y, z'
loop_
 _atom_site_type_symbol
 _atom_site_label
 _atom_site_symmetry_multiplicity
 _atom_site_fract_x
 _atom_site_fract_y
 _atom_site_fract_z
 _atom_site_occupancy
  C  C0  1  0.32106724  0.02152522  0.25281785  1
  C  C1  1  0.81946640  0.02316513  0.24469019  1
  C  C2  1  0.17587997  0.33965674  0.25386307  1
  C  C3  1  0.67711212  0.34405105  0.25381913  1
  C  C4  1  0.82210158  0.62232199  0.75205480  1
  C  C5  1  0.49751235  0.36710679  0.73813824  1
  C  C6  1  0.17634746  0.00808039  0.75385933  1
  C  C7  1  0.67422029  0.01083770  0.75389719  1
  C  C8  1  0.65489379  0.94984725  0.07560347  1
  C  C9  1  0.83073120  0.70065851  0.07039976  1
  C  C10  1  0.00884875  0.34090640  0.08610664  1
  C  C11  1  0.49005851  0.69617752  0.91108336  1
  C  C12  1  0.98953976  0.69408046  0.91273072  1
  C  C13  1  0.16305160  0.29380243  0.90506182  1
  C  C14  1  0.49226954  0.28652102  0.41450868  1
  C  C15  1  0.99182334  0.28552840  0.41466764  1
  C  C16  1  0.16317784  0.03231429  0.40729204  1
  C  C17  1  0.66299510  0.03228361  0.40700043  1
  C  C18  1  0.99078797  0.00494681  0.49508521  1
  C  C19  1  0.49099101  0.00468436  0.49473745  1
  C  C20  1  0.99540581  0.98072810  0.99047434  1
  C  C21  1  0.49359400  0.99145597  0.98907299  1
  C  C22  1  0.33080088  0.35391078  0.82161720  1
  C  C23  1  0.83165273  0.34053012  0.82713884  1
  C  C24  1  0.33809357  0.33800108  0.32461691  1
  C  C25  1  0.83793096  0.33815341  0.32414943  1
  C  C26  1  0.15437292  0.68002096  0.16138759  1
  C  C27  1  0.64976751  0.66319763  0.15950069  1
  C  C28  1  0.15127583  0.62927018  0.66029531  1
  C  C29  1  0.65608440  0.64762204  0.65682837  1
  Ni  Ni30  1  0.00223140  0.01016866  0.35285030  1
  Ni  Ni31  1  0.50111417  0.01044918  0.35332636  1
  Ni  Ni32  1  0.00156705  0.99268216  0.85211302  1
  Ni  Ni33  1  0.50357024  0.99385732  0.85331998  1
  Ni  Ni34  1  0.33779400  0.35268001  0.68598495  1
  Ni  Ni35  1  0.84045006  0.34557415  0.68621019  1
  Ni  Ni36  1  0.33903624  0.33295243  0.18618266  1
  Ni  Ni37  1  0.83873509  0.32790241  0.18553833  1
  Ni  Ni38  1  0.16901064  0.68611242  0.01883681  1
  Ni  Ni39  1  0.66807200  0.67663655  0.01849284  1
  Ni  Ni40  1  0.16643730  0.65169805  0.52021748  1
  Ni  Ni41  1  0.66591316  0.65096798  0.51989327  1
  Cu  Cu42  1  0.00730648  0.01459257  0.64677989  1
  Cu  Cu43  1  0.50465461  0.00893080  0.64639396  1
  Cu  Cu44  1  0.00620646  0.00282239  0.14543336  1
  Cu  Cu45  1  0.50334026  0.99795763  0.14771768  1
  Cu  Cu46  1  0.33659085  0.34307127  0.97728949  1
  Cu  Cu47  1  0.83558242  0.33479804  0.97856654  1
  Cu  Cu48  1  0.33452019  0.32708618  0.48026268  1
  Cu  Cu49  1  0.83463476  0.32603634  0.48019717  1
  Cu  Cu50  1  0.16726018  0.66563578  0.31412059  1
  Cu  Cu51  1  0.66800600  0.66697051  0.31344072  1
  Cu  Cu52  1  0.17028787  0.66933030  0.81205705  1
  Cu  Cu53  1  0.66996510  0.67360501  0.81496720  1
  C  C54  1  0.14749800  0.99873026  0.25323766  1
  C  C55  1  0.64707198  0.99967775  0.25392938  1
  C  C56  1  -0.00012131  0.29610162  0.25238312  1
  C  C57  1  0.49892682  0.29523771  0.25255308  1
  C  C58  1  0.14917627  0.29727501  0.75359727  1
  C  C59  1  0.64727173  0.29387970  0.75224678  1
  C  C60  1  0.99939807  0.70388949  0.75208290  1
  C  C61  1  0.49716582  0.70404794  0.75369055  1
  C  C62  1  0.48265034  0.33797641  0.58816804  1
  C  C63  1  0.98342068  0.33940281  0.58671117  1
  C  C64  1  0.47951569  0.62321046  0.08632255  1
  C  C65  1  0.98240645  0.62553729  0.08463433  1
  C  C66  1  0.83205557  0.03692126  0.08733033  1
  C  C67  1  0.31196603  0.67802998  0.92146872  1
  C  C68  1  0.81424250  0.67076640  0.92125433  1
  C  C69  1  0.16669671  0.95790096  0.91859154  1
  C  C70  1  0.66726523  0.96571867  0.92077322  1
  C  C71  1  0.31245302  0.94799213  0.42136568  1
  C  C72  1  0.81232401  0.94753781  0.42124373  1
  C  C73  1  0.16738777  0.37412111  0.41944015  1
  C  C74  1  0.66739255  0.37452045  0.41936457  1
  C  C75  1  0.35585160  0.71160660  0.25150294  1
  C  C76  1  0.85678294  0.71321121  0.25049192  1
  C  C77  1  0.35591951  0.99387409  0.75100075  1
  C  C78  1  0.85671040  0.00120508  0.75070577  1
  C  C79  1  0.18817437  0.04220050  0.58521078  1
  C  C80  1  0.68743889  0.04141820  0.58554833  1
  C  C81  1  0.33512552  0.62582751  0.58422905  1
  C  C82  1  0.83502398  0.62630474  0.58524452  1
  C  C83  1  0.33435886  0.04327572  0.08557387  1
  C  C84  1  0.19000611  0.33396328  0.08484366  1
  C  C85  1  0.68654777  0.32989579  0.08495488  1
  C  C86  1  0.02159157  0.37781389  0.91774928  1
  C  C87  1  0.52311917  0.37685015  0.91781066  1
  C  C88  1  0.02075894  0.66495045  0.41811531  1
  C  C89  1  0.52105322  0.66476355  0.41809563  1
  C  C90  1  0.10412612  0.02004708  0.31204825  1
  C  C91  1  0.59942133  0.01435044  0.31126932  1
  C  C92  1  0.40669923  0.78987913  0.30407400  1
  C  C93  1  0.90815079  0.79206451  0.30293832  1
  C  C94  1  0.48594175  0.18298876  0.31090221  1
  C  C95  1  0.98828293  0.18234707  0.30985365  1
  C  C96  1  0.10384698  0.18646933  0.81173409  1
  C  C97  1  0.59733658  0.17377339  0.80633689  1
  C  C98  1  0.48809188  0.78690396  0.81336110  1
  C  C99  1  0.98572791  0.78996690  0.81021022  1
  C  C100  1  0.40770333  0.02068930  0.80306500  1
  C  C101  1  0.90714081  0.02447019  0.80371448  1
  C  C102  1  0.39691417  0.97029941  0.69549248  1
  C  C103  1  0.89708162  0.97153615  0.69613891  1
  C  C104  1  0.08295858  0.19654717  0.69374825  1
  C  C105  1  0.58184466  0.19991287  0.69109100  1
  C  C106  1  0.01459733  0.84031447  0.69371340  1
  C  C107  1  0.51320978  0.83847827  0.69480530  1
  C  C108  1  0.39712052  0.82165838  0.19640785  1
  C  C109  1  0.89668002  0.82174029  0.19498690  1
  C  C110  1  0.01675239  0.19772182  0.19219296  1
  C  C111  1  0.51342544  0.18855328  0.19408755  1
  C  C112  1  0.08324474  0.97148544  0.19413794  1
  C  C113  1  0.58390418  0.97108080  0.19258363  1
  C  C114  1  0.43201081  0.33957674  0.64622599  1
  C  C115  1  0.92770907  0.33884341  0.64084677  1
  C  C116  1  0.23754324  0.12756103  0.63784563  1
  C  C117  1  0.73546840  0.12577551  0.63879615  1
  C  C118  1  0.32394415  0.52477729  0.63750670  1
  C  C119  1  0.82354143  0.52856864  0.64005786  1
  C  C120  1  0.42679192  0.51521915  0.14173423  1
  C  C121  1  0.92918969  0.50781945  0.13908531  1
  C  C122  1  0.32296971  0.11807721  0.14039810  1
  C  C123  1  0.81376840  0.11578530  0.14528353  1
  C  C124  1  0.23741775  0.34704314  0.13859298  1
  C  C125  1  0.73489561  0.35216969  0.13957016  1
  C  C126  1  0.23211433  0.30968394  0.02992297  1
  C  C127  1  0.73015231  0.30120011  0.03217946  1
  C  C128  1  0.41975963  0.52722885  0.02401796  1
  C  C129  1  0.92043357  0.53809899  0.02279191  1
  C  C130  1  0.34627888  0.15579210  0.03240341  1
  C  C131  1  0.84918167  0.17440180  0.02981292  1
  C  C132  1  0.23053150  0.15507266  0.52952375  1
  C  C133  1  0.73045931  0.15422477  0.53021914  1
  C  C134  1  0.34599687  0.53662076  0.52998848  1
  C  C135  1  0.84506871  0.53263973  0.53221456  1
  C  C136  1  0.41885521  0.31445283  0.52717607  1
  C  C137  1  0.92109943  0.31330311  0.52377951  1
  C  C138  1  0.25955663  0.66881685  0.97885181  1
  C  C139  1  0.76557884  0.67198087  0.98008105  1
  C  C140  1  0.06975831  0.44726578  0.97251977  1
  C  C141  1  0.57338979  0.45746925  0.97010101  1
  C  C142  1  0.14129599  0.82571361  0.97149584  1
  C  C143  1  0.65124071  0.84561237  0.97693769  1
  C  C144  1  0.25765424  0.84545866  0.47685481  1
  C  C145  1  0.75782662  0.84520566  0.47690263  1
  C  C146  1  0.14206412  0.46118597  0.47003006  1
  C  C147  1  0.64145818  0.45978943  0.47034608  1
  C  C148  1  0.07216586  0.69357353  0.47087609  1
  C  C149  1  0.57228061  0.69321166  0.47093050  1
  C  C150  1  0.06263876  0.63117686  0.36363582  1
  C  C151  1  0.56263802  0.63128819  0.36359587  1
  C  C152  1  0.25047432  0.86537948  0.35868958  1
  C  C153  1  0.74992505  0.86389171  0.35882641  1
  C  C154  1  0.18241211  0.49676965  0.35605973  1
  C  C155  1  0.68188698  0.49689008  0.35614798  1
  C  C156  1  0.06503856  0.49495704  0.86489379  1
  C  C157  1  0.56235251  0.49066039  0.86233145  1
  C  C158  1  0.18215347  0.86726131  0.85634405  1
  C  C159  1  0.67985429  0.86324269  0.85924258  1
  C  C160  1  0.24809564  0.63514780  0.86095997  1
  C  C161  1  0.75151539  0.64289180  0.85986699  1
  C  C162  1  0.00659847  0.80688955  0.40685622  1
  C  C163  1  0.50633194  0.80616530  0.40722705  1
  C  C164  1  0.40848276  0.98442631  0.41319501  1
  C  C165  1  0.90845432  0.98447819  0.41281832  1
  C  C166  1  0.09035467  0.17817334  0.41213298  1
  C  C167  1  0.59045289  0.17824055  0.41195342  1
  C  C168  1  0.00698282  0.20639910  0.90740588  1
  C  C169  1  0.50616844  0.20505466  0.90813765  1
  C  C170  1  0.09043670  0.00257262  0.91167217  1
  C  C171  1  0.58697047  0.99405774  0.91310616  1
  C  C172  1  0.40727263  0.83348100  0.91276435  1
  C  C173  1  0.90886069  0.83387266  0.91269046  1
  C  C174  1  0.48574065  0.15081837  0.58979235  1
  C  C175  1  0.98771242  0.15313949  0.58972191  1
  C  C176  1  0.10049009  0.03232559  0.58672650  1
  C  C177  1  0.59941616  0.03011109  0.58675836  1
  C  C178  1  0.41779454  0.79768270  0.58692092  1
  C  C179  1  0.91729824  0.79777109  0.58710384  1
  C  C180  1  0.48801676  0.82293184  0.09015813  1
  C  C181  1  0.98774424  0.81821395  0.09019518  1
  C  C182  1  0.41635707  0.03363544  0.08883579  1
  C  C183  1  0.92548440  0.03389958  0.09095391  1
  C  C184  1  0.10157620  0.16895889  0.08601835  1
  C  C185  1  0.59979897  0.16224614  0.08756220  1
  C  C186  1  0.33860900  0.13584662  0.74324936  1
  C  C187  1  0.83516316  0.13531100  0.74301837  1
  C  C188  1  0.23891124  0.30293487  0.74135099  1
  C  C189  1  0.74059560  0.31345389  0.74117480  1
  C  C190  1  0.42233671  0.50887798  0.74611289  1
  C  C191  1  0.91687929  0.51773452  0.74457752  1
  C  C192  1  0.33531722  0.53522787  0.24354429  1
  C  C193  1  0.83638494  0.53694328  0.24253262  1
  C  C194  1  0.41658920  0.31684497  0.24483417  1
  C  C195  1  0.91856958  0.32145999  0.24581253  1
  C  C196  1  0.24066847  0.16913549  0.24224437  1
  C  C197  1  0.73908468  0.17309782  0.24542316  1
  C  C198  1  0.32007227  0.48983995  0.92442567  1
  C  C199  1  0.82423543  0.49271482  0.92328641  1
  C  C200  1  0.43554395  0.37066517  0.92142673  1
  C  C201  1  0.93574738  0.37281410  0.92004673  1
  C  C202  1  0.25795451  0.14935884  0.92746795  1
  C  C203  1  0.75956124  0.15294444  0.92491410  1
  C  C204  1  0.32094536  0.15088655  0.42536432  1
  C  C205  1  0.81976162  0.14967784  0.42509826  1
  C  C206  1  0.25860693  0.36610763  0.42637634  1
  C  C207  1  0.75864507  0.36675467  0.42651906  1
  C  C208  1  0.43481058  0.49869896  0.42164874  1
  C  C209  1  0.93440132  0.49986443  0.42140330  1
  C  C210  1  0.17311661  0.47488117  0.07862671  1
  C  C211  1  0.67133905  0.47148725  0.07613876  1
  C  C212  1  0.07451781  0.63663738  0.07854070  1
  C  C213  1  0.57536286  0.65606576  0.07902844  1
  C  C214  1  0.26064916  0.87087436  0.07882835  1
  C  C215  1  0.75508304  0.84307769  0.07948557  1
  C  C216  1  0.17499569  0.87197496  0.57732887  1
  C  C217  1  0.67489872  0.87152926  0.57789339  1
  C  C218  1  0.26208320  0.65235312  0.57721580  1
  C  C219  1  0.76146199  0.65161268  0.57776675  1
  C  C220  1  0.07714910  0.50225940  0.57946546  1
  C  C221  1  0.57598006  0.50222444  0.58032439  1
  C  C222  1  0.15984318  0.82719352  0.25580371  1
  C  C223  1  0.65902396  0.82790766  0.25608988  1
  C  C224  1  0.27013422  0.70999729  0.25403952  1
  C  C225  1  0.77029228  0.70948948  0.25406066  1
  C  C226  1  0.09340674  0.48529748  0.25551339  1
  C  C227  1  0.59239104  0.48331852  0.25527779  1
  C  C228  1  0.15637599  0.48785560  0.75729241  1
  C  C229  1  0.65544466  0.48717143  0.75631626  1
  C  C230  1  0.09264994  0.70228503  0.75572444  1
  C  C231  1  0.59232106  0.70026606  0.75570540  1
  C  C232  1  0.26876834  0.83099398  0.75383130  1
  C  C233  1  0.76983062  0.83087783  0.75426381  1
