# generated using pymatgen
data_Cu10Ni2C5
_symmetry_space_group_name_H-M   'P 1'
_cell_length_a   6.52132422
_cell_length_b   7.21773546
_cell_length_c   9.84716014
_cell_angle_alpha   111.27886960
_cell_angle_beta   96.71608934
_cell_angle_gamma   90.43784901
_symmetry_Int_Tables_number   1
_chemical_formula_structural   Cu10Ni2C5
_chemical_formula_sum   'Cu10 Ni2 C5'
_cell_volume   428.30660071
_cell_formula_units_Z   1
loop_
 _symmetry_equiv_pos_site_id
 _symmetry_equiv_pos_as_xyz
  1  'x, y, z'
loop_
 _atom_site_type_symbol
 _atom_site_label
 _atom_site_symmetry_multiplicity
 _atom_site_fract_x
 _atom_site_fract_y
 _atom_site_fract_z
 _atom_site_occupancy
  C  C0  1  0.71222100  0.21291800  0.42678300  1
  C  C1  1  0.26634800  0.76822400  0.53517600  1
  C  C2  1  0.99488800  0.49084900  0.98172900  1
  C  C3  1  0.49583400  0.78421000  0.98377700  1
  C  C4  1  0.49731500  0.19747100  0.97849100  1
  Ni  Ni5  1  0.70877000  0.61950500  0.23953000  1
  Ni  Ni6  1  0.27937800  0.36231700  0.72330500  1
  Cu  Cu7  1  0.15253700  0.63834700  0.81824400  1
  Cu  Cu8  1  0.23195600  0.25216900  0.50459500  1
  Cu  Cu9  1  0.83916600  0.34488200  0.14664800  1
  Cu  Cu10  1  0.39984000  0.57485600  0.14929800  1
  Cu  Cu11  1  0.83839500  0.79960600  0.14183700  1
  Cu  Cu12  1  0.34940000  0.06229500  0.12859200  1
  Cu  Cu13  1  0.64291900  0.91892400  0.83316600  1
  Cu  Cu14  1  0.59027700  0.40375400  0.80823200  1
  Cu  Cu15  1  0.15330400  0.18260400  0.82275700  1
  Cu  Cu16  1  0.74745300  0.72966300  0.45839600  1
