# generated using pymatgen
data_CuNi3C2
_symmetry_space_group_name_H-M   'P 1'
_cell_length_a   6.17823158
_cell_length_b   6.17823158
_cell_length_c   7.65239367
_cell_angle_alpha   96.69083352
_cell_angle_beta   96.69083352
_cell_angle_gamma   96.58877568
_symmetry_Int_Tables_number   1
_chemical_formula_structural   CuNi3C2
_chemical_formula_sum   'Cu2 Ni6 C4'
_cell_volume   285.68260047
_cell_formula_units_Z   2
loop_
 _symmetry_equiv_pos_site_id
 _symmetry_equiv_pos_as_xyz
  1  'x, y, z'
loop_
 _atom_site_type_symbol
 _atom_site_label
 _atom_site_symmetry_multiplicity
 _atom_site_fract_x
 _atom_site_fract_y
 _atom_site_fract_z
 _atom_site_occupancy
  C  C0  1  0.10550100  0.40182400  0.22066300  1
  C  C1  1  0.40182400  0.10550100  0.72066300  1
  C  C2  1  0.59817600  0.89449900  0.27933800  1
  C  C3  1  0.89449900  0.59817600  0.77933800  1
  Ni  Ni4  1  0.30501600  0.69498400  0.75000000  1
  Ni  Ni5  1  0.69498400  0.30501600  0.25000000  1
  Ni  Ni6  1  0.34147600  0.43279700  0.54011400  1
  Ni  Ni7  1  0.43279700  0.34147600  0.04011400  1
  Ni  Ni8  1  0.65852400  0.56720300  0.45988600  1
  Ni  Ni9  1  0.56720300  0.65852400  0.95988600  1
  Cu  Cu10  1  0.12581200  0.87418800  0.25000000  1
  Cu  Cu11  1  0.87418800  0.12581200  0.75000000  1
