# generated using pymatgen
data_Cu3NiC9
_symmetry_space_group_name_H-M   'P 1'
_cell_length_a   5.94456862
_cell_length_b   5.83155099
_cell_length_c   5.74087423
_cell_angle_alpha   60.50695815
_cell_angle_beta   61.12535490
_cell_angle_gamma   89.50946411
_symmetry_Int_Tables_number   1
_chemical_formula_structural   Cu3NiC9
_chemical_formula_sum   'Cu3 Ni1 C9'
_cell_volume   144.66965275
_cell_formula_units_Z   1
loop_
 _symmetry_equiv_pos_site_id
 _symmetry_equiv_pos_as_xyz
  1  'x, y, z'
loop_
 _atom_site_type_symbol
 _atom_site_label
 _atom_site_symmetry_multiplicity
 _atom_site_fract_x
 _atom_site_fract_y
 _atom_site_fract_z
 _atom_site_occupancy
  C  C0  1  0.50000000  0.50000000  0.50000000  1
  Ni  Ni1  1  0.00000000  0.00000000  0.00000000  1
  Cu  Cu2  1  0.00000000  0.00000000  0.50000000  1
  Cu  Cu3  1  0.00000000  0.50000000  0.00000000  1
  Cu  Cu4  1  0.00000000  0.50000000  0.50000000  1
  C  C5  1  0.21028600  0.25507600  0.01579300  1
  C  C6  1  0.21032400  0.25514000  0.51885100  1
  C  C7  1  0.19307300  0.70536800  0.05074800  1
  C  C8  1  0.20875300  0.71297200  0.53910900  1
  C  C9  1  0.79124700  0.28702800  0.46089100  1
  C  C10  1  0.80692700  0.29463200  0.94925200  1
  C  C11  1  0.78967600  0.74486000  0.48114900  1
  C  C12  1  0.78971400  0.74492400  0.98420700  1
