# generated using pymatgen
data_Cu4Ni2C
_symmetry_space_group_name_H-M   'P 1'
_cell_length_a   6.89855100
_cell_length_b   7.83048700
_cell_length_c   8.46659300
_cell_angle_alpha   90.00000000
_cell_angle_beta   90.00000000
_cell_angle_gamma   90.00000000
_symmetry_Int_Tables_number   1
_chemical_formula_structural   Cu4Ni2C
_chemical_formula_sum   'Cu16 Ni8 C4'
_cell_volume   457.35700516
_cell_formula_units_Z   4
loop_
 _symmetry_equiv_pos_site_id
 _symmetry_equiv_pos_as_xyz
  1  'x, y, z'
loop_
 _atom_site_type_symbol
 _atom_site_label
 _atom_site_symmetry_multiplicity
 _atom_site_fract_x
 _atom_site_fract_y
 _atom_site_fract_z
 _atom_site_occupancy
  C  C0  1  0.39255600  0.54032400  0.03909200  1
  C  C1  1  0.89255600  0.95967600  0.96090800  1
  C  C2  1  0.60744400  0.04032400  0.46090800  1
  C  C3  1  0.10744400  0.45967600  0.53909200  1
  Ni  Ni4  1  0.49311700  0.72251300  0.72609100  1
  Ni  Ni5  1  0.99311700  0.77748700  0.27390900  1
  Ni  Ni6  1  0.50688300  0.22251300  0.77390900  1
  Ni  Ni7  1  0.00688300  0.27748700  0.22609100  1
  Ni  Ni8  1  0.89472000  0.53379700  0.86581700  1
  Ni  Ni9  1  0.39472000  0.96620300  0.13418300  1
  Ni  Ni10  1  0.10528000  0.03379700  0.63418300  1
  Ni  Ni11  1  0.60528000  0.46620300  0.36581700  1
  Cu  Cu12  1  0.37150200  0.33395600  0.76758300  1
  Cu  Cu13  1  0.87150200  0.16604400  0.23241700  1
  Cu  Cu14  1  0.62849800  0.83395600  0.73241700  1
  Cu  Cu15  1  0.12849800  0.66604400  0.26758300  1
  Cu  Cu16  1  0.05064000  0.62126500  0.84080000  1
  Cu  Cu17  1  0.55064000  0.87873500  0.15920000  1
  Cu  Cu18  1  0.94936000  0.12126500  0.65920000  1
  Cu  Cu19  1  0.44936000  0.37873500  0.34080000  1
  Cu  Cu20  1  0.70930500  0.40855000  0.47554100  1
  Cu  Cu21  1  0.20930500  0.09145000  0.52445900  1
  Cu  Cu22  1  0.29069500  0.90855000  0.02445900  1
  Cu  Cu23  1  0.79069500  0.59145000  0.97554100  1
  Cu  Cu24  1  0.40717300  0.71432400  0.59450700  1
  Cu  Cu25  1  0.90717300  0.78567600  0.40549300  1
  Cu  Cu26  1  0.59282700  0.21432400  0.90549300  1
  Cu  Cu27  1  0.09282700  0.28567600  0.09450700  1
