# generated using pymatgen
data_CuNi3C11
_symmetry_space_group_name_H-M   'P 1'
_cell_length_a   6.10063000
_cell_length_b   6.10063038
_cell_length_c   9.50633700
_cell_angle_alpha   90.00000000
_cell_angle_beta   90.00000000
_cell_angle_gamma   119.99999793
_symmetry_Int_Tables_number   1
_chemical_formula_structural   CuNi3C11
_chemical_formula_sum   'Cu1 Ni3 C11'
_cell_volume   306.40316430
_cell_formula_units_Z   1
loop_
 _symmetry_equiv_pos_site_id
 _symmetry_equiv_pos_as_xyz
  1  'x, y, z'
loop_
 _atom_site_type_symbol
 _atom_site_label
 _atom_site_symmetry_multiplicity
 _atom_site_fract_x
 _atom_site_fract_y
 _atom_site_fract_z
 _atom_site_occupancy
  Ni  Ni0  1  0.66666700  0.33333300  0.36976800  1
  Ni  Ni1  1  0.00000000  0.00000000  0.91531400  1
  Ni  Ni2  1  0.33333300  0.66666700  0.61410300  1
  Cu  Cu3  1  0.00000000  0.00000000  0.56034900  1
  C  C4  1  0.00000000  0.00000000  0.27369900  1
  C  C5  1  0.66666700  0.33333300  0.76844900  1
  C  C6  1  0.33333300  0.66666700  0.22572900  1
  C  C7  1  0.17276000  0.34552100  0.32737000  1
  C  C8  1  0.65447900  0.82724000  0.32737000  1
  C  C9  1  0.17276000  0.82724000  0.32737000  1
  C  C10  1  0.82448300  0.64896600  0.68929800  1
  C  C11  1  0.82448300  0.17551700  0.68929800  1
  C  C12  1  0.35103400  0.17551700  0.68929800  1
  C  C13  1  0.66666700  0.33333300  0.95466300  1
  C  C14  1  0.33333300  0.66666700  0.04292400  1
