# generated using pymatgen
data_Cu2Ni2C35
_symmetry_space_group_name_H-M   'P 1'
_cell_length_a   9.12077700
_cell_length_b   9.11122628
_cell_length_c   22.88143533
_cell_angle_alpha   90.07761408
_cell_angle_beta   90.06364135
_cell_angle_gamma   120.00526991
_symmetry_Int_Tables_number   1
_chemical_formula_structural   Cu2Ni2C35
_chemical_formula_sum   'Cu6 Ni6 C105'
_cell_volume   1646.63816375
_cell_formula_units_Z   3
loop_
 _symmetry_equiv_pos_site_id
 _symmetry_equiv_pos_as_xyz
  1  'x, y, z'
loop_
 _atom_site_type_symbol
 _atom_site_label
 _atom_site_symmetry_multiplicity
 _atom_site_fract_x
 _atom_site_fract_y
 _atom_site_fract_z
 _atom_site_occupancy
  C  C0  1  0.64230193  0.00566895  0.25010746  1
  C  C1  1  0.36518362  0.36053468  0.24919671  1
  C  C2  1  0.99361219  0.63291261  0.24885938  1
  C  C3  1  0.99660241  0.36246053  0.74923801  1
  C  C4  1  0.03580683  0.70131529  0.57986018  1
  C  C5  1  0.66252939  0.96300847  0.58010431  1
  C  C6  1  0.97050178  0.66884193  0.91941956  1
  C  C7  1  0.70241661  0.03531359  0.91671741  1
  C  C8  1  0.32758426  0.29801997  0.92027107  1
  C  C9  1  0.00666804  0.00721413  0.49331360  1
  C  C10  1  0.00513603  0.00320416  0.00633623  1
  C  C11  1  0.65753178  0.32988125  0.83088654  1
  C  C12  1  0.66754805  0.33320097  0.33600332  1
  C  C13  1  0.33082569  0.66056419  0.16170086  1
  C  C14  1  0.34313815  0.66338655  0.66441476  1
  Ni  Ni15  1  0.99618983  0.99614316  0.35519955  1
  Ni  Ni16  1  0.00420940  0.00182519  0.84932027  1
  Ni  Ni17  1  0.66757257  0.33649402  0.18346507  1
  Ni  Ni18  1  0.66571164  0.33338751  0.98432701  1
  Ni  Ni19  1  0.32513821  0.66175958  0.02327156  1
  Ni  Ni20  1  0.33340276  0.66322829  0.52008458  1
  Cu  Cu21  1  0.00273063  0.00246519  0.64618590  1
  Cu  Cu22  1  0.00430704  -0.00004034  0.14642949  1
  Cu  Cu23  1  0.66133894  0.33303351  0.68689986  1
  Cu  Cu24  1  0.66861348  0.33194881  0.47764673  1
  Cu  Cu25  1  0.33136087  0.66924184  0.31552230  1
  Cu  Cu26  1  0.33260232  0.67289899  0.80947131  1
  C  C27  1  0.28996236  0.99875770  0.25104516  1
  C  C28  1  0.70808338  0.71097536  0.24978310  1
  C  C29  1  0.00181686  0.29029024  0.25054203  1
  C  C30  1  0.29539595  0.29353130  0.75014600  1
  C  C31  1  0.99771732  0.70729984  0.74943713  1
  C  C32  1  0.70634165  0.99782268  0.74893441  1
  C  C33  1  0.95346882  0.33087737  0.58437757  1
  C  C34  1  0.37733815  0.04965618  0.58241418  1
  C  C35  1  0.66714166  0.62064556  0.58318455  1
  C  C36  1  0.96182681  0.63351603  0.08391398  1
  C  C37  1  0.36735594  0.33060685  0.08380682  1
  C  C38  1  0.04235063  0.37594077  0.91502474  1
  C  C39  1  0.33377794  0.95770868  0.91655133  1
  C  C40  1  0.62545100  0.96114038  0.41893495  1
  C  C41  1  0.03897394  0.66499817  0.41903354  1
  C  C42  1  0.67166791  0.03819847  0.08382361  1
  C  C43  1  0.61844876  0.66668999  0.91550168  1
  C  C44  1  0.33919884  0.37872436  0.41620968  1
  C  C45  1  0.20726206  0.03976554  0.30627661  1
  C  C46  1  0.83202917  0.79338513  0.30573993  1
  C  C47  1  0.96275027  0.16797603  0.30630844  1
  C  C48  1  0.21501115  0.18418282  0.80951407  1
  C  C49  1  0.96970400  0.78675620  0.80880917  1
  C  C50  1  0.82381931  0.03625382  0.80707252  1
  C  C51  1  0.80240490  0.97244701  0.69165584  1
  C  C52  1  0.16298341  0.19323368  0.69510724  1
  C  C53  1  0.02472770  0.82890217  0.69244370  1
  C  C54  1  0.79933423  0.83809257  0.19354856  1
  C  C55  1  0.03642740  0.19903438  0.19370576  1
  C  C56  1  0.16300827  0.96234737  0.19387920  1
  C  C57  1  0.86311988  0.35710154  0.64261784  1
  C  C58  1  0.50098521  0.14256496  0.63943000  1
  C  C59  1  0.64772202  0.50331489  0.64073084  1
  C  C60  1  0.87262665  0.51888251  0.14175805  1
  C  C61  1  0.64804303  0.12357856  0.13871753  1
  C  C62  1  0.47954772  0.34889467  0.14180949  1
  C  C63  1  0.45461833  0.30270292  0.02436361  1
  C  C64  1  0.84873262  0.54329889  0.02444699  1
  C  C65  1  0.69431700  0.14892976  0.02832453  1
  C  C66  1  0.47070285  0.16864216  0.52560053  1
  C  C67  1  0.70016922  0.52980458  0.52679338  1
  C  C68  1  0.82736532  0.29849682  0.52770090  1
  C  C69  1  0.54164089  0.69866055  0.96948299  1
  C  C70  1  0.16736184  0.46335863  0.97014780  1
  C  C71  1  0.30402721  0.83708125  0.97158826  1
  C  C72  1  0.53685425  0.84996405  0.47725371  1
  C  C73  1  0.31604757  0.46618895  0.47014258  1
  C  C74  1  0.14903967  0.68402765  0.47736787  1
  C  C75  1  0.13768082  0.64010364  0.36037578  1
  C  C76  1  0.50321200  0.85906830  0.36035915  1
  C  C77  1  0.35895429  0.48800726  0.36025398  1
  C  C78  1  0.13753747  0.49500806  0.85619777  1
  C  C79  1  0.35899443  0.85882267  0.85833725  1
  C  C80  1  0.50540261  0.64062855  0.86067484  1
  C  C81  1  0.02312585  0.83297163  0.41307268  1
  C  C82  1  0.81274495  0.98531933  0.41301349  1
  C  C83  1  0.18073879  0.20195851  0.41133608  1
  C  C84  1  0.01608081  0.18411393  0.91083459  1
  C  C85  1  0.16423316  0.97608940  0.91136790  1
  C  C86  1  0.79842089  0.82347079  0.90886327  1
  C  C87  1  0.96279785  0.15503848  0.59066406  1
  C  C88  1  0.18645766  0.02464288  0.59107893  1
  C  C89  1  0.84197539  0.80906485  0.59069819  1
  C  C90  1  0.97206331  0.81842592  0.09046105  1
  C  C91  1  0.83441363  0.02716893  0.08914680  1
  C  C92  1  0.17912732  0.15915526  0.09060317  1
  C  C93  1  0.69198924  0.16919745  0.74122376  1
  C  C94  1  0.48244640  0.31535501  0.74179290  1
  C  C95  1  0.83797828  0.51382878  0.74256172  1
  C  C96  1  0.68127489  0.51980432  0.24386452  1
  C  C97  1  0.83841416  0.31702879  0.24376122  1
  C  C98  1  0.48176671  0.15706738  0.24355030  1
  C  C99  1  0.63435125  0.50428684  0.91965440  1
  C  C100  1  0.85637587  0.36301886  0.91933639  1
  C  C101  1  0.50523193  0.14512784  0.91886994  1
  C  C102  1  0.63292735  0.14622749  0.42253287  1
  C  C103  1  0.50194745  0.36749638  0.42137622  1
  C  C104  1  0.85183185  0.49047227  0.42326110  1
  C  C105  1  0.35350856  0.50045086  0.07957765  1
  C  C106  1  0.14990655  0.65638337  0.07978484  1
  C  C107  1  0.51536406  0.86301254  0.07776268  1
  C  C108  1  0.35811309  0.86109165  0.57992944  1
  C  C109  1  0.50721524  0.65194516  0.58122842  1
  C  C110  1  0.13697308  0.50172677  0.58047940  1
  C  C111  1  0.30197327  0.82278913  0.25778878  1
  C  C112  1  0.51912281  0.69353592  0.25753425  1
  C  C113  1  0.17545638  0.47884331  0.25765349  1
  C  C114  1  0.30294090  0.47729107  0.75525830  1
  C  C115  1  0.16856517  0.68630018  0.75518732  1
  C  C116  1  0.51973176  0.82746430  0.75610273  1
