# generated using pymatgen
data_Cu(NiC18)2
_symmetry_space_group_name_H-M   'P 1'
_cell_length_a   8.85748691
_cell_length_b   8.83931340
_cell_length_c   22.31436425
_cell_angle_alpha   90.03754422
_cell_angle_beta   89.88064671
_cell_angle_gamma   119.90247762
_symmetry_Int_Tables_number   1
_chemical_formula_structural   Cu(NiC18)2
_chemical_formula_sum   'Cu3 Ni6 C108'
_cell_volume   1514.49958753
_cell_formula_units_Z   3
loop_
 _symmetry_equiv_pos_site_id
 _symmetry_equiv_pos_as_xyz
  1  'x, y, z'
loop_
 _atom_site_type_symbol
 _atom_site_label
 _atom_site_symmetry_multiplicity
 _atom_site_fract_x
 _atom_site_fract_y
 _atom_site_fract_z
 _atom_site_occupancy
  C  C0  1  0.00373754  0.63610599  0.25277690  1
  C  C1  1  0.63210401  0.64201577  0.75312704  1
  C  C2  1  0.36490669  0.99547292  0.75361317  1
  C  C3  1  0.66357056  0.97010680  0.58503074  1
  C  C4  1  0.29588290  0.96974868  0.08441100  1
  C  C5  1  0.67603948  0.70020848  0.08298269  1
  C  C6  1  0.02761782  0.33062728  0.08568412  1
  C  C7  1  0.96707492  0.29922597  0.41520633  1
  C  C8  1  0.33697207  0.03525490  0.41762014  1
  C  C9  1  0.00376134  0.98911562  0.49814629  1
  C  C10  1  0.00020885  0.99623196  0.99887605  1
  C  C11  1  0.67816105  0.33045386  0.84058907  1
  C  C12  1  0.65670194  0.33532364  0.33698269  1
  C  C13  1  0.34131446  0.66722203  0.17419891  1
  C  C14  1  0.31659614  0.65397377  0.66980949  1
  C  C15  1  0.99671811  0.00270462  0.85624208  1
  C  C16  1  0.00491844  0.00055153  0.64648701  1
  C  C17  1  0.66902781  0.32857475  0.68620233  1
  C  C18  1  0.66533861  0.33028487  0.18937992  1
  C  C19  1  0.33056783  0.66713022  0.01620273  1
  C  C20  1  0.33188309  0.66617896  0.51821502  1
  Ni  Ni21  1  0.99484996  0.99579637  0.34998695  1
  Ni  Ni22  1  0.99775754  0.99405738  0.15282730  1
  Ni  Ni23  1  0.67237110  0.34186387  0.97933357  1
  Ni  Ni24  1  0.66188387  0.33974566  0.48203478  1
  Ni  Ni25  1  0.34108227  0.66603961  0.31560858  1
  Ni  Ni26  1  0.33418968  0.66811854  0.81843126  1
  Cu  Cu27  1  0.69945243  0.99487278  0.75101673  1
  Cu  Cu28  1  0.37398454  0.04529083  0.57898329  1
  Cu  Cu29  1  0.95460677  0.62787027  0.08370410  1
  C  C30  1  0.28617555  0.99467506  0.25290102  1
  C  C31  1  0.70664508  0.71631198  0.25090034  1
  C  C32  1  0.00726575  0.28933509  0.25127562  1
  C  C33  1  0.28969077  0.29877418  0.75159524  1
  C  C34  1  0.00507450  0.70680421  0.75245635  1
  C  C35  1  0.95602688  0.33436342  0.57929276  1
  C  C36  1  0.66817773  0.62227400  0.58167750  1
  C  C37  1  0.67182184  0.04687760  0.08183791  1
  C  C38  1  0.37519824  0.32818044  0.08234265  1
  C  C39  1  0.62401848  0.65673971  0.91563372  1
  C  C40  1  0.03681367  0.37918350  0.91560438  1
  C  C41  1  0.34441526  0.97060082  0.91575461  1
  C  C42  1  0.62989860  0.95953905  0.41389425  1
  C  C43  1  0.33545175  0.37349978  0.41282558  1
  C  C44  1  0.03511570  0.66532066  0.41312977  1
  C  C45  1  0.20279962  0.02311375  0.30895603  1
  C  C46  1  0.83113476  0.79829562  0.30394473  1
  C  C47  1  0.97829095  0.18010159  0.30780670  1
  C  C48  1  0.21030694  0.17507353  0.80522132  1
  C  C49  1  0.97384815  0.79499881  0.80655498  1
  C  C50  1  0.82757815  0.02352528  0.80651231  1
  C  C51  1  0.78277209  0.96081454  0.68998573  1
  C  C52  1  0.17996548  0.20999573  0.69525105  1
  C  C53  1  0.03771920  0.82442309  0.69635611  1
  C  C54  1  0.78324209  0.81757703  0.19149451  1
  C  C55  1  0.02829297  0.20605474  0.19307194  1
  C  C56  1  0.17592633  0.96359318  0.19505069  1
  C  C57  1  0.87189157  0.36194432  0.63567561  1
  C  C58  1  0.49212554  0.12849159  0.63967186  1
  C  C59  1  0.64425732  0.52112036  0.64035567  1
  C  C60  1  0.87514174  0.50615951  0.14395356  1
  C  C61  1  0.63014348  0.12382710  0.13772501  1
  C  C62  1  0.49169075  0.36310064  0.13812222  1
  C  C63  1  0.45413270  0.28912840  0.02762884  1
  C  C64  1  0.82495990  0.53802382  0.02779839  1
  C  C65  1  0.70335770  0.16233733  0.02715404  1
  C  C66  1  0.46543897  0.15651940  0.51890008  1
  C  C67  1  0.69900232  0.53876012  0.52674982  1
  C  C68  1  0.84535759  0.30393019  0.52271459  1
  C  C69  1  0.53985773  0.68425396  0.97306846  1
  C  C70  1  0.14399053  0.45941571  0.97441118  1
  C  C71  1  0.31590732  0.85554560  0.97285998  1
  C  C72  1  0.54925919  0.85232278  0.47199427  1
  C  C73  1  0.30169986  0.45636335  0.46876077  1
  C  C74  1  0.15767418  0.69842289  0.46752647  1
  C  C75  1  0.11592672  0.62894897  0.35684414  1
  C  C76  1  0.50309549  0.87091048  0.36145849  1
  C  C77  1  0.36117858  0.48754826  0.35784307  1
  C  C78  1  0.13143329  0.49460573  0.86158236  1
  C  C79  1  0.36477978  0.88152676  0.85920332  1
  C  C80  1  0.51596665  0.63842099  0.85923800  1
  C  C81  1  0.02522690  0.83480690  0.40860623  1
  C  C82  1  0.81447679  0.98212434  0.40811324  1
  C  C83  1  0.16808447  0.18840796  0.40878057  1
  C  C84  1  0.02505961  0.19818644  0.91248681  1
  C  C85  1  0.17707680  0.98395165  0.91261286  1
  C  C86  1  0.80703926  0.82296033  0.91286976  1
  C  C87  1  0.96589094  0.16519947  0.58694898  1
  C  C88  1  0.18064468  0.02110016  0.58483286  1
  C  C89  1  0.82631258  0.81020063  0.58629451  1
  C  C90  1  0.98066617  0.82532460  0.09128494  1
  C  C91  1  0.83493907  0.02759150  0.09027565  1
  C  C92  1  0.18912244  0.17098726  0.09098345  1
  C  C93  1  0.67332527  0.16586528  0.74842711  1
  C  C94  1  0.47542842  0.32126340  0.74421070  1
  C  C95  1  0.83531408  0.53094172  0.74529053  1
  C  C96  1  0.69218885  0.53160264  0.24564971  1
  C  C97  1  0.84165533  0.31179365  0.24671479  1
  C  C98  1  0.46913552  0.15790231  0.24674921  1
  C  C99  1  0.63778922  0.49120006  0.92059283  1
  C  C100  1  0.85560457  0.35898310  0.92128337  1
  C  C101  1  0.50846984  0.14883370  0.92310315  1
  C  C102  1  0.65056031  0.14530368  0.41875711  1
  C  C103  1  0.49682523  0.35004889  0.41884829  1
  C  C104  1  0.85645010  0.49802341  0.42226084  1
  C  C105  1  0.35986015  0.49629291  0.07708346  1
  C  C106  1  0.15131944  0.65000313  0.07836043  1
  C  C107  1  0.50998761  0.85987470  0.07680011  1
  C  C108  1  0.36376030  0.85357644  0.57638923  1
  C  C109  1  0.50480535  0.64331018  0.57575335  1
  C  C110  1  0.13991847  0.49329015  0.57541027  1
  C  C111  1  0.30046697  0.82631809  0.25777939  1
  C  C112  1  0.52490517  0.69602541  0.25756148  1
  C  C113  1  0.16591520  0.47756904  0.25536050  1
  C  C114  1  0.31079849  0.48022366  0.75805119  1
  C  C115  1  0.16773310  0.68943667  0.75827906  1
  C  C116  1  0.50606004  0.82039997  0.75758173  1
