# generated using pymatgen
data_Cu5NiC13
_symmetry_space_group_name_H-M   'P 1'
_cell_length_a   5.16798225
_cell_length_b   5.06228585
_cell_length_c   10.05426768
_cell_angle_alpha   93.92568172
_cell_angle_beta   97.56611219
_cell_angle_gamma   59.34081011
_symmetry_Int_Tables_number   1
_chemical_formula_structural   Cu5NiC13
_chemical_formula_sum   'Cu5 Ni1 C13'
_cell_volume   224.29896182
_cell_formula_units_Z   1
loop_
 _symmetry_equiv_pos_site_id
 _symmetry_equiv_pos_as_xyz
  1  'x, y, z'
loop_
 _atom_site_type_symbol
 _atom_site_label
 _atom_site_symmetry_multiplicity
 _atom_site_fract_x
 _atom_site_fract_y
 _atom_site_fract_z
 _atom_site_occupancy
  Ni  Ni0  1  0.22359600  0.35095900  0.74310200  1
  Cu  Cu1  1  0.17564700  0.68032500  0.49788700  1
  Cu  Cu2  1  0.64627700  0.67965400  0.99719000  1
  Cu  Cu3  1  0.31985300  0.34236100  0.01187000  1
  Cu  Cu4  1  0.84058000  0.35024900  0.49175200  1
  Cu  Cu5  1  0.50612700  0.01967000  0.49767400  1
  C  C6  1  0.98504800  0.00494400  0.00097200  1
  C  C7  1  0.02856200  0.64928900  0.10471200  1
  C  C8  1  0.28480000  0.63596300  0.88901200  1
  C  C9  1  0.18279400  0.34944600  0.40173400  1
  C  C10  1  0.47681200  0.68579600  0.41125100  1
  C  C11  1  0.49502600  0.34943300  0.60527900  1
  C  C12  1  0.19932800  0.03194200  0.59494400  1
  C  C13  1  0.88048900  0.66982200  0.59470300  1
  C  C14  1  0.65032600  0.36978600  0.09721700  1
  C  C15  1  0.36442600  0.00562300  0.10041300  1
  C  C16  1  0.97986400  0.35004700  0.89662300  1
  C  C17  1  0.59074100  0.02353900  0.89658500  1
  C  C18  1  0.81345400  0.01365200  0.41082900  1
