# generated using pymatgen
data_Cu2Ni2C31
_symmetry_space_group_name_H-M   'P 1'
_cell_length_a   8.72186312
_cell_length_b   8.71591341
_cell_length_c   22.56459611
_cell_angle_alpha   89.95046193
_cell_angle_beta   90.11134781
_cell_angle_gamma   119.97586047
_symmetry_Int_Tables_number   1
_chemical_formula_structural   Cu2Ni2C31
_chemical_formula_sum   'Cu6 Ni6 C93'
_cell_volume   1485.88478400
_cell_formula_units_Z   3
loop_
 _symmetry_equiv_pos_site_id
 _symmetry_equiv_pos_as_xyz
  1  'x, y, z'
loop_
 _atom_site_type_symbol
 _atom_site_label
 _atom_site_symmetry_multiplicity
 _atom_site_fract_x
 _atom_site_fract_y
 _atom_site_fract_z
 _atom_site_occupancy
  C  C0  1  0.98499490  0.00010003  0.99962027  1
  C  C1  1  0.68145907  0.34955296  0.83586153  1
  C  C2  1  0.65419601  0.32537595  0.34299731  1
  Ni  Ni3  1  0.99167254  0.99416742  0.85725713  1
  Ni  Ni4  1  0.99311801  0.99392801  0.14819490  1
  Ni  Ni5  1  0.68149893  0.34068045  0.68513570  1
  Ni  Ni6  1  0.67539253  0.33687675  0.97713894  1
  Ni  Ni7  1  0.66763041  0.32420577  0.48062234  1
  Ni  Ni8  1  0.34699573  0.67385868  0.30979232  1
  Cu  Cu9  1  0.99844272  0.99579457  0.35624980  1
  Cu  Cu10  1  0.00091117  0.99859546  0.64465905  1
  Cu  Cu11  1  0.66057964  0.32430533  0.19112712  1
  Cu  Cu12  1  0.33946600  0.66637643  0.02471224  1
  Cu  Cu13  1  0.33390480  0.65847921  0.51750139  1
  Cu  Cu14  1  0.32623380  0.65979479  0.81061763  1
  C  C15  1  0.27770936  0.99031532  0.24834718  1
  C  C16  1  0.71146533  0.71321236  0.24776295  1
  C  C17  1  0.99225687  0.71020614  0.75335343  1
  C  C18  1  0.95383221  0.33637272  0.58349020  1
  C  C19  1  0.67667195  0.05242892  0.08028882  1
  C  C20  1  0.62266661  0.66435509  0.91662939  1
  C  C21  1  0.04290738  0.37402137  0.91766987  1
  C  C22  1  0.61920681  0.95901819  0.41367476  1
  C  C23  1  0.34013198  0.37783317  0.41239003  1
  C  C24  1  0.00483396  0.29053170  0.24960927  1
  C  C25  1  0.29122740  0.28440223  0.75142048  1
  C  C26  1  0.71167430  0.00282138  0.75149979  1
  C  C27  1  0.38017081  0.04324625  0.58402277  1
  C  C28  1  0.66480512  0.62005441  0.58358099  1
  C  C29  1  0.95338487  0.62340424  0.08168293  1
  C  C30  1  0.37704020  0.32710595  0.08197572  1
  C  C31  1  0.33343483  0.95461514  0.91678809  1
  C  C32  1  0.04360808  0.66242466  0.41473842  1
  C  C33  1  0.19643816  0.03378998  0.30477081  1
  C  C34  1  0.83669410  0.80089282  0.30444981  1
  C  C35  1  0.96333290  0.17158308  0.30324561  1
  C  C36  1  0.20789541  0.18081306  0.80373166  1
  C  C37  1  0.97484360  0.80270174  0.80643678  1
  C  C38  1  0.82133204  0.03217021  0.80326669  1
  C  C39  1  0.79627660  0.97341790  0.69711355  1
  C  C40  1  0.17685701  0.20329371  0.69695581  1
  C  C41  1  0.02238617  0.82916420  0.69590630  1
  C  C42  1  0.79692325  0.82018969  0.19368154  1
  C  C43  1  0.02524664  0.21114764  0.19612497  1
  C  C44  1  0.18144957  0.98371177  0.19280081  1
  C  C45  1  0.88446030  0.37165274  0.63954847  1
  C  C46  1  0.48293465  0.11789551  0.63779519  1
  C  C47  1  0.63056391  0.51513537  0.63702424  1
  C  C48  1  0.87306271  0.51138954  0.13564229  1
  C  C49  1  0.64394831  0.14028120  0.13733616  1
  C  C50  1  0.49062170  0.36128844  0.13635210  1
  C  C51  1  0.46030094  0.30751330  0.02929536  1
  C  C52  1  0.84644936  0.54290458  0.02905889  1
  C  C53  1  0.69271331  0.15992664  0.02643874  1
  C  C54  1  0.44838897  0.15218597  0.53159335  1
  C  C55  1  0.70034639  0.55011992  0.53071787  1
  C  C56  1  0.84406100  0.29585721  0.52873848  1
  C  C57  1  0.52109179  0.68413973  0.97228325  1
  C  C58  1  0.16224680  0.47899897  0.97214807  1
  C  C59  1  0.31136632  0.84189916  0.97033502  1
  C  C60  1  0.52872298  0.83822982  0.47151908  1
  C  C61  1  0.30740949  0.46705573  0.47094590  1
  C  C62  1  0.15720068  0.69320489  0.46999421  1
  C  C63  1  0.12406614  0.63716447  0.36296048  1
  C  C64  1  0.50537880  0.87128335  0.36141424  1
  C  C65  1  0.35709654  0.48945527  0.36029756  1
  C  C66  1  0.14411307  0.49559605  0.86086782  1
  C  C67  1  0.35486386  0.86321290  0.86256006  1
  C  C68  1  0.50393767  0.65063009  0.86105167  1
  C  C69  1  0.03564493  0.83192964  0.41079452  1
  C  C70  1  0.80426149  0.96708682  0.40699699  1
  C  C71  1  0.16447936  0.19297346  0.40684185  1
  C  C72  1  0.04157998  0.20137570  0.91241929  1
  C  C73  1  0.17259121  0.96442747  0.91219526  1
  C  C74  1  0.79848536  0.83399495  0.91456788  1
  C  C75  1  0.98648246  0.17366688  0.59775890  1
  C  C76  1  0.19397102  0.01870285  0.59458175  1
  C  C77  1  0.82236796  0.80640722  0.59383544  1
  C  C78  1  0.98600223  0.80341325  0.08865998  1
  C  C79  1  0.82956693  0.02057008  0.08909105  1
  C  C80  1  0.19903018  0.17867657  0.09001410  1
  C  C81  1  0.68087937  0.15055077  0.74204383  1
  C  C82  1  0.46701194  0.30948206  0.74129805  1
  C  C83  1  0.83779335  0.52624822  0.74430851  1
  C  C84  1  0.70384920  0.52441671  0.24031985  1
  C  C85  1  0.83310408  0.30189973  0.24367809  1
  C  C86  1  0.47279627  0.17093678  0.24233188  1
  C  C87  1  0.62432768  0.49286648  0.92028537  1
  C  C88  1  0.86699056  0.36796717  0.91833687  1
  C  C89  1  0.49457426  0.12521464  0.92029698  1
  C  C90  1  0.65217803  0.14415326  0.42367119  1
  C  C91  1  0.49661645  0.35432830  0.42564135  1
  C  C92  1  0.86575081  0.51513968  0.42492999  1
  C  C93  1  0.36400133  0.49562503  0.07660878  1
  C  C94  1  0.13281410  0.63458200  0.07430769  1
  C  C95  1  0.49881425  0.86403213  0.07321591  1
  C  C96  1  0.34866237  0.86009097  0.57430535  1
  C  C97  1  0.51047826  0.65076416  0.57476092  1
  C  C98  1  0.14647939  0.49650726  0.57062107  1
  C  C99  1  0.30745130  0.83995726  0.26042918  1
  C  C100  1  0.52821755  0.67474829  0.25907752  1
  C  C101  1  0.14844724  0.46578047  0.26031436  1
  C  C102  1  0.30434416  0.46516407  0.75627996  1
  C  C103  1  0.16949320  0.69972724  0.75963972  1
  C  C104  1  0.53525024  0.83490073  0.75739099  1
