# generated using pymatgen
data_Cu3NiC2
_symmetry_space_group_name_H-M   'P 1'
_cell_length_a   3.78055200
_cell_length_b   5.70954136
_cell_length_c   8.08804439
_cell_angle_alpha   109.77727575
_cell_angle_beta   102.61162005
_cell_angle_gamma   89.97958862
_symmetry_Int_Tables_number   1
_chemical_formula_structural   Cu3NiC2
_chemical_formula_sum   'Cu6 Ni2 C4'
_cell_volume   159.80604352
_cell_formula_units_Z   2
loop_
 _symmetry_equiv_pos_site_id
 _symmetry_equiv_pos_as_xyz
  1  'x, y, z'
loop_
 _atom_site_type_symbol
 _atom_site_label
 _atom_site_symmetry_multiplicity
 _atom_site_fract_x
 _atom_site_fract_y
 _atom_site_fract_z
 _atom_site_occupancy
  C  C0  1  0.96526800  0.83161100  0.66985600  1
  C  C1  1  0.03473200  0.16838900  0.33014400  1
  C  C2  1  0.51560800  0.29867900  0.96544700  1
  C  C3  1  0.48439200  0.70132100  0.03455300  1
  Ni  Ni4  1  0.61644000  0.38851900  0.76211400  1
  Ni  Ni5  1  0.38356000  0.61148100  0.23788600  1
  Cu  Cu6  1  0.56876300  0.21591000  0.83968800  1
  Cu  Cu7  1  0.56557400  0.61643400  0.84382300  1
  Cu  Cu8  1  0.43123700  0.78409000  0.16031200  1
  Cu  Cu9  1  0.43442600  0.38356600  0.15617700  1
  Cu  Cu10  1  0.70896100  0.30467100  0.61281600  1
  Cu  Cu11  1  0.29103900  0.69532900  0.38718400  1
