# generated using pymatgen
data_Cu2Ni5C32
_symmetry_space_group_name_H-M   'P 1'
_cell_length_a   9.08749309
_cell_length_b   9.08969915
_cell_length_c   22.83520038
_cell_angle_alpha   90.00423148
_cell_angle_beta   89.93420352
_cell_angle_gamma   120.41191377
_symmetry_Int_Tables_number   1
_chemical_formula_structural   Cu2Ni5C32
_chemical_formula_sum   'Cu6 Ni15 C96'
_cell_volume   1626.71346066
_cell_formula_units_Z   3
loop_
 _symmetry_equiv_pos_site_id
 _symmetry_equiv_pos_as_xyz
  1  'x, y, z'
loop_
 _atom_site_type_symbol
 _atom_site_label
 _atom_site_symmetry_multiplicity
 _atom_site_fract_x
 _atom_site_fract_y
 _atom_site_fract_z
 _atom_site_occupancy
  Ni  Ni0  1  0.00060798  0.64441067  0.24953349  1
  Ni  Ni1  1  0.62800518  0.63122164  0.74802188  1
  Ni  Ni2  1  0.37025439  -0.00009406  0.75166619  1
  Ni  Ni3  1  0.66871250  0.96901823  0.58464319  1
  Ni  Ni4  1  0.30251965  0.97205831  0.08290633  1
  Ni  Ni5  1  0.67403166  0.69778093  0.08027771  1
  Ni  Ni6  1  0.03001380  0.33269299  0.08310709  1
  Ni  Ni7  1  0.96508317  0.30126961  0.41793775  1
  Ni  Ni8  1  0.34175539  0.03858780  0.41987839  1
  Ni  Ni9  1  0.00477782  0.98889137  0.50480781  1
  Ni  Ni10  1  0.00126074  0.99169664  0.99239337  1
  Ni  Ni11  1  0.68055588  0.33813773  0.83538153  1
  Ni  Ni12  1  0.65098994  0.33236052  0.32923336  1
  Ni  Ni13  1  0.34592479  0.66786523  0.16772637  1
  Ni  Ni14  1  0.31429823  0.64668195  0.66322023  1
  Cu  Cu15  1  0.99351337  0.99491066  0.35009953  1
  Cu  Cu16  1  0.00146064  0.00335861  0.15315480  1
  Cu  Cu17  1  0.66641224  0.33687794  0.97763828  1
  Cu  Cu18  1  0.66291062  0.34341194  0.49035790  1
  Cu  Cu19  1  0.34543116  0.66755569  0.31387505  1
  Cu  Cu20  1  0.32576894  0.66028285  0.81055415  1
  C  C21  1  0.98915233  0.00132276  0.85212910  1
  C  C22  1  0.00503481  0.00075346  0.64899006  1
  C  C23  1  0.67099357  0.32179243  0.68174889  1
  C  C24  1  0.67025534  0.33261788  0.18114793  1
  C  C25  1  0.32304830  0.66614597  0.01150564  1
  C  C26  1  0.33270246  0.66875154  0.52216769  1
  C  C27  1  0.72349536  0.01436813  0.74700112  1
  C  C28  1  0.36106588  0.02870981  0.58402005  1
  C  C29  1  0.96882104  0.62812093  0.08289221  1
  C  C30  1  0.31642802  0.01224638  0.24854007  1
  C  C31  1  0.69554331  0.68033136  0.24411301  1
  C  C32  1  0.98571641  0.30534301  0.24807865  1
  C  C33  1  0.28664470  0.27525846  0.74849931  1
  C  C34  1  0.98744514  0.71505173  0.74879138  1
  C  C35  1  0.96769988  0.33252208  0.58486672  1
  C  C36  1  0.66644416  0.63487114  0.58929930  1
  C  C37  1  0.65790753  0.03645340  0.08310360  1
  C  C38  1  0.37993342  0.34344865  0.08383020  1
  C  C39  1  0.63097417  0.68094846  0.91446557  1
  C  C40  1  0.04427737  0.36181233  0.91575568  1
  C  C41  1  0.31625351  0.95298394  0.91346482  1
  C  C42  1  0.62592820  0.95922838  0.42321540  1
  C  C43  1  0.33162308  0.37634805  0.42166051  1
  C  C44  1  0.04865475  0.66763701  0.41957065  1
  C  C45  1  0.23239372  0.03447341  0.30482515  1
  C  C46  1  0.81417987  0.76909015  0.29754444  1
  C  C47  1  0.96742757  0.19988632  0.30383955  1
  C  C48  1  0.19897727  0.16622576  0.80407396  1
  C  C49  1  0.96528013  0.80334074  0.80417989  1
  C  C50  1  0.84077517  0.03153253  0.80616795  1
  C  C51  1  0.82067557  0.99141858  0.69156346  1
  C  C52  1  0.17608326  0.18308722  0.69465034  1
  C  C53  1  0.00985813  0.82867070  0.69519332  1
  C  C54  1  0.77654698  0.78382638  0.18826357  1
  C  C55  1  0.01158649  0.22557141  0.19282140  1
  C  C56  1  0.20133752  0.98160990  0.19487484  1
  C  C57  1  0.86279884  0.35808922  0.63563730  1
  C  C58  1  0.50580652  0.13882632  0.63804356  1
  C  C59  1  0.64193619  0.51458178  0.64182959  1
  C  C60  1  0.87129269  0.50023870  0.14109678  1
  C  C61  1  0.63404763  0.13035255  0.13701773  1
  C  C62  1  0.49878440  0.36400744  0.13692960  1
  C  C63  1  0.44634150  0.29810674  0.03018234  1
  C  C64  1  0.84165228  0.54534928  0.02956735  1
  C  C65  1  0.69303455  0.14643660  0.02968703  1
  C  C66  1  0.42843159  0.13173215  0.52374132  1
  C  C67  1  0.70659714  0.57143857  0.53328156  1
  C  C68  1  0.86028538  0.29028720  0.52884722  1
  C  C69  1  0.53098009  0.69488226  0.96977554  1
  C  C70  1  0.15882083  0.46325513  0.97201228  1
  C  C71  1  0.30333765  0.83203945  0.96878022  1
  C  C72  1  0.52723460  0.84923765  0.47842547  1
  C  C73  1  0.32425978  0.48230002  0.47483182  1
  C  C74  1  0.16794147  0.67854985  0.47216434  1
  C  C75  1  0.12271497  0.65004047  0.36160534  1
  C  C76  1  0.52155864  0.87957619  0.36818318  1
  C  C77  1  0.34504183  0.46854520  0.36473357  1
  C  C78  1  0.12608178  0.46898607  0.86205194  1
  C  C79  1  0.33990893  0.87542199  0.85762198  1
  C  C80  1  0.53303096  0.66099559  0.85796313  1
  C  C81  1  0.04503858  0.83616884  0.42025259  1
  C  C82  1  0.80440819  0.97721937  0.42115774  1
  C  C83  1  0.16169996  0.19978929  0.42169518  1
  C  C84  1  0.04030294  0.18863680  0.91197857  1
  C  C85  1  0.14923092  0.95776989  0.91249924  1
  C  C86  1  0.80940761  0.84936332  0.91097253  1
  C  C87  1  0.98381860  0.17399704  0.59675946  1
  C  C88  1  0.17412886  0.00266103  0.59851619  1
  C  C89  1  0.81898456  0.82034376  0.59791640  1
  C  C90  1  0.00768388  0.82274388  0.08917098  1
  C  C91  1  0.81218204  0.01014331  0.09082686  1
  C  C92  1  0.19468815  0.19460577  0.09190269  1
  C  C93  1  0.70192290  0.18552925  0.73918690  1
  C  C94  1  0.46599848  0.28980900  0.74261209  1
  C  C95  1  0.82396185  0.53756189  0.74227270  1
  C  C96  1  0.68753024  0.50604009  0.23912908  1
  C  C97  1  0.82078891  0.31651150  0.24222124  1
  C  C98  1  0.49203913  0.17255267  0.23945811  1
  C  C99  1  0.65562066  0.52762526  0.91975905  1
  C  C100  1  0.86528062  0.33324276  0.92207335  1
  C  C101  1  0.47224752  0.12859548  0.92133642  1
  C  C102  1  0.64752751  0.13919024  0.42697970  1
  C  C103  1  0.48295965  0.34536920  0.42404252  1
  C  C104  1  0.87379621  0.50606256  0.42611878  1
  C  C105  1  0.37507242  0.51225773  0.07826596  1
  C  C106  1  0.15575546  0.63504066  0.07316149  1
  C  C107  1  0.49141480  0.85823803  0.07801979  1
  C  C108  1  0.35652767  0.84317501  0.57851744  1
  C  C109  1  0.50437362  0.65261786  0.58204755  1
  C  C110  1  0.14385924  0.49613423  0.57959863  1
  C  C111  1  0.32834510  0.84936744  0.25208295  1
  C  C112  1  0.51775825  0.65586086  0.24922413  1
  C  C113  1  0.13655414  0.49025095  0.25143081  1
  C  C114  1  0.31525760  0.45733552  0.74910597  1
  C  C115  1  0.15157684  0.70514894  0.75044402  1
  C  C116  1  0.53291816  0.84575252  0.74864882  1
