# generated using pymatgen
data_Cu4Ni2C5
_symmetry_space_group_name_H-M   'P 1'
_cell_length_a   8.41353847
_cell_length_b   8.41353847
_cell_length_c   6.64482872
_cell_angle_alpha   79.25011936
_cell_angle_beta   79.25011936
_cell_angle_gamma   38.53647326
_symmetry_Int_Tables_number   1
_chemical_formula_structural   Cu4Ni2C5
_chemical_formula_sum   'Cu8 Ni4 C10'
_cell_volume   287.27001100
_cell_formula_units_Z   2
loop_
 _symmetry_equiv_pos_site_id
 _symmetry_equiv_pos_as_xyz
  1  'x, y, z'
loop_
 _atom_site_type_symbol
 _atom_site_label
 _atom_site_symmetry_multiplicity
 _atom_site_fract_x
 _atom_site_fract_y
 _atom_site_fract_z
 _atom_site_occupancy
  C  C0  1  0.17163800  0.82836200  0.25000000  1
  C  C1  1  0.82836200  0.17163800  0.75000000  1
  Ni  Ni2  1  0.81953400  0.45334500  0.29046100  1
  Ni  Ni3  1  0.54665500  0.18046600  0.20953900  1
  Ni  Ni4  1  0.18046600  0.54665500  0.70953900  1
  Ni  Ni5  1  0.45334500  0.81953400  0.79046100  1
  Cu  Cu6  1  0.89686800  0.51702200  0.39195400  1
  Cu  Cu7  1  0.48297800  0.10313200  0.10804600  1
  Cu  Cu8  1  0.10313200  0.48297800  0.60804600  1
  Cu  Cu9  1  0.51702200  0.89686800  0.89195400  1
  Cu  Cu10  1  0.95018200  0.38937900  0.09340400  1
  Cu  Cu11  1  0.61062100  0.04981800  0.40659600  1
  Cu  Cu12  1  0.04981800  0.61062100  0.90659600  1
  Cu  Cu13  1  0.38937900  0.95018200  0.59340400  1
  C  C14  1  0.31135600  0.46672200  0.22917100  1
  C  C15  1  0.53327800  0.68864400  0.27082900  1
  C  C16  1  0.20693200  0.92957600  0.89926700  1
  C  C17  1  0.07042400  0.79306800  0.60073300  1
  C  C18  1  0.79306800  0.07042400  0.10073300  1
  C  C19  1  0.92957600  0.20693200  0.39926700  1
  C  C20  1  0.46672200  0.31135600  0.72917100  1
  C  C21  1  0.68864400  0.53327800  0.77082900  1
