# generated using pymatgen
data_Cu12Ni3C2
_symmetry_space_group_name_H-M   'P 1'
_cell_length_a   9.11512541
_cell_length_b   9.11512510
_cell_length_c   22.95156923
_cell_angle_alpha   90.00000000
_cell_angle_beta   90.00000000
_cell_angle_gamma   120.00000117
_symmetry_Int_Tables_number   1
_chemical_formula_structural   Cu12Ni3C2
_chemical_formula_sum   'Cu72 Ni18 C12'
_cell_volume   1651.46088703
_cell_formula_units_Z   6
loop_
 _symmetry_equiv_pos_site_id
 _symmetry_equiv_pos_as_xyz
  1  'x, y, z'
loop_
 _atom_site_type_symbol
 _atom_site_label
 _atom_site_symmetry_multiplicity
 _atom_site_fract_x
 _atom_site_fract_y
 _atom_site_fract_z
 _atom_site_occupancy
  C  C0  1  0.00000000  0.00000000  0.36009264  1
  C  C1  1  0.00000000  0.00000000  0.86009264  1
  C  C2  1  0.66666700  0.33333300  0.69342564  1
  C  C3  1  0.66666700  0.33333300  0.19342564  1
  C  C4  1  0.33333300  0.66666700  0.02675964  1
  C  C5  1  0.33333300  0.66666700  0.52675964  1
  C  C6  1  0.00000000  0.00000000  0.64593868  1
  C  C7  1  0.00000000  0.00000000  0.14593868  1
  C  C8  1  0.66666700  0.33333300  0.97927168  1
  C  C9  1  0.66666700  0.33333300  0.47927168  1
  C  C10  1  0.33333300  0.66666700  0.31260568  1
  C  C11  1  0.33333300  0.66666700  0.81260568  1
  Ni  Ni12  1  0.27731982  0.98165290  0.25046514  1
  Ni  Ni13  1  0.70433308  0.72268018  0.25046514  1
  Ni  Ni14  1  0.01834710  0.29566692  0.25046514  1
  Ni  Ni15  1  0.27731982  0.29566692  0.75046514  1
  Ni  Ni16  1  0.01834710  0.72268018  0.75046514  1
  Ni  Ni17  1  0.70433308  0.98165290  0.75046514  1
  Ni  Ni18  1  0.94398682  0.31498590  0.58379814  1
  Ni  Ni19  1  0.37100008  0.05601318  0.58379814  1
  Ni  Ni20  1  0.68501410  0.62899992  0.58379814  1
  Ni  Ni21  1  0.94398682  0.62899992  0.08379814  1
  Ni  Ni22  1  0.68501410  0.05601318  0.08379814  1
  Ni  Ni23  1  0.37100008  0.31498590  0.08379814  1
  Ni  Ni24  1  0.61065282  0.64831990  0.91713214  1
  Ni  Ni25  1  0.03766608  0.38934718  0.91713214  1
  Ni  Ni26  1  0.35168010  0.96233392  0.91713214  1
  Ni  Ni27  1  0.61065282  0.96233392  0.41713214  1
  Ni  Ni28  1  0.35168010  0.38934718  0.41713214  1
  Ni  Ni29  1  0.03766608  0.64831990  0.41713214  1
  Cu  Cu30  1  0.20462972  0.01219466  0.30176143  1
  Cu  Cu31  1  0.80756494  0.79537028  0.30176143  1
  Cu  Cu32  1  0.98780534  0.19243506  0.30176143  1
  Cu  Cu33  1  0.20462972  0.19243506  0.80176143  1
  Cu  Cu34  1  0.98780534  0.79537028  0.80176143  1
  Cu  Cu35  1  0.80756494  0.01219466  0.80176143  1
  Cu  Cu36  1  0.79094029  0.95409364  0.69813157  1
  Cu  Cu37  1  0.16315335  0.20905971  0.69813157  1
  Cu  Cu38  1  0.04590636  0.83684665  0.69813157  1
  Cu  Cu39  1  0.79094029  0.83684665  0.19813157  1
  Cu  Cu40  1  0.04590636  0.20905971  0.19813157  1
  Cu  Cu41  1  0.16315335  0.95409364  0.19813157  1
  Cu  Cu42  1  0.87129672  0.34552766  0.63509443  1
  Cu  Cu43  1  0.47423194  0.12870328  0.63509443  1
  Cu  Cu44  1  0.65447234  0.52576806  0.63509443  1
  Cu  Cu45  1  0.87129672  0.52576806  0.13509443  1
  Cu  Cu46  1  0.65447234  0.12870328  0.13509443  1
  Cu  Cu47  1  0.47423194  0.34552766  0.13509443  1
  Cu  Cu48  1  0.45760729  0.28742664  0.03146457  1
  Cu  Cu49  1  0.82982035  0.54239271  0.03146457  1
  Cu  Cu50  1  0.71257336  0.17017965  0.03146457  1
  Cu  Cu51  1  0.45760729  0.17017965  0.53146457  1
  Cu  Cu52  1  0.71257336  0.54239271  0.53146457  1
  Cu  Cu53  1  0.82982035  0.28742664  0.53146457  1
  Cu  Cu54  1  0.53796272  0.67886166  0.96842843  1
  Cu  Cu55  1  0.14089794  0.46203728  0.96842843  1
  Cu  Cu56  1  0.32113834  0.85910206  0.96842843  1
  Cu  Cu57  1  0.53796272  0.85910206  0.46842843  1
  Cu  Cu58  1  0.32113834  0.46203728  0.46842843  1
  Cu  Cu59  1  0.14089794  0.67886166  0.46842843  1
  Cu  Cu60  1  0.12427329  0.62076064  0.36479857  1
  Cu  Cu61  1  0.49648635  0.87572671  0.36479857  1
  Cu  Cu62  1  0.37923936  0.50351365  0.36479857  1
  Cu  Cu63  1  0.12427329  0.50351365  0.86479857  1
  Cu  Cu64  1  0.37923936  0.87572671  0.86479857  1
  Cu  Cu65  1  0.49648635  0.62076064  0.86479857  1
  Cu  Cu66  1  0.00393465  0.78474818  0.40596377  1
  Cu  Cu67  1  0.78081352  0.99606535  0.40596377  1
  Cu  Cu68  1  0.21525182  0.21918648  0.40596377  1
  Cu  Cu69  1  0.00393465  0.21918648  0.90596377  1
  Cu  Cu70  1  0.21525182  0.99606535  0.90596377  1
  Cu  Cu71  1  0.78081352  0.78474818  0.90596377  1
  Cu  Cu72  1  0.94907034  0.15198332  0.59166765  1
  Cu  Cu73  1  0.20291298  0.05092966  0.59166765  1
  Cu  Cu74  1  0.84801668  0.79708702  0.59166765  1
  Cu  Cu75  1  0.94907034  0.79708702  0.09166765  1
  Cu  Cu76  1  0.84801668  0.05092966  0.09166765  1
  Cu  Cu77  1  0.20291298  0.15198332  0.09166765  1
  Cu  Cu78  1  0.67060165  0.11808118  0.73929677  1
  Cu  Cu79  1  0.44748052  0.32939835  0.73929677  1
  Cu  Cu80  1  0.88191882  0.55251948  0.73929677  1
  Cu  Cu81  1  0.67060165  0.55251948  0.23929677  1
  Cu  Cu82  1  0.88191882  0.32939835  0.23929677  1
  Cu  Cu83  1  0.44748052  0.11808118  0.23929677  1
  Cu  Cu84  1  0.61573734  0.48531632  0.92500065  1
  Cu  Cu85  1  0.86957998  0.38426266  0.92500065  1
  Cu  Cu86  1  0.51468368  0.13042002  0.92500065  1
  Cu  Cu87  1  0.61573734  0.13042002  0.42500065  1
  Cu  Cu88  1  0.51468368  0.38426266  0.42500065  1
  Cu  Cu89  1  0.86957998  0.48531632  0.42500065  1
  Cu  Cu90  1  0.33726765  0.45141518  0.07263077  1
  Cu  Cu91  1  0.11414652  0.66273235  0.07263077  1
  Cu  Cu92  1  0.54858482  0.88585348  0.07263077  1
  Cu  Cu93  1  0.33726765  0.88585348  0.57263077  1
  Cu  Cu94  1  0.54858482  0.66273235  0.57263077  1
  Cu  Cu95  1  0.11414652  0.45141518  0.57263077  1
  Cu  Cu96  1  0.28240334  0.81865032  0.25833465  1
  Cu  Cu97  1  0.53624598  0.71759666  0.25833465  1
  Cu  Cu98  1  0.18134968  0.46375402  0.25833465  1
  Cu  Cu99  1  0.28240334  0.46375402  0.75833465  1
  Cu  Cu100  1  0.18134968  0.71759666  0.75833465  1
  Cu  Cu101  1  0.53624598  0.81865032  0.75833465  1
