# generated using pymatgen
data_Cu2Ni7C32
_symmetry_space_group_name_H-M   'P 1'
_cell_length_a   18.69591527
_cell_length_b   9.33641703
_cell_length_c   22.77563281
_cell_angle_alpha   89.99111615
_cell_angle_beta   89.94218169
_cell_angle_gamma   119.96572436
_symmetry_Int_Tables_number   1
_chemical_formula_structural   Cu2Ni7C32
_chemical_formula_sum   'Cu12 Ni42 C192'
_cell_volume   3444.11469383
_cell_formula_units_Z   6
loop_
 _symmetry_equiv_pos_site_id
 _symmetry_equiv_pos_as_xyz
  1  'x, y, z'
loop_
 _atom_site_type_symbol
 _atom_site_label
 _atom_site_symmetry_multiplicity
 _atom_site_fract_x
 _atom_site_fract_y
 _atom_site_fract_z
 _atom_site_occupancy
  Ni  Ni0  1  0.82442896  0.01591494  0.25981356  1
  Ni  Ni1  1  0.17154479  0.34559034  0.25634616  1
  Ni  Ni2  1  0.69462644  0.36901575  0.25544538  1
  Ni  Ni3  1  0.99681389  0.62953607  0.24304412  1
  Ni  Ni4  1  0.49797475  0.65149400  0.24693986  1
  Ni  Ni5  1  0.32237189  0.63193564  0.75413612  1
  Ni  Ni6  1  0.99679005  0.34293784  0.73503959  1
  Ni  Ni7  1  0.50009551  0.36845128  0.73834138  1
  Ni  Ni8  1  0.19216116  0.01838785  0.74792776  1
  Ni  Ni9  1  0.67864309  0.00260136  0.74668256  1
  Ni  Ni10  1  0.14369739  0.31162409  0.57983704  1
  Ni  Ni11  1  0.65638269  0.32903569  0.58160401  1
  Ni  Ni12  1  0.33564918  0.99921477  0.58947229  1
  Ni  Ni13  1  0.83368911  0.97568806  0.58330436  1
  Ni  Ni14  1  0.14682359  0.98017238  0.07866892  1
  Ni  Ni15  1  0.64800109  0.97870561  0.07661051  1
  Ni  Ni16  1  0.33428486  0.67630557  0.08147166  1
  Ni  Ni17  1  0.83611208  0.67451179  0.09049233  1
  Ni  Ni18  1  0.47987420  0.67855958  0.91548859  1
  Ni  Ni19  1  0.97763820  0.68106397  0.93012009  1
  Ni  Ni20  1  0.33981810  0.01675104  0.90120631  1
  Ni  Ni21  1  0.83937066  0.01413771  0.90404875  1
  Ni  Ni22  1  0.17629270  0.29544438  0.90714314  1
  Ni  Ni23  1  0.67104851  0.28649559  0.90778506  1
  Ni  Ni24  1  0.48334593  0.28226240  0.43521029  1
  Ni  Ni25  1  0.97818412  0.27656311  0.42279876  1
  Ni  Ni26  1  0.16858862  0.05466809  0.41330081  1
  Ni  Ni27  1  0.67804063  0.05692216  0.41681367  1
  Ni  Ni28  1  0.34197798  0.66804470  0.40948109  1
  Ni  Ni29  1  0.84179125  0.66481750  0.42166889  1
  Ni  Ni30  1  0.99551177  0.99110654  0.50382446  1
  Ni  Ni31  1  0.51038348  0.01885914  0.50552479  1
  Ni  Ni32  1  0.00493911  0.99570617  0.00270755  1
  Ni  Ni33  1  0.50686897  0.99797548  0.99745039  1
  Ni  Ni34  1  0.32884060  0.33768745  0.82323452  1
  Ni  Ni35  1  0.81553104  0.32696963  0.82646156  1
  Ni  Ni36  1  0.31428942  0.29686326  0.33435936  1
  Ni  Ni37  1  0.82731315  0.31794564  0.33144331  1
  Ni  Ni38  1  0.14987098  0.64164725  0.16756705  1
  Ni  Ni39  1  0.66255701  0.65517920  0.16774314  1
  Ni  Ni40  1  0.15990210  0.66841970  0.66560144  1
  Ni  Ni41  1  0.66008863  0.66116360  0.66311169  1
  Cu  Cu42  1  0.00136130  0.00812244  0.35051810  1
  Cu  Cu43  1  0.50082086  0.00380186  0.35135515  1
  Cu  Cu44  1  0.99985189  0.99805127  0.84945083  1
  Cu  Cu45  1  0.50161387  0.99455578  0.84892995  1
  Cu  Cu46  1  0.33610469  0.32944433  0.68087053  1
  Cu  Cu47  1  0.83567086  0.34270557  0.18176694  1
  Cu  Cu48  1  0.33083615  0.33817446  0.98429350  1
  Cu  Cu49  1  0.82630690  0.33640595  0.98490023  1
  Cu  Cu50  1  0.32750016  0.31809582  0.48518257  1
  Cu  Cu51  1  0.83165275  0.33449191  0.48766186  1
  Cu  Cu52  1  0.67425281  0.67591689  0.31511252  1
  Cu  Cu53  1  0.17243146  0.67012942  0.81296921  1
  C  C54  1  0.99624483  0.00196119  0.64771320  1
  C  C55  1  0.50765941  0.01052595  0.65456113  1
  C  C56  1  0.00654774  0.00503467  0.15406002  1
  C  C57  1  0.50081478  0.99187415  0.14959386  1
  C  C58  1  0.82876141  0.32716515  0.67815041  1
  C  C59  1  0.33058503  0.34342752  0.18278097  1
  C  C60  1  0.16685062  0.66898343  0.01976217  1
  C  C61  1  0.66556190  0.66551322  0.02026132  1
  C  C62  1  0.16498328  0.66524451  0.51983384  1
  C  C63  1  0.67242327  0.66404121  0.52181177  1
  C  C64  1  0.17570592  0.67149418  0.30891973  1
  C  C65  1  0.67638343  0.68253668  0.80816208  1
  C  C66  1  0.15473877  0.00252464  0.25080985  1
  C  C67  1  0.64863241  0.99450288  0.25037829  1
  C  C68  1  0.35169616  0.69794041  0.24994948  1
  C  C69  1  0.85162379  0.70460246  0.24909827  1
  C  C70  1  0.00100901  0.30154733  0.25391909  1
  C  C71  1  0.14764195  0.29914725  0.75065124  1
  C  C72  1  0.65514404  0.30773728  0.75246092  1
  C  C73  1  0.50108237  0.70045100  0.75474972  1
  C  C74  1  0.35101261  0.99943294  0.74999070  1
  C  C75  1  0.85257935  0.01514242  0.75217924  1
  C  C76  1  0.48835607  0.32652422  0.58234236  1
  C  C77  1  0.98663157  0.33900818  0.58478319  1
  C  C78  1  0.17570433  0.01952016  0.58440089  1
  C  C79  1  0.67851286  0.02342851  0.58206205  1
  C  C80  1  0.83666844  0.63737908  0.57863915  1
  C  C81  1  0.48670857  0.63604467  0.08474250  1
  C  C82  1  0.98944770  0.64970519  0.08245043  1
  C  C83  1  0.17929114  0.33549721  0.08251879  1
  C  C84  1  0.67361391  0.32942056  0.08435163  1
  C  C85  1  0.31829260  0.67300458  0.92014406  1
  C  C86  1  0.81066941  0.66625639  0.91808353  1
  C  C87  1  0.16659448  0.96361079  0.91581789  1
  C  C88  1  0.66822880  0.95973626  0.91767716  1
  C  C89  1  0.31073805  0.95665549  0.41766188  1
  C  C90  1  0.81845778  0.96904453  0.41868843  1
  C  C91  1  0.16855019  0.37692513  0.41692305  1
  C  C92  1  0.66655152  0.36732632  0.41396607  1
  C  C93  1  0.49318457  0.29112567  0.24714719  1
  C  C94  1  0.99400200  0.69469695  0.74854462  1
  C  C95  1  0.33376135  0.64500127  0.58168477  1
  C  C96  1  0.33403803  0.03359364  0.08277607  1
  C  C97  1  0.83411506  0.02340343  0.08150610  1
  C  C98  1  0.02075550  0.37457984  0.91950132  1
  C  C99  1  0.52514879  0.38327454  0.91601159  1
  C  C100  1  0.02578490  0.66475302  0.41394733  1
  C  C101  1  0.52017294  0.66520756  0.41811714  1
  C  C102  1  0.12292663  0.05219752  0.31019394  1
  C  C103  1  0.61019442  0.02363566  0.31075085  1
  C  C104  1  0.40620770  0.77103327  0.30923993  1
  C  C105  1  0.90310821  0.79039728  0.30891458  1
  C  C106  1  0.48439553  0.20631756  0.30382270  1
  C  C107  1  0.98834046  0.20578128  0.31613345  1
  C  C108  1  0.11221440  0.20167928  0.81363001  1
  C  C109  1  0.62016508  0.19840845  0.81255517  1
  C  C110  1  0.48691568  0.76649349  0.81774978  1
  C  C111  1  0.98656074  0.76237980  0.80612058  1
  C  C112  1  0.39903324  0.01231049  0.81163001  1
  C  C113  1  0.90361414  0.04137933  0.81324016  1
  C  C114  1  0.40554267  0.99071217  0.69444831  1
  C  C115  1  0.90425084  0.99818393  0.69740538  1
  C  C116  1  0.08776965  0.17663856  0.69802650  1
  C  C117  1  0.59214935  0.20581687  0.69737216  1
  C  C118  1  0.99942243  0.80580356  0.70058596  1
  C  C119  1  0.51472488  0.83989285  0.70469133  1
  C  C120  1  0.39973466  0.81306522  0.19297110  1
  C  C121  1  0.90382433  0.81873259  0.19157378  1
  C  C122  1  0.01529540  0.19229514  0.20259814  1
  C  C123  1  0.49789491  0.19046282  0.19838143  1
  C  C124  1  0.09245925  0.97949286  0.19520330  1
  C  C125  1  0.58841540  0.99352343  0.19572719  1
  C  C126  1  0.44643150  0.34970832  0.64116200  1
  C  C127  1  0.93680811  0.35455510  0.64193071  1
  C  C128  1  0.23853868  0.10368098  0.63972331  1
  C  C129  1  0.74380231  0.12537545  0.63703864  1
  C  C130  1  0.32198466  0.54039881  0.63346040  1
  C  C131  1  0.82194336  0.49486736  0.62753015  1
  C  C132  1  0.43598369  0.51657531  0.14095612  1
  C  C133  1  0.94725115  0.54307257  0.14112591  1
  C  C134  1  0.32496014  0.13023340  0.13088337  1
  C  C135  1  0.82242810  0.10387979  0.13324106  1
  C  C136  1  0.24650755  0.36067002  0.13581972  1
  C  C137  1  0.73498078  0.36456571  0.13986966  1
  C  C138  1  0.21730894  0.29690187  0.02391445  1
  C  C139  1  0.71270433  0.28310938  0.02716155  1
  C  C140  1  0.43297665  0.55762954  0.02551323  1
  C  C141  1  0.93138320  0.56036454  0.02447674  1
  C  C142  1  0.34631882  0.11987395  0.02620683  1
  C  C143  1  0.84150562  0.11700638  0.02740065  1
  C  C144  1  0.21544229  0.14156030  0.52677713  1
  C  C145  1  0.71524744  0.13941359  0.52374848  1
  C  C146  1  0.34187928  0.56689585  0.52761296  1
  C  C147  1  0.85205590  0.58021201  0.51511425  1
  C  C148  1  0.42810842  0.29406556  0.52523090  1
  C  C149  1  0.93393720  0.30924357  0.52518347  1
  C  C150  1  0.26311320  0.67307042  0.97768122  1
  C  C151  1  0.76132642  0.67199881  0.97758576  1
  C  C152  1  0.07461344  0.47392647  0.96970180  1
  C  C153  1  0.57390156  0.47918303  0.96801965  1
  C  C154  1  0.16375401  0.84569392  0.97187723  1
  C  C155  1  0.66345773  0.85221377  0.97701845  1
  C  C156  1  0.26105602  0.85109626  0.47667435  1
  C  C157  1  0.76113434  0.85241165  0.47383617  1
  C  C158  1  0.16471516  0.47845034  0.47525092  1
  C  C159  1  0.66393040  0.48206307  0.46850872  1
  C  C160  1  0.07457361  0.66766591  0.46612296  1
  C  C161  1  0.57379265  0.67300294  0.46713339  1
  C  C162  1  0.06759243  0.65719695  0.35948475  1
  C  C163  1  0.55369434  0.64783055  0.36111757  1
  C  C164  1  0.25378873  0.85297850  0.36102929  1
  C  C165  1  0.76748714  0.88965686  0.35730347  1
  C  C166  1  0.17070946  0.48383133  0.35826573  1
  C  C167  1  0.66485807  0.45278767  0.35154059  1
  C  C168  1  0.05548886  0.46422874  0.86402219  1
  C  C169  1  0.56385613  0.47564288  0.86151942  1
  C  C170  1  0.16818797  0.87521855  0.85446802  1
  C  C171  1  0.67020425  0.85460881  0.86023895  1
  C  C172  1  0.26452847  0.64852642  0.86045976  1
  C  C173  1  0.75305749  0.65516285  0.86212190  1
  C  C174  1  0.02192637  0.81986674  0.41579136  1
  C  C175  1  0.51464904  0.81939066  0.41938639  1
  C  C176  1  0.40151845  0.96983189  0.41660337  1
  C  C177  1  0.90656456  0.96869715  0.42231552  1
  C  C178  1  0.08854687  0.19024583  0.42039519  1
  C  C179  1  0.58220515  0.18370473  0.42107432  1
  C  C180  1  0.01766170  0.21250684  0.92071711  1
  C  C181  1  0.52212558  0.22124737  0.91771682  1
  C  C182  1  0.08309251  0.98049528  0.92105805  1
  C  C183  1  0.58770086  0.98532105  0.92008762  1
  C  C184  1  0.40656521  0.84790412  0.92277516  1
  C  C185  1  0.90199974  0.83400571  0.91711133  1
  C  C186  1  0.49633627  0.15729407  0.58779744  1
  C  C187  1  0.99573281  0.17114992  0.59244634  1
  C  C188  1  0.08505247  0.00305231  0.59346289  1
  C  C189  1  0.58822649  0.00591746  0.59380687  1
  C  C190  1  0.40534142  0.81339522  0.58772797  1
  C  C191  1  0.90966775  0.82494090  0.59366939  1
  C  C192  1  0.49151475  0.82008918  0.09123362  1
  C  C193  1  0.99751613  0.83549335  0.08628985  1
  C  C194  1  0.40286774  0.00139576  0.09264538  1
  C  C195  1  0.90600249  0.99846605  0.08682650  1
  C  C196  1  0.08903457  0.17288751  0.09292892  1
  C  C197  1  0.58036547  0.16649541  0.09186518  1
  C  C198  1  0.34062854  0.16348301  0.74848201  1
  C  C199  1  0.84252030  0.18023418  0.74415027  1
  C  C200  1  0.24254406  0.33652871  0.74418325  1
  C  C201  1  0.74520277  0.32311078  0.73973927  1
  C  C202  1  0.41932600  0.52211119  0.74427118  1
  C  C203  1  0.92155040  0.52627038  0.74229763  1
  C  C204  1  0.34259631  0.51108382  0.24216813  1
  C  C205  1  0.84051260  0.51919932  0.24735584  1
  C  C206  1  0.42044765  0.31404035  0.24013408  1
  C  C207  1  0.91939506  0.31670743  0.24396196  1
  C  C208  1  0.24661061  0.16328844  0.23660454  1
  C  C209  1  0.74255630  0.14657039  0.24346936  1
  C  C210  1  0.33182227  0.51179801  0.92040305  1
  C  C211  1  0.82040310  0.50012347  0.91688048  1
  C  C212  1  0.44000994  0.35715015  0.92001779  1
  C  C213  1  0.93678383  0.35051582  0.92647649  1
  C  C214  1  0.25304608  0.14297791  0.91813580  1
  C  C215  1  0.75519078  0.13904829  0.91623113  1
  C  C216  1  0.32001859  0.14164675  0.41635275  1
  C  C217  1  0.83194962  0.15652346  0.42057365  1
  C  C218  1  0.25585744  0.37274751  0.41566957  1
  C  C219  1  0.75134514  0.35563244  0.41517523  1
  C  C220  1  0.43575512  0.51953260  0.42422322  1
  C  C221  1  0.94253382  0.51750912  0.41581052  1
  C  C222  1  0.17799173  0.51058652  0.08043610  1
  C  C223  1  0.66835229  0.49930974  0.07671121  1
  C  C224  1  0.08520150  0.68227796  0.07694322  1
  C  C225  1  0.58295487  0.67659652  0.08194633  1
  C  C226  1  0.25521116  0.86806576  0.08145596  1
  C  C227  1  0.75708155  0.85335506  0.07889096  1
  C  C228  1  0.16948089  0.83841785  0.57622855  1
  C  C229  1  0.67504491  0.84498880  0.57835743  1
  C  C230  1  0.25653614  0.65965926  0.57879617  1
  C  C231  1  0.75040557  0.64815410  0.57912577  1
  C  C232  1  0.08272712  0.49435669  0.58135247  1
  C  C233  1  0.58212443  0.48396309  0.57462796  1
  C  C234  1  0.15372140  0.82642414  0.25472996  1
  C  C235  1  0.64195669  0.81292892  0.24671198  1
  C  C236  1  0.25700135  0.66519511  0.25245816  1
  C  C237  1  0.75996410  0.68986942  0.24563153  1
  C  C238  1  0.08428686  0.48704759  0.25379719  1
  C  C239  1  0.56941701  0.45619491  0.24578883  1
  C  C240  1  0.14244474  0.46980950  0.74653394  1
  C  C241  1  0.65538606  0.48336522  0.75579513  1
  C  C242  1  0.07073797  0.68298238  0.74711560  1
  C  C243  1  0.58429363  0.68134850  0.75431573  1
  C  C244  1  0.25938709  0.83083063  0.74522512  1
  C  C245  1  0.75814409  0.85324709  0.75359301  1
