# generated using pymatgen
data_CuNiC9
_symmetry_space_group_name_H-M   'P 1'
_cell_length_a   7.51853002
_cell_length_b   7.51853002
_cell_length_c   18.43424400
_cell_angle_alpha   90.00000000
_cell_angle_beta   90.00000000
_cell_angle_gamma   120.00000016
_symmetry_Int_Tables_number   1
_chemical_formula_structural   CuNiC9
_chemical_formula_sum   'Cu6 Ni6 C54'
_cell_volume   902.44727652
_cell_formula_units_Z   6
loop_
 _symmetry_equiv_pos_site_id
 _symmetry_equiv_pos_as_xyz
  1  'x, y, z'
loop_
 _atom_site_type_symbol
 _atom_site_label
 _atom_site_symmetry_multiplicity
 _atom_site_fract_x
 _atom_site_fract_y
 _atom_site_fract_z
 _atom_site_occupancy
  C  C0  1  0.50566100  0.88652300  0.66545600  1
  C  C1  1  0.11347700  0.61913800  0.99878900  1
  C  C2  1  0.38086200  0.49433900  0.33212200  1
  C  C3  1  0.61913800  0.11347700  0.00121100  1
  C  C4  1  0.49433900  0.38086200  0.66787800  1
  C  C5  1  0.88652300  0.50566100  0.33454400  1
  C  C6  1  0.86022300  0.00000000  0.33333300  1
  C  C7  1  0.00000000  0.86022300  0.66666700  1
  C  C8  1  0.13977700  0.13977700  0.00000000  1
  C  C9  1  0.84458300  0.00000000  0.83333300  1
  C  C10  1  0.00000000  0.84458300  0.16666700  1
  C  C11  1  0.15541700  0.15541700  0.50000000  1
  Ni  Ni12  1  0.49556400  0.83601600  0.17120700  1
  Ni  Ni13  1  0.16398400  0.65954900  0.50454100  1
  Ni  Ni14  1  0.34045100  0.50443600  0.83787400  1
  Ni  Ni15  1  0.65954900  0.16398400  0.49545900  1
  Ni  Ni16  1  0.50443600  0.34045100  0.16212600  1
  Ni  Ni17  1  0.83601600  0.49556400  0.82879300  1
  Cu  Cu18  1  0.31512400  0.00000000  0.33333300  1
  Cu  Cu19  1  0.00000000  0.31512400  0.66666700  1
  Cu  Cu20  1  0.68487600  0.68487600  0.00000000  1
  Cu  Cu21  1  0.33467400  0.00000000  0.83333300  1
  Cu  Cu22  1  0.00000000  0.33467400  0.16666700  1
  Cu  Cu23  1  0.66532600  0.66532600  0.50000000  1
  C  C24  1  0.42701600  0.04773000  0.12235900  1
  C  C25  1  0.95227000  0.37928600  0.45569200  1
  C  C26  1  0.62071400  0.57298400  0.78902500  1
  C  C27  1  0.37928600  0.95227000  0.54430800  1
  C  C28  1  0.57298400  0.62071400  0.21097500  1
  C  C29  1  0.04773000  0.42701600  0.87764100  1
  C  C30  1  0.23898200  0.18702700  0.86016300  1
  C  C31  1  0.81297300  0.05195500  0.19349700  1
  C  C32  1  0.94804500  0.76101800  0.52683000  1
  C  C33  1  0.05195500  0.81297300  0.80650300  1
  C  C34  1  0.76101800  0.94804500  0.47317000  1
  C  C35  1  0.18702700  0.23898200  0.13983700  1
  C  C36  1  0.37215100  0.07429900  0.73136200  1
  C  C37  1  0.92570100  0.29785200  0.06469600  1
  C  C38  1  0.70214800  0.62784900  0.39802900  1
  C  C39  1  0.29785200  0.92570100  0.93530400  1
  C  C40  1  0.62784900  0.70214800  0.60197100  1
  C  C41  1  0.07429900  0.37215100  0.26863800  1
  C  C42  1  0.42864600  0.81191300  0.80884300  1
  C  C43  1  0.18808700  0.61673400  0.14217600  1
  C  C44  1  0.38326600  0.57135400  0.47551000  1
  C  C45  1  0.61673400  0.18808700  0.85782400  1
  C  C46  1  0.57135400  0.38326600  0.52449000  1
  C  C47  1  0.81191300  0.42864600  0.19115700  1
  C  C48  1  0.77008400  0.19872600  0.60300100  1
  C  C49  1  0.80127400  0.57135800  0.93633400  1
  C  C50  1  0.42864200  0.22991600  0.26966700  1
  C  C51  1  0.57135800  0.80127400  0.06366600  1
  C  C52  1  0.22991600  0.42864200  0.73033300  1
  C  C53  1  0.19872600  0.77008400  0.39699900  1
  C  C54  1  0.79999700  0.94246000  0.94892100  1
  C  C55  1  0.05754000  0.85753700  0.28225400  1
  C  C56  1  0.14246300  0.20000300  0.61558700  1
  C  C57  1  0.85753700  0.05754000  0.71774600  1
  C  C58  1  0.20000300  0.14246300  0.38441300  1
  C  C59  1  0.94246000  0.79999700  0.05107900  1
  C  C60  1  0.56560700  0.42574600  0.05122500  1
  C  C61  1  0.57425400  0.13986100  0.38455800  1
  C  C62  1  0.86013900  0.43439300  0.71789200  1
  C  C63  1  0.13986100  0.57425400  0.61544200  1
  C  C64  1  0.43439300  0.86013900  0.28210800  1
  C  C65  1  0.42574600  0.56560700  0.94877500  1
