# generated using pymatgen
data_Cu2Ni2C9
_symmetry_space_group_name_H-M   'P 1'
_cell_length_a   5.23347366
_cell_length_b   5.23060815
_cell_length_c   6.12627499
_cell_angle_alpha   95.06625346
_cell_angle_beta   95.09303474
_cell_angle_gamma   64.90030475
_symmetry_Int_Tables_number   1
_chemical_formula_structural   Cu2Ni2C9
_chemical_formula_sum   'Cu2 Ni2 C9'
_cell_volume   151.02797535
_cell_formula_units_Z   1
loop_
 _symmetry_equiv_pos_site_id
 _symmetry_equiv_pos_as_xyz
  1  'x, y, z'
loop_
 _atom_site_type_symbol
 _atom_site_label
 _atom_site_symmetry_multiplicity
 _atom_site_fract_x
 _atom_site_fract_y
 _atom_site_fract_z
 _atom_site_occupancy
  C  C0  1  0.50000000  0.50000000  -0.00000000  1
  Ni  Ni1  1  0.33256635  0.33192398  0.31745796  1
  Ni  Ni2  1  0.66743365  0.66807602  0.68254204  1
  Cu  Cu3  1  0.00000000  -0.00000000  -0.00000000  1
  Cu  Cu4  1  0.00000000  -0.00000000  0.50000000  1
  C  C5  1  0.23615617  0.71836979  0.24944852  1
  C  C6  1  0.28126828  0.76397506  0.75079940  1
  C  C7  1  0.22312717  0.22286681  0.06352115  1
  C  C8  1  0.22515671  0.22494249  0.53361123  1
  C  C9  1  0.77484329  0.77505751  0.46638877  1
  C  C10  1  0.77687283  0.77713319  0.93647885  1
  C  C11  1  0.71873172  0.23602494  0.24920060  1
  C  C12  1  0.76384383  0.28163021  0.75055148  1
