# generated using pymatgen
data_Cu2NiC18
_symmetry_space_group_name_H-M   'P 1'
_cell_length_a   9.21895415
_cell_length_b   9.21895381
_cell_length_c   22.58485468
_cell_angle_alpha   89.74703898
_cell_angle_beta   90.25296102
_cell_angle_gamma   119.76441955
_symmetry_Int_Tables_number   1
_chemical_formula_structural   Cu2NiC18
_chemical_formula_sum   'Cu12 Ni6 C108'
_cell_volume   1666.21729726
_cell_formula_units_Z   6
loop_
 _symmetry_equiv_pos_site_id
 _symmetry_equiv_pos_as_xyz
  1  'x, y, z'
loop_
 _atom_site_type_symbol
 _atom_site_label
 _atom_site_symmetry_multiplicity
 _atom_site_fract_x
 _atom_site_fract_y
 _atom_site_fract_z
 _atom_site_occupancy
  C  C0  1  0.64329771  0.00698694  0.25077146  1
  C  C1  1  0.37131806  0.36772076  0.24428522  1
  C  C2  1  0.98642917  0.62374098  0.24892212  1
  C  C3  1  0.63227924  0.62868194  0.74428522  1
  C  C4  1  0.99301306  0.35670229  0.75077146  1
  C  C5  1  0.37625902  0.01357083  0.74892212  1
  C  C6  1  0.30996471  0.34031994  0.58410446  1
  C  C7  1  0.03798506  0.70105376  0.57761822  1
  C  C8  1  0.65309617  0.95707398  0.58225512  1
  C  C9  1  0.29894624  0.96201494  0.07761822  1
  C  C10  1  0.65968006  0.69003529  0.08410446  1
  C  C11  1  0.04292602  0.34690383  0.08225512  1
  C  C12  1  0.97663071  0.67365394  0.91743846  1
  C  C13  1  0.70465106  0.03438776  0.91095222  1
  C  C14  1  0.31976217  0.29040798  0.91558912  1
  C  C15  1  0.96561224  0.29534894  0.41095222  1
  C  C16  1  0.32634606  0.02336929  0.41743846  1
  C  C17  1  0.70959202  0.68023783  0.41558912  1
  C  C18  1  0.99463245  0.99053612  0.49680112  1
  C  C19  1  0.00946388  0.00536755  0.99680112  1
  C  C20  1  0.66129945  0.32386912  0.83013412  1
  C  C21  1  0.67613088  0.33870055  0.33013412  1
  C  C22  1  0.32796545  0.65720312  0.16346812  1
  C  C23  1  0.34279688  0.67203455  0.66346812  1
  C  C24  1  0.99885763  0.00069699  0.64810168  1
  C  C25  1  0.99930301  0.00114237  0.14810168  1
  C  C26  1  0.66552463  0.33402999  0.98143468  1
  C  C27  1  0.66597001  0.33447537  0.48143468  1
  C  C28  1  0.33219063  0.66736399  0.31476868  1
  C  C29  1  0.33263601  0.66780937  0.81476868  1
  Ni  Ni30  1  0.99362870  0.99534033  0.34894137  1
  Ni  Ni31  1  0.00465967  0.00637130  0.84894137  1
  Ni  Ni32  1  0.66029570  0.32867333  0.68227437  1
  Ni  Ni33  1  0.67132667  0.33970430  0.18227437  1
  Ni  Ni34  1  0.32696170  0.66200733  0.01560837  1
  Ni  Ni35  1  0.33799267  0.67303830  0.51560837  1
  Cu  Cu36  1  0.70109259  0.70190795  0.25039208  1
  Cu  Cu37  1  0.00062354  0.29700462  0.25044572  1
  Cu  Cu38  1  0.29809205  0.29890741  0.75039208  1
  Cu  Cu39  1  0.70299538  0.99937646  0.75044572  1
  Cu  Cu40  1  0.36775959  0.03524095  0.58372508  1
  Cu  Cu41  1  0.66729054  0.63033762  0.58377872  1
  Cu  Cu42  1  0.96475905  0.63224041  0.08372508  1
  Cu  Cu43  1  0.36966238  0.33270946  0.08377872  1
  Cu  Cu44  1  0.03442559  0.36857495  0.91705908  1
  Cu  Cu45  1  0.33395654  0.96367162  0.91711272  1
  Cu  Cu46  1  0.63142505  0.96557441  0.41705908  1
  Cu  Cu47  1  0.03632838  0.66604346  0.41711272  1
  C  C48  1  0.29363576  0.99886387  0.25078714  1
  C  C49  1  0.00113613  0.70636424  0.75078714  1
  C  C50  1  0.96030276  0.33219687  0.58412014  1
  C  C51  1  0.66780313  0.03969724  0.08412014  1
  C  C52  1  0.62696876  0.66553087  0.91745414  1
  C  C53  1  0.33446913  0.37303124  0.41745414  1
  C  C54  1  0.22102253  0.03164848  0.30672360  1
  C  C55  1  0.81531972  0.77615793  0.30948670  1
  C  C56  1  0.97257815  0.18863545  0.31046189  1
  C  C57  1  0.22384207  0.18468028  0.80948670  1
  C  C58  1  0.96835152  0.77897747  0.80672360  1
  C  C59  1  0.81136455  0.02742185  0.81046189  1
  C  C60  1  0.79595857  0.96928450  0.69318533  1
  C  C61  1  0.17453890  0.20384599  0.69299884  1
  C  C62  1  0.02743684  0.82166224  0.69605758  1
  C  C63  1  0.79615401  0.82546110  0.19299884  1
  C  C64  1  0.03071550  0.20404143  0.19318533  1
  C  C65  1  0.17833776  0.97256316  0.19605758  1
  C  C66  1  0.88768953  0.36498148  0.64005660  1
  C  C67  1  0.48198672  0.10949093  0.64281970  1
  C  C68  1  0.63924515  0.52196845  0.64379489  1
  C  C69  1  0.89050907  0.51801328  0.14281970  1
  C  C70  1  0.63501852  0.11231047  0.14005660  1
  C  C71  1  0.47803155  0.36075485  0.14379489  1
  C  C72  1  0.46262557  0.30261750  0.02651833  1
  C  C73  1  0.84120590  0.53717899  0.02633184  1
  C  C74  1  0.69410384  0.15499524  0.02939058  1
  C  C75  1  0.46282101  0.15879410  0.52633184  1
  C  C76  1  0.69738250  0.53737443  0.52651833  1
  C  C77  1  0.84500476  0.30589616  0.52939058  1
  C  C78  1  0.55435553  0.69831548  0.97339060  1
  C  C79  1  0.14865272  0.44282493  0.97615370  1
  C  C80  1  0.30591115  0.85530245  0.97712889  1
  C  C81  1  0.55717507  0.85134728  0.47615370  1
  C  C82  1  0.30168452  0.44564447  0.47339060  1
  C  C83  1  0.14469755  0.69408885  0.47712889  1
  C  C84  1  0.12929157  0.63595150  0.35985233  1
  C  C85  1  0.50787190  0.87051299  0.35966584  1
  C  C86  1  0.36076984  0.48832924  0.36272458  1
  C  C87  1  0.12948701  0.49212810  0.85966584  1
  C  C88  1  0.36404850  0.87070843  0.85985233  1
  C  C89  1  0.51167076  0.63923016  0.86272458  1
  C  C90  1  0.02193042  0.83557491  0.41291166  1
  C  C91  1  0.82034262  0.99317161  0.41368776  1
  C  C92  1  0.18533032  0.19595223  0.41067342  1
  C  C93  1  0.00682839  0.17965738  0.91368776  1
  C  C94  1  0.16442509  0.97806958  0.91291166  1
  C  C95  1  0.80404777  0.81466968  0.91067342  1
  C  C96  1  0.96900757  0.16736892  0.58837752  1
  C  C97  1  0.18432805  0.02654131  0.58822900  1
  C  C98  1  0.83781203  0.81647918  0.58775878  1
  C  C99  1  0.97345869  0.81567195  0.08822900  1
  C  C100  1  0.83263108  0.03099243  0.08837752  1
  C  C101  1  0.18352082  0.16218797  0.08775878  1
  C  C102  1  0.68859742  0.16890791  0.74624466  1
  C  C103  1  0.48700962  0.32650461  0.74702076  1
  C  C104  1  0.85199732  0.52928523  0.74400642  1
  C  C105  1  0.67349539  0.51299038  0.24702076  1
  C  C106  1  0.83109209  0.31140258  0.24624466  1
  C  C107  1  0.47071477  0.14800268  0.24400642  1
  C  C108  1  0.63567457  0.50070192  0.92171052  1
  C  C109  1  0.85099505  0.35987431  0.92156200  1
  C  C110  1  0.50447903  0.14981218  0.92109178  1
  C  C111  1  0.64012569  0.14900495  0.42156200  1
  C  C112  1  0.49929808  0.36432543  0.42171052  1
  C  C113  1  0.85018782  0.49552097  0.42109178  1
  C  C114  1  0.35526342  0.50224191  0.07957866  1
  C  C115  1  0.15367562  0.65983861  0.08035476  1
  C  C116  1  0.51866332  0.86261923  0.07734042  1
  C  C117  1  0.34016139  0.84632438  0.58035476  1
  C  C118  1  0.49775809  0.64473658  0.57957866  1
  C  C119  1  0.13738077  0.48133668  0.57734042  1
  C  C120  1  0.30234057  0.83403592  0.25504452  1
  C  C121  1  0.51766105  0.69320831  0.25489600  1
  C  C122  1  0.17114503  0.48314618  0.25442578  1
  C  C123  1  0.30679169  0.48233895  0.75489600  1
  C  C124  1  0.16596408  0.69765943  0.75504452  1
  C  C125  1  0.51685382  0.82885497  0.75442578  1
