# generated using pymatgen
data_Cu3NiC15
_symmetry_space_group_name_H-M   'P 1'
_cell_length_a   8.81104827
_cell_length_b   8.81104798
_cell_length_c   22.42475732
_cell_angle_alpha   90.17408216
_cell_angle_beta   89.82591783
_cell_angle_gamma   120.53409733
_symmetry_Int_Tables_number   1
_chemical_formula_structural   Cu3NiC15
_chemical_formula_sum   'Cu18 Ni6 C90'
_cell_volume   1499.50626317
_cell_formula_units_Z   6
loop_
 _symmetry_equiv_pos_site_id
 _symmetry_equiv_pos_as_xyz
  1  'x, y, z'
loop_
 _atom_site_type_symbol
 _atom_site_label
 _atom_site_symmetry_multiplicity
 _atom_site_fract_x
 _atom_site_fract_y
 _atom_site_fract_z
 _atom_site_occupancy
  C  C0  1  0.36401506  0.36257567  0.24862925  1
  C  C1  1  0.63742433  0.63598494  0.74862925  1
  C  C2  1  0.03068206  0.69590867  0.58196225  1
  C  C3  1  0.30409133  0.96931794  0.08196225  1
  C  C4  1  0.69734806  0.02924267  0.91529625  1
  C  C5  1  0.97075733  0.30265194  0.41529625  1
  C  C6  1  0.99995699  0.99913235  0.49624629  1
  C  C7  1  0.00086765  0.00004301  0.99624629  1
  C  C8  1  0.66662399  0.33246535  0.82957929  1
  C  C9  1  0.66753465  0.33337601  0.32957929  1
  C  C10  1  0.33328999  0.66579935  0.16291329  1
  C  C11  1  0.33420065  0.66671001  0.66291329  1
  C  C12  1  0.00194986  0.00877304  0.64637575  1
  C  C13  1  0.99122696  0.99805014  0.14637575  1
  C  C14  1  0.66861686  0.34210604  0.97970875  1
  C  C15  1  0.65789396  0.33138314  0.47970875  1
  C  C16  1  0.33528286  0.67544004  0.31304275  1
  C  C17  1  0.32455996  0.66471714  0.81304275  1
  Ni  Ni18  1  0.99865339  0.99234477  0.35218447  1
  Ni  Ni19  1  0.00765523  0.00134661  0.85218447  1
  Ni  Ni20  1  0.66532039  0.32567777  0.68551747  1
  Ni  Ni21  1  0.67432223  0.33467961  0.18551747  1
  Ni  Ni22  1  0.33198639  0.65901177  0.01885147  1
  Ni  Ni23  1  0.34098823  0.66801361  0.51885147  1
  Cu  Cu24  1  0.29343966  0.00886314  0.24993328  1
  Cu  Cu25  1  0.71634874  0.70342265  0.25234723  1
  Cu  Cu26  1  0.98588003  0.28396411  0.25248056  1
  Cu  Cu27  1  0.29657735  0.28365126  0.75234723  1
  Cu  Cu28  1  0.99113686  0.70656034  0.74993328  1
  Cu  Cu29  1  0.71603589  0.01411997  0.75248056  1
  Cu  Cu30  1  0.96010666  0.34219614  0.58326628  1
  Cu  Cu31  1  0.38301574  0.03675565  0.58568023  1
  Cu  Cu32  1  0.65254703  0.61729711  0.58581356  1
  Cu  Cu33  1  0.96324435  0.61698426  0.08568023  1
  Cu  Cu34  1  0.65780386  0.03989334  0.08326628  1
  Cu  Cu35  1  0.38270289  0.34745297  0.08581356  1
  Cu  Cu36  1  0.62677266  0.67553014  0.91660028  1
  Cu  Cu37  1  0.04968174  0.37008965  0.91901423  1
  Cu  Cu38  1  0.31921303  0.95063111  0.91914756  1
  Cu  Cu39  1  0.62991035  0.95031826  0.41901423  1
  Cu  Cu40  1  0.32446986  0.37322734  0.41660028  1
  Cu  Cu41  1  0.04936889  0.68078697  0.41914756  1
  C  C42  1  0.20117121  0.03759287  0.30401802  1
  C  C43  1  0.83071840  0.79808428  0.30679583  1
  C  C44  1  0.96591487  0.17393614  0.30878571  1
  C  C45  1  0.20191572  0.16928160  0.80679583  1
  C  C46  1  0.96240713  0.79882879  0.80401802  1
  C  C47  1  0.82606386  0.03408513  0.80878571  1
  C  C48  1  0.79472238  0.97169256  0.69748824  1
  C  C49  1  0.18429249  0.20849456  0.69574229  1
  C  C50  1  0.02313201  0.81459061  0.69249502  1
  C  C51  1  0.79150544  0.81570751  0.19574229  1
  C  C52  1  0.02830744  0.20527762  0.19748824  1
  C  C53  1  0.18540939  0.97686799  0.19249502  1
  C  C54  1  0.86783821  0.37092587  0.63735102  1
  C  C55  1  0.49738540  0.13141728  0.64012883  1
  C  C56  1  0.63258187  0.50726914  0.64211871  1
  C  C57  1  0.86858272  0.50261460  0.14012883  1
  C  C58  1  0.62907413  0.13216179  0.13735102  1
  C  C59  1  0.49273086  0.36741813  0.14211871  1
  C  C60  1  0.46138938  0.30502556  0.03082124  1
  C  C61  1  0.85095949  0.54182756  0.02907529  1
  C  C62  1  0.68979901  0.14792361  0.02582802  1
  C  C63  1  0.45817244  0.14904051  0.52907529  1
  C  C64  1  0.69497444  0.53861062  0.53082124  1
  C  C65  1  0.85207639  0.31020099  0.52582802  1
  C  C66  1  0.53450421  0.70425987  0.97068502  1
  C  C67  1  0.16405140  0.46475128  0.97346283  1
  C  C68  1  0.29924787  0.84060314  0.97545271  1
  C  C69  1  0.53524872  0.83594860  0.47346283  1
  C  C70  1  0.29574013  0.46549579  0.47068502  1
  C  C71  1  0.15939686  0.70075213  0.47545271  1
  C  C72  1  0.12805538  0.63835956  0.36415524  1
  C  C73  1  0.51762549  0.87516156  0.36240929  1
  C  C74  1  0.35646501  0.48125761  0.35916202  1
  C  C75  1  0.12483844  0.48237451  0.86240929  1
  C  C76  1  0.36164044  0.87194462  0.86415524  1
  C  C77  1  0.51874239  0.64353499  0.85916202  1
  C  C78  1  0.03040947  0.84261116  0.40880911  1
  C  C79  1  0.81609935  0.97508160  0.41026686  1
  C  C80  1  0.15573080  0.18895299  0.40909399  1
  C  C81  1  0.02491840  0.18390065  0.91026686  1
  C  C82  1  0.15738884  0.96959053  0.90880911  1
  C  C83  1  0.81104701  0.84426920  0.90909399  1
  C  C84  1  0.98113157  0.17935547  0.58851334  1
  C  C85  1  0.19345211  0.00940564  0.58986248  1
  C  C86  1  0.82373254  0.80187731  0.58993226  1
  C  C87  1  0.99059436  0.80654789  0.08986248  1
  C  C88  1  0.82064453  0.01886843  0.08851334  1
  C  C89  1  0.19812269  0.17626746  0.08993226  1
  C  C90  1  0.69707647  0.17594416  0.74214211  1
  C  C91  1  0.48276635  0.30841460  0.74359986  1
  C  C92  1  0.82239780  0.52228599  0.74242699  1
  C  C93  1  0.69158540  0.51723365  0.24359986  1
  C  C94  1  0.82405584  0.30292353  0.24214211  1
  C  C95  1  0.47771401  0.17760220  0.24242699  1
  C  C96  1  0.64779857  0.51268847  0.92184634  1
  C  C97  1  0.86011911  0.34273864  0.92319548  1
  C  C98  1  0.49039954  0.13521031  0.92326526  1
  C  C99  1  0.65726136  0.13988089  0.42319548  1
  C  C100  1  0.48731153  0.35220143  0.42184634  1
  C  C101  1  0.86478969  0.50960046  0.42326526  1
  C  C102  1  0.36374247  0.50927816  0.07547611  1
  C  C103  1  0.14943235  0.64174860  0.07693386  1
  C  C104  1  0.48906380  0.85561999  0.07576099  1
  C  C105  1  0.35825140  0.85056765  0.57693386  1
  C  C106  1  0.49072184  0.63625753  0.57547611  1
  C  C107  1  0.14438001  0.51093620  0.57576099  1
  C  C108  1  0.31446457  0.84602247  0.25518034  1
  C  C109  1  0.52678511  0.67607264  0.25652948  1
  C  C110  1  0.15706554  0.46854431  0.25659926  1
  C  C111  1  0.32392736  0.47321489  0.75652948  1
  C  C112  1  0.15397753  0.68553543  0.75518034  1
  C  C113  1  0.53145569  0.84293446  0.75659926  1
