# generated using pymatgen
data_Cu5Ni2C
_symmetry_space_group_name_H-M   'P 1'
_cell_length_a   9.26186775
_cell_length_b   9.26186775
_cell_length_c   9.90872285
_cell_angle_alpha   59.93733420
_cell_angle_beta   59.93733420
_cell_angle_gamma   76.24991611
_symmetry_Int_Tables_number   1
_chemical_formula_structural   Cu5Ni2C
_chemical_formula_sum   'Cu10 Ni4 C2'
_cell_volume   636.58860172
_cell_formula_units_Z   2
loop_
 _symmetry_equiv_pos_site_id
 _symmetry_equiv_pos_as_xyz
  1  'x, y, z'
loop_
 _atom_site_type_symbol
 _atom_site_label
 _atom_site_symmetry_multiplicity
 _atom_site_fract_x
 _atom_site_fract_y
 _atom_site_fract_z
 _atom_site_occupancy
  C  C0  1  0.81222900  0.18777100  0.00000000  1
  C  C1  1  0.18777100  0.81222900  0.00000000  1
  Ni  Ni2  1  0.33149000  0.66851000  0.50000000  1
  Ni  Ni3  1  0.66851000  0.33149000  0.50000000  1
  Ni  Ni4  1  0.55745000  0.55745000  0.63105200  1
  Ni  Ni5  1  0.44255000  0.44255000  0.36894800  1
  Cu  Cu6  1  0.16404900  0.50695600  0.08519600  1
  Cu  Cu7  1  0.49304400  0.83595100  0.91480400  1
  Cu  Cu8  1  0.83595100  0.49304400  0.91480400  1
  Cu  Cu9  1  0.50695600  0.16404900  0.08519600  1
  Cu  Cu10  1  0.25673200  0.91028600  0.67090100  1
  Cu  Cu11  1  0.08971400  0.74326800  0.32909900  1
  Cu  Cu12  1  0.85053500  0.85053500  0.08019700  1
  Cu  Cu13  1  0.14946500  0.14946500  0.91980300  1
  Cu  Cu14  1  0.91028600  0.25673200  0.67090100  1
  Cu  Cu15  1  0.74326800  0.08971400  0.32909900  1
