# generated using pymatgen
data_Cu4NiC
_symmetry_space_group_name_H-M   'P 1'
_cell_length_a   8.66340109
_cell_length_b   8.66340081
_cell_length_c   22.59128903
_cell_angle_alpha   90.00000000
_cell_angle_beta   90.00000000
_cell_angle_gamma   120.00000102
_symmetry_Int_Tables_number   1
_chemical_formula_structural   Cu4NiC
_chemical_formula_sum   'Cu72 Ni18 C18'
_cell_volume   1468.41383649
_cell_formula_units_Z   18
loop_
 _symmetry_equiv_pos_site_id
 _symmetry_equiv_pos_as_xyz
  1  'x, y, z'
loop_
 _atom_site_type_symbol
 _atom_site_label
 _atom_site_symmetry_multiplicity
 _atom_site_fract_x
 _atom_site_fract_y
 _atom_site_fract_z
 _atom_site_occupancy
  C  C0  1  -0.00000000  0.00000000  0.50461004  1
  C  C1  1  -0.00000000  0.00000000  0.00461004  1
  C  C2  1  0.66666700  0.33333300  0.83324630  1
  C  C3  1  0.66666700  0.33333300  0.33324630  1
  C  C4  1  0.33333300  0.66666700  0.15807647  1
  C  C5  1  0.33333300  0.66666700  0.65807647  1
  C  C6  1  -0.00000000  0.00000000  0.35166983  1
  C  C7  1  -0.00000000  0.00000000  0.85166983  1
  C  C8  1  -0.00000000  0.00000000  0.64557592  1
  C  C9  1  -0.00000000  0.00000000  0.14557592  1
  C  C10  1  0.66666700  0.33333300  0.68042272  1
  C  C11  1  0.66666700  0.33333300  0.18042272  1
  C  C12  1  0.66666700  0.33333300  0.98550392  1
  C  C13  1  0.66666700  0.33333300  0.48550392  1
  C  C14  1  0.33333300  0.66666700  0.02160155  1
  C  C15  1  0.33333300  0.66666700  0.52160155  1
  C  C16  1  0.33333300  0.66666700  0.31356748  1
  C  C17  1  0.33333300  0.66666700  0.81356748  1
  Ni  Ni18  1  0.29219819  0.00597064  0.25038570  1
  Ni  Ni19  1  0.71377245  0.70780181  0.25038570  1
  Ni  Ni20  1  0.99402936  0.28622755  0.25038570  1
  Ni  Ni21  1  0.29219819  0.28622755  0.75038570  1
  Ni  Ni22  1  0.99402936  0.70780181  0.75038570  1
  Ni  Ni23  1  0.71377245  0.00597064  0.75038570  1
  Ni  Ni24  1  0.95901072  0.33271600  0.58325359  1
  Ni  Ni25  1  0.37370628  0.04098928  0.58325359  1
  Ni  Ni26  1  0.66728400  0.62629372  0.58325359  1
  Ni  Ni27  1  0.95901072  0.62629372  0.08325359  1
  Ni  Ni28  1  0.66728400  0.04098928  0.08325359  1
  Ni  Ni29  1  0.37370628  0.33271600  0.08325359  1
  Ni  Ni30  1  0.62700722  0.66775487  0.91850145  1
  Ni  Ni31  1  0.04074665  0.37299278  0.91850145  1
  Ni  Ni32  1  0.33224513  0.95925335  0.91850145  1
  Ni  Ni33  1  0.62700722  0.95925335  0.41850145  1
  Ni  Ni34  1  0.33224513  0.37299278  0.41850145  1
  Ni  Ni35  1  0.04074665  0.66775487  0.41850145  1
  Cu  Cu36  1  0.21106793  0.02639378  0.30454922  1
  Cu  Cu37  1  0.81532586  0.78893207  0.30454922  1
  Cu  Cu38  1  0.97360622  0.18467414  0.30454922  1
  Cu  Cu39  1  0.21106793  0.18467414  0.80454922  1
  Cu  Cu40  1  0.97360622  0.78893207  0.80454922  1
  Cu  Cu41  1  0.81532586  0.02639378  0.80454922  1
  Cu  Cu42  1  0.78345897  0.96607247  0.69788354  1
  Cu  Cu43  1  0.18261350  0.21654103  0.69788354  1
  Cu  Cu44  1  0.03392753  0.81738650  0.69788354  1
  Cu  Cu45  1  0.78345897  0.81738650  0.19788354  1
  Cu  Cu46  1  0.03392753  0.21654103  0.19788354  1
  Cu  Cu47  1  0.18261350  0.96607247  0.19788354  1
  Cu  Cu48  1  0.87870532  0.35983562  0.63702919  1
  Cu  Cu49  1  0.48113130  0.12129468  0.63702919  1
  Cu  Cu50  1  0.64016438  0.51886870  0.63702919  1
  Cu  Cu51  1  0.87870532  0.51886870  0.13702919  1
  Cu  Cu52  1  0.64016438  0.12129468  0.13702919  1
  Cu  Cu53  1  0.48113130  0.35983562  0.13702919  1
  Cu  Cu54  1  0.45450075  0.30625310  0.02952310  1
  Cu  Cu55  1  0.85175334  0.54549925  0.02952310  1
  Cu  Cu56  1  0.69374690  0.14824666  0.02952310  1
  Cu  Cu57  1  0.45450075  0.14824666  0.52952310  1
  Cu  Cu58  1  0.69374690  0.54549925  0.52952310  1
  Cu  Cu59  1  0.85175334  0.30625310  0.52952310  1
  Cu  Cu60  1  0.54053189  0.69310723  0.96924222  1
  Cu  Cu61  1  0.15257435  0.45946811  0.96924222  1
  Cu  Cu62  1  0.30689277  0.84742565  0.96924222  1
  Cu  Cu63  1  0.54053189  0.84742565  0.46924222  1
  Cu  Cu64  1  0.30689277  0.45946811  0.46924222  1
  Cu  Cu65  1  0.15257435  0.69310723  0.46924222  1
  Cu  Cu66  1  0.13492956  0.64413325  0.36248198  1
  Cu  Cu67  1  0.50920268  0.86507044  0.36248198  1
  Cu  Cu68  1  0.35586675  0.49079732  0.36248198  1
  Cu  Cu69  1  0.13492956  0.49079732  0.86248198  1
  Cu  Cu70  1  0.35586675  0.86507044  0.86248198  1
  Cu  Cu71  1  0.50920268  0.64413325  0.86248198  1
  Cu  Cu72  1  0.02562803  0.82666087  0.40843130  1
  Cu  Cu73  1  0.80103284  0.97437197  0.40843130  1
  Cu  Cu74  1  0.17333913  0.19896716  0.40843130  1
  Cu  Cu75  1  0.02562803  0.19896716  0.90843130  1
  Cu  Cu76  1  0.17333913  0.97437197  0.90843130  1
  Cu  Cu77  1  0.80103284  0.82666087  0.90843130  1
  Cu  Cu78  1  0.97813314  0.17221109  0.58934679  1
  Cu  Cu79  1  0.19407795  0.02186686  0.58934679  1
  Cu  Cu80  1  0.82778891  0.80592205  0.58934679  1
  Cu  Cu81  1  0.97813314  0.80592205  0.08934679  1
  Cu  Cu82  1  0.82778891  0.02186686  0.08934679  1
  Cu  Cu83  1  0.19407795  0.17221109  0.08934679  1
  Cu  Cu84  1  0.68250971  0.15623693  0.74454641  1
  Cu  Cu85  1  0.47372822  0.31749029  0.74454641  1
  Cu  Cu86  1  0.84376307  0.52627178  0.74454641  1
  Cu  Cu87  1  0.68250971  0.52627178  0.24454641  1
  Cu  Cu88  1  0.84376307  0.31749029  0.24454641  1
  Cu  Cu89  1  0.47372822  0.15623693  0.24454641  1
  Cu  Cu90  1  0.63719498  0.50370046  0.91974021  1
  Cu  Cu91  1  0.86650648  0.36280502  0.91974021  1
  Cu  Cu92  1  0.49629954  0.13349352  0.91974021  1
  Cu  Cu93  1  0.63719498  0.13349352  0.41974021  1
  Cu  Cu94  1  0.49629954  0.36280502  0.41974021  1
  Cu  Cu95  1  0.86650648  0.50370046  0.41974021  1
  Cu  Cu96  1  0.35466879  0.49369750  0.07736863  1
  Cu  Cu97  1  0.13902771  0.64533121  0.07736863  1
  Cu  Cu98  1  0.50630250  0.86097229  0.07736863  1
  Cu  Cu99  1  0.35466879  0.86097229  0.57736863  1
  Cu  Cu100  1  0.50630250  0.64533121  0.57736863  1
  Cu  Cu101  1  0.13902771  0.49369750  0.57736863  1
  Cu  Cu102  1  0.31181457  0.83649318  0.25962525  1
  Cu  Cu103  1  0.52467761  0.68818543  0.25962525  1
  Cu  Cu104  1  0.16350682  0.47532239  0.25962525  1
  Cu  Cu105  1  0.31181457  0.47532239  0.75962525  1
  Cu  Cu106  1  0.16350682  0.68818543  0.75962525  1
  Cu  Cu107  1  0.52467761  0.83649318  0.75962525  1
