# generated using pymatgen
data_Cu10Ni2C7
_symmetry_space_group_name_H-M   'P 1'
_cell_length_a   7.65347652
_cell_length_b   7.61428967
_cell_length_c   7.65248519
_cell_angle_alpha   60.45144743
_cell_angle_beta   57.74851438
_cell_angle_gamma   60.46631383
_symmetry_Int_Tables_number   1
_chemical_formula_structural   Cu10Ni2C7
_chemical_formula_sum   'Cu10 Ni2 C7'
_cell_volume   311.68669985
_cell_formula_units_Z   1
loop_
 _symmetry_equiv_pos_site_id
 _symmetry_equiv_pos_as_xyz
  1  'x, y, z'
loop_
 _atom_site_type_symbol
 _atom_site_label
 _atom_site_symmetry_multiplicity
 _atom_site_fract_x
 _atom_site_fract_y
 _atom_site_fract_z
 _atom_site_occupancy
  C  C0  1  0.45390717  0.45855345  0.13054369  1
  C  C1  1  0.61334367  0.67907913  0.51811480  1
  C  C2  1  0.26981813  0.24811463  0.71205093  1
  C  C3  1  0.98028749  0.99626014  0.53153151  1
  C  C4  1  0.49428341  0.98461738  0.03688295  1
  C  C5  1  0.98414584  0.97874007  0.03661395  1
  C  C6  1  0.98807455  0.50022110  0.03027168  1
  Ni  Ni7  1  0.28204312  0.95792500  0.30583236  1
  Ni  Ni8  1  0.70281897  0.03753313  0.72881677  1
  Cu  Cu9  1  0.07997556  0.05185414  0.69870196  1
  Cu  Cu10  1  0.05588931  0.66772340  0.10848502  1
  Cu  Cu11  1  0.07633049  0.68176532  0.69955667  1
  Cu  Cu12  1  0.66622419  0.04984445  0.11489580  1
  Cu  Cu13  1  0.32072322  0.31117897  0.91121061  1
  Cu  Cu14  1  0.66857074  0.67207805  0.11129310  1
  Cu  Cu15  1  0.32345345  0.94574487  0.91626939  1
  Cu  Cu16  1  0.91569657  0.30611806  0.34952770  1
  Cu  Cu17  1  0.91431640  0.92768887  0.35352934  1
  Cu  Cu18  1  0.96009771  0.30421884  0.92908577  1
