# generated using pymatgen
data_Cu2NiC16
_symmetry_space_group_name_H-M   'P 1'
_cell_length_a   6.88375678
_cell_length_b   6.88375692
_cell_length_c   5.29976823
_cell_angle_alpha   75.95336070
_cell_angle_beta   104.04662541
_cell_angle_gamma   100.21030952
_symmetry_Int_Tables_number   1
_chemical_formula_structural   Cu2NiC16
_chemical_formula_sum   'Cu2 Ni1 C16'
_cell_volume   234.46485816
_cell_formula_units_Z   1
loop_
 _symmetry_equiv_pos_site_id
 _symmetry_equiv_pos_as_xyz
  1  'x, y, z'
loop_
 _atom_site_type_symbol
 _atom_site_label
 _atom_site_symmetry_multiplicity
 _atom_site_fract_x
 _atom_site_fract_y
 _atom_site_fract_z
 _atom_site_occupancy
  Ni  Ni0  1  0.58153300  0.58153300  0.25000000  1
  Cu  Cu1  1  0.11476800  0.11476800  0.75000000  1
  Cu  Cu2  1  0.91367700  0.91367700  0.25000000  1
  C  C3  1  0.18291700  0.63120100  0.74315000  1
  C  C4  1  0.36196000  0.82876800  0.25120100  1
  C  C5  1  0.63120100  0.18291700  0.75685000  1
  C  C6  1  0.82876800  0.36196000  0.24879900  1
  C  C7  1  0.03491400  0.81138400  0.64401000  1
  C  C8  1  0.19391700  0.98164400  0.14533800  1
  C  C9  1  0.10234400  0.39407600  0.77207200  1
  C  C10  1  0.34443500  0.68236900  0.54228300  1
  C  C11  1  0.60634200  0.87249400  0.27823600  1
  C  C12  1  0.31435200  0.65690500  0.04905700  1
  C  C13  1  0.68236900  0.34443500  0.95771700  1
  C  C14  1  0.39407600  0.10234400  0.72792800  1
  C  C15  1  0.65690500  0.31435200  0.45094300  1
  C  C16  1  0.87249400  0.60634200  0.22176400  1
  C  C17  1  0.81138400  0.03491400  0.85599000  1
  C  C18  1  0.98164400  0.19391700  0.35466200  1
