# generated using pymatgen
data_Cu5NiC31
_symmetry_space_group_name_H-M   'P 1'
_cell_length_a   8.37194643
_cell_length_b   8.79888789
_cell_length_c   8.72959037
_cell_angle_alpha   59.27469040
_cell_angle_beta   61.83376476
_cell_angle_gamma   62.35086626
_symmetry_Int_Tables_number   1
_chemical_formula_structural   Cu5NiC31
_chemical_formula_sum   'Cu5 Ni1 C31'
_cell_volume   465.77368291
_cell_formula_units_Z   1
loop_
 _symmetry_equiv_pos_site_id
 _symmetry_equiv_pos_as_xyz
  1  'x, y, z'
loop_
 _atom_site_type_symbol
 _atom_site_label
 _atom_site_symmetry_multiplicity
 _atom_site_fract_x
 _atom_site_fract_y
 _atom_site_fract_z
 _atom_site_occupancy
  Ni  Ni0  1  0.25079100  0.86662500  0.63399000  1
  Cu  Cu1  1  0.99211900  0.01281700  0.01524300  1
  Cu  Cu2  1  0.05747300  0.64423800  0.64914700  1
  Cu  Cu3  1  0.50718600  0.48875800  0.49190600  1
  Cu  Cu4  1  0.44494000  0.84647900  0.85843200  1
  Cu  Cu5  1  0.93179700  0.35670300  0.35130200  1
  C  C6  1  0.57208500  0.14553300  0.13994100  1
  C  C7  1  0.25977900  0.25220600  0.52933300  1
  C  C8  1  0.24140600  0.96339200  0.24620800  1
  C  C9  1  0.25137000  0.53809300  0.96109600  1
  C  C10  1  0.75196200  0.45651100  0.04265500  1
  C  C11  1  0.77051600  0.04515200  0.74939300  1
  C  C12  1  0.72580900  0.75510000  0.45741100  1
  C  C13  1  0.06915400  0.11630800  0.29573700  1
  C  C14  1  0.06833700  0.51367500  0.11729300  1
  C  C15  1  0.06796900  0.31606500  0.49972200  1
  C  C16  1  0.24367100  0.07099100  0.71808300  1
  C  C17  1  0.42896000  0.19979500  0.37197100  1
  C  C18  1  0.27863700  0.39900200  0.56217900  1
  C  C19  1  0.22901700  0.92491300  0.09818200  1
  C  C20  1  0.25238900  0.77713800  0.43213900  1
  C  C21  1  0.56996800  0.60381800  0.00217400  1
  C  C22  1  0.25570900  0.57843600  0.75884100  1
  C  C23  1  0.76858100  0.26564100  0.05990200  1
  C  C24  1  0.60934200  0.97192500  0.80380900  1
  C  C25  1  0.43118800  0.99298300  0.18713400  1
  C  C26  1  0.24848300  0.73764500  0.92171700  1
  C  C27  1  0.73629600  0.43947800  0.23635400  1
  C  C28  1  0.42892900  0.38214200  0.98934200  1
  C  C29  1  0.73951700  0.23573200  0.58308200  1
  C  C30  1  0.76516400  0.07434400  0.91354700  1
  C  C31  1  0.71963800  0.59607300  0.43402900  1
  C  C32  1  0.52983800  0.81691000  0.59420700  1
  C  C33  1  0.76094500  0.91915600  0.26438500  1
  C  C34  1  0.88926700  0.69742000  0.52904000  1
  C  C35  1  0.93340400  0.50227000  0.89250500  1
  C  C36  1  0.96836800  0.91059800  0.69451300  1
