# generated using pymatgen
data_Cu5Ni2C
_symmetry_space_group_name_H-M   'P 1'
_cell_length_a   10.76610097
_cell_length_b   10.76610097
_cell_length_c   10.76610097
_cell_angle_alpha   60.00000000
_cell_angle_beta   60.00000000
_cell_angle_gamma   60.00000000
_symmetry_Int_Tables_number   1
_chemical_formula_structural   Cu5Ni2C
_chemical_formula_sum   'Cu20 Ni8 C4'
_cell_volume   882.38953193
_cell_formula_units_Z   4
loop_
 _symmetry_equiv_pos_site_id
 _symmetry_equiv_pos_as_xyz
  1  'x, y, z'
loop_
 _atom_site_type_symbol
 _atom_site_label
 _atom_site_symmetry_multiplicity
 _atom_site_fract_x
 _atom_site_fract_y
 _atom_site_fract_z
 _atom_site_occupancy
  C  C0  1  0.12500000  0.12500000  0.62500000  1
  C  C1  1  0.12500000  0.62500000  0.12500000  1
  C  C2  1  0.62500000  0.12500000  0.12500000  1
  C  C3  1  0.12500000  0.12500000  0.12500000  1
  Ni  Ni4  1  0.41700100  0.41700100  0.41700100  1
  Ni  Ni5  1  0.50100400  0.83299900  0.83299900  1
  Ni  Ni6  1  0.83299900  0.83299900  0.50100400  1
  Ni  Ni7  1  0.83299900  0.50100400  0.83299900  1
  Ni  Ni8  1  0.41700100  0.41700100  0.74899600  1
  Ni  Ni9  1  0.41700100  0.74899600  0.41700100  1
  Ni  Ni10  1  0.74899600  0.41700100  0.41700100  1
  Ni  Ni11  1  0.83299900  0.83299900  0.83299900  1
  Cu  Cu12  1  0.92303700  0.57696300  0.57696300  1
  Cu  Cu13  1  0.67303700  0.32696300  0.32696300  1
  Cu  Cu14  1  0.57696300  0.92303700  0.57696300  1
  Cu  Cu15  1  0.57696300  0.57696300  0.92303700  1
  Cu  Cu16  1  0.92303700  0.92303700  0.57696300  1
  Cu  Cu17  1  0.92303700  0.57696300  0.92303700  1
  Cu  Cu18  1  0.32696300  0.67303700  0.67303700  1
  Cu  Cu19  1  0.67303700  0.67303700  0.32696300  1
  Cu  Cu20  1  0.32696300  0.32696300  0.67303700  1
  Cu  Cu21  1  0.32696300  0.67303700  0.32696300  1
  Cu  Cu22  1  0.67303700  0.32696300  0.67303700  1
  Cu  Cu23  1  0.57696300  0.92303700  0.92303700  1
  Cu  Cu24  1  0.91555800  0.91555800  0.91555800  1
  Cu  Cu25  1  0.99667400  0.33444200  0.33444200  1
  Cu  Cu26  1  0.33444200  0.99667400  0.33444200  1
  Cu  Cu27  1  0.33444200  0.33444200  0.99667400  1
  Cu  Cu28  1  0.91555800  0.25332600  0.91555800  1
  Cu  Cu29  1  0.91555800  0.91555800  0.25332600  1
  Cu  Cu30  1  0.25332600  0.91555800  0.91555800  1
  Cu  Cu31  1  0.33444200  0.33444200  0.33444200  1
