# generated using pymatgen
data_Cu2Ni5C31
_symmetry_space_group_name_H-M   'P 1'
_cell_length_a   8.82233436
_cell_length_b   8.80024200
_cell_length_c   22.34118105
_cell_angle_alpha   90.63885015
_cell_angle_beta   89.48972823
_cell_angle_gamma   119.91812708
_symmetry_Int_Tables_number   1
_chemical_formula_structural   Cu2Ni5C31
_chemical_formula_sum   'Cu6 Ni15 C93'
_cell_volume   1503.28859194
_cell_formula_units_Z   3
loop_
 _symmetry_equiv_pos_site_id
 _symmetry_equiv_pos_as_xyz
  1  'x, y, z'
loop_
 _atom_site_type_symbol
 _atom_site_label
 _atom_site_symmetry_multiplicity
 _atom_site_fract_x
 _atom_site_fract_y
 _atom_site_fract_z
 _atom_site_occupancy
  C  C0  1  0.63544976  0.99947225  0.25028437  1
  C  C1  1  0.99703689  0.36390777  0.75021548  1
  C  C2  1  0.30090625  0.33561248  0.58080612  1
  C  C3  1  0.66774206  0.96974672  0.58068585  1
  C  C4  1  0.02966702  0.33125346  0.08424417  1
  C  C5  1  0.96547257  0.66705066  0.91560745  1
  C  C6  1  0.99938768  0.99724264  0.49381056  1
  C  C7  1  0.99234057  0.99735437  0.00118220  1
  C  C8  1  0.65580674  0.32847545  0.83532834  1
  C  C9  1  0.66230297  0.33753179  0.33368441  1
  C  C10  1  0.33239682  0.67223484  0.16497533  1
  C  C11  1  0.33167388  0.67399382  0.66488714  1
  C  C12  1  0.99902874  0.99446886  0.64588695  1
  C  C13  1  0.66398348  0.33477338  0.68805198  1
  C  C14  1  0.67421940  0.33124921  0.18981995  1
  C  C15  1  0.65744223  0.32474579  0.47631276  1
  C  C16  1  0.34003165  0.66589830  0.30884800  1
  C  C17  1  0.33781626  0.65751693  0.81270350  1
  Ni  Ni18  1  0.27020723  -0.00006806  0.25008524  1
  Ni  Ni19  1  0.72851546  0.72015075  0.25235730  1
  Ni  Ni20  1  0.00772471  0.27965450  0.24766042  1
  Ni  Ni21  1  0.28289499  0.27382940  0.75376517  1
  Ni  Ni22  1  0.00184050  0.71903153  0.75479688  1
  Ni  Ni23  1  0.70839230  0.99734079  0.75143687  1
  Ni  Ni24  1  0.96441233  0.34616392  0.58085894  1
  Ni  Ni25  1  0.37304301  0.03183882  0.58131297  1
  Ni  Ni26  1  0.66648072  0.62318762  0.58089731  1
  Ni  Ni27  1  0.96562376  0.63615746  0.08206311  1
  Ni  Ni28  1  0.66268180  0.03611729  0.07964420  1
  Ni  Ni29  1  0.62525534  0.66375217  0.92126336  1
  Ni  Ni30  1  0.04559614  0.36954322  0.91962396  1
  Ni  Ni31  1  0.62887706  0.94742879  0.41682785  1
  Ni  Ni32  1  0.32214222  0.37124117  0.41681986  1
  Cu  Cu33  1  0.99863510  0.01506918  0.35121510  1
  Cu  Cu34  1  0.98313480  0.00438435  0.85231039  1
  Cu  Cu35  1  0.98341495  0.98099975  0.14965322  1
  Cu  Cu36  1  0.69516582  0.35029469  0.98239469  1
  Cu  Cu37  1  0.33939289  0.66980873  0.01950794  1
  Cu  Cu38  1  0.34120638  0.66245960  0.51945965  1
  C  C39  1  0.38058903  0.33322406  0.08116406  1
  C  C40  1  0.33857156  0.96209558  0.91848690  1
  C  C41  1  0.04842587  0.67123547  0.41783933  1
  C  C42  1  0.19080499  0.03498336  0.31085382  1
  C  C43  1  0.84275809  0.80611230  0.31147205  1
  C  C44  1  0.95273037  0.15913481  0.30688514  1
  C  C45  1  0.18884005  0.15504004  0.81129331  1
  C  C46  1  0.96895131  0.80652343  0.81425713  1
  C  C47  1  0.83771553  0.04512468  0.80821256  1
  C  C48  1  0.79316190  0.96580096  0.69033388  1
  C  C49  1  0.16695171  0.20472748  0.69197609  1
  C  C50  1  0.03246263  0.83556650  0.69419125  1
  C  C51  1  0.79163449  0.84046201  0.19225885  1
  C  C52  1  0.03509161  0.19695269  0.18561539  1
  C  C53  1  0.15692857  0.96588462  0.18941109  1
  C  C54  1  0.87479061  0.37023441  0.64277057  1
  C  C55  1  0.50168200  0.12573860  0.63939220  1
  C  C56  1  0.62744452  0.49768447  0.63977827  1
  C  C57  1  0.86696681  0.49779651  0.13775309  1
  C  C58  1  0.63153331  0.12698940  0.14059429  1
  C  C59  1  0.48721985  0.36290549  0.13564257  1
  C  C60  1  0.46313727  0.30555563  0.02686787  1
  C  C61  1  0.84316345  0.54979330  0.02217730  1
  C  C62  1  0.70296940  0.17608834  0.02422436  1
  C  C63  1  0.46314040  0.16759436  0.52566481  1
  C  C64  1  0.70118185  0.53185714  0.52401906  1
  C  C65  1  0.82865948  0.29745158  0.52589607  1
  C  C66  1  0.52899754  0.70250031  0.97662879  1
  C  C67  1  0.16853692  0.46930679  0.97800737  1
  C  C68  1  0.29881191  0.84329170  0.97167062  1
  C  C69  1  0.53379809  0.83364678  0.47758414  1
  C  C70  1  0.29622101  0.46123740  0.47829583  1
  C  C71  1  0.15604901  0.69644611  0.47240442  1
  C  C72  1  0.12695415  0.63962314  0.36327117  1
  C  C73  1  0.50295386  0.86664336  0.35797884  1
  C  C74  1  0.35624765  0.50069180  0.35998535  1
  C  C75  1  0.12790180  0.49886349  0.86046719  1
  C  C76  1  0.36560126  0.87925414  0.86377989  1
  C  C77  1  0.50183080  0.63533516  0.86151480  1
  C  C78  1  0.02845994  0.82516235  0.41328944  1
  C  C79  1  0.82189643  0.96881134  0.40967113  1
  C  C80  1  0.15304506  0.17654141  0.40961328  1
  C  C81  1  0.02780062  0.17711658  0.91047130  1
  C  C82  1  0.17540483  0.97220814  0.91293657  1
  C  C83  1  0.82276044  0.83464009  0.91052891  1
  C  C84  1  0.98052505  0.16849289  0.58896848  1
  C  C85  1  0.18820936  0.02787456  0.58830530  1
  C  C86  1  0.83407088  0.81877823  0.58750748  1
  C  C87  1  0.98164719  0.82756397  0.09051408  1
  C  C88  1  0.84679529  0.03273372  0.08880200  1
  C  C89  1  0.20319854  0.17963920  0.08566264  1
  C  C90  1  0.69753668  0.17558002  0.74447575  1
  C  C91  1  0.47866622  0.30536068  0.74596411  1
  C  C92  1  0.83214916  0.52231660  0.74582196  1
  C  C93  1  0.69237527  0.52116554  0.24259659  1
  C  C94  1  0.82927908  0.29975414  0.24254480  1
  C  C95  1  0.47420230  0.16801749  0.24208095  1
  C  C96  1  0.64351512  0.48542120  0.92717128  1
  C  C97  1  0.85228243  0.35942595  0.92423394  1
  C  C98  1  0.49381467  0.13473521  0.92467424  1
  C  C99  1  0.64733018  0.14361315  0.42302649  1
  C  C100  1  0.50316319  0.36053787  0.42228645  1
  C  C101  1  0.87281535  0.50880608  0.42243697  1
  C  C102  1  0.36009036  0.49396347  0.07752644  1
  C  C103  1  0.15299850  0.63671344  0.07331554  1
  C  C104  1  0.48573056  0.84386808  0.07319497  1
  C  C105  1  0.36064587  0.84387938  0.57300956  1
  C  C106  1  0.49134474  0.64178090  0.57690349  1
  C  C107  1  0.15957662  0.51406887  0.57446001  1
  C  C108  1  0.30788382  0.83356861  0.25686044  1
  C  C109  1  0.52989819  0.69915237  0.25658958  1
  C  C110  1  0.16978104  0.47824553  0.25511198  1
  C  C111  1  0.29966198  0.47011401  0.75768538  1
  C  C112  1  0.16981923  0.68885341  0.75877134  1
  C  C113  1  0.51560668  0.82784973  0.75774438  1
