# generated using pymatgen
data_CuNi2C
_symmetry_space_group_name_H-M   'P 1'
_cell_length_a   6.43487000
_cell_length_b   8.53550736
_cell_length_c   8.57305820
_cell_angle_alpha   77.12556984
_cell_angle_beta   81.95786497
_cell_angle_gamma   74.01536710
_symmetry_Int_Tables_number   1
_chemical_formula_structural   CuNi2C
_chemical_formula_sum   'Cu4 Ni8 C4'
_cell_volume   439.73587264
_cell_formula_units_Z   4
loop_
 _symmetry_equiv_pos_site_id
 _symmetry_equiv_pos_as_xyz
  1  'x, y, z'
loop_
 _atom_site_type_symbol
 _atom_site_label
 _atom_site_symmetry_multiplicity
 _atom_site_fract_x
 _atom_site_fract_y
 _atom_site_fract_z
 _atom_site_occupancy
  C  C0  1  0.10371500  0.68076800  0.10718300  1
  C  C1  1  0.89628500  0.31923200  0.89281700  1
  C  C2  1  0.97996000  0.67168800  0.75793000  1
  C  C3  1  0.02004000  0.32831200  0.24207000  1
  Ni  Ni4  1  0.75975600  0.33628200  0.40673100  1
  Ni  Ni5  1  0.24024400  0.66371800  0.59326900  1
  Ni  Ni6  1  0.73118700  0.86549400  0.67834500  1
  Ni  Ni7  1  0.26881300  0.13450600  0.32165500  1
  Ni  Ni8  1  0.11563800  0.13993900  0.79296200  1
  Ni  Ni9  1  0.88436200  0.86006100  0.20703800  1
  Ni  Ni10  1  0.59446400  0.28642100  0.89831600  1
  Ni  Ni11  1  0.40553600  0.71357900  0.10168400  1
  Cu  Cu12  1  0.95368000  0.30663900  0.07391800  1
  Cu  Cu13  1  0.04632000  0.69336100  0.92608200  1
  Cu  Cu14  1  0.90351900  0.50038300  0.78440000  1
  Cu  Cu15  1  0.09648100  0.49961700  0.21560000  1
