# generated using pymatgen
data_Cu5Ni5C2
_symmetry_space_group_name_H-M   'P 1'
_cell_length_a   8.29879308
_cell_length_b   8.29879308
_cell_length_c   18.84191500
_cell_angle_alpha   90.00000000
_cell_angle_beta   90.00000000
_cell_angle_gamma   151.15454802
_symmetry_Int_Tables_number   1
_chemical_formula_structural   Cu5Ni5C2
_chemical_formula_sum   'Cu10 Ni10 C4'
_cell_volume   626.04570366
_cell_formula_units_Z   2
loop_
 _symmetry_equiv_pos_site_id
 _symmetry_equiv_pos_as_xyz
  1  'x, y, z'
loop_
 _atom_site_type_symbol
 _atom_site_label
 _atom_site_symmetry_multiplicity
 _atom_site_fract_x
 _atom_site_fract_y
 _atom_site_fract_z
 _atom_site_occupancy
  C  C0  1  0.51732800  0.48267200  0.11804900  1
  C  C1  1  0.48267200  0.51732800  0.88195100  1
  C  C2  1  0.48267200  0.51732800  0.61804900  1
  C  C3  1  0.51732800  0.48267200  0.38195100  1
  Ni  Ni4  1  0.67391400  0.32608600  0.75000000  1
  Ni  Ni5  1  0.32608600  0.67391400  0.25000000  1
  Ni  Ni6  1  0.72381800  0.27618200  0.95705100  1
  Ni  Ni7  1  0.27618200  0.72381800  0.04294900  1
  Ni  Ni8  1  0.27618200  0.72381800  0.45705100  1
  Ni  Ni9  1  0.72381800  0.27618200  0.54294900  1
  Ni  Ni10  1  0.80051300  0.19948700  0.35292700  1
  Ni  Ni11  1  0.19948700  0.80051300  0.64707300  1
  Ni  Ni12  1  0.19948700  0.80051300  0.85292700  1
  Ni  Ni13  1  0.80051300  0.19948700  0.14707300  1
  Cu  Cu14  1  0.07916300  0.92083700  0.75000000  1
  Cu  Cu15  1  0.92083700  0.07916300  0.25000000  1
  Cu  Cu16  1  0.19688400  0.80311600  0.16666100  1
  Cu  Cu17  1  0.80311600  0.19688400  0.83333900  1
  Cu  Cu18  1  0.80311600  0.19688400  0.66666100  1
  Cu  Cu19  1  0.19688400  0.80311600  0.33333900  1
  Cu  Cu20  1  0.87166700  0.12833300  0.02029600  1
  Cu  Cu21  1  0.12833300  0.87166700  0.97970400  1
  Cu  Cu22  1  0.12833300  0.87166700  0.52029600  1
  Cu  Cu23  1  0.87166700  0.12833300  0.47970400  1
