# generated using pymatgen
data_CuNi2C5
_symmetry_space_group_name_H-M   'P 1'
_cell_length_a   5.41513865
_cell_length_b   5.41739107
_cell_length_c   7.38159341
_cell_angle_alpha   110.96578444
_cell_angle_beta   111.69257428
_cell_angle_gamma   90.49761162
_symmetry_Int_Tables_number   1
_chemical_formula_structural   CuNi2C5
_chemical_formula_sum   'Cu1 Ni2 C5'
_cell_volume   185.39353967
_cell_formula_units_Z   1
loop_
 _symmetry_equiv_pos_site_id
 _symmetry_equiv_pos_as_xyz
  1  'x, y, z'
loop_
 _atom_site_type_symbol
 _atom_site_label
 _atom_site_symmetry_multiplicity
 _atom_site_fract_x
 _atom_site_fract_y
 _atom_site_fract_z
 _atom_site_occupancy
  C  C0  1  0.73766800  0.74608900  0.48357200  1
  Ni  Ni1  1  0.49395600  0.99468200  0.98848600  1
  Ni  Ni2  1  0.99388200  0.49448500  0.98822400  1
  Cu  Cu3  1  0.01448200  0.01479200  0.02945000  1
  C  C4  1  0.84670800  0.84345300  0.20597000  1
  C  C5  1  0.36254800  0.35953300  0.20619500  1
  C  C6  1  0.10114100  0.66825700  0.76929200  1
  C  C7  1  0.66390200  0.10489900  0.76881000  1
