# generated using pymatgen
data_Cu2Ni4C3
_symmetry_space_group_name_H-M   'P 1'
_cell_length_a   13.39567000
_cell_length_b   13.39567000
_cell_length_c   13.39567000
_cell_angle_alpha   90.00000000
_cell_angle_beta   90.00000000
_cell_angle_gamma   90.00000000
_symmetry_Int_Tables_number   1
_chemical_formula_structural   Cu2Ni4C3
_chemical_formula_sum   'Cu16 Ni32 C24'
_cell_volume   2403.77226922
_cell_formula_units_Z   8
loop_
 _symmetry_equiv_pos_site_id
 _symmetry_equiv_pos_as_xyz
  1  'x, y, z'
loop_
 _atom_site_type_symbol
 _atom_site_label
 _atom_site_symmetry_multiplicity
 _atom_site_fract_x
 _atom_site_fract_y
 _atom_site_fract_z
 _atom_site_occupancy
  Ni  Ni0  1  0.22503500  0.22503500  0.22503500  1
  Ni  Ni1  1  0.27496500  0.77496500  0.72503500  1
  Ni  Ni2  1  0.72503500  0.27496500  0.77496500  1
  Ni  Ni3  1  0.77496500  0.72503500  0.27496500  1
  Ni  Ni4  1  0.77496500  0.77496500  0.77496500  1
  Ni  Ni5  1  0.72503500  0.22503500  0.27496500  1
  Ni  Ni6  1  0.27496500  0.72503500  0.22503500  1
  Ni  Ni7  1  0.22503500  0.27496500  0.72503500  1
  Ni  Ni8  1  0.03934800  0.01262400  0.26257600  1
  Ni  Ni9  1  0.26257600  0.03934800  0.01262400  1
  Ni  Ni10  1  0.01262400  0.26257600  0.03934800  1
  Ni  Ni11  1  0.48737600  0.73742400  0.53934800  1
  Ni  Ni12  1  0.76257600  0.46065200  0.98737600  1
  Ni  Ni13  1  0.98737600  0.76257600  0.46065200  1
  Ni  Ni14  1  0.23742400  0.96065200  0.51262400  1
  Ni  Ni15  1  0.73742400  0.53934800  0.48737600  1
  Ni  Ni16  1  0.51262400  0.23742400  0.96065200  1
  Ni  Ni17  1  0.53934800  0.48737600  0.73742400  1
  Ni  Ni18  1  0.96065200  0.51262400  0.23742400  1
  Ni  Ni19  1  0.46065200  0.98737600  0.76257600  1
  Ni  Ni20  1  0.96065200  0.98737600  0.73742400  1
  Ni  Ni21  1  0.73742400  0.96065200  0.98737600  1
  Ni  Ni22  1  0.98737600  0.73742400  0.96065200  1
  Ni  Ni23  1  0.51262400  0.26257600  0.46065200  1
  Ni  Ni24  1  0.23742400  0.53934800  0.01262400  1
  Ni  Ni25  1  0.01262400  0.23742400  0.53934800  1
  Ni  Ni26  1  0.76257600  0.03934800  0.48737600  1
  Ni  Ni27  1  0.26257600  0.46065200  0.51262400  1
  Ni  Ni28  1  0.48737600  0.76257600  0.03934800  1
  Ni  Ni29  1  0.46065200  0.51262400  0.26257600  1
  Ni  Ni30  1  0.03934800  0.48737600  0.76257600  1
  Ni  Ni31  1  0.53934800  0.01262400  0.23742400  1
  Cu  Cu32  1  0.11345500  0.11345500  0.11345500  1
  Cu  Cu33  1  0.38654500  0.88654500  0.61345500  1
  Cu  Cu34  1  0.61345500  0.38654500  0.88654500  1
  Cu  Cu35  1  0.88654500  0.61345500  0.38654500  1
  Cu  Cu36  1  0.88654500  0.88654500  0.88654500  1
  Cu  Cu37  1  0.61345500  0.11345500  0.38654500  1
  Cu  Cu38  1  0.38654500  0.61345500  0.11345500  1
  Cu  Cu39  1  0.11345500  0.38654500  0.61345500  1
  Cu  Cu40  1  0.44687800  0.44687800  0.44687800  1
  Cu  Cu41  1  0.05312200  0.55312200  0.94687800  1
  Cu  Cu42  1  0.94687800  0.05312200  0.55312200  1
  Cu  Cu43  1  0.55312200  0.94687800  0.05312200  1
  Cu  Cu44  1  0.55312200  0.55312200  0.55312200  1
  Cu  Cu45  1  0.94687800  0.44687800  0.05312200  1
  Cu  Cu46  1  0.05312200  0.94687800  0.44687800  1
  Cu  Cu47  1  0.44687800  0.05312200  0.94687800  1
  C  C48  1  0.18640900  0.44174800  0.25946400  1
  C  C49  1  0.25946400  0.18640900  0.44174800  1
  C  C50  1  0.44174800  0.25946400  0.18640900  1
  C  C51  1  0.05825200  0.74053600  0.68640900  1
  C  C52  1  0.75946400  0.31359100  0.55825200  1
  C  C53  1  0.55825200  0.75946400  0.31359100  1
  C  C54  1  0.24053600  0.81359100  0.94174800  1
  C  C55  1  0.74053600  0.68640900  0.05825200  1
  C  C56  1  0.94174800  0.24053600  0.81359100  1
  C  C57  1  0.68640900  0.05825200  0.74053600  1
  C  C58  1  0.81359100  0.94174800  0.24053600  1
  C  C59  1  0.31359100  0.55825200  0.75946400  1
  C  C60  1  0.81359100  0.55825200  0.74053600  1
  C  C61  1  0.74053600  0.81359100  0.55825200  1
  C  C62  1  0.55825200  0.74053600  0.81359100  1
  C  C63  1  0.94174800  0.25946400  0.31359100  1
  C  C64  1  0.24053600  0.68640900  0.44174800  1
  C  C65  1  0.44174800  0.24053600  0.68640900  1
  C  C66  1  0.75946400  0.18640900  0.05825200  1
  C  C67  1  0.25946400  0.31359100  0.94174800  1
  C  C68  1  0.05825200  0.75946400  0.18640900  1
  C  C69  1  0.31359100  0.94174800  0.25946400  1
  C  C70  1  0.18640900  0.05825200  0.75946400  1
  C  C71  1  0.68640900  0.44174800  0.24053600  1
