# generated using pymatgen
data_Cu8Ni2C5
_symmetry_space_group_name_H-M   'P 1'
_cell_length_a   6.54899376
_cell_length_b   6.54899376
_cell_length_c   6.95726209
_cell_angle_alpha   72.17086702
_cell_angle_beta   72.17086702
_cell_angle_gamma   65.06300787
_symmetry_Int_Tables_number   1
_chemical_formula_structural   Cu8Ni2C5
_chemical_formula_sum   'Cu8 Ni2 C5'
_cell_volume   252.10069896
_cell_formula_units_Z   1
loop_
 _symmetry_equiv_pos_site_id
 _symmetry_equiv_pos_as_xyz
  1  'x, y, z'
loop_
 _atom_site_type_symbol
 _atom_site_label
 _atom_site_symmetry_multiplicity
 _atom_site_fract_x
 _atom_site_fract_y
 _atom_site_fract_z
 _atom_site_occupancy
  C  C0  1  0.75344575  0.76261598  0.10648272  1
  C  C1  1  0.23738402  0.24655425  0.89351728  1
  C  C2  1  0.69344568  0.30655432  0.50000000  1
  C  C3  1  0.64367039  0.63650065  0.73440273  1
  C  C4  1  0.36349935  0.35632961  0.26559727  1
  Ni  Ni5  1  0.95388544  0.04894037  0.75221788  1
  Ni  Ni6  1  0.95105963  0.04611456  0.24778212  1
  Cu  Cu7  1  0.75499532  0.60846258  0.45498619  1
  Cu  Cu8  1  0.39153742  0.24500468  0.54501381  1
  Cu  Cu9  1  0.54731691  0.53141951  0.21759929  1
  Cu  Cu10  1  0.46858049  0.45268309  0.78240071  1
  Cu  Cu11  1  0.11750321  0.51410155  0.12803629  1
  Cu  Cu12  1  0.45484401  0.08789907  0.16440944  1
  Cu  Cu13  1  0.91210093  0.54515599  0.83559056  1
  Cu  Cu14  1  0.48589845  0.88249679  0.87196371  1
