# generated using pymatgen
data_Cu5(NiC)7
_symmetry_space_group_name_H-M   'P 1'
_cell_length_a   5.18246907
_cell_length_b   5.22490297
_cell_length_c   8.56299699
_cell_angle_alpha   90.48023766
_cell_angle_beta   88.70909174
_cell_angle_gamma   104.50924562
_symmetry_Int_Tables_number   1
_chemical_formula_structural   Cu5(NiC)7
_chemical_formula_sum   'Cu5 Ni7 C7'
_cell_volume   224.41517712
_cell_formula_units_Z   1
loop_
 _symmetry_equiv_pos_site_id
 _symmetry_equiv_pos_as_xyz
  1  'x, y, z'
loop_
 _atom_site_type_symbol
 _atom_site_label
 _atom_site_symmetry_multiplicity
 _atom_site_fract_x
 _atom_site_fract_y
 _atom_site_fract_z
 _atom_site_occupancy
  C  C0  1  0.48416064  0.98836361  0.66477919  1
  C  C1  1  0.04988112  0.95889399  0.03163528  1
  C  C2  1  0.01314283  0.98765412  0.32853049  1
  C  C3  1  0.98874706  0.02128532  0.67337829  1
  C  C4  1  0.45281203  0.55122943  0.16925727  1
  C  C5  1  0.52727883  0.48406555  0.84365481  1
  C  C6  1  0.50707898  0.49438712  0.49575101  1
  Ni  Ni7  1  0.21140144  0.79954699  0.17085672  1
  Ni  Ni8  1  0.30066954  0.32287682  0.33298324  1
  Ni  Ni9  1  0.30990284  0.31664820  0.00789805  1
  Ni  Ni10  1  0.32486390  0.30006274  0.66963308  1
  Ni  Ni11  1  0.67662538  0.70264954  0.66929123  1
  Ni  Ni12  1  0.69643726  0.69096577  0.00757147  1
  Ni  Ni13  1  0.68446473  0.69232182  0.33020746  1
  Cu  Cu14  1  0.19580783  0.84299792  0.82919707  1
  Cu  Cu15  1  0.19891300  0.83863979  0.51260829  1
  Cu  Cu16  1  0.84681697  0.15058142  0.15994442  1
  Cu  Cu17  1  0.75275575  0.18409026  0.81870545  1
  Cu  Cu18  1  0.77823889  0.15884660  0.50554718  1
