# generated using pymatgen
data_CuNiC5
_symmetry_space_group_name_H-M   'P 1'
_cell_length_a   3.17302600
_cell_length_b   5.35684170
_cell_length_c   5.17687494
_cell_angle_alpha   92.27357463
_cell_angle_beta   90.00000000
_cell_angle_gamma   90.00000000
_symmetry_Int_Tables_number   1
_chemical_formula_structural   CuNiC5
_chemical_formula_sum   'Cu1 Ni1 C5'
_cell_volume   87.92413515
_cell_formula_units_Z   1
loop_
 _symmetry_equiv_pos_site_id
 _symmetry_equiv_pos_as_xyz
  1  'x, y, z'
loop_
 _atom_site_type_symbol
 _atom_site_label
 _atom_site_symmetry_multiplicity
 _atom_site_fract_x
 _atom_site_fract_y
 _atom_site_fract_z
 _atom_site_occupancy
  Ni  Ni0  1  0.54034500  0.50000000  0.00000000  1
  Cu  Cu1  1  0.53726600  0.50000000  0.50000000  1
  C  C2  1  0.03932000  0.00000000  0.00000000  1
  C  C3  1  0.03842000  0.35542200  0.23697400  1
  C  C4  1  0.03842000  0.64457800  0.76302600  1
  C  C5  1  0.53853100  0.82660500  0.20915000  1
  C  C6  1  0.53853100  0.17339500  0.79085000  1
