# generated using pymatgen
data_Cu2NiC16
_symmetry_space_group_name_H-M   'P 1'
_cell_length_a   4.91551766
_cell_length_b   4.95606117
_cell_length_c   9.76210100
_cell_angle_alpha   90.00000000
_cell_angle_beta   90.00000000
_cell_angle_gamma   88.14851337
_symmetry_Int_Tables_number   1
_chemical_formula_structural   Cu2NiC16
_chemical_formula_sum   'Cu2 Ni1 C16'
_cell_volume   237.69630154
_cell_formula_units_Z   1
loop_
 _symmetry_equiv_pos_site_id
 _symmetry_equiv_pos_as_xyz
  1  'x, y, z'
loop_
 _atom_site_type_symbol
 _atom_site_label
 _atom_site_symmetry_multiplicity
 _atom_site_fract_x
 _atom_site_fract_y
 _atom_site_fract_z
 _atom_site_occupancy
  Ni  Ni0  1  0.00000000  0.50000000  0.54763600  1
  Cu  Cu1  1  0.00000000  0.00000000  0.01117300  1
  Cu  Cu2  1  0.50000000  0.50000000  0.48614000  1
  C  C3  1  0.00000000  0.00000000  0.32194500  1
  C  C4  1  0.50000000  0.50000000  0.84282000  1
  C  C5  1  0.50000000  0.50000000  0.16766300  1
  C  C6  1  0.00000000  0.00000000  0.70149800  1
  C  C7  1  0.30786800  0.32546800  0.00604300  1
  C  C8  1  0.19551300  0.79967100  0.47212200  1
  C  C9  1  0.80448700  0.20032900  0.47212200  1
  C  C10  1  0.69213200  0.67453200  0.00604300  1
  C  C11  1  0.28959700  0.30747100  0.31969900  1
  C  C12  1  0.22598600  0.81337700  0.85027300  1
  C  C13  1  0.77401400  0.18662300  0.85027300  1
  C  C14  1  0.79253000  0.19212600  0.17113300  1
  C  C15  1  0.20747000  0.80787400  0.17113300  1
  C  C16  1  0.71040300  0.69252900  0.31969900  1
  C  C17  1  0.28703500  0.35062100  0.67948700  1
  C  C18  1  0.71296500  0.64937900  0.67948700  1
