# generated using pymatgen
data_CuNiC11
_symmetry_space_group_name_H-M   'P 1'
_cell_length_a   5.89524936
_cell_length_b   5.89524858
_cell_length_c   8.89126265
_cell_angle_alpha   90.00000000
_cell_angle_beta   90.00000000
_cell_angle_gamma   119.99999874
_symmetry_Int_Tables_number   1
_chemical_formula_structural   CuNiC11
_chemical_formula_sum   'Cu1 Ni1 C11'
_cell_volume   267.60756063
_cell_formula_units_Z   1
loop_
 _symmetry_equiv_pos_site_id
 _symmetry_equiv_pos_as_xyz
  1  'x, y, z'
loop_
 _atom_site_type_symbol
 _atom_site_label
 _atom_site_symmetry_multiplicity
 _atom_site_fract_x
 _atom_site_fract_y
 _atom_site_fract_z
 _atom_site_occupancy
  Ni  Ni0  1  -0.00000000  -0.00000000  0.27917467  1
  C  C1  1  -0.00000000  -0.00000000  0.99066079  1
  Cu  Cu2  1  -0.00000000  -0.00000000  0.60371033  1
  C  C3  1  0.66666700  0.33333300  0.22407659  1
  C  C4  1  0.33333300  0.66666700  0.76234985  1
  C  C5  1  0.84789713  0.15210287  0.14113161  1
  C  C6  1  0.84789713  0.69579426  0.14113161  1
  C  C7  1  0.30420574  0.15210287  0.14113161  1
  C  C8  1  0.67579277  0.83789638  0.82082559  1
  C  C9  1  0.33333300  0.66666700  0.56677412  1
  C  C10  1  0.66666700  0.33333300  0.42904906  1
  C  C11  1  0.16210362  0.83789638  0.82082559  1
  C  C12  1  0.16210362  0.32420723  0.82082559  1
