# generated using pymatgen
data_Cu7Ni4C71
_symmetry_space_group_name_H-M   'P 1'
_cell_length_a   18.00873353
_cell_length_b   8.98847057
_cell_length_c   22.14180241
_cell_angle_alpha   89.83701509
_cell_angle_beta   89.84016259
_cell_angle_gamma   120.04772089
_symmetry_Int_Tables_number   1
_chemical_formula_structural   Cu7Ni4C71
_chemical_formula_sum   'Cu21 Ni12 C213'
_cell_volume   3102.39171913
_cell_formula_units_Z   3
loop_
 _symmetry_equiv_pos_site_id
 _symmetry_equiv_pos_as_xyz
  1  'x, y, z'
loop_
 _atom_site_type_symbol
 _atom_site_label
 _atom_site_symmetry_multiplicity
 _atom_site_fract_x
 _atom_site_fract_y
 _atom_site_fract_z
 _atom_site_occupancy
  C  C0  1  0.81291820  0.98987052  0.23986767  1
  C  C1  1  0.18648844  0.36819005  0.25773152  1
  C  C2  1  0.68772501  0.36606800  0.25462597  1
  C  C3  1  0.99597565  0.64050416  0.23979410  1
  C  C4  1  0.50440496  0.65007401  0.24457622  1
  C  C5  1  0.31287006  0.63773580  0.75150362  1
  C  C6  1  0.00286522  0.35637815  0.74910154  1
  C  C7  1  0.49863329  0.35317109  0.74674304  1
  C  C8  1  0.18428298  0.00492353  0.75962318  1
  C  C9  1  0.68813681  0.00685472  0.76112483  1
  C  C10  1  0.14192027  0.33506460  0.58326268  1
  C  C11  1  0.64046385  0.33533544  0.58442440  1
  C  C12  1  0.33646688  0.97003415  0.58057023  1
  C  C13  1  0.83751312  0.97270013  0.58301853  1
  C  C14  1  0.13774234  0.94333940  0.08516618  1
  C  C15  1  0.65003395  0.95499196  0.08593172  1
  C  C16  1  0.33736363  0.70226257  0.08325513  1
  C  C17  1  0.83727663  0.71772060  0.08031284  1
  C  C18  1  0.48908420  0.68426774  0.92513859  1
  C  C19  1  0.98632375  0.67800962  0.92658076  1
  C  C20  1  0.34259492  0.01586630  0.91446689  1
  C  C21  1  0.84283873  0.02150045  0.92061786  1
  C  C22  1  0.16787606  0.29983027  0.90932568  1
  C  C23  1  0.67497272  0.31238941  0.91006387  1
  C  C24  1  0.48852454  0.29572133  0.42029480  1
  C  C25  1  0.98690051  0.28999958  0.42078999  1
  C  C26  1  0.17091069  0.03280430  0.40433512  1
  C  C27  1  0.66887652  0.03633956  0.40552658  1
  C  C28  1  0.34384283  0.66737647  0.40831707  1
  C  C29  1  0.84273371  0.67013268  0.41017619  1
  C  C30  1  0.99786387  0.00893513  0.49526299  1
  C  C31  1  0.49945154  0.01204810  0.49521007  1
  C  C32  1  0.99107531  0.98699068  0.00079893  1
  C  C33  1  0.50144373  0.98993662  0.99694276  1
  C  C34  1  0.32654665  0.32595489  0.83459329  1
  C  C35  1  0.82422542  0.33340408  0.83646101  1
  C  C36  1  0.32536537  0.31633697  0.33207960  1
  C  C37  1  0.82623473  0.32694964  0.32935348  1
  C  C38  1  0.16634854  0.67968317  0.17055296  1
  C  C39  1  0.66563738  0.67805638  0.16501593  1
  C  C40  1  0.15767667  0.65156228  0.67062397  1
  C  C41  1  0.66904546  0.65489145  0.67230478  1
  Ni  Ni42  1  0.99881879  0.99668795  0.34875354  1
  Ni  Ni43  1  0.50259280  0.00478462  0.34825083  1
  Ni  Ni44  1  0.00268151  0.00050787  0.84897668  1
  Ni  Ni45  1  0.49972286  0.00613707  0.85062663  1
  Ni  Ni46  1  0.33469728  0.32456647  0.69045287  1
  Ni  Ni47  1  0.83315565  0.33367004  0.18554267  1
  Ni  Ni48  1  0.33132448  0.34389648  0.97734139  1
  Ni  Ni49  1  0.83313400  0.33327143  0.98435890  1
  Ni  Ni50  1  0.33293801  0.32296344  0.48024528  1
  Ni  Ni51  1  0.83143477  0.31904385  0.47675518  1
  Ni  Ni52  1  0.68420074  0.68494325  0.31739893  1
  Ni  Ni53  1  0.18136434  0.67939631  0.81853372  1
  C  C54  1  0.00034681  0.02064278  0.65182362  1
  C  C55  1  0.49455396  0.01369616  0.65129632  1
  C  C56  1  0.99094059  0.98210054  0.14612421  1
  C  C57  1  0.50185539  0.98021334  0.15060929  1
  C  C58  1  0.83556233  0.33310497  0.69024295  1
  C  C59  1  0.33508558  0.33639653  0.18999143  1
  C  C60  1  0.16210794  0.67076668  0.01358475  1
  C  C61  1  0.67390409  0.69532413  0.01701743  1
  C  C62  1  0.16732381  0.65653452  0.51221001  1
  C  C63  1  0.66307623  0.65300540  0.51311728  1
  C  C64  1  0.18131107  0.68860723  0.31638702  1
  C  C65  1  0.68355980  0.67466918  0.81944559  1
  Cu  Cu66  1  0.14214679  0.99712320  0.25065441  1
  Cu  Cu67  1  0.65108489  0.99567245  0.25380482  1
  Cu  Cu68  1  0.35519488  0.71277508  0.25158492  1
  Cu  Cu69  1  0.85064604  0.69961329  0.25329058  1
  Cu  Cu70  1  0.15236357  0.30632600  0.75100505  1
  Cu  Cu71  1  0.64518794  0.29405842  0.75144140  1
  Cu  Cu72  1  0.34963314  0.99701462  0.75255032  1
  Cu  Cu73  1  0.85482487  0.99692997  0.75127503  1
  Cu  Cu74  1  0.47381425  0.34409807  0.58415416  1
  Cu  Cu75  1  0.97922490  0.34426932  0.57956234  1
  Cu  Cu76  1  0.47789640  0.61351276  0.07943774  1
  Cu  Cu77  1  0.97523255  0.60472078  0.08402287  1
  Cu  Cu78  1  0.83853391  0.06414884  0.08405778  1
  Cu  Cu79  1  0.31774567  0.66948343  0.91574115  1
  Cu  Cu80  1  0.82355176  0.66347246  0.91967192  1
  Cu  Cu81  1  0.16585230  0.96817708  0.91436142  1
  Cu  Cu82  1  0.66396855  0.97777222  0.91498886  1
  Cu  Cu83  1  0.32238272  0.97704365  0.42057314  1
  Cu  Cu84  1  0.81785056  0.96641189  0.41650537  1
  Cu  Cu85  1  0.16620902  0.35234770  0.41745899  1
  Cu  Cu86  1  0.66589647  0.36358876  0.41540250  1
  C  C87  1  0.99788022  0.28882070  0.25251077  1
  C  C88  1  0.50400192  0.29318468  0.25459715  1
  C  C89  1  0.00434789  0.71498221  0.75404660  1
  C  C90  1  0.49566228  0.70393366  0.74940768  1
  C  C91  1  0.19144823  0.05006146  0.58480071  1
  C  C92  1  0.68599621  0.03995252  0.57952170  1
  C  C93  1  0.33697614  0.61413562  0.58445190  1
  C  C94  1  0.83595645  0.62248165  0.57997484  1
  C  C95  1  0.33582357  0.04965042  0.07981861  1
  C  C96  1  0.18876517  0.33456944  0.07887673  1
  C  C97  1  0.68998707  0.33230950  0.08470899  1
  C  C98  1  0.02036610  0.36911194  0.91155493  1
  C  C99  1  0.51415282  0.36465723  0.91708006  1
  C  C100  1  0.01294733  0.66407555  0.41733416  1
  C  C101  1  0.51686898  0.66729302  0.41496983  1
  C  C102  1  0.09275155  0.02444428  0.30808528  1
  C  C103  1  0.59991547  0.03090758  0.30820868  1
  C  C104  1  0.41674172  0.82291692  0.30788452  1
  C  C105  1  0.91609513  0.79750116  0.30980360  1
  C  C106  1  0.49470083  0.18654297  0.30828316  1
  C  C107  1  0.98642647  0.18016349  0.30686456  1
  C  C108  1  0.10326328  0.16766157  0.80533920  1
  C  C109  1  0.59140964  0.16083634  0.80610333  1
  C  C110  1  0.48242522  0.78645890  0.80325154  1
  C  C111  1  0.99634590  0.80457728  0.80672453  1
  C  C112  1  0.41747727  0.03213318  0.80690276  1
  C  C113  1  0.91994514  0.01425146  0.80535395  1
  C  C114  1  0.37683054  0.93545392  0.68997709  1
  C  C115  1  0.88469324  0.96154902  0.68501095  1
  C  C116  1  0.10024971  0.24452705  0.68650407  1
  C  C117  1  0.59876665  0.22556400  0.68486933  1
  C  C118  1  0.01991389  0.81679887  0.69709802  1
  C  C119  1  0.51169863  0.80983270  0.69405771  1
  C  C120  1  0.38693553  0.81182656  0.18645636  1
  C  C121  1  0.87955487  0.81889445  0.19242365  1
  C  C122  1  0.01532168  0.21755230  0.19776110  1
  C  C123  1  0.51873799  0.22111039  0.19845834  1
  C  C124  1  0.09431121  0.98031376  0.18612666  1
  C  C125  1  0.59737197  0.95049865  0.19000316  1
  C  C126  1  0.42367889  0.34578916  0.64595663  1
  C  C127  1  0.94138163  0.36112175  0.64469904  1
  C  C128  1  0.24166541  0.13716306  0.64016482  1
  C  C129  1  0.73391445  0.11509007  0.63635228  1
  C  C130  1  0.32757771  0.51094895  0.63949820  1
  C  C131  1  0.82210805  0.51988666  0.63581430  1
  C  C132  1  0.43921338  0.52278511  0.14505451  1
  C  C133  1  0.92617949  0.50678235  0.14675229  1
  C  C134  1  0.32167179  0.12346882  0.13563047  1
  C  C135  1  0.82372945  0.15115774  0.14476523  1
  C  C136  1  0.23716122  0.35791610  0.13585391  1
  C  C137  1  0.73941791  0.34778749  0.14065432  1
  C  C138  1  0.23383198  0.31365264  0.02546097  1
  C  C139  1  0.73067061  0.31041413  0.02939178  1
  C  C140  1  0.41328618  0.51139461  0.02293946  1
  C  C141  1  0.91943048  0.51225744  0.02402347  1
  C  C142  1  0.33714684  0.14564711  0.02472784  1
  C  C143  1  0.83794471  0.15909244  0.02110006  1
  C  C144  1  0.23271303  0.15481297  0.52938644  1
  C  C145  1  0.73113215  0.15249716  0.52612894  1
  C  C146  1  0.33870348  0.52721949  0.52789414  1
  C  C147  1  0.83751330  0.53038835  0.52496453  1
  C  C148  1  0.41601829  0.32654732  0.52517471  1
  C  C149  1  0.91530401  0.31988609  0.52280526  1
  C  C150  1  0.28010475  0.71244291  0.97697990  1
  C  C151  1  0.78460361  0.71367739  0.97886401  1
  C  C152  1  0.07330448  0.43532908  0.96693797  1
  C  C153  1  0.57245520  0.44420638  0.96881080  1
  C  C154  1  0.13799973  0.85342746  0.97677675  1
  C  C155  1  0.63306200  0.84573358  0.97280126  1
  C  C156  1  0.28529345  0.85380531  0.48212742  1
  C  C157  1  0.78155439  0.85052274  0.47885081  1
  C  C158  1  0.13767064  0.42011589  0.47722927  1
  C  C159  1  0.63655632  0.41808798  0.47837195  1
  C  C160  1  0.07029668  0.70331825  0.47023753  1
  C  C161  1  0.57065340  0.70655649  0.46990737  1
  C  C162  1  0.04931017  0.62420618  0.36367224  1
  C  C163  1  0.55738591  0.63244451  0.36288061  1
  C  C164  1  0.24847052  0.89983035  0.36899405  1
  C  C165  1  0.74979362  0.87012280  0.36226301  1
  C  C166  1  0.19030972  0.48471811  0.36017507  1
  C  C167  1  0.68293284  0.50521779  0.36220176  1
  C  C168  1  0.06500747  0.48721690  0.85947122  1
  C  C169  1  0.54845935  0.47233180  0.86178749  1
  C  C170  1  0.18413104  0.86467475  0.86008430  1
  C  C171  1  0.68518620  0.89242586  0.85663903  1
  C  C172  1  0.25123394  0.62906352  0.85998159  1
  C  C173  1  0.75257363  0.58928257  0.86538859  1
  C  C174  1  0.00307912  0.81755216  0.41019720  1
  C  C175  1  0.50649175  0.82116302  0.40713597  1
  C  C176  1  0.41467629  0.98713390  0.40752641  1
  C  C177  1  0.91307147  0.98693243  0.40458562  1
  C  C178  1  0.08145515  0.16084187  0.40726384  1
  C  C179  1  0.58319908  0.16999419  0.40414744  1
  C  C180  1  0.00976444  0.19445810  0.90371034  1
  C  C181  1  0.50348318  0.18933276  0.91022255  1
  C  C182  1  0.08396265  0.99735125  0.90298084  1
  C  C183  1  0.57897922  0.00055971  0.90554628  1
  C  C184  1  0.41266763  0.84052059  0.90374162  1
  C  C185  1  0.91595416  0.84015573  0.90602435  1
  C  C186  1  0.48131285  0.16344886  0.58065987  1
  C  C187  1  0.98751406  0.16564613  0.57709329  1
  C  C188  1  0.10453646  0.02923236  0.58724496  1
  C  C189  1  0.59958793  0.02274187  0.58118495  1
  C  C190  1  0.41518873  0.78749013  0.58486375  1
  C  C191  1  0.91557104  0.79297967  0.58157037  1
  C  C192  1  0.48623000  0.80883142  0.07700078  1
  C  C193  1  0.98642314  0.80132421  0.08016609  1
  C  C194  1  0.41551068  0.03966775  0.08139222  1
  C  C195  1  0.92344205  0.04068497  0.08207657  1
  C  C196  1  0.10366482  0.17915889  0.08063790  1
  C  C197  1  0.60308869  0.17467452  0.08751121  1
  C  C198  1  0.34252400  0.17402257  0.74542513  1
  C  C199  1  0.85357604  0.18034480  0.75529795  1
  C  C200  1  0.24929584  0.32636098  0.74154620  1
  C  C201  1  0.73939909  0.30638209  0.75071058  1
  C  C202  1  0.41508696  0.53166021  0.74428785  1
  C  C203  1  0.92598381  0.54316727  0.75234822  1
  C  C204  1  0.35406780  0.52709784  0.25600383  1
  C  C205  1  0.84265969  0.50802771  0.24509137  1
  C  C206  1  0.42556155  0.30790628  0.25309091  1
  C  C207  1  0.91840980  0.30029343  0.24846007  1
  C  C208  1  0.23819597  0.17128092  0.25056121  1
  C  C209  1  0.74632612  0.17090563  0.24615315  1
  C  C210  1  0.32691749  0.49511125  0.92150656  1
  C  C211  1  0.83609545  0.49613832  0.92960284  1
  C  C212  1  0.42626517  0.34022032  0.92587658  1
  C  C213  1  0.93485893  0.35250756  0.91705275  1
  C  C214  1  0.25532069  0.15835580  0.92372616  1
  C  C215  1  0.75156060  0.16447697  0.92580849  1
  C  C216  1  0.33600472  0.17098480  0.42774888  1
  C  C217  1  0.82703271  0.15925424  0.42214611  1
  C  C218  1  0.25494737  0.34344518  0.43002477  1
  C  C219  1  0.75526206  0.35297630  0.42454544  1
  C  C220  1  0.42946071  0.51429626  0.42309154  1
  C  C221  1  0.92557665  0.51161092  0.42626652  1
  C  C222  1  0.18360230  0.49365699  0.07366311  1
  C  C223  1  0.68326171  0.48914546  0.08091778  1
  C  C224  1  0.07482639  0.63614957  0.08463912  1
  C  C225  1  0.57449961  0.64047419  0.07850960  1
  C  C226  1  0.25961532  0.87016536  0.07894387  1
  C  C227  1  0.75285662  0.86573189  0.08655759  1
  C  C228  1  0.18734625  0.88106530  0.58160550  1
  C  C229  1  0.68092353  0.87067724  0.57449483  1
  C  C230  1  0.25909425  0.63575636  0.58498272  1
  C  C231  1  0.75942174  0.64850367  0.57934950  1
  C  C232  1  0.07846209  0.51058594  0.57918574  1
  C  C233  1  0.57324587  0.50771847  0.58388071  1
  C  C234  1  0.14182710  0.81460780  0.25545486  1
  C  C235  1  0.65731780  0.81942507  0.26555608  1
  C  C236  1  0.25401271  0.66213821  0.24960656  1
  C  C237  1  0.75341343  0.67102340  0.26208942  1
  C  C238  1  0.07227349  0.46482316  0.25984306  1
  C  C239  1  0.57981223  0.46961025  0.26123985  1
  C  C240  1  0.15871794  0.49455929  0.76261476  1
  C  C241  1  0.64429778  0.47431677  0.75673146  1
  C  C242  1  0.08008085  0.68933794  0.75998828  1
  C  C243  1  0.56918022  0.67535915  0.75621796  1
  C  C244  1  0.25283771  0.83146954  0.76142286  1
  C  C245  1  0.75398070  0.84466467  0.75038358  1
