# generated using pymatgen
data_Cu4NiC10
_symmetry_space_group_name_H-M   'P 1'
_cell_length_a   5.68250481
_cell_length_b   5.68782392
_cell_length_c   7.05973267
_cell_angle_alpha   113.54586812
_cell_angle_beta   115.89663475
_cell_angle_gamma   89.96450183
_symmetry_Int_Tables_number   1
_chemical_formula_structural   Cu4NiC10
_chemical_formula_sum   'Cu4 Ni1 C10'
_cell_volume   183.94610835
_cell_formula_units_Z   1
loop_
 _symmetry_equiv_pos_site_id
 _symmetry_equiv_pos_as_xyz
  1  'x, y, z'
loop_
 _atom_site_type_symbol
 _atom_site_label
 _atom_site_symmetry_multiplicity
 _atom_site_fract_x
 _atom_site_fract_y
 _atom_site_fract_z
 _atom_site_occupancy
  C  C0  1  0.87712500  0.13191100  0.75106100  1
  C  C1  1  0.12370500  0.86575500  0.24857600  1
  Ni  Ni2  1  0.38453000  0.64541200  0.75207600  1
  Cu  Cu3  1  0.93876500  0.43621800  0.42331300  1
  Cu  Cu4  1  0.48776300  0.48506400  0.42297400  1
  Cu  Cu5  1  0.51939400  0.06681100  0.09530400  1
  Cu  Cu6  1  0.54894600  0.49987100  0.06017100  1
  C  C7  1  0.51955200  0.14810300  0.38798000  1
  C  C8  1  0.85206500  0.72585200  0.36923100  1
  C  C9  1  0.13361100  0.28181800  0.61462900  1
  C  C10  1  0.47732800  0.82992400  0.59271300  1
  C  C11  1  0.73041200  0.52490500  0.90177600  1
  C  C12  1  0.16866300  0.87726800  0.89773800  1
  C  C13  1  0.26284800  0.47382500  0.11614200  1
  C  C14  1  0.85624500  0.13821500  0.12673200  1
