# generated using pymatgen
data_CuNiC11
_symmetry_space_group_name_H-M   'P 1'
_cell_length_a   9.07349930
_cell_length_b   9.07388288
_cell_length_c   23.09765200
_cell_angle_alpha   90.00322038
_cell_angle_beta   89.97538097
_cell_angle_gamma   119.97861738
_symmetry_Int_Tables_number   1
_chemical_formula_structural   CuNiC11
_chemical_formula_sum   'Cu9 Ni9 C99'
_cell_volume   1647.25157904
_cell_formula_units_Z   9
loop_
 _symmetry_equiv_pos_site_id
 _symmetry_equiv_pos_as_xyz
  1  'x, y, z'
loop_
 _atom_site_type_symbol
 _atom_site_label
 _atom_site_symmetry_multiplicity
 _atom_site_fract_x
 _atom_site_fract_y
 _atom_site_fract_z
 _atom_site_occupancy
  C  C0  1  0.00026517  0.63137403  0.25002814  1
  C  C1  1  0.36827033  0.00023681  0.75060280  1
  C  C2  1  0.03126246  0.70062903  0.58173385  1
  C  C3  1  0.66259983  0.96503042  0.58437303  1
  C  C4  1  0.29858468  0.96900316  0.08155339  1
  C  C5  1  0.03464963  0.33732511  0.08468394  1
  C  C6  1  0.97132450  0.66851010  0.91814883  1
  C  C7  1  0.96555542  0.30165380  0.41487247  1
  C  C8  1  0.33498722  0.02886335  0.41728934  1
  C  C9  1  0.99838509  0.99418667  0.50000898  1
  C  C10  1  0.99906687  0.99914371  0.99938019  1
  C  C11  1  0.66537432  0.32730193  0.83354857  1
  C  C12  1  0.66579697  0.33196084  0.33268028  1
  C  C13  1  0.34146295  0.66093064  0.16736051  1
  C  C14  1  0.33822798  0.65731417  0.66706711  1
  C  C15  1  0.99956758  0.00736858  0.85307224  1
  C  C16  1  0.66589961  0.33307602  0.18523174  1
  C  C17  1  0.65638874  0.32868248  0.98047135  1
  C  C18  1  0.33422198  0.66592670  0.01818420  1
  C  C19  1  0.33413757  0.66567198  0.31418860  1
  C  C20  1  0.34058348  0.67037986  0.81466472  1
  C  C21  1  0.98911406  0.99450922  0.35129492  1
  C  C22  1  0.99941462  0.00165296  0.64907578  1
  C  C23  1  0.99910789  0.00058538  0.14797030  1
  C  C24  1  0.66635648  0.33454662  0.68657252  1
  C  C25  1  0.66573463  0.34060875  0.48111280  1
  C  C26  1  0.34002202  0.67071468  0.51839564  1
  Ni  Ni27  1  0.99994231  0.29613745  0.24974499  1
  Ni  Ni28  1  0.70680060  0.99955036  0.75051718  1
  Ni  Ni29  1  0.37218819  0.04253162  0.58337569  1
  Ni  Ni30  1  0.66452339  0.62544519  0.58470642  1
  Ni  Ni31  1  0.95560223  0.62378051  0.08207612  1
  Ni  Ni32  1  0.37794017  0.33758581  0.08398089  1
  Ni  Ni33  1  0.33485465  0.96066984  0.91622211  1
  Ni  Ni34  1  0.62600397  0.95858302  0.41607679  1
  Ni  Ni35  1  0.04124465  0.66714876  0.41608318  1
  Cu  Cu36  1  0.29575721  0.00217828  0.25052967  1
  Cu  Cu37  1  0.70393667  0.70543522  0.24909777  1
  Cu  Cu38  1  0.28929835  0.29284597  0.75100936  1
  Cu  Cu39  1  -0.00071085  0.70727974  0.75182616  1
  Cu  Cu40  1  0.95800383  0.33341388  0.58313105  1
  Cu  Cu41  1  0.66544595  0.04398375  0.08273937  1
  Cu  Cu42  1  0.62442944  0.66719186  0.91637976  1
  Cu  Cu43  1  0.04378417  0.37612150  0.91668689  1
  Cu  Cu44  1  0.33393015  0.37703004  0.41551884  1
  C  C45  1  0.20977375  0.02569011  0.30497280  1
  C  C46  1  0.82189211  0.78775738  0.30267169  1
  C  C47  1  0.97379759  0.17924123  0.30728203  1
  C  C48  1  0.20356422  0.17390255  0.80385906  1
  C  C49  1  0.97754511  0.79759785  0.80559368  1
  C  C50  1  0.82953979  0.02455467  0.80544056  1
  C  C51  1  0.79161174  0.97204050  0.69175305  1
  C  C52  1  0.18080452  0.20805521  0.69682200  1
  C  C53  1  0.03417644  0.82128574  0.69699368  1
  C  C54  1  0.79235443  0.81845152  0.19606971  1
  C  C55  1  0.02594421  0.20534592  0.19226001  1
  C  C56  1  0.17928374  0.96764947  0.19642051  1
  C  C57  1  0.87350703  0.36442322  0.63592518  1
  C  C58  1  0.49424700  0.12605251  0.64014013  1
  C  C59  1  0.64141289  0.50745056  0.64027550  1
  C  C60  1  0.87209169  0.50324066  0.13954651  1
  C  C61  1  0.63278843  0.12508222  0.13648510  1
  C  C62  1  0.49448275  0.36000270  0.14001481  1
  C  C63  1  0.46361693  0.29667281  0.02830979  1
  C  C64  1  0.84267294  0.53333830  0.02441636  1
  C  C65  1  0.69811285  0.15962984  0.02956210  1
  C  C66  1  0.46080807  0.15450954  0.52513668  1
  C  C67  1  0.70540814  0.54185175  0.52844867  1
  C  C68  1  0.84711600  0.30084227  0.52811531  1
  C  C69  1  0.53895974  0.69289637  0.97011090  1
  C  C70  1  0.15279705  0.45811278  0.97195744  1
  C  C71  1  0.30159900  0.83885261  0.97345861  1
  C  C72  1  0.54322846  0.84569371  0.47470151  1
  C  C73  1  0.29973218  0.45550068  0.46932111  1
  C  C74  1  0.15766589  0.69735178  0.47400551  1
  C  C75  1  0.13076600  0.63489914  0.35936878  1
  C  C76  1  0.50041542  0.86542867  0.36158283  1
  C  C77  1  0.35985339  0.48886588  0.36230593  1
  C  C78  1  0.13134093  0.49255393  0.86409960  1
  C  C79  1  0.35687109  0.86504884  0.85930540  1
  C  C80  1  0.51159475  0.63886074  0.86316646  1
  C  C81  1  0.03525344  0.84347741  0.40944291  1
  C  C82  1  0.81924697  0.98814175  0.41125033  1
  C  C83  1  0.17390987  0.19691107  0.40903013  1
  C  C84  1  0.02444875  0.19851097  0.90986513  1
  C  C85  1  0.15757258  0.96764139  0.90904792  1
  C  C86  1  0.80579073  0.82409846  0.90919396  1
  C  C87  1  0.97082877  0.17117911  0.58990578  1
  C  C88  1  0.18051345  0.01291121  0.58972901  1
  C  C89  1  0.83616387  0.81508781  0.58998465  1
  C  C90  1  0.98695829  0.81659967  0.08961962  1
  C  C91  1  0.82675662  0.02945859  0.08965950  1
  C  C92  1  0.18713482  0.16554312  0.08971789  1
  C  C93  1  0.67892498  0.16422340  0.74570551  1
  C  C94  1  0.46436612  0.30294305  0.74520752  1
  C  C95  1  0.84302804  0.53244817  0.74519165  1
  C  C96  1  0.69474186  0.53072057  0.24286200  1
  C  C97  1  0.83321114  0.32093254  0.24397594  1
  C  C98  1  0.47118567  0.15863158  0.24283200  1
  C  C99  1  0.65055194  0.51069807  0.92295973  1
  C  C100  1  0.86808030  0.36510670  0.92353430  1
  C  C101  1  0.50454878  0.14737374  0.92241149  1
  C  C102  1  0.64311453  0.14672222  0.42187668  1
  C  C103  1  0.48925311  0.35177663  0.42114790  1
  C  C104  1  0.85801155  0.49247056  0.42133419  1
  C  C105  1  0.34815535  0.49940653  0.07590847  1
  C  C106  1  0.14738041  0.64356620  0.07587843  1
  C  C107  1  0.50341490  0.86751447  0.07519183  1
  C  C108  1  0.35267484  0.85169733  0.57837241  1
  C  C109  1  0.50018081  0.65110462  0.57895915  1
  C  C110  1  0.13327485  0.49529575  0.57691363  1
  C  C111  1  0.30533811  0.83618572  0.25664903  1
  C  C112  1  0.52932809  0.68822154  0.25706518  1
  C  C113  1  0.16678553  0.48756389  0.25556988  1
  C  C114  1  0.30761798  0.46906515  0.75880101  1
  C  C115  1  0.16392931  0.69472417  0.75845148  1
  C  C116  1  0.51427724  0.83194638  0.75691936  1
