# generated using pymatgen
data_Cu2NiC17
_symmetry_space_group_name_H-M   'P 1'
_cell_length_a   15.65197672
_cell_length_b   8.95422083
_cell_length_c   8.98751522
_cell_angle_alpha   90.00000000
_cell_angle_beta   124.43582464
_cell_angle_gamma   90.00000000
_symmetry_Int_Tables_number   1
_chemical_formula_structural   Cu2NiC17
_chemical_formula_sum   'Cu8 Ni4 C68'
_cell_volume   1038.87732784
_cell_formula_units_Z   4
loop_
 _symmetry_equiv_pos_site_id
 _symmetry_equiv_pos_as_xyz
  1  'x, y, z'
loop_
 _atom_site_type_symbol
 _atom_site_label
 _atom_site_symmetry_multiplicity
 _atom_site_fract_x
 _atom_site_fract_y
 _atom_site_fract_z
 _atom_site_occupancy
  C  C0  1  0.25008580  0.72255493  0.99125790  1
  C  C1  1  0.75008580  0.77744507  0.49125790  1
  C  C2  1  0.75008580  0.22255493  0.99125790  1
  C  C3  1  0.25008580  0.27744507  0.49125790  1
  C  C4  1  0.50371366  0.10771037  0.75825235  1
  C  C5  1  0.50371366  0.89228963  0.25825235  1
  C  C6  1  0.00371366  0.60771037  0.75825235  1
  C  C7  1  0.00371366  0.39228963  0.25825235  1
  C  C8  1  0.18747885  0.93240983  0.28068992  1
  C  C9  1  0.18747885  0.06759017  0.78068992  1
  C  C10  1  0.68747885  0.43240983  0.28068992  1
  C  C11  1  0.68747885  0.56759017  0.78068992  1
  C  C12  1  0.89444714  0.75785485  0.93742872  1
  C  C13  1  0.89444714  0.24214515  0.43742872  1
  C  C14  1  0.39444714  0.25785485  0.93742872  1
  C  C15  1  0.39444714  0.74214515  0.43742872  1
  C  C16  1  0.10468351  0.73975959  0.55938867  1
  C  C17  1  0.10468351  0.26024041  0.05938867  1
  C  C18  1  0.60468351  0.23975959  0.55938867  1
  C  C19  1  0.60468351  0.76024041  0.05938867  1
  Ni  Ni20  1  0.64148630  0.90122509  0.74154678  1
  Ni  Ni21  1  0.64148630  0.09877491  0.24154678  1
  Ni  Ni22  1  0.14148630  0.40122509  0.74154678  1
  Ni  Ni23  1  0.14148630  0.59877491  0.24154678  1
  Cu  Cu24  1  0.00786410  0.95580889  0.76145601  1
  Cu  Cu25  1  0.00786410  0.04419111  0.26145601  1
  Cu  Cu26  1  0.50786410  0.45580889  0.76145601  1
  Cu  Cu27  1  0.50786410  0.54419111  0.26145601  1
  Cu  Cu28  1  0.35057388  0.88671995  0.75986416  1
  Cu  Cu29  1  0.35057388  0.11328005  0.25986416  1
  Cu  Cu30  1  0.85057388  0.38671995  0.75986416  1
  Cu  Cu31  1  0.85057388  0.61328005  0.25986416  1
  C  C32  1  0.14446260  0.58330137  0.73627795  1
  C  C33  1  0.84472598  0.56224914  0.75994407  1
  C  C34  1  0.84472598  0.43775086  0.25994407  1
  C  C35  1  0.14446260  0.41669863  0.23627795  1
  C  C36  1  0.64446260  0.08330137  0.73627795  1
  C  C37  1  0.34472598  0.06224914  0.75994407  1
  C  C38  1  0.34472598  0.93775086  0.25994407  1
  C  C39  1  0.64446260  0.91669863  0.23627795  1
  C  C40  1  0.44599911  0.55820071  0.59389323  1
  C  C41  1  0.57081879  0.55059579  0.93468736  1
  C  C42  1  0.57081879  0.44940421  0.43468736  1
  C  C43  1  0.44599911  0.44179929  0.09389323  1
  C  C44  1  0.94599911  0.05820071  0.59389323  1
  C  C45  1  0.07081879  0.05059579  0.93468736  1
  C  C46  1  0.07081879  0.94940421  0.43468736  1
  C  C47  1  0.94599911  0.94179929  0.09389323  1
  C  C48  1  0.25438485  0.82781644  0.74743310  1
  C  C49  1  0.73953316  0.81927991  0.75361797  1
  C  C50  1  0.73953316  0.18072009  0.25361797  1
  C  C51  1  0.25438485  0.17218356  0.24743310  1
  C  C52  1  0.75438485  0.32781644  0.74743310  1
  C  C53  1  0.23953316  0.31927991  0.75361797  1
  C  C54  1  0.23953316  0.68072009  0.25361797  1
  C  C55  1  0.75438485  0.67218356  0.24743310  1
  C  C56  1  0.34767586  0.85102557  0.58728676  1
  C  C57  1  0.63459170  0.85385151  0.90898107  1
  C  C58  1  0.63459170  0.14614849  0.40898107  1
  C  C59  1  0.34767586  0.14897443  0.08728676  1
  C  C60  1  0.84767586  0.35102557  0.58728676  1
  C  C61  1  0.13459170  0.35385151  0.90898107  1
  C  C62  1  0.13459170  0.64614849  0.40898107  1
  C  C63  1  0.84767586  0.64897443  0.08728676  1
  C  C64  1  0.45049339  0.82821474  0.93087122  1
  C  C65  1  0.53623197  0.83893506  0.55539805  1
  C  C66  1  0.53623197  0.16106494  0.05539805  1
  C  C67  1  0.45049339  0.17178526  0.43087122  1
  C  C68  1  0.95049339  0.32821474  0.93087122  1
  C  C69  1  0.03623197  0.33893506  0.55539805  1
  C  C70  1  0.03623197  0.66106494  0.05539805  1
  C  C71  1  0.95049339  0.67178526  0.43087122  1
  C  C72  1  0.08474836  0.85929412  0.74742475  1
  C  C73  1  0.92600099  0.85214293  0.75429996  1
  C  C74  1  0.92600099  0.14785707  0.25429996  1
  C  C75  1  0.08474836  0.14070588  0.24742475  1
  C  C76  1  0.58474836  0.35929412  0.74742475  1
  C  C77  1  0.42600099  0.35214293  0.75429996  1
  C  C78  1  0.42600099  0.64785707  0.25429996  1
  C  C79  1  0.58474836  0.64070588  0.24742475  1
