# generated using pymatgen
data_Cu3Ni3C29
_symmetry_space_group_name_H-M   'P 1'
_cell_length_a   8.75133734
_cell_length_b   8.73049142
_cell_length_c   22.62344987
_cell_angle_alpha   89.45422811
_cell_angle_beta   90.80382402
_cell_angle_gamma   119.79624225
_symmetry_Int_Tables_number   1
_chemical_formula_structural   Cu3Ni3C29
_chemical_formula_sum   'Cu9 Ni9 C87'
_cell_volume   1499.84366014
_cell_formula_units_Z   3
loop_
 _symmetry_equiv_pos_site_id
 _symmetry_equiv_pos_as_xyz
  1  'x, y, z'
loop_
 _atom_site_type_symbol
 _atom_site_label
 _atom_site_symmetry_multiplicity
 _atom_site_fract_x
 _atom_site_fract_y
 _atom_site_fract_z
 _atom_site_occupancy
  C  C0  1  0.00510363  0.99654498  0.99370461  1
  C  C1  1  0.66295990  0.32535733  0.83172588  1
  C  C2  1  0.67451793  0.33533603  0.33397302  1
  C  C3  1  0.99817390  -0.00045382  0.64498505  1
  C  C4  1  0.00981248  0.01086531  0.14281927  1
  C  C5  1  0.33104489  0.67606725  0.52610203  1
  C  C6  1  0.99093475  0.00066239  0.35811002  1
  C  C7  1  0.01700893  0.01639867  0.85126145  1
  C  C8  1  0.63798901  0.31702661  0.69096985  1
  C  C9  1  0.68255195  0.34924935  0.18345085  1
  C  C10  1  0.64810217  0.33522936  0.97801650  1
  C  C11  1  0.66835349  0.34897336  0.48333878  1
  C  C12  1  0.31348704  0.66329188  0.02314380  1
  C  C13  1  0.30638382  0.65274108  0.31057626  1
  C  C14  1  0.35061248  0.68741181  0.80685839  1
  Ni  Ni15  1  0.99109627  0.28394663  0.25134919  1
  Ni  Ni16  1  0.28718308  0.29694546  0.75051575  1
  Ni  Ni17  1  0.71975208  0.00852300  0.75090085  1
  Ni  Ni18  1  0.38208040  0.05814732  0.58274423  1
  Ni  Ni19  1  0.66843529  0.61814539  0.58581654  1
  Ni  Ni20  1  0.95017463  0.61792882  0.08034457  1
  Ni  Ni21  1  0.38890186  0.34573322  0.08301644  1
  Ni  Ni22  1  0.33195872  0.95298681  0.91597813  1
  Ni  Ni23  1  0.03587534  0.66190695  0.41588028  1
  Cu  Cu24  1  0.28918203  0.00209649  0.25218151  1
  Cu  Cu25  1  0.71000413  0.71336041  0.25146474  1
  Cu  Cu26  1  0.99889196  0.71056546  0.75148823  1
  Cu  Cu27  1  0.95109415  0.33322154  0.58345790  1
  Cu  Cu28  1  0.66241697  0.04539840  0.08308433  1
  Cu  Cu29  1  0.62134861  0.67068828  0.91706944  1
  Cu  Cu30  1  0.04316182  0.37944483  0.91644088  1
  Cu  Cu31  1  0.61790085  0.95282383  0.41511842  1
  Cu  Cu32  1  0.33265139  0.37854847  0.41524376  1
  C  C33  1  0.20326570  0.02765000  0.30355803  1
  C  C34  1  0.82534122  0.79401666  0.30444567  1
  C  C35  1  0.97197647  0.15970943  0.30847042  1
  C  C36  1  0.19937104  0.16352095  0.80788332  1
  C  C37  1  0.96967661  0.79331556  0.80365152  1
  C  C38  1  0.84017370  0.02681761  0.80917239  1
  C  C39  1  0.80553954  0.97140980  0.69255548  1
  C  C40  1  0.16596821  0.19655595  0.69285248  1
  C  C41  1  0.02960659  0.82247848  0.69687947  1
  C  C42  1  0.79455577  0.82087333  0.19776140  1
  C  C43  1  0.02415050  0.19009012  0.19413345  1
  C  C44  1  0.17589522  0.96847675  0.19729726  1
  C  C45  1  0.88198830  0.36943802  0.63604553  1
  C  C46  1  0.50584382  0.13500859  0.64108048  1
  C  C47  1  0.63924440  0.49283271  0.64156359  1
  C  C48  1  0.86497060  0.49878112  0.14099499  1
  C  C49  1  0.64019728  0.12640004  0.13724504  1
  C  C50  1  0.50378645  0.35771382  0.14209953  1
  C  C51  1  0.46843896  0.29575027  0.02591163  1
  C  C52  1  0.82491208  0.52236301  0.02428385  1
  C  C53  1  0.70316193  0.15736744  0.03038399  1
  C  C54  1  0.48016611  0.17254609  0.52377458  1
  C  C55  1  0.70167408  0.53119129  0.52552866  1
  C  C56  1  0.84512376  0.30547714  0.52893067  1
  C  C57  1  0.54004161  0.69152032  0.97032800  1
  C  C58  1  0.15341020  0.45710467  0.97110139  1
  C  C59  1  0.30993870  0.83064711  0.97462076  1
  C  C60  1  0.54024618  0.84195875  0.46930292  1
  C  C61  1  0.30484586  0.45772806  0.46832202  1
  C  C62  1  0.16701851  0.69246293  0.47202785  1
  C  C63  1  0.14065934  0.63789395  0.35868715  1
  C  C64  1  0.51011965  0.86833104  0.36224127  1
  C  C65  1  0.36356697  0.49159365  0.36219023  1
  C  C66  1  0.12372425  0.48525355  0.86389007  1
  C  C67  1  0.35867000  0.85577398  0.85918216  1
  C  C68  1  0.51247706  0.63663412  0.86308737  1
  C  C69  1  0.02303504  0.83872571  0.40128967  1
  C  C70  1  0.79509511  0.96716974  0.40881424  1
  C  C71  1  0.17481986  0.20139989  0.40723603  1
  C  C72  1  0.02585770  0.19921951  0.91242400  1
  C  C73  1  0.15547505  0.97250036  0.90987174  1
  C  C74  1  0.79999163  0.82437985  0.91133648  1
  C  C75  1  0.97337875  0.17651133  0.58896002  1
  C  C76  1  0.18754718  0.02754710  0.59278020  1
  C  C77  1  0.83687885  0.81277471  0.59276488  1
  C  C78  1  0.96918146  0.81154162  0.09413226  1
  C  C79  1  0.82570012  0.02470891  0.09219831  1
  C  C80  1  0.19038083  0.16573117  0.09236739  1
  C  C81  1  0.70432325  0.18501293  0.74287112  1
  C  C82  1  0.48093959  0.31227586  0.74504408  1
  C  C83  1  0.84305381  0.53616051  0.74356427  1
  C  C84  1  0.69263305  0.53479541  0.24523520  1
  C  C85  1  0.81827431  0.30567124  0.24387771  1
  C  C86  1  0.46320386  0.15774656  0.24425534  1
  C  C87  1  0.63983381  0.50635823  0.92233121  1
  C  C88  1  0.86558025  0.35829066  0.92400043  1
  C  C89  1  0.50998354  0.14873271  0.92539631  1
  C  C90  1  0.64077168  0.12984320  0.42202807  1
  C  C91  1  0.49050442  0.35733413  0.42092613  1
  C  C92  1  0.84479613  0.48571892  0.42247562  1
  C  C93  1  0.36454006  0.51186538  0.07008228  1
  C  C94  1  0.14469527  0.64183764  0.07367324  1
  C  C95  1  0.51269190  0.86871949  0.07638887  1
  C  C96  1  0.36173837  0.86053925  0.57278541  1
  C  C97  1  0.49401125  0.63324532  0.56887337  1
  C  C98  1  0.13312336  0.48878992  0.57307446  1
  C  C99  1  0.30784420  0.84277587  0.25894808  1
  C  C100  1  0.53742388  0.69791429  0.25980448  1
  C  C101  1  0.17117438  0.47621267  0.26137556  1
  C  C102  1  0.30293374  0.48357800  0.76502798  1
  C  C103  1  0.15770203  0.69497828  0.75799086  1
  C  C104  1  0.52532369  0.83426045  0.75984513  1
