# generated using pymatgen
data_Cu2Ni3C8
_symmetry_space_group_name_H-M   'P 1'
_cell_length_a   8.48263400
_cell_length_b   8.48263400
_cell_length_c   8.48263400
_cell_angle_alpha   90.00000000
_cell_angle_beta   90.00000000
_cell_angle_gamma   90.00000000
_symmetry_Int_Tables_number   1
_chemical_formula_structural   Cu2Ni3C8
_chemical_formula_sum   'Cu8 Ni12 C32'
_cell_volume   610.36860450
_cell_formula_units_Z   4
loop_
 _symmetry_equiv_pos_site_id
 _symmetry_equiv_pos_as_xyz
  1  'x, y, z'
loop_
 _atom_site_type_symbol
 _atom_site_label
 _atom_site_symmetry_multiplicity
 _atom_site_fract_x
 _atom_site_fract_y
 _atom_site_fract_z
 _atom_site_occupancy
  Ni  Ni0  1  0.62500000  0.13590500  0.11409500  1
  Ni  Ni1  1  0.61409500  0.87500000  0.86409500  1
  Ni  Ni2  1  0.63590500  0.38590500  0.37500000  1
  Ni  Ni3  1  0.36409500  0.88590500  0.12500000  1
  Ni  Ni4  1  0.88590500  0.12500000  0.36409500  1
  Ni  Ni5  1  0.11409500  0.62500000  0.13590500  1
  Ni  Ni6  1  0.38590500  0.37500000  0.63590500  1
  Ni  Ni7  1  0.86409500  0.61409500  0.87500000  1
  Ni  Ni8  1  0.13590500  0.11409500  0.62500000  1
  Ni  Ni9  1  0.37500000  0.63590500  0.38590500  1
  Ni  Ni10  1  0.87500000  0.86409500  0.61409500  1
  Ni  Ni11  1  0.12500000  0.36409500  0.88590500  1
  Cu  Cu12  1  0.25602800  0.25602800  0.25602800  1
  Cu  Cu13  1  0.00602800  0.49397200  0.50602800  1
  Cu  Cu14  1  0.49397200  0.50602800  0.00602800  1
  Cu  Cu15  1  0.50602800  0.00602800  0.49397200  1
  Cu  Cu16  1  0.75602800  0.24397200  0.74397200  1
  Cu  Cu17  1  0.24397200  0.74397200  0.75602800  1
  Cu  Cu18  1  0.74397200  0.75602800  0.24397200  1
  Cu  Cu19  1  0.99397200  0.99397200  0.99397200  1
  C  C20  1  0.10920700  0.14515800  0.85852100  1
  C  C21  1  0.60920700  0.35484200  0.14147900  1
  C  C22  1  0.14515800  0.85852100  0.10920700  1
  C  C23  1  0.85484200  0.35852100  0.39079300  1
  C  C24  1  0.85852100  0.10920700  0.14515800  1
  C  C25  1  0.64147900  0.89079300  0.64515800  1
  C  C26  1  0.35920700  0.60852100  0.60484200  1
  C  C27  1  0.85920700  0.89147900  0.39515800  1
  C  C28  1  0.64079300  0.10852100  0.89515800  1
  C  C29  1  0.89147900  0.39515800  0.85920700  1
  C  C30  1  0.89515800  0.64079300  0.10852100  1
  C  C31  1  0.39515800  0.85920700  0.89147900  1
  C  C32  1  0.60852100  0.60484200  0.35920700  1
  C  C33  1  0.60484200  0.35920700  0.60852100  1
  C  C34  1  0.10852100  0.89515800  0.64079300  1
  C  C35  1  0.39147900  0.10484200  0.14079300  1
  C  C36  1  0.10484200  0.14079300  0.39147900  1
  C  C37  1  0.14147900  0.60920700  0.35484200  1
  C  C38  1  0.35852100  0.39079300  0.85484200  1
  C  C39  1  0.64515800  0.64147900  0.89079300  1
  C  C40  1  0.39134100  0.39134100  0.39134100  1
  C  C41  1  0.14134100  0.35865900  0.64134100  1
  C  C42  1  0.64134100  0.14134100  0.35865900  1
  C  C43  1  0.35865900  0.64134100  0.14134100  1
  C  C44  1  0.10865900  0.60865900  0.89134100  1
  C  C45  1  0.89134100  0.10865900  0.60865900  1
  C  C46  1  0.60865900  0.89134100  0.10865900  1
  C  C47  1  0.85865900  0.85865900  0.85865900  1
  C  C48  1  0.14079300  0.39147900  0.10484200  1
  C  C49  1  0.89079300  0.64515800  0.64147900  1
  C  C50  1  0.39079300  0.85484200  0.35852100  1
  C  C51  1  0.35484200  0.14147900  0.60920700  1
