# generated using pymatgen
data_CuNiC3
_symmetry_space_group_name_H-M   'P 1'
_cell_length_a   6.51202200
_cell_length_b   7.17247700
_cell_length_c   9.55071200
_cell_angle_alpha   90.00000000
_cell_angle_beta   90.00000000
_cell_angle_gamma   90.00000000
_symmetry_Int_Tables_number   1
_chemical_formula_structural   CuNiC3
_chemical_formula_sum   'Cu4 Ni4 C12'
_cell_volume   446.08823819
_cell_formula_units_Z   4
loop_
 _symmetry_equiv_pos_site_id
 _symmetry_equiv_pos_as_xyz
  1  'x, y, z'
loop_
 _atom_site_type_symbol
 _atom_site_label
 _atom_site_symmetry_multiplicity
 _atom_site_fract_x
 _atom_site_fract_y
 _atom_site_fract_z
 _atom_site_occupancy
  Ni  Ni0  1  0.96318400  0.89992900  0.75000000  1
  Ni  Ni1  1  0.46318400  0.60007100  0.25000000  1
  Ni  Ni2  1  0.53681600  0.39992900  0.75000000  1
  Ni  Ni3  1  0.03681600  0.10007100  0.25000000  1
  Cu  Cu4  1  0.50000000  0.00000000  0.50000000  1
  Cu  Cu5  1  0.00000000  0.50000000  0.50000000  1
  Cu  Cu6  1  0.00000000  0.50000000  0.00000000  1
  Cu  Cu7  1  0.50000000  0.00000000  0.00000000  1
  C  C8  1  0.82248200  0.18659200  0.56256800  1
  C  C9  1  0.32248200  0.31340800  0.43743200  1
  C  C10  1  0.67751800  0.68659200  0.93743200  1
  C  C11  1  0.17751800  0.81340800  0.06256800  1
  C  C12  1  0.17751800  0.81340800  0.43743200  1
  C  C13  1  0.67751800  0.68659200  0.56256800  1
  C  C14  1  0.32248200  0.31340800  0.06256800  1
  C  C15  1  0.82248200  0.18659200  0.93743200  1
  C  C16  1  0.62945500  0.96191100  0.25000000  1
  C  C17  1  0.12945500  0.53808900  0.75000000  1
  C  C18  1  0.87054500  0.46191100  0.25000000  1
  C  C19  1  0.37054500  0.03808900  0.75000000  1
