# generated using pymatgen
data_Cu2NiC6
_symmetry_space_group_name_H-M   'P 1'
_cell_length_a   5.16109025
_cell_length_b   5.45188791
_cell_length_c   5.09298792
_cell_angle_alpha   87.70910050
_cell_angle_beta   117.19405696
_cell_angle_gamma   64.52500081
_symmetry_Int_Tables_number   1
_chemical_formula_structural   Cu2NiC6
_chemical_formula_sum   'Cu2 Ni1 C6'
_cell_volume   109.96560965
_cell_formula_units_Z   1
loop_
 _symmetry_equiv_pos_site_id
 _symmetry_equiv_pos_as_xyz
  1  'x, y, z'
loop_
 _atom_site_type_symbol
 _atom_site_label
 _atom_site_symmetry_multiplicity
 _atom_site_fract_x
 _atom_site_fract_y
 _atom_site_fract_z
 _atom_site_occupancy
  Ni  Ni0  1  0.61146300  0.60511200  0.81473500  1
  Cu  Cu1  1  0.99695200  0.00445700  0.01847700  1
  Cu  Cu2  1  0.00047000  0.47648900  0.48093400  1
  C  C3  1  0.04368800  0.29943700  0.81041100  1
  C  C4  1  0.84959500  0.28463400  0.20894000  1
  C  C5  1  0.87705400  0.74703700  0.13687100  1
  C  C6  1  0.48699600  0.27753400  0.63194500  1
  C  C7  1  0.15427200  0.75894800  0.75358400  1
  C  C8  1  0.49201000  0.77135000  0.39410500  1
