# generated using pymatgen
data_Cu3Ni3C13
_symmetry_space_group_name_H-M   'P 1'
_cell_length_a   7.68783117
_cell_length_b   5.89661687
_cell_length_c   5.68977207
_cell_angle_alpha   74.34355611
_cell_angle_beta   68.81227677
_cell_angle_gamma   66.99007584
_symmetry_Int_Tables_number   1
_chemical_formula_structural   Cu3Ni3C13
_chemical_formula_sum   'Cu3 Ni3 C13'
_cell_volume   218.86080019
_cell_formula_units_Z   1
loop_
 _symmetry_equiv_pos_site_id
 _symmetry_equiv_pos_as_xyz
  1  'x, y, z'
loop_
 _atom_site_type_symbol
 _atom_site_label
 _atom_site_symmetry_multiplicity
 _atom_site_fract_x
 _atom_site_fract_y
 _atom_site_fract_z
 _atom_site_occupancy
  C  C0  1  0.31962100  0.18412700  0.66580900  1
  Ni  Ni1  1  0.65943400  0.35799300  0.34358400  1
  Ni  Ni2  1  0.12167100  0.32772900  0.29987400  1
  Ni  Ni3  1  0.01710500  0.95957900  0.99217500  1
  Cu  Cu4  1  0.82937900  0.67830100  0.67302800  1
  Cu  Cu5  1  0.33694600  0.67541700  0.66978000  1
  Cu  Cu6  1  0.54752400  0.98853400  0.01411900  1
  C  C7  1  0.63917000  0.04547900  0.61873800  1
  C  C8  1  0.32245800  0.34697300  0.95217400  1
  C  C9  1  0.65368800  0.54449000  0.57932800  1
  C  C10  1  0.96435300  0.20520600  0.23228200  1
  C  C11  1  0.30687700  0.89246800  0.93167600  1
  C  C12  1  0.71032300  0.11159300  0.09277800  1
  C  C13  1  0.03775700  0.75796600  0.73418000  1
  C  C14  1  0.37830400  0.45359300  0.40631400  1
  C  C15  1  0.34513700  0.98581800  0.39127300  1
  C  C16  1  0.68295800  0.61081800  0.05109200  1
  C  C17  1  0.03156700  0.28947700  0.67616300  1
  C  C18  1  0.99751200  0.67967900  0.27087000  1
