# generated using pymatgen
data_Cu3NiC
_symmetry_space_group_name_H-M   'P 1'
_cell_length_a   6.45003374
_cell_length_b   6.45003374
_cell_length_c   13.98891000
_cell_angle_alpha   90.00000000
_cell_angle_beta   90.00000000
_cell_angle_gamma   119.99999734
_symmetry_Int_Tables_number   1
_chemical_formula_structural   Cu3NiC
_chemical_formula_sum   'Cu12 Ni4 C4'
_cell_volume   504.00923296
_cell_formula_units_Z   4
loop_
 _symmetry_equiv_pos_site_id
 _symmetry_equiv_pos_as_xyz
  1  'x, y, z'
loop_
 _atom_site_type_symbol
 _atom_site_label
 _atom_site_symmetry_multiplicity
 _atom_site_fract_x
 _atom_site_fract_y
 _atom_site_fract_z
 _atom_site_occupancy
  C  C0  1  0.00000000  0.00000000  0.75000000  1
  C  C1  1  0.00000000  0.00000000  0.25000000  1
  C  C2  1  0.33333300  0.66666700  0.75000000  1
  C  C3  1  0.66666700  0.33333300  0.25000000  1
  Ni  Ni4  1  0.33333300  0.66666700  0.33105600  1
  Ni  Ni5  1  0.33333300  0.66666700  0.16894400  1
  Ni  Ni6  1  0.66666700  0.33333300  0.66894400  1
  Ni  Ni7  1  0.66666700  0.33333300  0.83105600  1
  Cu  Cu8  1  0.35010200  0.34314500  0.12732300  1
  Cu  Cu9  1  0.64989800  0.99304300  0.62732300  1
  Cu  Cu10  1  0.99304300  0.64989800  0.12732300  1
  Cu  Cu11  1  0.65685500  0.00695700  0.12732300  1
  Cu  Cu12  1  0.35010200  0.00695700  0.37267700  1
  Cu  Cu13  1  0.65685500  0.64989800  0.37267700  1
  Cu  Cu14  1  0.99304300  0.34314500  0.37267700  1
  Cu  Cu15  1  0.34314500  0.35010200  0.62732300  1
  Cu  Cu16  1  0.64989800  0.65685500  0.87267700  1
  Cu  Cu17  1  0.34314500  0.99304300  0.87267700  1
  Cu  Cu18  1  0.00695700  0.35010200  0.87267700  1
  Cu  Cu19  1  0.00695700  0.65685500  0.62732300  1
