# generated using pymatgen
data_Cu2Ni7C32
_symmetry_space_group_name_H-M   'P 1'
_cell_length_a   18.39680096
_cell_length_b   9.19341839
_cell_length_c   22.60756012
_cell_angle_alpha   89.91559266
_cell_angle_beta   90.26603695
_cell_angle_gamma   119.99967425
_symmetry_Int_Tables_number   1
_chemical_formula_structural   Cu2Ni7C32
_chemical_formula_sum   'Cu12 Ni42 C192'
_cell_volume   3311.31271117
_cell_formula_units_Z   6
loop_
 _symmetry_equiv_pos_site_id
 _symmetry_equiv_pos_as_xyz
  1  'x, y, z'
loop_
 _atom_site_type_symbol
 _atom_site_label
 _atom_site_symmetry_multiplicity
 _atom_site_fract_x
 _atom_site_fract_y
 _atom_site_fract_z
 _atom_site_occupancy
  Ni  Ni0  1  0.81192339  0.99233694  0.23904930  1
  Ni  Ni1  1  0.18676266  0.36473107  0.26305873  1
  Ni  Ni2  1  0.68946960  0.36572924  0.25670008  1
  Ni  Ni3  1  0.99490764  0.64217561  0.23862725  1
  Ni  Ni4  1  0.50587884  0.65524615  0.24662209  1
  Ni  Ni5  1  0.31291625  0.63611226  0.75236465  1
  Ni  Ni6  1  0.00437494  0.35284299  0.75192953  1
  Ni  Ni7  1  0.49694549  0.34893756  0.74652271  1
  Ni  Ni8  1  0.18494130  0.00637654  0.76343116  1
  Ni  Ni9  1  0.68870439  0.01079766  0.76641204  1
  Ni  Ni10  1  0.14155048  0.33369617  0.58319156  1
  Ni  Ni11  1  0.63744944  0.33216986  0.58545016  1
  Ni  Ni12  1  0.33636877  0.97355127  0.57767003  1
  Ni  Ni13  1  0.83856853  0.97949609  0.58056605  1
  Ni  Ni14  1  0.13480593  0.94250662  0.08718180  1
  Ni  Ni15  1  0.64970905  0.95560573  0.08615092  1
  Ni  Ni16  1  0.33814391  0.69728246  0.08069104  1
  Ni  Ni17  1  0.83725429  0.71788278  0.07710767  1
  Ni  Ni18  1  0.49012710  0.68829158  0.92584218  1
  Ni  Ni19  1  0.98743496  0.67763020  0.92715956  1
  Ni  Ni20  1  0.34352070  0.01794445  0.91305395  1
  Ni  Ni21  1  0.84335600  0.02466852  0.92112091  1
  Ni  Ni22  1  0.16806140  0.30030622  0.90500412  1
  Ni  Ni23  1  0.67589499  0.31495416  0.90771988  1
  Ni  Ni24  1  0.48950897  0.29701147  0.41841211  1
  Ni  Ni25  1  0.98736673  0.28786809  0.42083821  1
  Ni  Ni26  1  0.17113173  0.03164834  0.40039784  1
  Ni  Ni27  1  0.66948046  0.03635406  0.40151246  1
  Ni  Ni28  1  0.34488890  0.66850955  0.40628541  1
  Ni  Ni29  1  0.84302576  0.66804358  0.40840868  1
  Ni  Ni30  1  0.99760278  0.01199990  0.49218076  1
  Ni  Ni31  1  0.49826759  0.01304463  0.49104224  1
  Ni  Ni32  1  0.98669801  0.98379279  0.99885686  1
  Ni  Ni33  1  0.50127319  0.98603787  0.99395830  1
  Ni  Ni34  1  0.32607631  0.32615813  0.83466519  1
  Ni  Ni35  1  0.82279707  0.33240587  0.83919989  1
  Ni  Ni36  1  0.32465569  0.31578610  0.33465373  1
  Ni  Ni37  1  0.82600862  0.32580999  0.32867679  1
  Ni  Ni38  1  0.16474787  0.68336146  0.17276822  1
  Ni  Ni39  1  0.66440977  0.68080748  0.16573245  1
  Ni  Ni40  1  0.15459869  0.64566211  0.67327012  1
  Ni  Ni41  1  0.66781790  0.65009001  0.67497917  1
  Cu  Cu42  1  0.99959517  0.01318996  0.65002452  1
  Cu  Cu43  1  0.49429166  0.00271620  0.64869196  1
  Cu  Cu44  1  0.99144662  0.99164058  0.14613886  1
  Cu  Cu45  1  0.50070058  0.98559318  0.14971584  1
  Cu  Cu46  1  0.83559293  0.33586602  0.69126785  1
  Cu  Cu47  1  0.33530496  0.33318416  0.19077817  1
  Cu  Cu48  1  0.16107719  0.66765837  0.01453373  1
  Cu  Cu49  1  0.67120186  0.68702816  0.01626278  1
  Cu  Cu50  1  0.16768434  0.65990117  0.51336157  1
  Cu  Cu51  1  0.66200298  0.65520598  0.51435582  1
  Cu  Cu52  1  0.17764151  0.68272946  0.31764479  1
  Cu  Cu53  1  0.67920151  0.67118074  0.81969611  1
  C  C54  1  0.99688677  0.99245728  0.34842537  1
  C  C55  1  0.50292455  0.00478561  0.34731575  1
  C  C56  1  0.00306065  0.99931945  0.84834152  1
  C  C57  1  0.49854042  0.00375242  0.85004127  1
  C  C58  1  0.33329521  0.31931089  0.69090452  1
  C  C59  1  0.83376411  0.33509041  0.18381708  1
  C  C60  1  0.33184884  0.34779889  0.97659944  1
  C  C61  1  0.83337106  0.33660434  0.98498242  1
  C  C62  1  0.33286517  0.31915038  0.48025360  1
  C  C63  1  0.83233090  0.31645371  0.47613441  1
  C  C64  1  0.68825353  0.68723391  0.31788156  1
  C  C65  1  0.18558599  0.68561238  0.81914381  1
  C  C66  1  0.14223534  0.99743392  0.25142360  1
  C  C67  1  0.65206020  0.99429379  0.25378793  1
  C  C68  1  0.35379804  0.70634151  0.25218942  1
  C  C69  1  0.84954475  0.69545553  0.25272215  1
  C  C70  1  0.15378925  0.30913472  0.75020376  1
  C  C71  1  0.64352708  0.29082013  0.75171365  1
  C  C72  1  0.34867403  0.99798595  0.75288605  1
  C  C73  1  0.85410774  0.99969013  0.75192415  1
  C  C74  1  0.47308921  0.34128417  0.58571724  1
  C  C75  1  0.97987777  0.33843181  0.57966489  1
  C  C76  1  0.47825980  0.62117617  0.07961101  1
  C  C77  1  0.97612961  0.61112745  0.08553703  1
  C  C78  1  0.83499429  0.05987354  0.08222929  1
  C  C79  1  0.32047620  0.67091966  0.91590598  1
  C  C80  1  0.82742836  0.66703862  0.92079375  1
  C  C81  1  0.16701313  0.97277973  0.91466291  1
  C  C82  1  0.66435608  0.98390649  0.91528930  1
  C  C83  1  0.32673152  0.98099234  0.42175001  1
  C  C84  1  0.82058630  0.96956168  0.41675185  1
  C  C85  1  0.16698632  0.34751353  0.41848643  1
  C  C86  1  0.66722116  0.36153028  0.41591076  1
  C  C87  1  0.99698966  0.29302584  0.25418455  1
  C  C88  1  0.50591591  0.30014275  0.25588135  1
  C  C89  1  0.00638716  0.71075752  0.75504502  1
  C  C90  1  0.49498396  0.69663477  0.75143501  1
  C  C91  1  0.19145586  0.04719310  0.58451024  1
  C  C92  1  0.68654791  0.04317437  0.57924943  1
  C  C93  1  0.33327522  0.61254943  0.58324275  1
  C  C94  1  0.83418145  0.62517090  0.57810984  1
  C  C95  1  0.33403225  0.04335259  0.07787602  1
  C  C96  1  0.18844724  0.33179703  0.07899567  1
  C  C97  1  0.68997628  0.33614654  0.08420790  1
  C  C98  1  0.01907574  0.36628820  0.90937907  1
  C  C99  1  0.51210384  0.36115237  0.91663781  1
  C  C100  1  0.01114364  0.66247574  0.41652449  1
  C  C101  1  0.51471228  0.66736516  0.41308172  1
  C  C102  1  0.09203433  0.01820863  0.30898391  1
  C  C103  1  0.60421398  0.03038412  0.30886344  1
  C  C104  1  0.41295662  0.81570841  0.30902680  1
  C  C105  1  0.90957171  0.78656188  0.31122984  1
  C  C106  1  0.49696196  0.20237428  0.31071426  1
  C  C107  1  0.98732013  0.19212513  0.30876222  1
  C  C108  1  0.10884019  0.17556182  0.80495474  1
  C  C109  1  0.59119752  0.16583020  0.80716562  1
  C  C110  1  0.48404150  0.77731407  0.80514978  1
  C  C111  1  0.99896277  0.79279166  0.80919418  1
  C  C112  1  0.41144152  0.02877827  0.80913868  1
  C  C113  1  0.91749266  0.01403806  0.80635474  1
  C  C114  1  0.38234460  0.95591714  0.69216227  1
  C  C115  1  0.88968036  0.98014261  0.68800951  1
  C  C116  1  0.09963706  0.23883047  0.68873669  1
  C  C117  1  0.59750096  0.21085568  0.68779100  1
  C  C118  1  0.01562189  0.81164253  0.70145250  1
  C  C119  1  0.50705662  0.79861262  0.69816846  1
  C  C120  1  0.39099901  0.80178900  0.18955359  1
  C  C121  1  0.88450819  0.81329206  0.19435388  1
  C  C122  1  0.01015569  0.21685430  0.20175533  1
  C  C123  1  0.51461199  0.21584215  0.20300944  1
  C  C124  1  0.09759631  0.99185481  0.18835986  1
  C  C125  1  0.59610062  0.95430303  0.19303386  1
  C  C126  1  0.42502586  0.34407203  0.64716228  1
  C  C127  1  0.93613296  0.34259684  0.64125222  1
  C  C128  1  0.23872009  0.13073459  0.63934761  1
  C  C129  1  0.73382687  0.12632908  0.63372316  1
  C  C130  1  0.32665935  0.51797991  0.63790144  1
  C  C131  1  0.82614783  0.52636616  0.63152004  1
  C  C132  1  0.43372837  0.53025245  0.14136559  1
  C  C133  1  0.92921395  0.51515240  0.14739804  1
  C  C134  1  0.32560605  0.12541940  0.13105549  1
  C  C135  1  0.82295020  0.14519996  0.14353446  1
  C  C136  1  0.23673208  0.34578830  0.13320778  1
  C  C137  1  0.73735086  0.35033234  0.13964850  1
  C  C138  1  0.22955361  0.31148645  0.02494149  1
  C  C139  1  0.73026433  0.31693636  0.03018904  1
  C  C140  1  0.41737455  0.51937267  0.02150315  1
  C  C141  1  0.92376303  0.51848968  0.02534890  1
  C  C142  1  0.33549822  0.13309274  0.02278821  1
  C  C143  1  0.83426012  0.15352057  0.02036576  1
  C  C144  1  0.23139989  0.14752612  0.53045367  1
  C  C145  1  0.72804154  0.14656966  0.52554565  1
  C  C146  1  0.33416959  0.52638256  0.52836985  1
  C  C147  1  0.83564239  0.53907924  0.52322857  1
  C  C148  1  0.41859956  0.33089866  0.52652707  1
  C  C149  1  0.91967558  0.32096301  0.52146561  1
  C  C150  1  0.28138684  0.70666182  0.97503228  1
  C  C151  1  0.78935320  0.71128428  0.97906906  1
  C  C152  1  0.07015440  0.44358901  0.96313317  1
  C  C153  1  0.56757004  0.44751811  0.96707528  1
  C  C154  1  0.14260594  0.85671283  0.97399163  1
  C  C155  1  0.64044996  0.85553367  0.97150122  1
  C  C156  1  0.29119065  0.87061679  0.48293727  1
  C  C157  1  0.78309848  0.85860807  0.47698659  1
  C  C158  1  0.14540776  0.42840871  0.47588256  1
  C  C159  1  0.64239528  0.42526684  0.47627178  1
  C  C160  1  0.06603043  0.68775501  0.46847663  1
  C  C161  1  0.56691116  0.69235448  0.46657322  1
  C  C162  1  0.04800680  0.63317392  0.36331287  1
  C  C163  1  0.55376392  0.63833395  0.36082444  1
  C  C164  1  0.25334638  0.89045686  0.37196541  1
  C  C165  1  0.75418736  0.88081071  0.36184637  1
  C  C166  1  0.18830021  0.47290128  0.36188805  1
  C  C167  1  0.68624298  0.49949756  0.36222647  1
  C  C168  1  0.06117028  0.47372415  0.85708276  1
  C  C169  1  0.54728269  0.45994654  0.86155100  1
  C  C170  1  0.18683903  0.87632606  0.85997710  1
  C  C171  1  0.68159197  0.89636939  0.85817981  1
  C  C172  1  0.25607333  0.62749198  0.85921799  1
  C  C173  1  0.75733612  0.60785313  0.86800880  1
  C  C174  1  0.00325020  0.81562792  0.41351598  1
  C  C175  1  0.50782688  0.82222149  0.40941377  1
  C  C176  1  0.41789746  0.99339793  0.40843046  1
  C  C177  1  0.91422608  0.98913216  0.40586063  1
  C  C178  1  0.08333036  0.15954771  0.41004147  1
  C  C179  1  0.58585392  0.17192946  0.40537744  1
  C  C180  1  0.01140344  0.19674551  0.90600101  1
  C  C181  1  0.50271484  0.19055730  0.91368989  1
  C  C182  1  0.08677309  0.00200853  0.90376268  1
  C  C183  1  0.57993241  0.00454268  0.90811144  1
  C  C184  1  0.41371041  0.83884713  0.90549087  1
  C  C185  1  0.91901097  0.83897498  0.90803280  1
  C  C186  1  0.47963747  0.16535752  0.58231851  1
  C  C187  1  0.98814280  0.16446229  0.57569068  1
  C  C188  1  0.10588107  0.02544010  0.58621616  1
  C  C189  1  0.60083749  0.02188700  0.58037186  1
  C  C190  1  0.40880684  0.78361940  0.58303058  1
  C  C191  1  0.91054473  0.79508473  0.58017603  1
  C  C192  1  0.48670318  0.81176270  0.07584201  1
  C  C193  1  0.98495455  0.80110044  0.08261195  1
  C  C194  1  0.41062073  0.02728250  0.08006885  1
  C  C195  1  0.91667980  0.03439877  0.07982970  1
  C  C196  1  0.10376763  0.18214042  0.08061183  1
  C  C197  1  0.60531015  0.18273195  0.08644443  1
  C  C198  1  0.34044059  0.17081909  0.74926846  1
  C  C199  1  0.85175712  0.17719986  0.75609876  1
  C  C200  1  0.24982593  0.33091181  0.74236496  1
  C  C201  1  0.73593536  0.30546335  0.75390279  1
  C  C202  1  0.41601455  0.52871888  0.74707672  1
  C  C203  1  0.93067258  0.54138696  0.75213815  1
  C  C204  1  0.35236785  0.52515426  0.25663910  1
  C  C205  1  0.84099984  0.50653659  0.24640108  1
  C  C206  1  0.43016276  0.31818469  0.25272051  1
  C  C207  1  0.91890120  0.30485025  0.25029213  1
  C  C208  1  0.23575813  0.16613587  0.25524874  1
  C  C209  1  0.74578963  0.16524049  0.24743145  1
  C  C210  1  0.32974682  0.49982656  0.91867338  1
  C  C211  1  0.83974969  0.50111789  0.92750913  1
  C  C212  1  0.42602951  0.33960694  0.92247356  1
  C  C213  1  0.93398505  0.34644417  0.91397219  1
  C  C214  1  0.25475606  0.16048293  0.92259426  1
  C  C215  1  0.74948682  0.16999995  0.92393162  1
  C  C216  1  0.34064550  0.17341080  0.42398900  1
  C  C217  1  0.83054146  0.15982680  0.41924707  1
  C  C218  1  0.25388209  0.33509649  0.42875214  1
  C  C219  1  0.75483583  0.34905088  0.42323010  1
  C  C220  1  0.42855827  0.51955708  0.41980787  1
  C  C221  1  0.92546139  0.51318772  0.42268678  1
  C  C222  1  0.18471528  0.48884850  0.07593077  1
  C  C223  1  0.68313050  0.48920239  0.08068090  1
  C  C224  1  0.07381946  0.64542503  0.08646749  1
  C  C225  1  0.57261450  0.64818089  0.07949180  1
  C  C226  1  0.25829448  0.86957579  0.07856467  1
  C  C227  1  0.75092700  0.86744324  0.08447653  1
  C  C228  1  0.18702057  0.88130825  0.58159003  1
  C  C229  1  0.68275269  0.87867166  0.57658288  1
  C  C230  1  0.25678528  0.63392710  0.58343975  1
  C  C231  1  0.75804772  0.64676782  0.57923168  1
  C  C232  1  0.07623383  0.50022925  0.57994485  1
  C  C233  1  0.57062017  0.49871135  0.58562854  1
  C  C234  1  0.14094104  0.81796719  0.25494897  1
  C  C235  1  0.65814645  0.82000006  0.26338568  1
  C  C236  1  0.25539602  0.66114226  0.25184916  1
  C  C237  1  0.75371138  0.66823420  0.25841350  1
  C  C238  1  0.07055573  0.46442089  0.25959788  1
  C  C239  1  0.58138099  0.47012572  0.25920513  1
  C  C240  1  0.16053182  0.49489001  0.76051330  1
  C  C241  1  0.64253929  0.46738373  0.75461349  1
  C  C242  1  0.08180967  0.69066356  0.75795092  1
  C  C243  1  0.56796222  0.67070923  0.75664461  1
  C  C244  1  0.25328091  0.83425312  0.75849013  1
  C  C245  1  0.75614104  0.84728190  0.75255379  1
