# generated using pymatgen
data_Cu3NiC
_symmetry_space_group_name_H-M   'P 1'
_cell_length_a   5.40746200
_cell_length_b   4.56563900
_cell_length_c   6.50796170
_cell_angle_alpha   73.44685591
_cell_angle_beta   90.00000000
_cell_angle_gamma   90.00000000
_symmetry_Int_Tables_number   1
_chemical_formula_structural   Cu3NiC
_chemical_formula_sum   'Cu6 Ni2 C2'
_cell_volume   154.01303269
_cell_formula_units_Z   2
loop_
 _symmetry_equiv_pos_site_id
 _symmetry_equiv_pos_as_xyz
  1  'x, y, z'
loop_
 _atom_site_type_symbol
 _atom_site_label
 _atom_site_symmetry_multiplicity
 _atom_site_fract_x
 _atom_site_fract_y
 _atom_site_fract_z
 _atom_site_occupancy
  C  C0  1  0.25000000  0.64311300  0.71873000  1
  C  C1  1  0.75000000  0.35688700  0.28127000  1
  Ni  Ni2  1  0.75000000  0.08668200  0.82424600  1
  Ni  Ni3  1  0.25000000  0.91331800  0.17575400  1
  Cu  Cu4  1  0.02496600  0.80202300  0.32711300  1
  Cu  Cu5  1  0.52496600  0.19797700  0.67288700  1
  Cu  Cu6  1  0.97503400  0.19797700  0.67288700  1
  Cu  Cu7  1  0.47503400  0.80202300  0.32711300  1
  Cu  Cu8  1  0.25000000  0.26337200  0.13345600  1
  Cu  Cu9  1  0.75000000  0.73662800  0.86654400  1
