# generated using pymatgen
data_Cu3Ni8C31
_symmetry_space_group_name_H-M   'P 1'
_cell_length_a   9.19515167
_cell_length_b   9.19815232
_cell_length_c   22.49104865
_cell_angle_alpha   90.03705199
_cell_angle_beta   89.98470016
_cell_angle_gamma   119.99639026
_symmetry_Int_Tables_number   1
_chemical_formula_structural   Cu3Ni8C31
_chemical_formula_sum   'Cu9 Ni24 C93'
_cell_volume   1647.46249045
_cell_formula_units_Z   3
loop_
 _symmetry_equiv_pos_site_id
 _symmetry_equiv_pos_as_xyz
  1  'x, y, z'
loop_
 _atom_site_type_symbol
 _atom_site_label
 _atom_site_symmetry_multiplicity
 _atom_site_fract_x
 _atom_site_fract_y
 _atom_site_fract_z
 _atom_site_occupancy
  Ni  Ni0  1  0.63175935  0.99786508  0.25403437  1
  Ni  Ni1  1  0.36692861  0.36850438  0.25216451  1
  Ni  Ni2  1  0.00214606  0.63228731  0.25225320  1
  Ni  Ni3  1  0.63987447  0.63381969  0.74241540  1
  Ni  Ni4  1  0.99161561  0.35469886  0.74420154  1
  Ni  Ni5  1  0.36915023  0.01175983  0.74788634  1
  Ni  Ni6  1  0.29680144  0.33879678  0.58387495  1
  Ni  Ni7  1  0.03737712  0.70108920  0.58172736  1
  Ni  Ni8  1  0.66649679  0.95839375  0.58133121  1
  Ni  Ni9  1  0.29311024  0.95852361  0.08108422  1
  Ni  Ni10  1  0.66192483  0.70038407  0.08313325  1
  Ni  Ni11  1  0.04306849  0.34081079  0.08342097  1
  Ni  Ni12  1  0.97551642  0.68001175  0.91441872  1
  Ni  Ni13  1  0.70714263  0.02905868  0.91279660  1
  Ni  Ni14  1  0.31901295  0.29083421  0.91264853  1
  Ni  Ni15  1  0.97795610  0.30089739  0.41619813  1
  Ni  Ni16  1  0.32658940  0.02475902  0.41661447  1
  Ni  Ni17  1  0.69680843  0.67600407  0.41626433  1
  Ni  Ni18  1  0.99698984  0.99914677  0.49975989  1
  Ni  Ni19  1  0.00294873  0.99976996  0.99775285  1
  Ni  Ni20  1  0.66262557  0.32736141  0.82749818  1
  Ni  Ni21  1  0.66511328  0.33141545  0.33370989  1
  Ni  Ni22  1  0.32932365  0.66218499  0.16566966  1
  Ni  Ni23  1  0.33416770  0.66196183  0.66013317  1
  Cu  Cu24  1  0.99978324  0.99991204  0.35361372  1
  Cu  Cu25  1  0.00148789  0.00513513  0.85064892  1
  Cu  Cu26  1  0.99343444  0.00392063  0.64785446  1
  Cu  Cu27  1  0.00342575  0.99950461  0.14630313  1
  Cu  Cu28  1  0.66668390  0.33476163  0.68420074  1
  Cu  Cu29  1  0.66830435  0.33827815  0.18351743  1
  Cu  Cu30  1  0.33036091  0.66364481  0.01830190  1
  Cu  Cu31  1  0.33351872  0.66302474  0.51611971  1
  Cu  Cu32  1  0.33366549  0.66595074  0.31993363  1
  C  C33  1  0.66445149  0.33680108  0.97927915  1
  C  C34  1  0.67244488  0.33793608  0.48055634  1
  C  C35  1  0.33616870  0.66541326  0.81520932  1
  C  C36  1  0.29475211  0.29509101  0.75052665  1
  C  C37  1  0.70310431  0.99920193  0.75088330  1
  C  C38  1  0.96302907  0.33507406  0.58547542  1
  C  C39  1  0.66703095  0.62954196  0.58548187  1
  C  C40  1  0.96140007  0.62797390  0.08494537  1
  C  C41  1  0.37197373  0.33415146  0.08510557  1
  C  C42  1  0.62774572  0.66814312  0.91942451  1
  C  C43  1  0.03915733  0.37278228  0.91862988  1
  C  C44  1  0.33305344  0.95904942  0.91905546  1
  C  C45  1  0.62736188  0.96217255  0.41680752  1
  C  C46  1  0.33419767  0.37068911  0.41654596  1
  C  C47  1  0.03988460  0.66746354  0.41681842  1
  C  C48  1  0.29499026  0.99866336  0.24923152  1
  C  C49  1  0.70514646  0.70611614  0.24905264  1
  C  C50  1  0.00004893  0.29398196  0.24902003  1
  C  C51  1  0.00350089  0.70785587  0.75099168  1
  C  C52  1  0.37547681  0.04165371  0.58393607  1
  C  C53  1  0.66683861  0.04386768  0.08383342  1
  C  C54  1  0.21093052  0.02319082  0.30469752  1
  C  C55  1  0.81258392  0.79054258  0.30472422  1
  C  C56  1  0.97803195  0.18695058  0.30471049  1
  C  C57  1  0.21123686  0.18236980  0.80965147  1
  C  C58  1  0.97830171  0.78845276  0.80677365  1
  C  C59  1  0.81552656  0.02512221  0.80972530  1
  C  C60  1  0.78106314  0.95663366  0.69227809  1
  C  C61  1  0.17540327  0.21387679  0.69200088  1
  C  C62  1  0.03539049  0.81760212  0.69519922  1
  C  C63  1  0.79113268  0.81324470  0.19313933  1
  C  C64  1  0.02102911  0.20779077  0.19301641  1
  C  C65  1  0.18703314  0.97747638  0.19325878  1
  C  C66  1  0.87319194  0.35879750  0.64365052  1
  C  C67  1  0.48074807  0.12332493  0.63987353  1
  C  C68  1  0.63782010  0.51406264  0.64362045  1
  C  C69  1  0.87427257  0.51006318  0.14259949  1
  C  C70  1  0.64206851  0.12619603  0.13945594  1
  C  C71  1  0.48829510  0.35874312  0.14262282  1
  C  C72  1  0.47324943  0.30863509  0.02614934  1
  C  C73  1  0.83524700  0.52294429  0.02623916  1
  C  C74  1  0.68920250  0.15744401  0.02788380  1
  C  C75  1  0.46758958  0.15445279  0.52830961  1
  C  C76  1  0.68380128  0.52192955  0.52722297  1
  C  C77  1  0.83756017  0.31226919  0.52698728  1
  C  C78  1  0.54503113  0.69851982  0.97729164  1
  C  C79  1  0.15339791  0.45659919  0.97657757  1
  C  C80  1  0.30481751  0.84697431  0.97727704  1
  C  C81  1  0.54498669  0.84537189  0.47490333  1
  C  C82  1  0.29907417  0.45332282  0.47458395  1
  C  C83  1  0.15488158  0.70064419  0.47522199  1
  C  C84  1  0.11606393  0.62463877  0.35781167  1
  C  C85  1  0.50895214  0.88330808  0.35755163  1
  C  C86  1  0.37626636  0.49033560  0.35762035  1
  C  C87  1  0.13285555  0.49934679  0.86047823  1
  C  C88  1  0.36331503  0.86383883  0.86062558  1
  C  C89  1  0.50000831  0.63489182  0.86117290  1
  C  C90  1  0.00899110  0.82650903  0.41007244  1
  C  C91  1  0.81689901  0.99047814  0.41000202  1
  C  C92  1  0.17210900  0.18210197  0.40995110  1
  C  C93  1  0.01375736  0.18600269  0.91223022  1
  C  C94  1  0.17201268  0.98446715  0.91190033  1
  C  C95  1  0.81562242  0.82395037  0.91099608  1
  C  C96  1  0.97375882  0.16225036  0.58449255  1
  C  C97  1  0.20106213  0.02868457  0.58606596  1
  C  C98  1  0.84384984  0.80890630  0.58464348  1
  C  C99  1  0.96675769  0.80879087  0.08516495  1
  C  C100  1  0.82888291  0.03184417  0.08613640  1
  C  C101  1  0.18765673  0.16280080  0.08535097  1
  C  C102  1  0.67702764  0.16193115  0.74652977  1
  C  C103  1  0.48540096  0.32511980  0.74713471  1
  C  C104  1  0.84883821  0.52928181  0.74672653  1
  C  C105  1  0.68704248  0.52761496  0.24640150  1
  C  C106  1  0.83916941  0.31087942  0.24628810  1
  C  C107  1  0.47403169  0.15695421  0.24570605  1
  C  C108  1  0.63511992  0.48964895  0.92215608  1
  C  C109  1  0.85186132  0.35982164  0.92259151  1
  C  C110  1  0.50997588  0.14516441  0.92246449  1
  C  C111  1  0.64449435  0.15108863  0.42419838  1
  C  C112  1  0.50360176  0.35003364  0.42446247  1
  C  C113  1  0.84884985  0.49500790  0.42397446  1
  C  C114  1  0.35807211  0.50299585  0.08036917  1
  C  C115  1  0.14765050  0.65012074  0.08001357  1
  C  C116  1  0.51064142  0.86885635  0.07880951  1
  C  C117  1  0.35836087  0.86670461  0.57866934  1
  C  C118  1  0.50171389  0.65032541  0.57963701  1
  C  C119  1  0.14620597  0.50414488  0.57987201  1
  C  C120  1  0.31053792  0.83739941  0.25220210  1
  C  C121  1  0.52726357  0.68835813  0.25213371  1
  C  C122  1  0.16035810  0.47178370  0.25207256  1
  C  C123  1  0.30893662  0.48510819  0.75802857  1
  C  C124  1  0.16526423  0.69024463  0.75717138  1
  C  C125  1  0.51099119  0.82662272  0.75817885  1
