# generated using pymatgen
data_CuNiC16
_symmetry_space_group_name_H-M   'P 1'
_cell_length_a   8.76740647
_cell_length_b   8.76397465
_cell_length_c   22.65252708
_cell_angle_alpha   90.14026262
_cell_angle_beta   90.00000000
_cell_angle_gamma   120.01295426
_symmetry_Int_Tables_number   1
_chemical_formula_structural   CuNiC16
_chemical_formula_sum   'Cu6 Ni6 C96'
_cell_volume   1507.16605041
_cell_formula_units_Z   6
loop_
 _symmetry_equiv_pos_site_id
 _symmetry_equiv_pos_as_xyz
  1  'x, y, z'
loop_
 _atom_site_type_symbol
 _atom_site_label
 _atom_site_symmetry_multiplicity
 _atom_site_fract_x
 _atom_site_fract_y
 _atom_site_fract_z
 _atom_site_occupancy
  C  C0  1  0.00030516  0.00117362  0.49706356  1
  C  C1  1  0.00086846  0.00117362  0.99706356  1
  C  C2  1  0.66654219  0.33352587  0.83053873  1
  C  C3  1  0.66698468  0.33352587  0.33053873  1
  C  C4  1  0.33428370  0.66849440  0.16376012  1
  C  C5  1  0.33420970  0.66849440  0.66376012  1
  Ni  Ni6  1  0.99957762  0.99808327  0.35374035  1
  Ni  Ni7  1  0.99850565  0.99808327  0.85374035  1
  Ni  Ni8  1  0.67785313  0.33966981  0.68723366  1
  Ni  Ni9  1  0.66181767  0.33966981  0.18723366  1
  Ni  Ni10  1  0.32989678  0.65572352  0.02046121  1
  Ni  Ni11  1  0.32582574  0.65572352  0.52046121  1
  Cu  Cu12  1  0.00241227  -0.00026230  0.64485718  1
  Cu  Cu13  1  0.99732543  -0.00026230  0.14485718  1
  Cu  Cu14  1  0.66461476  0.33132442  0.97833056  1
  Cu  Cu15  1  0.66671066  0.33132442  0.47833056  1
  Cu  Cu16  1  0.33683170  0.66371818  0.31165186  1
  Cu  Cu17  1  0.32688548  0.66371818  0.81165186  1
  C  C18  1  0.71513972  0.70954008  0.25101825  1
  C  C19  1  0.99440035  0.70954008  0.75101825  1
  C  C20  1  0.95845170  0.33832631  0.58385019  1
  C  C21  1  0.37987561  0.33832631  0.08385019  1
  C  C22  1  0.04626669  0.37295605  0.91728120  1
  C  C23  1  0.32668836  0.37295605  0.41728120  1
  C  C24  1  0.28837738  0.00373902  0.25076511  1
  C  C25  1  0.99376714  0.28424283  0.25107839  1
  C  C26  1  0.29047570  0.28424283  0.75107839  1
  C  C27  1  0.71536164  0.00373902  0.75076511  1
  C  C28  1  0.38355953  0.04451156  0.58456681  1
  C  C29  1  0.66197309  0.61801341  0.58433640  1
  C  C30  1  0.95604132  0.61801341  0.08433640  1
  C  C31  1  0.66095303  0.04451156  0.08456681  1
  C  C32  1  0.62249245  0.67095625  0.91748380  1
  C  C33  1  0.32826956  0.94994973  0.91795556  1
  C  C34  1  0.62167917  0.94994973  0.41795556  1
  C  C35  1  0.04846280  0.67095625  0.41748380  1
  C  C36  1  0.20249206  0.03192035  0.30570280  1
  C  C37  1  0.83671552  0.80703956  0.30838224  1
  C  C38  1  0.97224671  0.17145998  0.30553922  1
  C  C39  1  0.19921327  0.17145998  0.80553922  1
  C  C40  1  0.97032404  0.80703956  0.80838224  1
  C  C41  1  0.82942829  0.03192035  0.80570280  1
  C  C42  1  0.80055881  0.97284356  0.69499970  1
  C  C43  1  0.17224669  0.20305349  0.69495099  1
  C  C44  1  0.02948732  0.83351665  0.69240893  1
  C  C45  1  0.80402933  0.83351665  0.19240893  1
  C  C46  1  0.03080680  0.20305349  0.19495099  1
  C  C47  1  0.17228475  0.97284356  0.19499970  1
  C  C48  1  0.86124840  0.36400886  0.64115215  1
  C  C49  1  0.49524973  0.13447233  0.63916806  1
  C  C50  1  0.63533254  0.50457220  0.63912976  1
  C  C51  1  0.86924067  0.50457220  0.13912976  1
  C  C52  1  0.63922360  0.13447233  0.13916806  1
  C  C53  1  0.50276146  0.36400886  0.14115215  1
  C  C54  1  0.47048266  0.30383019  0.02570975  1
  C  C55  1  0.83941429  0.53387826  0.02840288  1
  C  C56  1  0.69682247  0.16180091  0.02821060  1
  C  C57  1  0.46497944  0.16180091  0.52821060  1
  C  C58  1  0.69446497  0.53387826  0.52840288  1
  C  C59  1  0.83334852  0.30383019  0.52570975  1
  C  C60  1  0.53503511  0.69725459  0.97239513  1
  C  C61  1  0.16969314  0.47206525  0.97451079  1
  C  C62  1  0.30486784  0.83866519  0.97244659  1
  C  C63  1  0.53379635  0.83866519  0.47244659  1
  C  C64  1  0.30237111  0.47206525  0.47451079  1
  C  C65  1  0.16221848  0.69725459  0.47239513  1
  C  C66  1  0.13141731  0.63851317  0.36150686  1
  C  C67  1  0.50503944  0.86860926  0.36148975  1
  C  C68  1  0.36223985  0.50061538  0.35946410  1
  C  C69  1  0.13837453  0.50061538  0.85946410  1
  C  C70  1  0.36356881  0.86860926  0.86148975  1
  C  C71  1  0.50709486  0.63851317  0.86150686  1
  C  C72  1  0.02666365  0.83290145  0.41000730  1
  C  C73  1  0.80566713  0.97325577  0.40928051  1
  C  C74  1  0.15566342  0.18090889  0.40849621  1
  C  C75  1  0.02524547  0.18090889  0.90849621  1
  C  C76  1  0.16758864  0.97325577  0.90928051  1
  C  C77  1  0.80623780  0.83290145  0.91000730  1
  C  C78  1  0.97683030  0.16274731  0.59088178  1
  C  C79  1  0.19776810  0.02777180  0.59022574  1
  C  C80  1  0.83062047  0.80311680  0.59043023  1
  C  C81  1  0.97249632  0.80311680  0.09043023  1
  C  C82  1  0.83000370  0.02777180  0.09022574  1
  C  C83  1  0.18591701  0.16274731  0.09088178  1
  C  C84  1  0.69070451  0.16413517  0.74265640  1
  C  C85  1  0.47187260  0.30370060  0.74273763  1
  C  C86  1  0.82276340  0.51629814  0.74283735  1
  C  C87  1  0.69353574  0.51629814  0.24283735  1
  C  C88  1  0.83182901  0.30370060  0.24273763  1
  C  C89  1  0.47343166  0.16413517  0.24265640  1
  C  C90  1  0.64027709  0.50371675  0.92397790  1
  C  C91  1  0.85321045  0.35772690  0.92416119  1
  C  C92  1  0.49683695  0.13624202  0.92336662  1
  C  C93  1  0.63940607  0.13624202  0.42336662  1
  C  C94  1  0.50451745  0.35772690  0.42416119  1
  C  C95  1  0.86344066  0.50371675  0.42397790  1
  C  C96  1  0.36124847  0.51155998  0.07618542  1
  C  C97  1  0.14103657  0.64338780  0.07618541  1
  C  C98  1  0.49987886  0.86179306  0.07563885  1
  C  C99  1  0.36191321  0.86179306  0.57563885  1
  C  C100  1  0.50235023  0.64338780  0.57618541  1
  C  C101  1  0.15031051  0.51155998  0.57618542  1
  C  C102  1  0.30342451  0.83522281  0.25716833  1
  C  C103  1  0.52086348  0.69293048  0.25691313  1
  C  C104  1  0.16085362  0.47077905  0.25730675  1
  C  C105  1  0.30992443  0.47077905  0.75730675  1
  C  C106  1  0.17206600  0.69293048  0.75691313  1
  C  C107  1  0.53179730  0.83522281  0.75716833  1
