# generated using pymatgen
data_Cu8NiC
_symmetry_space_group_name_H-M   'P 1'
_cell_length_a   5.99590700
_cell_length_b   10.10596600
_cell_length_c   11.00480200
_cell_angle_alpha   90.00000000
_cell_angle_beta   90.00000000
_cell_angle_gamma   90.00000000
_symmetry_Int_Tables_number   1
_chemical_formula_structural   Cu8NiC
_chemical_formula_sum   'Cu32 Ni4 C4'
_cell_volume   666.82972956
_cell_formula_units_Z   4
loop_
 _symmetry_equiv_pos_site_id
 _symmetry_equiv_pos_as_xyz
  1  'x, y, z'
loop_
 _atom_site_type_symbol
 _atom_site_label
 _atom_site_symmetry_multiplicity
 _atom_site_fract_x
 _atom_site_fract_y
 _atom_site_fract_z
 _atom_site_occupancy
  C  C0  1  0.38378200  0.50000000  0.75000000  1
  C  C1  1  0.61621800  0.00000000  0.75000000  1
  C  C2  1  0.61621800  0.50000000  0.25000000  1
  C  C3  1  0.38378200  0.00000000  0.25000000  1
  Ni  Ni4  1  0.00000000  0.75000000  0.54867700  1
  Ni  Ni5  1  0.00000000  0.25000000  0.95132300  1
  Ni  Ni6  1  0.00000000  0.25000000  0.45132300  1
  Ni  Ni7  1  0.00000000  0.75000000  0.04867700  1
  Cu  Cu8  1  0.11123900  0.34807800  0.05143500  1
  Cu  Cu9  1  0.11123900  0.65192200  0.44856500  1
  Cu  Cu10  1  0.88876100  0.84807800  0.44856500  1
  Cu  Cu11  1  0.88876100  0.15192200  0.05143500  1
  Cu  Cu12  1  0.88876100  0.65192200  0.94856500  1
  Cu  Cu13  1  0.88876100  0.34807800  0.55143500  1
  Cu  Cu14  1  0.11123900  0.15192200  0.55143500  1
  Cu  Cu15  1  0.11123900  0.84807800  0.94856500  1
  Cu  Cu16  1  0.60135500  0.88644700  0.18429100  1
  Cu  Cu17  1  0.60135500  0.11355300  0.31570900  1
  Cu  Cu18  1  0.39864500  0.38644700  0.31570900  1
  Cu  Cu19  1  0.39864500  0.61355300  0.18429100  1
  Cu  Cu20  1  0.39864500  0.11355300  0.81570900  1
  Cu  Cu21  1  0.39864500  0.88644700  0.68429100  1
  Cu  Cu22  1  0.60135500  0.61355300  0.68429100  1
  Cu  Cu23  1  0.60135500  0.38644700  0.81570900  1
  Cu  Cu24  1  0.13975400  0.88305300  0.18476400  1
  Cu  Cu25  1  0.13975400  0.11694700  0.31523600  1
  Cu  Cu26  1  0.86024600  0.38305300  0.31523600  1
  Cu  Cu27  1  0.86024600  0.61694700  0.18476400  1
  Cu  Cu28  1  0.86024600  0.11694700  0.81523600  1
  Cu  Cu29  1  0.86024600  0.88305300  0.68476400  1
  Cu  Cu30  1  0.13975400  0.61694700  0.68476400  1
  Cu  Cu31  1  0.13975400  0.38305300  0.81523600  1
  Cu  Cu32  1  0.35660900  0.09908800  0.10344000  1
  Cu  Cu33  1  0.35660900  0.90091200  0.39656000  1
  Cu  Cu34  1  0.64339100  0.59908800  0.39656000  1
  Cu  Cu35  1  0.64339100  0.40091200  0.10344000  1
  Cu  Cu36  1  0.64339100  0.90091200  0.89656000  1
  Cu  Cu37  1  0.64339100  0.09908800  0.60344000  1
  Cu  Cu38  1  0.35660900  0.40091200  0.60344000  1
  Cu  Cu39  1  0.35660900  0.59908800  0.89656000  1
