# generated using pymatgen
data_Cu6NiC12
_symmetry_space_group_name_H-M   'P 1'
_cell_length_a   8.15119537
_cell_length_b   5.68322173
_cell_length_c   5.87877135
_cell_angle_alpha   67.52856036
_cell_angle_beta   62.94844223
_cell_angle_gamma   64.65945265
_symmetry_Int_Tables_number   1
_chemical_formula_structural   Cu6NiC12
_chemical_formula_sum   'Cu6 Ni1 C12'
_cell_volume   213.16793666
_cell_formula_units_Z   1
loop_
 _symmetry_equiv_pos_site_id
 _symmetry_equiv_pos_as_xyz
  1  'x, y, z'
loop_
 _atom_site_type_symbol
 _atom_site_label
 _atom_site_symmetry_multiplicity
 _atom_site_fract_x
 _atom_site_fract_y
 _atom_site_fract_z
 _atom_site_occupancy
  Ni  Ni0  1  0.49414890  0.99812723  0.52568484  1
  Cu  Cu1  1  0.86916207  0.67905150  0.68216234  1
  Cu  Cu2  1  0.31617331  0.63437297  0.66886475  1
  Cu  Cu3  1  0.67273387  0.36913630  0.32958864  1
  Cu  Cu4  1  0.11928955  0.31788489  0.32222275  1
  Cu  Cu5  1  0.52177065  0.02646880  0.01375711  1
  Cu  Cu6  1  0.97829998  0.00324545  0.01008496  1
  C  C7  1  0.67164709  0.04010761  0.64434213  1
  C  C8  1  0.32089352  0.35919375  0.97565736  1
  C  C9  1  0.58838528  0.59122670  0.55671664  1
  C  C10  1  0.94682137  0.23587181  0.20999213  1
  C  C11  1  0.70043367  0.11117957  0.14690601  1
  C  C12  1  0.39557055  0.41371094  0.45430213  1
  C  C13  1  0.04110932  0.76851980  0.78917118  1
  C  C14  1  0.99180732  0.30167924  0.69616952  1
  C  C15  1  0.32757543  0.97573346  0.36868378  1
  C  C16  1  0.66839128  0.65451264  0.02884983  1
  C  C17  1  0.00053947  0.69785661  0.30884140  1
  C  C18  1  0.28265238  0.89712071  0.86799950  1
