# generated using pymatgen
data_CuNiC18
_symmetry_space_group_name_H-M   'P 1'
_cell_length_a   9.10858867
_cell_length_b   9.11075894
_cell_length_c   22.65992993
_cell_angle_alpha   90.00000000
_cell_angle_beta   90.10198866
_cell_angle_gamma   120.00788444
_symmetry_Int_Tables_number   1
_chemical_formula_structural   CuNiC18
_chemical_formula_sum   'Cu6 Ni6 C108'
_cell_volume   1628.39369950
_cell_formula_units_Z   6
loop_
 _symmetry_equiv_pos_site_id
 _symmetry_equiv_pos_as_xyz
  1  'x, y, z'
loop_
 _atom_site_type_symbol
 _atom_site_label
 _atom_site_symmetry_multiplicity
 _atom_site_fract_x
 _atom_site_fract_y
 _atom_site_fract_z
 _atom_site_occupancy
  C  C0  1  0.99172995  0.98176578  0.49789480  1
  C  C1  1  0.99172995  0.00996417  0.99789480  1
  C  C2  1  0.66647020  0.33457880  0.83123218  1
  C  C3  1  0.66647020  0.33189041  0.33123218  1
  C  C4  1  0.33144699  0.66531888  0.16459873  1
  C  C5  1  0.33144699  0.66612911  0.66459873  1
  C  C6  1  0.36791638  0.36424828  0.24950160  1
  C  C7  1  0.99322786  0.63212351  0.24899359  1
  C  C8  1  0.99322786  0.36110436  0.74899359  1
  C  C9  1  0.36791638  0.00366810  0.74950160  1
  C  C10  1  0.30430850  0.33978126  0.58267061  1
  C  C11  1  0.66335094  0.96655420  0.58228418  1
  C  C12  1  0.30430850  0.96452624  0.08267061  1
  C  C13  1  0.66335094  0.69679574  0.08228418  1
  C  C14  1  0.97149189  0.67390657  0.91558947  1
  C  C15  1  0.32966175  0.29872449  0.91607875  1
  C  C16  1  0.97149189  0.29758632  0.41558947  1
  C  C17  1  0.32966175  0.03093826  0.41607875  1
  Ni  Ni18  1  0.99446396  0.99589861  0.35321316  1
  Ni  Ni19  1  0.99446396  0.99856535  0.85321316  1
  Ni  Ni20  1  0.66737551  0.33919003  0.68659770  1
  Ni  Ni21  1  0.66737551  0.32818448  0.18659770  1
  Ni  Ni22  1  0.32974520  0.66180060  0.02002022  1
  Ni  Ni23  1  0.32974520  0.66794559  0.52002022  1
  Cu  Cu24  1  0.99892760  0.99612266  0.64624333  1
  Cu  Cu25  1  0.99892760  0.00280494  0.14624333  1
  Cu  Cu26  1  0.66784920  0.32900377  0.97948097  1
  Cu  Cu27  1  0.66784920  0.33884443  0.47948097  1
  Cu  Cu28  1  0.33760064  0.67018716  0.31290013  1
  Cu  Cu29  1  0.33760064  0.66741448  0.81290013  1
  C  C30  1  0.29049405  0.99869593  0.25069241  1
  C  C31  1  0.70708089  0.71139763  0.24892280  1
  C  C32  1  0.00022896  0.29190019  0.25158942  1
  C  C33  1  0.29049405  0.29179812  0.75069241  1
  C  C34  1  0.00022896  0.70832877  0.75158942  1
  C  C35  1  0.70708089  0.99568326  0.74892280  1
  C  C36  1  0.95790307  0.33338520  0.58419836  1
  C  C37  1  0.37480580  0.04293841  0.58406738  1
  C  C38  1  0.67087159  0.62675550  0.58301584  1
  C  C39  1  0.95790307  0.62451687  0.08419836  1
  C  C40  1  0.67087159  0.04411509  0.08301584  1
  C  C41  1  0.37480580  0.33186639  0.08406738  1
  C  C42  1  0.62489444  0.66712700  0.91866128  1
  C  C43  1  0.04057001  0.37586874  0.91556781  1
  C  C44  1  0.33766637  0.95923663  0.91692066  1
  C  C45  1  0.62489444  0.95776845  0.41866128  1
  C  C46  1  0.33766637  0.37843074  0.41692066  1
  C  C47  1  0.04057001  0.66470227  0.41556781  1
  C  C48  1  0.20456726  0.02938865  0.30863681  1
  C  C49  1  0.83209802  0.79982629  0.30440252  1
  C  C50  1  0.97753394  0.18343764  0.31076381  1
  C  C51  1  0.20456726  0.17517860  0.80863681  1
  C  C52  1  0.97753394  0.79409630  0.81076381  1
  C  C53  1  0.83209802  0.03227174  0.80440252  1
  C  C54  1  0.80031643  0.97166064  0.68976560  1
  C  C55  1  0.16515917  0.19865365  0.69222318  1
  C  C56  1  0.02972338  0.83822255  0.69511459  1
  C  C57  1  0.80031643  0.82865579  0.18976560  1
  C  C58  1  0.02972338  0.19150083  0.19511459  1
  C  C59  1  0.16515917  0.96650552  0.19222318  1
  C  C60  1  0.86983625  0.35548321  0.64271732  1
  C  C61  1  0.49101675  0.12890018  0.64215245  1
  C  C62  1  0.63338116  0.50283748  0.63896207  1
  C  C63  1  0.86983625  0.51435205  0.14271732  1
  C  C64  1  0.63338116  0.13054268  0.13896207  1
  C  C65  1  0.49101675  0.36211557  0.14215245  1
  C  C66  1  0.46916552  0.30143841  0.02580062  1
  C  C67  1  0.83295599  0.53076242  0.02585642  1
  C  C68  1  0.69530405  0.16672177  0.02535342  1
  C  C69  1  0.46916552  0.16772610  0.52580062  1
  C  C70  1  0.69530405  0.52858128  0.52535342  1
  C  C71  1  0.83295599  0.30219256  0.52585642  1
  C  C72  1  0.53974514  0.69127648  0.97762889  1
  C  C73  1  0.16373758  0.46736365  0.97154892  1
  C  C74  1  0.30461113  0.84236650  0.97468905  1
  C  C75  1  0.53974514  0.84846966  0.47762889  1
  C  C76  1  0.30461113  0.46224563  0.47468905  1
  C  C77  1  0.16373758  0.69637493  0.47154892  1
  C  C78  1  0.13143228  0.63256257  0.35684496  1
  C  C79  1  0.49485688  0.85865278  0.36190722  1
  C  C80  1  0.36015742  0.49747229  0.35825683  1
  C  C81  1  0.13143228  0.49887072  0.85684496  1
  C  C82  1  0.36015742  0.86268613  0.85825683  1
  C  C83  1  0.49485688  0.63620510  0.86190722  1
  C  C84  1  0.02707431  0.83490986  0.41060487  1
  C  C85  1  0.81653151  0.99196572  0.41210799  1
  C  C86  1  0.17159689  0.18866235  0.41121179  1
  C  C87  1  0.02707431  0.19216445  0.91060487  1
  C  C88  1  0.17159689  0.98293453  0.91121179  1
  C  C89  1  0.81653151  0.82456579  0.91210799  1
  C  C90  1  0.96980422  0.15658769  0.58891735  1
  C  C91  1  0.19003865  0.03595864  0.59002367  1
  C  C92  1  0.83963059  0.81618884  0.58935534  1
  C  C93  1  0.96980422  0.81321652  0.08891735  1
  C  C94  1  0.83963059  0.02344175  0.08935534  1
  C  C95  1  0.19003865  0.15408001  0.09002367  1
  C  C96  1  0.68275099  0.16135685  0.74410540  1
  C  C97  1  0.47364277  0.30484937  0.74439818  1
  C  C98  1  0.84269114  0.51645920  0.74547078  1
  C  C99  1  0.68275099  0.52139314  0.24410540  1
  C  C100  1  0.84269114  0.32623094  0.24547078  1
  C  C101  1  0.47364277  0.16879241  0.24439818  1
  C  C102  1  0.63508521  0.48998072  0.92282468  1
  C  C103  1  0.85697133  0.36980805  0.92282931  1
  C  C104  1  0.50596464  0.15115611  0.92239200  1
  C  C105  1  0.63508521  0.14510349  0.42282468  1
  C  C106  1  0.50596464  0.35480753  0.42239200  1
  C  C107  1  0.85697133  0.48716228  0.42282931  1
  C  C108  1  0.36008778  0.50111032  0.07820883  1
  C  C109  1  0.15053951  0.65952161  0.07865848  1
  C  C110  1  0.50459020  0.85565477  0.07719125  1
  C  C111  1  0.36008778  0.85897846  0.57820883  1
  C  C112  1  0.50459020  0.64893643  0.57719125  1
  C  C113  1  0.15053951  0.49101891  0.57865848  1
  C  C114  1  0.29789847  0.82135503  0.25665473  1
  C  C115  1  0.51669680  0.68978062  0.25623272  1
  C  C116  1  0.17742487  0.47931558  0.25525259  1
  C  C117  1  0.29789847  0.47654444  0.75665473  1
  C  C118  1  0.17742487  0.69811029  0.75525259  1
  C  C119  1  0.51669680  0.82691719  0.75623272  1
