# generated using pymatgen
data_Cu(NiC4)2
_symmetry_space_group_name_H-M   'P 1'
_cell_length_a   6.78034680
_cell_length_b   6.26391216
_cell_length_c   6.95104584
_cell_angle_alpha   56.42168415
_cell_angle_beta   54.72566575
_cell_angle_gamma   57.98910844
_symmetry_Int_Tables_number   1
_chemical_formula_structural   Cu(NiC4)2
_chemical_formula_sum   'Cu1 Ni2 C8'
_cell_volume   190.92323410
_cell_formula_units_Z   1
loop_
 _symmetry_equiv_pos_site_id
 _symmetry_equiv_pos_as_xyz
  1  'x, y, z'
loop_
 _atom_site_type_symbol
 _atom_site_label
 _atom_site_symmetry_multiplicity
 _atom_site_fract_x
 _atom_site_fract_y
 _atom_site_fract_z
 _atom_site_occupancy
  Ni  Ni0  1  0.69122762  0.73927654  0.70129851  1
  Ni  Ni1  1  0.30877238  0.26072346  0.29870149  1
  Cu  Cu2  1  -0.00000000  -0.00000000  0.00000000  1
  C  C3  1  -0.00000000  0.50000000  0.00000000  1
  C  C4  1  0.50000000  0.50000000  0.50000000  1
  C  C5  1  0.78492166  0.22589006  0.25342725  1
  C  C6  1  0.31714442  0.74313322  0.15416202  1
  C  C7  1  0.15140038  0.34136153  0.74294189  1
  C  C8  1  0.21507834  0.77410994  0.74657275  1
  C  C9  1  0.68285558  0.25686678  0.84583798  1
  C  C10  1  0.84859962  0.65863847  0.25705811  1
