# generated using pymatgen
data_Cu4NiC14
_symmetry_space_group_name_H-M   'P 1'
_cell_length_a   5.66089311
_cell_length_b   6.27908267
_cell_length_c   8.63726711
_cell_angle_alpha   89.84841334
_cell_angle_beta   89.72851814
_cell_angle_gamma   92.78366780
_symmetry_Int_Tables_number   1
_chemical_formula_structural   Cu4NiC14
_chemical_formula_sum   'Cu4 Ni1 C14'
_cell_volume   306.64654077
_cell_formula_units_Z   1
loop_
 _symmetry_equiv_pos_site_id
 _symmetry_equiv_pos_as_xyz
  1  'x, y, z'
loop_
 _atom_site_type_symbol
 _atom_site_label
 _atom_site_symmetry_multiplicity
 _atom_site_fract_x
 _atom_site_fract_y
 _atom_site_fract_z
 _atom_site_occupancy
  C  C0  1  0.03728000  0.91106300  0.75033800  1
  C  C1  1  0.57946200  0.63627300  0.25045700  1
  Ni  Ni2  1  0.35281900  0.22687200  0.25242500  1
  Cu  Cu3  1  0.01822900  0.47915000  0.98673200  1
  Cu  Cu4  1  0.01882500  0.48080700  0.51246400  1
  Cu  Cu5  1  0.51455700  0.00500700  0.52104700  1
  Cu  Cu6  1  0.51077300  0.00407600  0.98177700  1
  C  C7  1  0.20508500  0.49260000  0.25220400  1
  C  C8  1  0.18254400  0.15722000  0.93045600  1
  C  C9  1  0.18265600  0.15773100  0.56527300  1
  C  C10  1  0.28254500  0.74103900  0.91919800  1
  C  C11  1  0.28233400  0.74176100  0.57968300  1
  C  C12  1  0.40134900  0.93130100  0.24801000  1
  C  C13  1  0.67383600  0.04434500  0.75048500  1
  C  C14  1  0.61887700  0.30515600  0.41533200  1
  C  C15  1  0.61507700  0.30502400  0.08409700  1
  C  C16  1  0.77369200  0.78831100  0.04665100  1
  C  C17  1  0.77396100  0.78796000  0.45265800  1
  C  C18  1  0.91686900  0.56472200  0.75071400  1
