# generated using pymatgen
data_CuNiC11
_symmetry_space_group_name_H-M   'P 1'
_cell_length_a   5.83751100
_cell_length_b   5.83751004
_cell_length_c   7.14625400
_cell_angle_alpha   90.00000000
_cell_angle_beta   90.00000000
_cell_angle_gamma   119.99999978
_symmetry_Int_Tables_number   1
_chemical_formula_structural   CuNiC11
_chemical_formula_sum   'Cu1 Ni1 C11'
_cell_volume   210.89410162
_cell_formula_units_Z   1
loop_
 _symmetry_equiv_pos_site_id
 _symmetry_equiv_pos_as_xyz
  1  'x, y, z'
loop_
 _atom_site_type_symbol
 _atom_site_label
 _atom_site_symmetry_multiplicity
 _atom_site_fract_x
 _atom_site_fract_y
 _atom_site_fract_z
 _atom_site_occupancy
  Ni  Ni0  1  0.33333300  0.66666700  0.17816300  1
  C  C1  1  0.00000000  0.00000000  0.01245900  1
  Cu  Cu2  1  0.00000000  0.00000000  0.47995700  1
  C  C3  1  0.66666700  0.33333300  0.30921300  1
  C  C4  1  0.33333300  0.66666700  0.71352900  1
  C  C5  1  0.83756600  0.16243400  0.17184800  1
  C  C6  1  0.83756600  0.67513300  0.17184800  1
  C  C7  1  0.32486700  0.16243400  0.17184800  1
  C  C8  1  0.65152500  0.82576200  0.82062100  1
  C  C9  1  0.33333300  0.66666700  0.45245600  1
  C  C10  1  0.66666700  0.33333300  0.56015000  1
  C  C11  1  0.17423800  0.82576200  0.82062100  1
  C  C12  1  0.17423800  0.34847500  0.82062100  1
