# generated using pymatgen
data_CuNiC18
_symmetry_space_group_name_H-M   'P 1'
_cell_length_a   16.25634881
_cell_length_b   9.41727624
_cell_length_c   9.32103456
_cell_angle_alpha   90.00000000
_cell_angle_beta   124.94016882
_cell_angle_gamma   90.00000000
_symmetry_Int_Tables_number   1
_chemical_formula_structural   CuNiC18
_chemical_formula_sum   'Cu4 Ni4 C72'
_cell_volume   1169.75297126
_cell_formula_units_Z   4
loop_
 _symmetry_equiv_pos_site_id
 _symmetry_equiv_pos_as_xyz
  1  'x, y, z'
loop_
 _atom_site_type_symbol
 _atom_site_label
 _atom_site_symmetry_multiplicity
 _atom_site_fract_x
 _atom_site_fract_y
 _atom_site_fract_z
 _atom_site_occupancy
  C  C0  1  0.25383238  0.72570733  0.99779609  1
  C  C1  1  0.75383238  0.77429267  0.49779609  1
  C  C2  1  0.75383238  0.22570733  0.99779609  1
  C  C3  1  0.25383238  0.27429267  0.49779609  1
  C  C4  1  0.49887086  0.11645060  0.74450867  1
  C  C5  1  0.49887086  0.88354940  0.24450867  1
  C  C6  1  0.99887086  0.61645060  0.74450867  1
  C  C7  1  0.99887086  0.38354940  0.24450867  1
  C  C8  1  0.19031511  0.94465775  0.28942240  1
  C  C9  1  0.19031511  0.05534225  0.78942240  1
  C  C10  1  0.69031511  0.44465775  0.28942240  1
  C  C11  1  0.69031511  0.55534225  0.78942240  1
  Ni  Ni12  1  0.10659498  0.74978506  0.56922609  1
  Ni  Ni13  1  0.10659498  0.25021494  0.06922609  1
  Ni  Ni14  1  0.60659498  0.24978506  0.56922609  1
  Ni  Ni15  1  0.60659498  0.75021494  0.06922609  1
  Cu  Cu16  1  0.89266551  0.75207291  0.93144250  1
  Cu  Cu17  1  0.89266551  0.24792709  0.43144250  1
  Cu  Cu18  1  0.39266551  0.25207291  0.93144250  1
  Cu  Cu19  1  0.39266551  0.74792709  0.43144250  1
  C  C20  1  0.99642789  0.95996131  0.75507299  1
  C  C21  1  0.99642789  0.04003869  0.25507299  1
  C  C22  1  0.49642789  0.45996131  0.75507299  1
  C  C23  1  0.49642789  0.54003869  0.25507299  1
  C  C24  1  0.35497055  0.89445897  0.75725360  1
  C  C25  1  0.64517396  0.89243460  0.74359795  1
  C  C26  1  0.64517396  0.10756540  0.24359795  1
  C  C27  1  0.35497055  0.10554103  0.25725360  1
  C  C28  1  0.85497055  0.39445897  0.75725360  1
  C  C29  1  0.14517396  0.39243460  0.74359795  1
  C  C30  1  0.14517396  0.60756540  0.24359795  1
  C  C31  1  0.85497055  0.60554103  0.25725360  1
  C  C32  1  0.15233362  0.57692471  0.74541281  1
  C  C33  1  0.85021296  0.58464723  0.75814573  1
  C  C34  1  0.85021296  0.41535277  0.25814573  1
  C  C35  1  0.15233362  0.42307529  0.24541281  1
  C  C36  1  0.65233362  0.07692471  0.74541281  1
  C  C37  1  0.35021296  0.08464723  0.75814573  1
  C  C38  1  0.35021296  0.91535277  0.25814573  1
  C  C39  1  0.65233362  0.92307529  0.24541281  1
  C  C40  1  0.42933740  0.57983735  0.57285247  1
  C  C41  1  0.57168119  0.56022924  0.94292753  1
  C  C42  1  0.57168119  0.43977076  0.44292753  1
  C  C43  1  0.42933740  0.42016265  0.07285247  1
  C  C44  1  0.92933740  0.07983735  0.57285247  1
  C  C45  1  0.07168119  0.06022924  0.94292753  1
  C  C46  1  0.07168119  0.93977076  0.44292753  1
  C  C47  1  0.92933740  0.92016265  0.07285247  1
  C  C48  1  0.25182376  0.83284123  0.75145569  1
  C  C49  1  0.74422630  0.80032435  0.75624140  1
  C  C50  1  0.74422630  0.19967565  0.25624140  1
  C  C51  1  0.25182376  0.16715877  0.25145569  1
  C  C52  1  0.75182376  0.33284123  0.75145569  1
  C  C53  1  0.24422630  0.30032435  0.75624140  1
  C  C54  1  0.24422630  0.69967565  0.25624140  1
  C  C55  1  0.75182376  0.66715877  0.25145569  1
  C  C56  1  0.35512344  0.85872841  0.56732483  1
  C  C57  1  0.64227756  0.84278112  0.91990466  1
  C  C58  1  0.64227756  0.15721888  0.41990466  1
  C  C59  1  0.35512344  0.14127159  0.06732483  1
  C  C60  1  0.85512344  0.35872841  0.56732483  1
  C  C61  1  0.14227756  0.34278112  0.91990466  1
  C  C62  1  0.14227756  0.65721888  0.41990466  1
  C  C63  1  0.85512344  0.64127159  0.06732483  1
  C  C64  1  0.46570580  0.83554502  0.94525783  1
  C  C65  1  0.53092816  0.82444846  0.55199398  1
  C  C66  1  0.53092816  0.17555154  0.05199398  1
  C  C67  1  0.46570580  0.16445498  0.44525783  1
  C  C68  1  0.96570580  0.33554502  0.94525783  1
  C  C69  1  0.03092816  0.32444846  0.55199398  1
  C  C70  1  0.03092816  0.67555154  0.05199398  1
  C  C71  1  0.96570580  0.66445498  0.44525783  1
  C  C72  1  0.07911001  0.84786718  0.74448810  1
  C  C73  1  0.90838955  0.84972544  0.75567469  1
  C  C74  1  0.90838955  0.15027456  0.25567469  1
  C  C75  1  0.07911001  0.15213282  0.24448810  1
  C  C76  1  0.57911001  0.34786718  0.74448810  1
  C  C77  1  0.40838955  0.34972544  0.75567469  1
  C  C78  1  0.40838955  0.65027456  0.25567469  1
  C  C79  1  0.57911001  0.65213282  0.24448810  1
