# generated using pymatgen
data_Cu3Ni3C32
_symmetry_space_group_name_H-M   'P 1'
_cell_length_a   8.68846416
_cell_length_b   8.69047962
_cell_length_c   22.05704848
_cell_angle_alpha   89.72212017
_cell_angle_beta   90.32615327
_cell_angle_gamma   119.83898806
_symmetry_Int_Tables_number   1
_chemical_formula_structural   Cu3Ni3C32
_chemical_formula_sum   'Cu9 Ni9 C96'
_cell_volume   1444.63762044
_cell_formula_units_Z   3
loop_
 _symmetry_equiv_pos_site_id
 _symmetry_equiv_pos_as_xyz
  1  'x, y, z'
loop_
 _atom_site_type_symbol
 _atom_site_label
 _atom_site_symmetry_multiplicity
 _atom_site_fract_x
 _atom_site_fract_y
 _atom_site_fract_z
 _atom_site_occupancy
  C  C0  1  0.63810067  -0.00003409  0.25124333  1
  C  C1  1  0.36224076  0.36239939  0.25100313  1
  C  C2  1  0.99961067  0.63655470  0.25154249  1
  C  C3  1  0.30355170  0.33613250  0.58616018  1
  C  C4  1  0.66835439  0.97018221  0.58623209  1
  C  C5  1  0.29522446  0.96269347  0.08392346  1
  C  C6  1  0.00100471  0.98882695  0.50165475  1
  C  C7  1  0.98914671  0.00105533  0.99293607  1
  C  C8  1  0.66753817  0.33424105  0.82756776  1
  C  C9  1  0.66790805  0.33367549  0.32974340  1
  C  C10  1  0.33432171  0.65573373  0.16888246  1
  C  C11  1  0.32049998  0.66801687  0.66125626  1
  C  C12  1  0.66888295  0.33423042  0.97275769  1
  C  C13  1  0.66737371  0.33449455  0.48320163  1
  C  C14  1  0.33276182  0.66672897  0.81427392  1
  C  C15  1  0.99989947  0.99937299  0.34116657  1
  C  C16  1  0.00002855  0.99915054  0.85998293  1
  C  C17  1  0.00113761  0.99601589  0.64084194  1
  C  C18  1  0.99500203  0.00164036  0.16015565  1
  C  C19  1  0.66661807  0.33253457  0.67680083  1
  C  C20  1  0.66782529  0.33555629  0.19288025  1
  C  C21  1  0.33484121  0.66200031  0.00921490  1
  C  C22  1  0.32890492  0.66720903  0.52557135  1
  C  C23  1  0.33301265  0.66673869  0.30820000  1
  Ni  Ni24  1  0.28725421  0.00049292  0.24910065  1
  Ni  Ni25  1  0.71238047  0.71238859  0.25091430  1
  Ni  Ni26  1  0.00021803  0.28730403  0.25067727  1
  Ni  Ni27  1  0.96240044  0.33983547  0.58810238  1
  Ni  Ni28  1  0.37246163  0.03661815  0.58701881  1
  Ni  Ni29  1  0.66795148  0.62626406  0.58673237  1
  Ni  Ni30  1  0.62702025  0.68135260  0.91852282  1
  Ni  Ni31  1  0.05416672  0.37293799  0.91820594  1
  Ni  Ni32  1  0.31972940  0.94551056  0.92000291  1
  Cu  Cu33  1  0.28670113  0.27985489  0.74894400  1
  Cu  Cu34  1  0.99270692  0.71546491  0.74871752  1
  Cu  Cu35  1  0.71964892  0.00687870  0.74897308  1
  Cu  Cu36  1  0.95557891  0.62305343  0.08621035  1
  Cu  Cu37  1  0.67222432  0.04264165  0.08641568  1
  Cu  Cu38  1  0.37565752  0.33791852  0.08532459  1
  Cu  Cu39  1  0.62129009  0.94810214  0.41574255  1
  Cu  Cu40  1  0.32661888  0.37834016  0.41560092  1
  Cu  Cu41  1  0.05393935  0.67300244  0.41575542  1
  C  C42  1  0.20477351  0.05090740  0.30626109  1
  C  C43  1  0.84452430  0.79154300  0.30882791  1
  C  C44  1  0.94713454  0.15516600  0.30862896  1
  C  C45  1  0.19819074  0.17639336  0.80320511  1
  C  C46  1  0.97881129  0.80118071  0.80391676  1
  C  C47  1  0.82352411  0.02036292  0.80316949  1
  C  C48  1  0.79824579  0.98157872  0.69338525  1
  C  C49  1  0.18171396  0.20087745  0.69325041  1
  C  C50  1  0.01858694  0.82402811  0.69429205  1
  C  C51  1  0.79194368  0.84307167  0.19251340  1
  C  C52  1  0.05315990  0.20912511  0.19248110  1
  C  C53  1  0.16245416  0.95327364  0.18789483  1
  C  C54  1  0.86979689  0.37603631  0.64420004  1
  C  C55  1  0.50971709  0.12657103  0.64248637  1
  C  C56  1  0.61476768  0.48658761  0.64159859  1
  C  C57  1  0.86682693  0.51484443  0.14030482  1
  C  C58  1  0.64341737  0.13069260  0.13952178  1
  C  C59  1  0.48354546  0.35678475  0.14009504  1
  C  C60  1  0.46665920  0.31114704  0.03187024  1
  C  C61  1  0.84720581  0.53208984  0.03135524  1
  C  C62  1  0.68947317  0.15158616  0.03128419  1
  C  C63  1  0.46462519  0.17281602  0.52600285  1
  C  C64  1  0.70568641  0.53512910  0.52521321  1
  C  C65  1  0.82747354  0.29187733  0.52677723  1
  C  C66  1  0.53679153  0.70676539  0.97722007  1
  C  C67  1  0.16845520  0.46505213  0.97721811  1
  C  C68  1  0.29822845  0.83579568  0.98154807  1
  C  C69  1  0.53414621  0.84694673  0.47114526  1
  C  C70  1  0.31359082  0.46511764  0.47109543  1
  C  C71  1  0.15855179  0.68622603  0.47010772  1
  C  C72  1  0.13316894  0.64772888  0.36025423  1
  C  C73  1  0.51309049  0.86580812  0.36092304  1
  C  C74  1  0.35109652  0.48663363  0.36100306  1
  C  C75  1  0.13347277  0.50161383  0.85741003  1
  C  C76  1  0.36724118  0.86261315  0.86008207  1
  C  C77  1  0.49771521  0.63091877  0.85768700  1
  C  C78  1  0.03330543  0.83155685  0.41233110  1
  C  C79  1  0.80001537  0.96841900  0.41219887  1
  C  C80  1  0.16925455  0.19921571  0.41171737  1
  C  C81  1  0.02424220  0.18216569  0.90526418  1
  C  C82  1  0.15791093  0.97429587  0.90649965  1
  C  C83  1  0.81762594  0.84149727  0.90544626  1
  C  C84  1  0.97727841  0.16115834  0.59438787  1
  C  C85  1  0.18508403  0.02947171  0.59306590  1
  C  C86  1  0.83685882  0.82131509  0.59353649  1
  C  C87  1  0.97212918  0.80113873  0.08748151  1
  C  C88  1  0.83329404  0.02925551  0.09015240  1
  C  C89  1  0.20020631  0.17276174  0.08759465  1
  C  C90  1  0.69692223  0.16478206  0.74586921  1
  C  C91  1  0.46682678  0.30162839  0.74550281  1
  C  C92  1  0.83531012  0.53586706  0.74466292  1
  C  C93  1  0.68670475  0.51523825  0.23985226  1
  C  C94  1  0.82830831  0.31265332  0.23919969  1
  C  C95  1  0.48466715  0.17159794  0.23864072  1
  C  C96  1  0.64015005  0.49775597  0.92597637  1
  C  C97  1  0.85723994  0.35942784  0.92511214  1
  C  C98  1  0.50224431  0.14227991  0.92649380  1
  C  C99  1  0.63813234  0.13103985  0.41909309  1
  C  C100  1  0.49278542  0.36115324  0.41870058  1
  C  C101  1  0.87128783  0.50794931  0.41984101  1
  C  C102  1  0.36042274  0.49818790  0.07921757  1
  C  C103  1  0.13493328  0.64161103  0.08239600  1
  C  C104  1  0.50739931  0.86633504  0.08163489  1
  C  C105  1  0.36213994  0.85187186  0.57219750  1
  C  C106  1  0.49507339  0.64437352  0.57129395  1
  C  C107  1  0.15503401  0.50318206  0.57302637  1
  C  C108  1  0.31196020  0.82834970  0.26010560  1
  C  C109  1  0.51498573  0.68651793  0.26117358  1
  C  C110  1  0.17104545  0.48468574  0.26110192  1
  C  C111  1  0.30533592  0.46393337  0.75224265  1
  C  C112  1  0.15851073  0.69647751  0.75203069  1
  C  C113  1  0.53523014  0.84224694  0.75257280  1
