# generated using pymatgen
data_CuNiC11
_symmetry_space_group_name_H-M   'P 1'
_cell_length_a   9.02059921
_cell_length_b   9.03522742
_cell_length_c   22.50672221
_cell_angle_alpha   90.16152462
_cell_angle_beta   89.94687349
_cell_angle_gamma   119.72968641
_symmetry_Int_Tables_number   1
_chemical_formula_structural   CuNiC11
_chemical_formula_sum   'Cu9 Ni9 C99'
_cell_volume   1592.91313304
_cell_formula_units_Z   9
loop_
 _symmetry_equiv_pos_site_id
 _symmetry_equiv_pos_as_xyz
  1  'x, y, z'
loop_
 _atom_site_type_symbol
 _atom_site_label
 _atom_site_symmetry_multiplicity
 _atom_site_fract_x
 _atom_site_fract_y
 _atom_site_fract_z
 _atom_site_occupancy
  C  C0  1  0.99107770  0.62841583  0.24515239  1
  C  C1  1  0.36870232  0.00951317  0.74560162  1
  C  C2  1  0.03814366  0.69591199  0.57923697  1
  C  C3  1  0.64935864  0.96213113  0.58128113  1
  C  C4  1  0.30177147  0.96042301  0.07903245  1
  C  C5  1  0.03572266  0.35074034  0.08282700  1
  C  C6  1  0.97706933  0.67703802  0.91572899  1
  C  C7  1  0.97143724  0.29795171  0.41104564  1
  C  C8  1  0.32641729  0.02437600  0.41528144  1
  C  C9  1  0.99212414  0.99014328  0.49390725  1
  C  C10  1  0.99429756  0.00220584  0.99252688  1
  C  C11  1  0.67262265  0.32849862  0.82820571  1
  C  C12  1  0.66139143  0.32928415  0.32641955  1
  C  C13  1  0.35403606  0.66082562  0.16242942  1
  C  C14  1  0.33598127  0.64271008  0.66185272  1
  C  C15  1  0.99040085  0.99601241  0.35243072  1
  C  C16  1  0.99911669  0.00771394  0.85318828  1
  C  C17  1  0.66745051  0.33539145  0.68706069  1
  C  C18  1  0.66543684  0.33205822  0.18633005  1
  C  C19  1  0.33552068  0.66614022  0.01898697  1
  C  C20  1  0.33942795  0.66936973  0.51950395  1
  C  C21  1  0.99758816  0.00070012  0.64685816  1
  C  C22  1  0.99868215  0.00172469  0.14664038  1
  C  C23  1  0.65779232  0.33092488  0.97912502  1
  C  C24  1  0.66453009  0.33845075  0.47957957  1
  C  C25  1  0.33440900  0.66645534  0.31303448  1
  C  C26  1  0.34094805  0.67045055  0.81295512  1
  Ni  Ni27  1  0.00103177  0.29643777  0.25297434  1
  Ni  Ni28  1  0.70692519  0.00136981  0.75186702  1
  Ni  Ni29  1  0.37231677  0.04330694  0.58550288  1
  Ni  Ni30  1  0.66394088  0.62406546  0.58662764  1
  Ni  Ni31  1  0.95572305  0.62610882  0.08435609  1
  Ni  Ni32  1  0.37517547  0.33584648  0.08621316  1
  Ni  Ni33  1  0.33513593  0.96224099  0.91868334  1
  Ni  Ni34  1  0.62811878  0.96076869  0.41957507  1
  Ni  Ni35  1  0.03905462  0.66648316  0.41879087  1
  Cu  Cu36  1  0.29278653  -0.00029455  0.25191141  1
  Cu  Cu37  1  0.70654623  0.71056546  0.25005089  1
  Cu  Cu38  1  0.28732112  0.29173032  0.75129160  1
  Cu  Cu39  1  0.00127326  0.70784902  0.75256336  1
  Cu  Cu40  1  0.95513133  0.33011905  0.58325997  1
  Cu  Cu41  1  0.66927349  0.04554949  0.08330989  1
  Cu  Cu42  1  0.62311136  0.66342634  0.91743293  1
  Cu  Cu43  1  0.04106820  0.37640439  0.91810576  1
  Cu  Cu44  1  0.33800817  0.38058028  0.41652229  1
  C  C45  1  0.20569016  0.01322314  0.30818469  1
  C  C46  1  0.81869656  0.79370331  0.30452484  1
  C  C47  1  0.98677969  0.19048329  0.31172347  1
  C  C48  1  0.20562848  0.17864082  0.80504618  1
  C  C49  1  0.98817957  0.79520110  0.80854992  1
  C  C50  1  0.82207603  0.01676559  0.80728759  1
  C  C51  1  0.80186886  0.97848897  0.69057562  1
  C  C52  1  0.17134810  0.19770381  0.69526251  1
  C  C53  1  0.02999980  0.82840920  0.69663015  1
  C  C54  1  0.80132255  0.82556107  0.19447138  1
  C  C55  1  0.01860079  0.19215963  0.19313927  1
  C  C56  1  0.17229442  0.97206435  0.19616991  1
  C  C57  1  0.86955064  0.35616492  0.63678886  1
  C  C58  1  0.49061891  0.12514937  0.64280853  1
  C  C59  1  0.65164054  0.51359969  0.64262761  1
  C  C60  1  0.87570369  0.50806814  0.14193439  1
  C  C61  1  0.64076377  0.12543906  0.13807464  1
  C  C62  1  0.48704146  0.35156459  0.14235154  1
  C  C63  1  0.46977468  0.30092841  0.02659798  1
  C  C64  1  0.83528530  0.52731449  0.02463561  1
  C  C65  1  0.69992306  0.16453486  0.02800926  1
  C  C66  1  0.47269970  0.16468086  0.52578379  1
  C  C67  1  0.69775216  0.53015820  0.52684671  1
  C  C68  1  0.84073508  0.30015040  0.52597089  1
  C  C69  1  0.53754310  0.68234823  0.97222166  1
  C  C70  1  0.13793179  0.45683255  0.97573354  1
  C  C71  1  0.30937864  0.84956382  0.97697982  1
  C  C72  1  0.54371968  0.85745046  0.47942212  1
  C  C73  1  0.30594730  0.46012892  0.47052027  1
  C  C74  1  0.14943222  0.68852079  0.47736166  1
  C  C75  1  0.13786502  0.63545082  0.35944387  1
  C  C76  1  0.49784766  0.85535929  0.36224382  1
  C  C77  1  0.36070290  0.49198293  0.36021336  1
  C  C78  1  0.14084008  0.49720526  0.86447366  1
  C  C79  1  0.35787544  0.85729734  0.85949771  1
  C  C80  1  0.51016690  0.64112273  0.86099376  1
  C  C81  1  0.02784323  0.83753795  0.41092937  1
  C  C82  1  0.82292041  0.00112334  0.41366896  1
  C  C83  1  0.18767117  0.19844342  0.40940794  1
  C  C84  1  0.01496195  0.19733651  0.91188616  1
  C  C85  1  0.16477014  0.97629865  0.91132720  1
  C  C86  1  0.80534250  0.81199052  0.91118270  1
  C  C87  1  0.96241777  0.16047811  0.58803218  1
  C  C88  1  0.18165514  0.02809278  0.59019920  1
  C  C89  1  0.84618115  0.81382588  0.59004490  1
  C  C90  1  0.97262731  0.81735781  0.09048266  1
  C  C91  1  0.83933473  0.03823233  0.08785823  1
  C  C92  1  0.18550636  0.15367731  0.09026146  1
  C  C93  1  0.66576768  0.15505496  0.74818631  1
  C  C94  1  0.46451826  0.31212586  0.74382033  1
  C  C95  1  0.85076380  0.53007440  0.74575904  1
  C  C96  1  0.68789804  0.53452472  0.24340552  1
  C  C97  1  0.84295620  0.33191773  0.24826841  1
  C  C98  1  0.47008994  0.14940185  0.24530287  1
  C  C99  1  0.63755203  0.49643687  0.92043194  1
  C  C100  1  0.86554498  0.37439394  0.91938716  1
  C  C101  1  0.51378737  0.14912936  0.92223576  1
  C  C102  1  0.63118300  0.14769552  0.42071502  1
  C  C103  1  0.50336702  0.36590863  0.42102758  1
  C  C104  1  0.85378172  0.48596933  0.42203530  1
  C  C105  1  0.33433251  0.48846048  0.07879078  1
  C  C106  1  0.14941845  0.65813271  0.07804691  1
  C  C107  1  0.51508233  0.86827252  0.07528978  1
  C  C108  1  0.33928730  0.84989351  0.57949567  1
  C  C109  1  0.50883454  0.66169728  0.58071950  1
  C  C110  1  0.13237156  0.48447252  0.57626109  1
  C  C111  1  0.29632442  0.82629269  0.25411316  1
  C  C112  1  0.53018090  0.70090952  0.25442640  1
  C  C113  1  0.18060167  0.48731972  0.25462219  1
  C  C114  1  0.29635218  0.46790814  0.75620653  1
  C  C115  1  0.17366989  0.70150809  0.75487708  1
  C  C116  1  0.51514576  0.81929864  0.75626607  1
