# generated using pymatgen
data_Cu3Ni3C32
_symmetry_space_group_name_H-M   'P 1'
_cell_length_a   9.04127519
_cell_length_b   9.04114144
_cell_length_c   23.16199324
_cell_angle_alpha   89.64760361
_cell_angle_beta   90.71595215
_cell_angle_gamma   119.88610326
_symmetry_Int_Tables_number   1
_chemical_formula_structural   Cu3Ni3C32
_chemical_formula_sum   'Cu9 Ni9 C96'
_cell_volume   1641.43202034
_cell_formula_units_Z   3
loop_
 _symmetry_equiv_pos_site_id
 _symmetry_equiv_pos_as_xyz
  1  'x, y, z'
loop_
 _atom_site_type_symbol
 _atom_site_label
 _atom_site_symmetry_multiplicity
 _atom_site_fract_x
 _atom_site_fract_y
 _atom_site_fract_z
 _atom_site_occupancy
  C  C0  1  0.63199945  0.00135072  0.24350036  1
  C  C1  1  0.37832677  0.35988836  0.25227492  1
  C  C2  1  0.98758974  0.64183672  0.24917113  1
  C  C3  1  0.99256589  0.35332220  0.75567819  1
  C  C4  1  0.38167320  0.01414667  0.75737582  1
  C  C5  1  0.70115459  0.67860801  0.40853047  1
  C  C6  1  0.00631048  0.02108250  0.49246820  1
  C  C7  1  0.00400109  0.01094434  0.99895761  1
  C  C8  1  0.65738069  0.32366298  0.83517295  1
  C  C9  1  0.64782046  0.32114284  0.32982213  1
  C  C10  1  0.35023465  0.68465202  0.16241835  1
  C  C11  1  0.35122861  0.66419672  0.67140227  1
  C  C12  1  0.00693012  0.01021173  0.35507759  1
  C  C13  1  0.66116597  0.33078453  0.68595123  1
  C  C14  1  0.65839364  0.32270375  0.17783772  1
  Ni  Ni15  1  0.28960288  0.99586177  0.24993371  1
  Ni  Ni16  1  0.70413048  0.70174400  0.25298079  1
  Ni  Ni17  1  0.29340696  0.29793244  0.75211794  1
  Ni  Ni18  1  0.70480637  0.98882240  0.75361128  1
  Ni  Ni19  1  0.66601016  0.02418578  0.08481157  1
  Ni  Ni20  1  0.04476687  0.38421949  0.91767904  1
  Ni  Ni21  1  0.32840821  0.95862043  0.91453167  1
  Ni  Ni22  1  0.62665754  0.96232726  0.41946596  1
  Ni  Ni23  1  0.33130418  0.37584852  0.41898304  1
  Cu  Cu24  1  0.01421682  0.02664491  0.85772190  1
  Cu  Cu25  1  0.99118917  0.00788840  0.65472474  1
  Cu  Cu26  1  0.98478454  0.98457990  0.14853502  1
  Cu  Cu27  1  0.66940351  0.30910539  0.97904820  1
  Cu  Cu28  1  0.65330683  0.32101449  0.47846106  1
  Cu  Cu29  1  0.33230705  0.67543693  0.01515401  1
  Cu  Cu30  1  0.33766815  0.66517540  0.51457534  1
  Cu  Cu31  1  0.35352180  0.68142644  0.31516694  1
  Cu  Cu32  1  0.34059236  0.66683069  0.81904163  1
  C  C33  1  0.00567163  0.29862187  0.24958585  1
  C  C34  1  0.00307515  0.71497467  0.75178690  1
  C  C35  1  0.96862562  0.33829547  0.58201994  1
  C  C36  1  0.36051595  0.02637857  0.58283984  1
  C  C37  1  0.66946293  0.63573496  0.58198413  1
  C  C38  1  0.96412360  0.62943417  0.08120423  1
  C  C39  1  0.36583468  0.33409540  0.08079762  1
  C  C40  1  0.63034085  0.66426884  0.91849414  1
  C  C41  1  0.04100896  0.66088752  0.41838870  1
  C  C42  1  0.21337422  0.04012371  0.30349346  1
  C  C43  1  0.81007302  0.77818387  0.31138007  1
  C  C44  1  0.97342602  0.19458194  0.30080219  1
  C  C45  1  0.20355716  0.16368241  0.80450172  1
  C  C46  1  0.97834596  0.79478178  0.80218874  1
  C  C47  1  0.83259128  0.01894630  0.80747201  1
  C  C48  1  0.77523393  0.94877032  0.69237749  1
  C  C49  1  0.16906303  0.22045040  0.69199351  1
  C  C50  1  0.03428160  0.82108743  0.69689079  1
  C  C51  1  0.78428997  0.83092297  0.19622998  1
  C  C52  1  0.04014134  0.22374795  0.19738472  1
  C  C53  1  0.16466336  0.95672134  0.19080174  1
  C  C54  1  0.89843921  0.36283078  0.63493138  1
  C  C55  1  0.46307070  0.09653579  0.63506073  1
  C  C56  1  0.64493377  0.53242384  0.63265371  1
  C  C57  1  0.89721257  0.53872808  0.13556537  1
  C  C58  1  0.62985576  0.08524424  0.14462014  1
  C  C59  1  0.46101449  0.36424900  0.13519351  1
  C  C60  1  0.45452095  0.31138133  0.03033119  1
  C  C61  1  0.85019789  0.54422790  0.03038358  1
  C  C62  1  0.70291602  0.15210424  0.02877073  1
  C  C63  1  0.44278992  0.13706845  0.53113242  1
  C  C64  1  0.69220096  0.55623586  0.52824270  1
  C  C65  1  0.85798959  0.31415419  0.53008629  1
  C  C66  1  0.55140291  0.69570428  0.96884832  1
  C  C67  1  0.16932805  0.46849774  0.97331900  1
  C  C68  1  0.30017992  0.84464196  0.97151279  1
  C  C69  1  0.53269819  0.84504175  0.47632971  1
  C  C70  1  0.30318644  0.46239895  0.47665172  1
  C  C71  1  0.14577415  0.68402241  0.47143649  1
  C  C72  1  0.11602327  0.63294278  0.36566059  1
  C  C73  1  0.51147393  0.88992414  0.35941192  1
  C  C74  1  0.36894055  0.49563062  0.35985687  1
  C  C75  1  0.12503372  0.48868198  0.85657006  1
  C  C76  1  0.36628483  0.88079402  0.85546183  1
  C  C77  1  0.52412048  0.63120779  0.86447569  1
  C  C78  1  0.01977946  0.80937678  0.41567172  1
  C  C79  1  0.80256501  0.96232589  0.42063840  1
  C  C80  1  0.17736460  0.18851825  0.42094925  1
  C  C81  1  0.01825684  0.19068483  0.91558216  1
  C  C82  1  0.15002811  0.96461563  0.90968711  1
  C  C83  1  0.79969092  0.81708317  0.91095539  1
  C  C84  1  0.98627654  0.18064844  0.58500066  1
  C  C85  1  0.18709454  0.00947915  0.58757810  1
  C  C86  1  0.82778483  0.80993166  0.58645016  1
  C  C87  1  0.98455519  0.80463435  0.08340976  1
  C  C88  1  0.84804903  0.01597217  0.08641215  1
  C  C89  1  0.19442024  0.17663842  0.08536727  1
  C  C90  1  0.69669728  0.16340422  0.74841975  1
  C  C91  1  0.47469551  0.30903799  0.74749850  1
  C  C92  1  0.85808659  0.54192848  0.74455299  1
  C  C93  1  0.68126427  0.51370544  0.24530884  1
  C  C94  1  0.85905647  0.32579803  0.24163915  1
  C  C95  1  0.48325797  0.15071519  0.24570286  1
  C  C96  1  0.64488048  0.50900048  0.92626914  1
  C  C97  1  0.85737656  0.37344116  0.92165211  1
  C  C98  1  0.49536847  0.15357996  0.92032161  1
  C  C99  1  0.64400696  0.15354939  0.42340681  1
  C  C100  1  0.52480953  0.38926817  0.42427000  1
  C  C101  1  0.86797444  0.50373107  0.42479538  1
  C  C102  1  0.34618653  0.48798014  0.07308397  1
  C  C103  1  0.13588843  0.64456587  0.07495243  1
  C  C104  1  0.49627156  0.83239318  0.07353873  1
  C  C105  1  0.34193840  0.85194565  0.57499119  1
  C  C106  1  0.51257521  0.65444743  0.57742184  1
  C  C107  1  0.14191936  0.49559125  0.57550409  1
  C  C108  1  0.28760712  0.80789418  0.25504165  1
  C  C109  1  0.51010774  0.68548964  0.25266813  1
  C  C110  1  0.16365045  0.47139872  0.25618482  1
  C  C111  1  0.29271556  0.47999318  0.75780420  1
  C  C112  1  0.16296612  0.70239110  0.75487824  1
  C  C113  1  0.50861896  0.82524563  0.75775111  1
