# generated using pymatgen
data_CuNi3C35
_symmetry_space_group_name_H-M   'P 1'
_cell_length_a   8.74067956
_cell_length_b   8.73736330
_cell_length_c   22.05725590
_cell_angle_alpha   89.92782975
_cell_angle_beta   89.99332771
_cell_angle_gamma   120.00714614
_symmetry_Int_Tables_number   1
_chemical_formula_structural   CuNi3C35
_chemical_formula_sum   'Cu3 Ni9 C105'
_cell_volume   1458.73338735
_cell_formula_units_Z   3
loop_
 _symmetry_equiv_pos_site_id
 _symmetry_equiv_pos_as_xyz
  1  'x, y, z'
loop_
 _atom_site_type_symbol
 _atom_site_label
 _atom_site_symmetry_multiplicity
 _atom_site_fract_x
 _atom_site_fract_y
 _atom_site_fract_z
 _atom_site_occupancy
  C  C0  1  0.63347249  0.99941611  0.25262563  1
  C  C1  1  0.36562042  0.36648656  0.25303852  1
  C  C2  1  0.00077168  0.63479393  0.25265513  1
  C  C3  1  0.63903036  0.63315826  0.74878288  1
  C  C4  1  0.99752007  0.36208451  0.74898773  1
  C  C5  1  0.03220707  0.70086037  0.58214912  1
  C  C6  1  0.66563409  0.96689875  0.58188725  1
  C  C7  1  0.66602945  0.69954009  0.08233835  1
  C  C8  1  0.03231664  0.33125161  0.08253851  1
  C  C9  1  0.00851285  0.00927942  0.49626831  1
  C  C10  1  0.00814862  0.99906526  0.99607488  1
  C  C11  1  0.65772738  0.32362703  0.83335094  1
  C  C12  1  0.66627100  0.33326698  0.33632845  1
  C  C13  1  0.33239226  0.67429001  0.16585426  1
  C  C14  1  0.33316577  0.66581878  0.66331807  1
  Ni  Ni15  1  0.00052832  0.00007765  0.35531981  1
  Ni  Ni16  1  0.00248029  0.00083893  0.85371262  1
  Ni  Ni17  1  0.00728393  0.00634416  0.64930588  1
  Ni  Ni18  1  0.00553769  0.99923024  0.15019338  1
  Ni  Ni19  1  0.65925861  0.32695436  0.68352100  1
  Ni  Ni20  1  0.66539095  0.33162797  0.18302767  1
  Ni  Ni21  1  0.33259831  0.67298106  0.01505245  1
  Ni  Ni22  1  0.33262438  0.66032493  0.51433560  1
  Ni  Ni23  1  0.33328901  0.66663679  0.32107331  1
  Cu  Cu24  1  0.66525726  0.33242697  0.97986240  1
  Cu  Cu25  1  0.66453626  0.33273383  0.47908069  1
  Cu  Cu26  1  0.33390902  0.67236399  0.81652876  1
  C  C27  1  0.28941902  -0.00013809  0.25056952  1
  C  C28  1  0.71065341  0.71050302  0.24984602  1
  C  C29  1  -0.00030713  0.28961365  0.24985598  1
  C  C30  1  0.29030415  0.28360924  0.75048725  1
  C  C31  1  0.99909777  0.71250191  0.74917411  1
  C  C32  1  0.71316437  0.00368068  0.74929557  1
  C  C33  1  0.96244250  0.33348826  0.58511552  1
  C  C34  1  0.37204290  0.04145341  0.58438082  1
  C  C35  1  0.66360640  0.62548838  0.58537347  1
  C  C36  1  0.96326508  0.63005970  0.08496336  1
  C  C37  1  0.66377728  0.03752473  0.08539112  1
  C  C38  1  0.37079283  0.33011604  0.08495267  1
  C  C39  1  0.63049306  0.67234737  0.91765484  1
  C  C40  1  0.04171374  0.36965297  0.91791119  1
  C  C41  1  0.32772359  0.95845234  0.91782539  1
  C  C42  1  0.62644500  0.95478708  0.41618442  1
  C  C43  1  0.32826944  0.37399482  0.41544945  1
  C  C44  1  0.04526869  0.67135627  0.41636640  1
  C  C45  1  0.20865235  0.04035406  0.30546041  1
  C  C46  1  0.83312305  0.79376817  0.30414857  1
  C  C47  1  0.96068925  0.16685774  0.30415133  1
  C  C48  1  0.20742005  0.17485329  0.80748768  1
  C  C49  1  0.96354181  0.79435309  0.80479835  1
  C  C50  1  0.83030562  0.03726976  0.80504935  1
  C  C51  1  0.78842863  0.96386838  0.69156319  1
  C  C52  1  0.17158460  0.21050726  0.69423479  1
  C  C53  1  0.03063547  0.82036766  0.69071303  1
  C  C54  1  0.78605986  0.82387161  0.19127773  1
  C  C55  1  0.03724725  0.21421818  0.19131125  1
  C  C56  1  0.17229464  0.95927066  0.19361541  1
  C  C57  1  0.88111048  0.37164427  0.64201065  1
  C  C58  1  0.49543474  0.12226504  0.63940814  1
  C  C59  1  0.63392480  0.51340575  0.64298312  1
  C  C60  1  0.88133987  0.50968845  0.14176278  1
  C  C61  1  0.63302040  0.11962428  0.14275409  1
  C  C62  1  0.49062536  0.37045804  0.14164992  1
  C  C63  1  0.45261700  0.29647479  0.02846048  1
  C  C64  1  0.83934464  0.54863220  0.02935043  1
  C  C65  1  0.70918741  0.16136989  0.02971472  1
  C  C66  1  0.45037154  0.15520866  0.52697416  1
  C  C67  1  0.70881152  0.54713442  0.52965706  1
  C  C68  1  0.83871213  0.29085324  0.52933798  1
  C  C69  1  0.54309310  0.69662449  0.97492410  1
  C  C70  1  0.15431537  0.45694826  0.97495135  1
  C  C71  1  0.29990943  0.84364743  0.97382951  1
  C  C72  1  0.54294075  0.84668651  0.47460704  1
  C  C73  1  0.30144664  0.45908702  0.47206369  1
  C  C74  1  0.15393855  0.69687313  0.47459444  1
  C  C75  1  0.12326383  0.63727796  0.35807600  1
  C  C76  1  0.51413878  0.87631017  0.35802477  1
  C  C77  1  0.36279054  0.48445551  0.35648252  1
  C  C78  1  0.11619846  0.48189621  0.85874399  1
  C  C79  1  0.36946573  0.88611674  0.85968327  1
  C  C80  1  0.51757276  0.63417915  0.85876121  1
  C  C81  1  0.02632531  0.83626712  0.41057002  1
  C  C82  1  0.81002132  0.97315690  0.41040799  1
  C  C83  1  0.16348506  0.18990533  0.41000292  1
  C  C84  1  0.02489503  0.18805313  0.91150299  1
  C  C85  1  0.16247395  0.97442988  0.91107744  1
  C  C86  1  0.81168625  0.83779656  0.91095983  1
  C  C87  1  0.97426271  0.16383126  0.59140459  1
  C  C88  1  0.18495314  0.01637580  0.59079393  1
  C  C89  1  0.83178363  0.81211191  0.59063939  1
  C  C90  1  0.97452785  0.81089056  0.09117577  1
  C  C91  1  0.83204969  0.01985772  0.09081277  1
  C  C92  1  0.18402058  0.16822848  0.09091318  1
  C  C93  1  0.69484365  0.17005090  0.74297638  1
  C  C94  1  0.47968975  0.31434013  0.74379303  1
  C  C95  1  0.83360611  0.52310526  0.74400130  1
  C  C96  1  0.68957661  0.52223637  0.24307218  1
  C  C97  1  0.83265320  0.31089091  0.24331573  1
  C  C98  1  0.47741584  0.16718797  0.24326501  1
  C  C99  1  0.64536648  0.50263725  0.92137342  1
  C  C100  1  0.85747144  0.35564313  0.92178043  1
  C  C101  1  0.49714147  0.14320311  0.92182388  1
  C  C102  1  0.64272263  0.14101617  0.42003993  1
  C  C103  1  0.49882964  0.35881168  0.41973949  1
  C  C104  1  0.85927305  0.50102307  0.42052397  1
  C  C105  1  0.35488606  0.49943382  0.07818475  1
  C  C106  1  0.14317377  0.63940633  0.07721048  1
  C  C107  1  0.50105230  0.85155807  0.07768109  1
  C  C108  1  0.35433456  0.85533860  0.57768027  1
  C  C109  1  0.50098762  0.64906834  0.57758089  1
  C  C110  1  0.14306254  0.50344466  0.57709310  1
  C  C111  1  0.31220225  0.83439189  0.25662818  1
  C  C112  1  0.52299962  0.68886622  0.25583023  1
  C  C113  1  0.16550668  0.47746891  0.25585237  1
  C  C114  1  0.31127790  0.47587079  0.75496849  1
  C  C115  1  0.16276667  0.68417721  0.75381576  1
  C  C116  1  0.52740099  0.83126482  0.75421556  1
