# generated using pymatgen
data_Cu(NiC11)3
_symmetry_space_group_name_H-M   'P 1'
_cell_length_a   8.65701709
_cell_length_b   8.68025177
_cell_length_c   21.99533194
_cell_angle_alpha   89.72961238
_cell_angle_beta   90.24780530
_cell_angle_gamma   120.17873459
_symmetry_Int_Tables_number   1
_chemical_formula_structural   Cu(NiC11)3
_chemical_formula_sum   'Cu3 Ni9 C99'
_cell_volume   1428.79788632
_cell_formula_units_Z   3
loop_
 _symmetry_equiv_pos_site_id
 _symmetry_equiv_pos_as_xyz
  1  'x, y, z'
loop_
 _atom_site_type_symbol
 _atom_site_label
 _atom_site_symmetry_multiplicity
 _atom_site_fract_x
 _atom_site_fract_y
 _atom_site_fract_z
 _atom_site_occupancy
  Ni  Ni0  1  0.34519683  0.33225616  0.24361563  1
  Ni  Ni1  1  0.63079369  0.62601225  0.75080639  1
  Ni  Ni2  1  0.97181756  0.29637874  0.41882554  1
  Ni  Ni3  1  0.99838198  0.98973696  0.50752439  1
  Ni  Ni4  1  0.00000692  0.00218562  0.99864529  1
  Ni  Ni5  1  0.66737150  0.32054247  0.83759389  1
  Ni  Ni6  1  0.67148365  0.33803727  0.32442104  1
  Ni  Ni7  1  0.32551075  0.68654907  0.15961506  1
  Ni  Ni8  1  0.30742956  0.66885477  0.66438337  1
  Cu  Cu9  1  0.99950190  0.97781771  0.36043523  1
  Cu  Cu10  1  0.66626209  0.31894306  0.68188536  1
  Cu  Cu11  1  0.67981893  0.33380225  0.16032143  1
  C  C12  1  0.00240767  0.00171226  0.85865669  1
  C  C13  1  0.00262815  0.00346929  0.64884474  1
  C  C14  1  0.99660291  0.99545462  0.14371559  1
  C  C15  1  0.66713051  0.33269155  0.98335589  1
  C  C16  1  0.65954153  0.33317266  0.48244546  1
  C  C17  1  0.33415595  0.66399748  0.00947047  1
  C  C18  1  0.33732906  0.66534592  0.52131681  1
  C  C19  1  0.33492638  0.67537723  0.31050794  1
  C  C20  1  0.32854224  0.66958029  0.81267263  1
  C  C21  1  0.29151836  0.99002703  0.24394849  1
  C  C22  1  0.69048462  0.70664974  0.24411021  1
  C  C23  1  0.00513445  0.30176638  0.25344221  1
  C  C24  1  0.26703401  0.29163783  0.75506406  1
  C  C25  1  0.02226902  0.73619966  0.75517240  1
  C  C26  1  0.71309562  0.98603538  0.75755601  1
  C  C27  1  0.98005879  0.33263476  0.58101662  1
  C  C28  1  0.35390735  0.01777085  0.58241886  1
  C  C29  1  0.66638983  0.64125966  0.58636389  1
  C  C30  1  0.98781180  0.64870266  0.07962963  1
  C  C31  1  0.66179189  0.01509199  0.07887438  1
  C  C32  1  0.35388844  0.33468234  0.07983584  1
  C  C33  1  0.62433841  0.65691657  0.91282062  1
  C  C34  1  0.03764705  0.37781900  0.91435868  1
  C  C35  1  0.34138578  0.96208160  0.91363287  1
  C  C36  1  0.59123279  0.96112044  0.42071023  1
  C  C37  1  0.37076485  0.41357019  0.41931166  1
  C  C38  1  0.04535085  0.64115409  0.42446090  1
  C  C39  1  0.23114917  0.05895980  0.29766595  1
  C  C40  1  0.79508200  0.76749595  0.30355967  1
  C  C41  1  0.97759576  0.21226522  0.31592884  1
  C  C42  1  0.16936078  0.19010580  0.81266889  1
  C  C43  1  0.01505413  0.83024442  0.81310493  1
  C  C44  1  0.80618496  -0.02566543  0.81560061  1
  C  C45  1  0.80081430  0.96599752  0.69878710  1
  C  C46  1  0.16620841  0.20447769  0.69538512  1
  C  C47  1  0.03899339  0.84093912  0.69604670  1
  C  C48  1  0.79477335  0.82064029  0.18719572  1
  C  C49  1  0.03019244  0.19420324  0.20047421  1
  C  C50  1  0.17463238  0.96888456  0.18556012  1
  C  C51  1  0.93728508  0.40376538  0.63770954  1
  C  C52  1  0.45767361  0.05090478  0.64164186  1
  C  C53  1  0.61038415  0.54448746  0.64762481  1
  C  C54  1  0.96347748  0.57079394  0.14335405  1
  C  C55  1  0.60113017  0.04043995  0.14066376  1
  C  C56  1  0.43670886  0.37690322  0.14297496  1
  C  C57  1  0.47045989  0.29901405  0.03373357  1
  C  C58  1  0.83107900  0.52378105  0.03555666  1
  C  C59  1  0.70008374  0.17049205  0.03364769  1
  C  C60  1  0.46655281  0.15602937  0.53209953  1
  C  C61  1  0.68931334  0.52537120  0.53702016  1
  C  C62  1  0.84977032  0.30262734  0.52664711  1
  C  C63  1  0.52536733  0.68750253  0.96381868  1
  C  C64  1  0.16077444  0.46389392  0.96875874  1
  C  C65  1  0.30482153  0.83337052  0.96604460  1
  C  C66  1  0.47801633  0.86689845  0.47633033  1
  C  C67  1  0.40015205  0.53365088  0.47360643  1
  C  C68  1  0.13330075  0.59102387  0.47525494  1
  C  C69  1  0.12712408  0.63679373  0.36197075  1
  C  C70  1  0.49719474  0.87395934  0.35952388  1
  C  C71  1  0.37698785  0.50377108  0.35701350  1
  C  C72  1  0.12034519  0.49501518  0.85649556  1
  C  C73  1  0.37525634  0.88415409  0.85483029  1
  C  C74  1  0.51727230  0.62753377  0.85221986  1
  C  C75  1  0.04386661  0.81145190  0.43755393  1
  C  C76  1  0.77739987  0.98300240  0.42589797  1
  C  C77  1  0.19687364  0.23507834  0.42576936  1
  C  C78  1  0.00533376  0.18394292  0.91076684  1
  C  C79  1  0.18054390  0.99622631  0.91075990  1
  C  C80  1  0.81980906  0.81873869  0.91208016  1
  C  C81  1  0.95490877  0.14315498  0.59185249  1
  C  C82  1  0.18882356  0.04199969  0.59104512  1
  C  C83  1  0.85367430  0.81251035  0.59249931  1
  C  C84  1  0.98468134  0.82629103  0.08142412  1
  C  C85  1  0.84437230  0.02094405  0.08459246  1
  C  C86  1  0.16918517  0.16106848  0.08342992  1
  C  C87  1  0.70073611  0.15348072  0.76046524  1
  C  C88  1  0.45513077  0.31657583  0.75629153  1
  C  C89  1  0.85192934  0.55361009  0.75500089  1
  C  C90  1  0.63959135  0.51189481  0.23694271  1
  C  C91  1  0.85741377  0.34303732  0.24316748  1
  C  C92  1  0.48559453  0.13230854  0.23496956  1
  C  C93  1  0.63565826  0.48506657  0.92437320  1
  C  C94  1  0.85317062  0.36429874  0.92474254  1
  C  C95  1  0.51318397  0.14585296  0.92519444  1
  C  C96  1  0.61565061  0.15251081  0.42136167  1
  C  C97  1  0.53460779  0.38593717  0.42129905  1
  C  C98  1  0.85075058  0.47739767  0.42298115  1
  C  C99  1  0.33191849  0.49458136  0.06261419  1
  C  C100  1  0.17237313  0.67938049  0.06079110  1
  C  C101  1  0.51690281  0.83100815  0.05770234  1
  C  C102  1  0.28173626  0.81676285  0.56778758  1
  C  C103  1  0.53022527  0.70455886  0.57246986  1
  C  C104  1  0.18353596  0.46009374  0.56941315  1
  C  C105  1  0.26514900  0.80093552  0.25623604  1
  C  C106  1  0.51792600  0.72540861  0.25003750  1
  C  C107  1  0.19390146  0.48031730  0.25526931  1
  C  C108  1  0.28579426  0.48184103  0.75545127  1
  C  C109  1  0.19209444  0.71810565  0.75604519  1
  C  C110  1  0.52206977  0.81423001  0.75608287  1
