# generated using pymatgen
data_Cu11Ni4C3
_symmetry_space_group_name_H-M   'P 1'
_cell_length_a   8.03238170
_cell_length_b   8.03238170
_cell_length_c   8.03238205
_cell_angle_alpha   85.29810414
_cell_angle_beta   85.29810414
_cell_angle_gamma   85.29810291
_symmetry_Int_Tables_number   1
_chemical_formula_structural   Cu11Ni4C3
_chemical_formula_sum   'Cu11 Ni4 C3'
_cell_volume   513.28084055
_cell_formula_units_Z   1
loop_
 _symmetry_equiv_pos_site_id
 _symmetry_equiv_pos_as_xyz
  1  'x, y, z'
loop_
 _atom_site_type_symbol
 _atom_site_label
 _atom_site_symmetry_multiplicity
 _atom_site_fract_x
 _atom_site_fract_y
 _atom_site_fract_z
 _atom_site_occupancy
  Ni  Ni0  1  0.37592600  0.37592600  0.37592600  1
  Ni  Ni1  1  0.50752400  0.58598000  0.08499800  1
  Ni  Ni2  1  0.08499800  0.50752400  0.58598000  1
  Ni  Ni3  1  0.58598000  0.08499800  0.50752400  1
  C  C4  1  0.47163400  0.25092900  0.50886700  1
  C  C5  1  0.50886700  0.47163400  0.25092900  1
  C  C6  1  0.25092900  0.50886700  0.47163400  1
  Cu  Cu7  1  0.23993800  0.23993800  0.23993800  1
  Cu  Cu8  1  0.05468200  0.71215700  0.71333900  1
  Cu  Cu9  1  0.71333900  0.05468200  0.71215700  1
  Cu  Cu10  1  0.71215700  0.71333900  0.05468200  1
  Cu  Cu11  1  0.06068900  0.31172400  0.75552400  1
  Cu  Cu12  1  0.75552400  0.06068900  0.31172400  1
  Cu  Cu13  1  0.31172400  0.75552400  0.06068900  1
  Cu  Cu14  1  0.87985700  0.51492300  0.45605500  1
  Cu  Cu15  1  0.45605500  0.87985700  0.51492300  1
  Cu  Cu16  1  0.51492300  0.45605500  0.87985700  1
  Cu  Cu17  1  0.98862500  0.98862500  0.98862500  1
