# generated using pymatgen
data_Cu16NiC33
_symmetry_space_group_name_H-M   'P 1'
_cell_length_a   5.92349237
_cell_length_b   10.03673271
_cell_length_c   10.24357200
_cell_angle_alpha   89.75886587
_cell_angle_beta   89.95784469
_cell_angle_gamma   90.06616665
_symmetry_Int_Tables_number   1
_chemical_formula_structural   Cu16NiC33
_chemical_formula_sum   'Cu16 Ni1 C33'
_cell_volume   609.00009639
_cell_formula_units_Z   1
loop_
 _symmetry_equiv_pos_site_id
 _symmetry_equiv_pos_as_xyz
  1  'x, y, z'
loop_
 _atom_site_type_symbol
 _atom_site_label
 _atom_site_symmetry_multiplicity
 _atom_site_fract_x
 _atom_site_fract_y
 _atom_site_fract_z
 _atom_site_occupancy
  C  C0  1  0.00059700  0.49961600  0.49606800  1
  Ni  Ni1  1  0.00563400  0.99938200  0.49634800  1
  Cu  Cu2  1  0.50170200  0.16970900  0.35294000  1
  Cu  Cu3  1  0.00093700  0.17958200  0.32829100  1
  Cu  Cu4  1  0.50216600  0.34967500  0.83554600  1
  Cu  Cu5  1  0.00203000  0.34908300  0.83708900  1
  Cu  Cu6  1  0.00199700  0.65010100  0.15536400  1
  Cu  Cu7  1  0.50238300  0.64956600  0.15686300  1
  Cu  Cu8  1  0.00139100  0.81906800  0.66406300  1
  Cu  Cu9  1  0.50190300  0.82908300  0.63957600  1
  Cu  Cu10  1  0.74800600  0.66424600  0.84913800  1
  Cu  Cu11  1  0.25247500  0.66386200  0.84889300  1
  Cu  Cu12  1  0.75327600  0.83929600  0.32427800  1
  Cu  Cu13  1  0.25557500  0.83959800  0.32351900  1
  Cu  Cu14  1  0.75258300  0.15969900  0.66815400  1
  Cu  Cu15  1  0.25492100  0.15950500  0.66888500  1
  Cu  Cu16  1  0.74733300  0.33466400  0.14330300  1
  Cu  Cu17  1  0.25193100  0.33527300  0.14384300  1
  C  C18  1  0.77354400  0.96281400  0.64289800  1
  C  C19  1  0.23505100  0.96080700  0.64372300  1
  C  C20  1  0.74955200  0.66786800  0.03748300  1
  C  C21  1  0.25424100  0.66702700  0.03748400  1
  C  C22  1  0.74918000  0.33129800  0.95507900  1
  C  C23  1  0.25392900  0.33213200  0.95503400  1
  C  C24  1  0.77470100  0.03545400  0.34978700  1
  C  C25  1  0.23593500  0.03893900  0.34883200  1
  C  C26  1  0.99965100  0.45797300  0.15056000  1
  C  C27  1  0.50064900  0.45710800  0.15393800  1
  C  C28  1  0.00388900  0.18699200  0.54029200  1
  C  C29  1  0.50324500  0.17525200  0.54514500  1
  C  C30  1  0.50331700  0.82403400  0.44752200  1
  C  C31  1  0.00427400  0.81183700  0.45241600  1
  C  C32  1  0.50081100  0.54190200  0.83885800  1
  C  C33  1  0.00012100  0.54104400  0.84230100  1
  C  C34  1  0.50023000  0.79240500  0.83310700  1
  C  C35  1  0.00037100  0.79216200  0.84693100  1
  C  C36  1  0.00369200  0.83944000  0.20077200  1
  C  C37  1  0.50428900  0.84079600  0.19980300  1
  C  C38  1  0.99978800  0.20665000  0.14569900  1
  C  C39  1  0.49928300  0.20662400  0.15942700  1
  C  C40  1  0.50350400  0.15838900  0.79271800  1
  C  C41  1  0.00289600  0.15970300  0.79165800  1
  C  C42  1  0.75940600  0.30231200  0.33200200  1
  C  C43  1  0.23413100  0.30655000  0.33059600  1
  C  C44  1  0.75324200  0.35069200  0.71024400  1
  C  C45  1  0.25188000  0.35021600  0.71035200  1
  C  C46  1  0.76118900  0.69551400  0.66082800  1
  C  C47  1  0.23635900  0.69302200  0.66179400  1
  C  C48  1  0.75298500  0.64849600  0.28224900  1
  C  C49  1  0.25157300  0.64919700  0.28214900  1
