# generated using pymatgen
data_Cu7(NiC14)5
_symmetry_space_group_name_H-M   'P 1'
_cell_length_a   18.40173552
_cell_length_b   9.20368174
_cell_length_c   22.39455979
_cell_angle_alpha   90.11923393
_cell_angle_beta   89.94943483
_cell_angle_gamma   120.16560462
_symmetry_Int_Tables_number   1
_chemical_formula_structural   Cu7(NiC14)5
_chemical_formula_sum   'Cu21 Ni15 C210'
_cell_volume   3279.18141096
_cell_formula_units_Z   3
loop_
 _symmetry_equiv_pos_site_id
 _symmetry_equiv_pos_as_xyz
  1  'x, y, z'
loop_
 _atom_site_type_symbol
 _atom_site_label
 _atom_site_symmetry_multiplicity
 _atom_site_fract_x
 _atom_site_fract_y
 _atom_site_fract_z
 _atom_site_occupancy
  C  C0  1  0.81128303  0.00469141  0.25078067  1
  C  C1  1  0.68901345  0.35804769  0.24619434  1
  C  C2  1  0.50359850  0.64063422  0.24762140  1
  C  C3  1  0.30917746  0.61715198  0.75149527  1
  C  C4  1  0.00302964  0.37476112  0.74672087  1
  C  C5  1  0.17966516  0.00182957  0.74554422  1
  C  C6  1  0.15279765  0.33117949  0.57686962  1
  C  C7  1  0.66506614  0.35929028  0.58169303  1
  C  C8  1  0.01622734  0.69678414  0.57553970  1
  C  C9  1  0.52418250  0.68827841  0.58541323  1
  C  C10  1  0.32460824  0.97994260  0.58262882  1
  C  C11  1  0.82485739  0.95533399  0.58585092  1
  C  C12  1  0.16014296  0.96339159  0.07706863  1
  C  C13  1  0.65736335  0.97894567  0.07196611  1
  C  C14  1  0.32101850  0.69244935  0.08144821  1
  C  C15  1  0.82665477  0.67212044  0.07850091  1
  C  C16  1  0.02412922  0.36099199  0.08199712  1
  C  C17  1  0.51614902  0.33557769  0.06913503  1
  C  C18  1  0.48609731  0.66617801  0.91865323  1
  C  C19  1  0.98082043  0.66306258  0.91377738  1
  C  C20  1  0.35398340  0.04539557  0.92179631  1
  C  C21  1  0.84806807  0.04214687  0.91321945  1
  C  C22  1  0.16763849  0.29470011  0.91490223  1
  C  C23  1  0.66305998  0.28902828  0.92466829  1
  C  C24  1  0.48082494  0.30448268  0.42612684  1
  C  C25  1  0.98697187  0.30818072  0.42235151  1
  C  C26  1  0.16124470  0.03428017  0.42832444  1
  C  C27  1  0.67148973  0.04522435  0.42106262  1
  C  C28  1  0.34465691  0.65140208  0.41846933  1
  C  C29  1  0.85524603  0.66142570  0.42505718  1
  C  C30  1  0.00418069  0.98918221  0.49805575  1
  C  C31  1  0.50617854  0.01310285  0.50021191  1
  C  C32  1  0.00559287  0.99915172  0.99418984  1
  C  C33  1  0.50391025  0.01788371  0.99170957  1
  C  C34  1  0.33649344  0.33175102  0.83076189  1
  C  C35  1  0.82991727  0.33465776  0.82605868  1
  C  C36  1  0.32056916  0.32464390  0.33307875  1
  C  C37  1  0.83945258  0.34323127  0.33275884  1
  C  C38  1  0.16727620  0.67019390  0.15629064  1
  C  C39  1  0.66773357  0.66236202  0.16364872  1
  C  C40  1  0.16048322  0.67177218  0.66945065  1
  C  C41  1  0.67016483  0.66739485  0.65807343  1
  C  C42  1  0.00450681  0.99023076  0.65164095  1
  C  C43  1  0.50586029  0.01585088  0.64645827  1
  C  C44  1  0.00568767  0.99617125  0.14628590  1
  C  C45  1  0.50383403  0.00678554  0.14867738  1
  C  C46  1  0.16149678  0.65215100  0.31711126  1
  C  C47  1  0.66241692  0.67150869  0.81754618  1
  C  C48  1  0.00948776  0.00375235  0.35654356  1
  C  C49  1  0.50660500  0.00497434  0.33931988  1
  C  C50  1  0.00893051  0.99207246  0.82802444  1
  C  C51  1  0.50833240  0.01365529  0.85566435  1
  C  C52  1  0.32742583  0.31089417  0.67808989  1
  C  C53  1  0.82968086  0.34934282  0.67933793  1
  C  C54  1  0.31472435  0.30466248  0.16881992  1
  C  C55  1  0.82895427  0.34357979  0.17638069  1
  C  C56  1  0.33175913  0.31133543  0.98885096  1
  C  C57  1  0.82439585  0.33427950  0.98874651  1
  C  C58  1  0.32469078  0.31717465  0.49206395  1
  C  C59  1  0.83371051  0.35123172  0.49431226  1
  C  C60  1  0.16597264  0.66799321  0.02366633  1
  C  C61  1  0.65846728  0.64919758  0.00723153  1
  C  C62  1  0.15536272  0.66370204  0.51040117  1
  C  C63  1  0.66654200  0.66795182  0.52635749  1
  C  C64  1  0.66610551  0.68103352  0.31796574  1
  C  C65  1  0.15698793  0.65103720  0.81154389  1
  Ni  Ni66  1  0.65320792  0.00111436  0.25230782  1
  Ni  Ni67  1  0.15460278  0.30383383  0.75136941  1
  Ni  Ni68  1  0.99458292  0.68451437  0.75464797  1
  Ni  Ni69  1  0.47544600  0.33627060  0.58142588  1
  Ni  Ni70  1  0.18384707  0.02416678  0.58236561  1
  Ni  Ni71  1  0.69257513  0.04865202  0.58181846  1
  Ni  Ni72  1  0.83445857  0.63551330  0.58169976  1
  Ni  Ni73  1  0.97552815  0.61411348  0.08145906  1
  Ni  Ni74  1  0.33474041  0.03624917  0.08317524  1
  Ni  Ni75  1  0.18944924  0.33917176  0.08003610  1
  Ni  Ni76  1  0.68498385  0.34502754  0.08427746  1
  Ni  Ni77  1  0.51212456  0.36354559  0.91851173  1
  Ni  Ni78  1  0.66953631  0.96849069  0.92256274  1
  Ni  Ni79  1  0.16959905  0.37168927  0.42193536  1
  Ni  Ni80  1  0.01190352  0.66076306  0.41807828  1
  Cu  Cu81  1  0.15103129  0.00235531  0.25256582  1
  Cu  Cu82  1  0.35223264  0.70210679  0.25194789  1
  Cu  Cu83  1  0.85335428  0.70897941  0.25346264  1
  Cu  Cu84  1  0.99912268  0.28952264  0.25158886  1
  Cu  Cu85  1  0.49856424  0.29808173  0.25341242  1
  Cu  Cu86  1  0.64976437  0.29913527  0.75294254  1
  Cu  Cu87  1  0.49957674  0.70915578  0.75156665  1
  Cu  Cu88  1  0.35550473  0.00050873  0.75341093  1
  Cu  Cu89  1  0.85108517  0.99781324  0.75201686  1
  Cu  Cu90  1  0.98120327  0.33084070  0.58409819  1
  Cu  Cu91  1  0.33457036  0.63276453  0.58427835  1
  Cu  Cu92  1  0.48057944  0.62852982  0.08645087  1
  Cu  Cu93  1  0.83440853  0.03601228  0.08545684  1
  Cu  Cu94  1  0.31218796  0.66706951  0.91566356  1
  Cu  Cu95  1  0.81595545  0.67397263  0.91708771  1
  Cu  Cu96  1  0.01836867  0.36714067  0.91793359  1
  Cu  Cu97  1  0.16557811  0.95649566  0.91625355  1
  Cu  Cu98  1  0.31862241  0.96104267  0.41418824  1
  Cu  Cu99  1  0.81335729  0.95985817  0.41529132  1
  Cu  Cu100  1  0.66262411  0.37345086  0.41281149  1
  Cu  Cu101  1  0.51859334  0.66942544  0.41543048  1
  C  C102  1  0.10734679  0.01577732  0.30529950  1
  C  C103  1  0.61119416  0.03569844  0.31125287  1
  C  C104  1  0.40238911  0.78861112  0.30657843  1
  C  C105  1  0.90302343  0.79939962  0.30610818  1
  C  C106  1  0.48592780  0.19476775  0.30742109  1
  C  C107  1  0.99160389  0.18879376  0.30484435  1
  C  C108  1  0.11260942  0.19182226  0.81207265  1
  C  C109  1  0.60507610  0.19829617  0.80608579  1
  C  C110  1  0.49207565  0.79505947  0.80518132  1
  C  C111  1  0.97951240  0.76536398  0.81531617  1
  C  C112  1  0.40619757  0.01260955  0.80618733  1
  C  C113  1  0.90195975  0.01585659  0.80669698  1
  C  C114  1  0.39811262  0.98079032  0.69812069  1
  C  C115  1  0.89340304  0.97849891  0.69789652  1
  C  C116  1  0.08946268  0.20728959  0.69449248  1
  C  C117  1  0.59613315  0.21491850  0.69768895  1
  C  C118  1  0.01001707  0.81562262  0.69781743  1
  C  C119  1  0.50928795  0.81185779  0.69656597  1
  C  C120  1  0.39475189  0.80683194  0.19796534  1
  C  C121  1  0.89501163  0.81366390  0.19811138  1
  C  C122  1  0.00855302  0.20598354  0.19643728  1
  C  C123  1  0.50779584  0.20760142  0.19995477  1
  C  C124  1  0.09873594  0.98175739  0.19702371  1
  C  C125  1  0.58779948  0.96890106  0.19541034  1
  C  C126  1  0.43253370  0.37653282  0.63696775  1
  C  C127  1  0.94136525  0.35238951  0.63755754  1
  C  C128  1  0.24004972  0.10234369  0.64236398  1
  C  C129  1  0.75413390  0.13487034  0.63766897  1
  C  C130  1  0.32301934  0.53119317  0.63796267  1
  C  C131  1  0.81277719  0.50943966  0.63670940  1
  C  C132  1  0.44078332  0.52927104  0.14089722  1
  C  C133  1  0.93483039  0.49108771  0.13826753  1
  C  C134  1  0.31954307  0.11950267  0.14193174  1
  C  C135  1  0.82232284  0.11302015  0.13958313  1
  C  C136  1  0.24871095  0.38854907  0.13879283  1
  C  C137  1  0.73864260  0.37509439  0.14538990  1
  C  C138  1  0.22484779  0.28906831  0.02117810  1
  C  C139  1  0.71866688  0.29036111  0.02585092  1
  C  C140  1  0.43067033  0.55288608  0.03169748  1
  C  C141  1  0.91830979  0.54911818  0.02069966  1
  C  C142  1  0.36218443  0.15354616  0.02330022  1
  C  C143  1  0.85183086  0.13994180  0.03135510  1
  C  C144  1  0.21880291  0.14338713  0.52300168  1
  C  C145  1  0.72361823  0.15794842  0.51935912  1
  C  C146  1  0.35283895  0.56445437  0.52968186  1
  C  C147  1  0.86080290  0.57370138  0.52059519  1
  C  C148  1  0.42035612  0.29062920  0.51935462  1
  C  C149  1  0.93196751  0.30777986  0.52849554  1
  C  C150  1  0.27386306  0.69238923  0.97022531  1
  C  C151  1  0.77718444  0.69182100  0.97289161  1
  C  C152  1  0.07121224  0.44845442  0.97153431  1
  C  C153  1  0.57027542  0.43510883  0.97797425  1
  C  C154  1  0.15775095  0.85880063  0.97105718  1
  C  C155  1  0.65479964  0.85156963  0.98139961  1
  C  C156  1  0.28298543  0.86536077  0.46990776  1
  C  C157  1  0.77198357  0.85303523  0.46798366  1
  C  C158  1  0.15673029  0.46217601  0.48042117  1
  C  C159  1  0.65406954  0.45535420  0.46724966  1
  C  C160  1  0.07129058  0.70722397  0.47673602  1
  C  C161  1  0.57198775  0.69453186  0.46826343  1
  C  C162  1  0.06802042  0.63966524  0.36185242  1
  C  C163  1  0.55752475  0.64656525  0.35995668  1
  C  C164  1  0.26183481  0.86812506  0.36240169  1
  C  C165  1  0.76254697  0.88127753  0.35959154  1
  C  C166  1  0.18362071  0.50001512  0.36367275  1
  C  C167  1  0.67083334  0.47419509  0.35809378  1
  C  C168  1  0.05847751  0.46814258  0.86327210  1
  C  C169  1  0.56872945  0.49717021  0.86332210  1
  C  C170  1  0.17408382  0.87291419  0.86212187  1
  C  C171  1  0.68311398  0.86646218  0.86498512  1
  C  C172  1  0.26057878  0.64662069  0.86164752  1
  C  C173  1  0.75999261  0.65424367  0.86487003  1
  C  C174  1  0.00076724  0.82548036  0.40973044  1
  C  C175  1  0.50826604  0.82167261  0.41150220  1
  C  C176  1  0.40362613  0.97751278  0.40665284  1
  C  C177  1  0.89847439  0.97869828  0.41016619  1
  C  C178  1  0.08302199  0.18967791  0.41329165  1
  C  C179  1  0.58344001  0.20182470  0.41077218  1
  C  C180  1  0.00737178  0.19452330  0.91386927  1
  C  C181  1  0.50086189  0.17641278  0.91013830  1
  C  C182  1  0.08861812  0.97382360  0.91487295  1
  C  C183  1  0.58306224  0.97761179  0.91356805  1
  C  C184  1  0.39870866  0.81869111  0.91106126  1
  C  C185  1  0.89940446  0.82879273  0.91207568  1
  C  C186  1  0.48351040  0.15989294  0.59147624  1
  C  C187  1  0.98850351  0.17483051  0.58815167  1
  C  C188  1  0.08971938  0.01045841  0.58869539  1
  C  C189  1  0.59363976  0.02539936  0.59135179  1
  C  C190  1  0.41301565  0.80765763  0.59127082  1
  C  C191  1  0.91641981  0.82925225  0.59048636  1
  C  C192  1  0.48733583  0.80072389  0.09042531  1
  C  C193  1  0.98420815  0.80744983  0.09253938  1
  C  C194  1  0.41647244  0.00584156  0.09265435  1
  C  C195  1  0.91228029  0.01726127  0.09253526  1
  C  C196  1  0.09272307  0.16309287  0.09107416  1
  C  C197  1  0.58910978  0.17161888  0.09190064  1
  C  C198  1  0.34648588  0.15021997  0.74951159  1
  C  C199  1  0.84302077  0.14709432  0.74766201  1
  C  C200  1  0.24783973  0.31982563  0.74405863  1
  C  C201  1  0.73085374  0.31152905  0.74814525  1
  C  C202  1  0.42400659  0.54308412  0.74690969  1
  C  C203  1  0.91764387  0.49279083  0.74530822  1
  C  C204  1  0.34845850  0.53870029  0.24805935  1
  C  C205  1  0.84445318  0.54091194  0.24958114  1
  C  C206  1  0.42835094  0.32947688  0.24700955  1
  C  C207  1  0.92375653  0.30484965  0.24704482  1
  C  C208  1  0.23405637  0.15424837  0.24777271  1
  C  C209  1  0.74711657  0.16786894  0.24470628  1
  C  C210  1  0.32094601  0.51456301  0.91964561  1
  C  C211  1  0.82299198  0.52038234  0.91634699  1
  C  C212  1  0.42236300  0.36225659  0.91834315  1
  C  C213  1  0.93385618  0.35203832  0.92208288  1
  C  C214  1  0.24221367  0.12841884  0.91775444  1
  C  C215  1  0.75551772  0.15491442  0.92192960  1
  C  C216  1  0.32629896  0.12929228  0.41402834  1
  C  C217  1  0.82168425  0.12868258  0.41949418  1
  C  C218  1  0.25540643  0.35668518  0.42092283  1
  C  C219  1  0.73753692  0.35260045  0.41417737  1
  C  C220  1  0.43392124  0.51649855  0.41952818  1
  C  C221  1  0.92222361  0.48251944  0.41802178  1
  C  C222  1  0.17044860  0.49341801  0.07518334  1
  C  C223  1  0.67474685  0.51189599  0.07824807  1
  C  C224  1  0.07288532  0.65688742  0.07687040  1
  C  C225  1  0.56703637  0.65629676  0.08313710  1
  C  C226  1  0.25119158  0.85019109  0.07771743  1
  C  C227  1  0.76092011  0.86484237  0.07975611  1
  C  C228  1  0.17431075  0.83650808  0.57682798  1
  C  C229  1  0.67178904  0.85359317  0.57735404  1
  C  C230  1  0.26165536  0.65670750  0.57829223  1
  C  C231  1  0.75144077  0.65719291  0.57648063  1
  C  C232  1  0.06774147  0.47980292  0.58079605  1
  C  C233  1  0.57274901  0.48989319  0.57679529  1
  C  C234  1  0.15780818  0.84705846  0.25446669  1
  C  C235  1  0.65678578  0.82406956  0.25381766  1
  C  C236  1  0.26756326  0.68601827  0.25433680  1
  C  C237  1  0.76737481  0.69116270  0.25407858  1
  C  C238  1  0.07776750  0.46035761  0.25333617  1
  C  C239  1  0.58009379  0.46178910  0.25509351  1
  C  C240  1  0.16297496  0.49043883  0.75270476  1
  C  C241  1  0.65610364  0.46808774  0.75511166  1
  C  C242  1  0.08652182  0.69178912  0.75409633  1
  C  C243  1  0.57798325  0.69583499  0.75376976  1
  C  C244  1  0.27125206  0.84533066  0.75414701  1
  C  C245  1  0.76638549  0.83988609  0.75491646  1
