# generated using pymatgen
data_Cu2NiC38
_symmetry_space_group_name_H-M   'P 1'
_cell_length_a   9.04718611
_cell_length_b   9.04970746
_cell_length_c   22.10204443
_cell_angle_alpha   90.20601891
_cell_angle_beta   89.59692920
_cell_angle_gamma   119.98901926
_symmetry_Int_Tables_number   1
_chemical_formula_structural   Cu2NiC38
_chemical_formula_sum   'Cu6 Ni3 C114'
_cell_volume   1567.28666727
_cell_formula_units_Z   3
loop_
 _symmetry_equiv_pos_site_id
 _symmetry_equiv_pos_as_xyz
  1  'x, y, z'
loop_
 _atom_site_type_symbol
 _atom_site_label
 _atom_site_symmetry_multiplicity
 _atom_site_fract_x
 _atom_site_fract_y
 _atom_site_fract_z
 _atom_site_occupancy
  C  C0  1  0.35897624  0.37210571  0.25378568  1
  C  C1  1  0.00932871  0.63638494  0.25157020  1
  C  C2  1  0.62728952  0.64487512  0.75158240  1
  C  C3  1  0.00780745  0.36784075  0.75450718  1
  C  C4  1  0.36527002  0.98688515  0.75165863  1
  C  C5  1  0.29250436  0.31340987  0.58427116  1
  C  C6  1  0.02984703  0.71091807  0.58578250  1
  C  C7  1  0.67671446  0.97187667  0.58988878  1
  C  C8  1  0.29001980  0.97093793  0.08610874  1
  C  C9  1  0.68554622  0.70714239  0.08517201  1
  C  C10  1  0.02705050  0.32537314  0.08734830  1
  C  C11  1  0.95796666  0.65209473  0.92294280  1
  C  C12  1  0.69610327  0.04056794  0.91772163  1
  C  C13  1  0.96058754  0.30543622  0.41888354  1
  C  C14  1  0.34829122  0.04164359  0.42232193  1
  C  C15  1  0.99564998  0.99006401  0.50548169  1
  C  C16  1  0.00994412  0.00451693  0.00524756  1
  C  C17  1  0.65397571  0.32933951  0.84046336  1
  C  C18  1  0.66711172  0.33613783  0.33989908  1
  C  C19  1  0.34276487  0.67912542  0.17368254  1
  C  C20  1  0.33990889  0.67486014  0.67221547  1
  C  C21  1  0.00105290  0.99921736  0.65176623  1
  C  C22  1  0.99688188  0.99260245  0.15165130  1
  C  C23  1  0.66449976  0.33901709  0.98524863  1
  C  C24  1  0.65927350  0.33418259  0.48435209  1
  C  C25  1  0.34162912  0.67416028  0.31773663  1
  C  C26  1  0.34079928  0.67218775  0.81796751  1
  Ni  Ni27  1  0.70460104  0.00140574  0.74778923  1
  Ni  Ni28  1  0.36652781  0.03360109  0.58031349  1
  Ni  Ni29  1  0.96512124  0.63115738  0.08074495  1
  Cu  Cu30  1  0.99447778  0.99471050  0.34948112  1
  Cu  Cu31  1  0.00267499  0.00463093  0.85005645  1
  Cu  Cu32  1  0.66531893  0.32825544  0.68250831  1
  Cu  Cu33  1  0.66911385  0.32990146  0.18340333  1
  Cu  Cu34  1  0.33153143  0.66439937  0.01558648  1
  Cu  Cu35  1  0.33777203  0.66964051  0.51495330  1
  C  C36  1  0.29912531  0.00259877  0.24843251  1
  C  C37  1  0.70143397  0.70065432  0.24696363  1
  C  C38  1  0.99564562  0.29252892  0.24842221  1
  C  C39  1  0.29738620  0.29546224  0.74746109  1
  C  C40  1  0.99643746  0.70159189  0.74842250  1
  C  C41  1  0.96465191  0.33763643  0.57963658  1
  C  C42  1  0.66402051  0.62421156  0.58168505  1
  C  C43  1  0.66404073  0.03739598  0.07956346  1
  C  C44  1  0.37397704  0.33533862  0.08279902  1
  C  C45  1  0.63139965  0.66701299  0.91391284  1
  C  C46  1  0.04007956  0.36832703  0.91439315  1
  C  C47  1  0.33129037  0.96537054  0.91469472  1
  C  C48  1  0.63228854  0.96204292  0.41526218  1
  C  C49  1  0.33075709  0.36903824  0.41268221  1
  C  C50  1  0.03625666  0.66721895  0.41387350  1
  C  C51  1  0.21815126  0.03933037  0.30679549  1
  C  C52  1  0.82369121  0.78310472  0.30285227  1
  C  C53  1  0.97084206  0.18609124  0.30789528  1
  C  C54  1  0.21849312  0.17199608  0.80337851  1
  C  C55  1  0.96330827  0.78202401  0.80712727  1
  C  C56  1  0.82652790  0.04267733  0.80930093  1
  C  C57  1  0.79006481  0.96966307  0.68866767  1
  C  C58  1  0.19370336  0.21750844  0.69018818  1
  C  C59  1  0.02923085  0.81221579  0.69254191  1
  C  C60  1  0.78079764  0.80054503  0.18900254  1
  C  C61  1  0.01932931  0.20657858  0.19247637  1
  C  C62  1  0.19149247  0.97861848  0.19211055  1
  C  C63  1  0.89062345  0.37883547  0.63879991  1
  C  C64  1  0.48966365  0.11305913  0.64174235  1
  C  C65  1  0.62981384  0.51682817  0.64229884  1
  C  C66  1  0.88487939  0.50630190  0.14208949  1
  C  C67  1  0.61818660  0.11352995  0.13636317  1
  C  C68  1  0.48341240  0.37088159  0.14258043  1
  C  C69  1  0.45613881  0.29821557  0.02953350  1
  C  C70  1  0.84922478  0.54743202  0.02183437  1
  C  C71  1  0.69006415  0.14249439  0.02261502  1
  C  C72  1  0.45022008  0.14975740  0.52111032  1
  C  C73  1  0.69711219  0.53841424  0.52885873  1
  C  C74  1  0.85577788  0.31364719  0.52428956  1
  C  C75  1  0.55112949  0.70208928  0.97279877  1
  C  C76  1  0.14547552  0.44827379  0.97418081  1
  C  C77  1  0.29505170  0.84872771  0.97308222  1
  C  C78  1  0.56040854  0.85806980  0.47631443  1
  C  C79  1  0.29627860  0.44825918  0.47206310  1
  C  C80  1  0.15263832  0.70441383  0.47224861  1
  C  C81  1  0.12112554  0.64254829  0.35742014  1
  C  C82  1  0.51407790  0.87246976  0.36297005  1
  C  C83  1  0.34455425  0.47184146  0.35656205  1
  C  C84  1  0.12779329  0.47871389  0.85899415  1
  C  C85  1  0.35506003  0.88087501  0.85806886  1
  C  C86  1  0.52959439  0.65184690  0.85750613  1
  C  C87  1  0.03017154  0.83900781  0.41096865  1
  C  C88  1  0.81583557  0.98208426  0.41121594  1
  C  C89  1  0.15975960  0.18647580  0.41207318  1
  C  C90  1  0.02178609  0.18570295  0.91348714  1
  C  C91  1  0.15946472  0.97057445  0.91189659  1
  C  C92  1  0.81356930  0.83728457  0.91325345  1
  C  C93  1  0.98515234  0.18009258  0.58648689  1
  C  C94  1  0.17590470  0.00824264  0.58750683  1
  C  C95  1  0.81626793  0.80630154  0.58673361  1
  C  C96  1  0.99159756  0.82234082  0.08726807  1
  C  C97  1  0.82268040  0.01933565  0.08812236  1
  C  C98  1  0.19036929  0.18523585  0.08968652  1
  C  C99  1  0.69454956  0.18169254  0.74665643  1
  C  C100  1  0.48129177  0.31673619  0.74515241  1
  C  C101  1  0.82560414  0.52457400  0.74479551  1
  C  C102  1  0.68893450  0.51815087  0.24590566  1
  C  C103  1  0.83155927  0.31168452  0.24728926  1
  C  C104  1  0.47656029  0.17342162  0.24549278  1
  C  C105  1  0.65864245  0.51396249  0.91902892  1
  C  C106  1  0.85935263  0.34550912  0.91899396  1
  C  C107  1  0.49122360  0.13981609  0.92203759  1
  C  C108  1  0.65748023  0.14357132  0.41993478  1
  C  C109  1  0.48345468  0.34105271  0.41750099  1
  C  C110  1  0.86103910  0.50835050  0.42170971  1
  C  C111  1  0.36763475  0.50658150  0.07757969  1
  C  C112  1  0.15701984  0.64407304  0.07879319  1
  C  C113  1  0.50071841  0.85317114  0.07681433  1
  C  C114  1  0.35451465  0.84241382  0.57820605  1
  C  C115  1  0.49282984  0.63107371  0.57752284  1
  C  C116  1  0.14758429  0.50193796  0.57651003  1
  C  C117  1  0.31346121  0.84212689  0.25572142  1
  C  C118  1  0.52015765  0.67085031  0.25488353  1
  C  C119  1  0.15400347  0.47325074  0.25314028  1
  C  C120  1  0.31467727  0.47191293  0.75609727  1
  C  C121  1  0.14865947  0.67191441  0.75552562  1
  C  C122  1  0.51316039  0.83654421  0.75371368  1
