# generated using pymatgen
data_Cu3NiC13
_symmetry_space_group_name_H-M   'P 1'
_cell_length_a   4.16345750
_cell_length_b   4.22861835
_cell_length_c   15.43973171
_cell_angle_alpha   90.00000000
_cell_angle_beta   90.00000000
_cell_angle_gamma   90.00000000
_symmetry_Int_Tables_number   1
_chemical_formula_structural   Cu3NiC13
_chemical_formula_sum   'Cu3 Ni1 C13'
_cell_volume   271.82686436
_cell_formula_units_Z   1
loop_
 _symmetry_equiv_pos_site_id
 _symmetry_equiv_pos_as_xyz
  1  'x, y, z'
loop_
 _atom_site_type_symbol
 _atom_site_label
 _atom_site_symmetry_multiplicity
 _atom_site_fract_x
 _atom_site_fract_y
 _atom_site_fract_z
 _atom_site_occupancy
  C  C0  1  0.50000000  0.73272227  0.50000000  1
  C  C1  1  0.50000000  0.50005463  0.86253991  1
  C  C2  1  0.50000000  0.50005463  0.13746009  1
  Ni  Ni3  1  0.00000000  0.21150603  0.50000000  1
  Cu  Cu4  1  0.00000000  0.01634399  0.27056186  1
  Cu  Cu5  1  0.00000000  0.01634399  0.72943814  1
  Cu  Cu6  1  0.00000000  0.99592610  0.00000000  1
  C  C7  1  0.00000000  0.97707414  0.39348357  1
  C  C8  1  0.50000000  0.99517438  0.25909233  1
  C  C9  1  0.50000000  0.99517438  0.74090767  1
  C  C10  1  0.00000000  0.47327347  0.74155988  1
  C  C11  1  0.00000000  0.97410319  0.13040338  1
  C  C12  1  0.00000000  0.47327347  0.25844012  1
  C  C13  1  0.00000000  0.97707414  0.60651643  1
  C  C14  1  0.00000000  0.97410319  0.86959662  1
  C  C15  1  0.00000000  0.48099616  0.00000000  1
  C  C16  1  0.50000000  0.99013484  0.00000000  1
