# generated using pymatgen
data_Cu8Ni4C5
_symmetry_space_group_name_H-M   'P 1'
_cell_length_a   5.17671838
_cell_length_b   9.45415036
_cell_length_c   5.25208112
_cell_angle_alpha   103.25636456
_cell_angle_beta   117.90237743
_cell_angle_gamma   77.26869030
_symmetry_Int_Tables_number   1
_chemical_formula_structural   Cu8Ni4C5
_chemical_formula_sum   'Cu8 Ni4 C5'
_cell_volume   219.19064804
_cell_formula_units_Z   1
loop_
 _symmetry_equiv_pos_site_id
 _symmetry_equiv_pos_as_xyz
  1  'x, y, z'
loop_
 _atom_site_type_symbol
 _atom_site_label
 _atom_site_symmetry_multiplicity
 _atom_site_fract_x
 _atom_site_fract_y
 _atom_site_fract_z
 _atom_site_occupancy
  C  C0  1  0.56931100  0.19714500  0.37539800  1
  C  C1  1  0.01058900  0.98562500  0.98210800  1
  C  C2  1  0.75415800  0.74938200  0.23522300  1
  C  C3  1  0.48168600  0.51685400  0.55382800  1
  C  C4  1  0.24276100  0.24861300  0.74805600  1
  Ni  Ni5  1  0.81787800  0.87535000  0.04293600  1
  Ni  Ni6  1  0.31087800  0.35471000  0.52811900  1
  Ni  Ni7  1  0.23695800  0.11862600  0.99941200  1
  Ni  Ni8  1  0.52377700  0.62405300  0.86882900  1
  Cu  Cu9  1  0.12284200  0.61392100  0.27215500  1
  Cu  Cu10  1  0.96675400  0.12592400  0.37071500  1
  Cu  Cu11  1  0.39622600  0.87870600  0.23762000  1
  Cu  Cu12  1  0.49516200  0.35743400  0.13833400  1
  Cu  Cu13  1  0.71345100  0.61976600  0.45891100  1
  Cu  Cu14  1  0.62775100  0.11027500  0.72418800  1
  Cu  Cu15  1  0.00277500  0.86719400  0.62573100  1
  Cu  Cu16  1  0.85204000  0.36356500  0.70094100  1
