# generated using pymatgen
data_Cu2Ni10C7
_symmetry_space_group_name_H-M   'P 1'
_cell_length_a   5.07719694
_cell_length_b   14.59904744
_cell_length_c   2.92427400
_cell_angle_alpha   90.00000000
_cell_angle_beta   90.00000000
_cell_angle_gamma   96.89465503
_symmetry_Int_Tables_number   1
_chemical_formula_structural   Cu2Ni10C7
_chemical_formula_sum   'Cu2 Ni10 C7'
_cell_volume   215.18629120
_cell_formula_units_Z   1
loop_
 _symmetry_equiv_pos_site_id
 _symmetry_equiv_pos_as_xyz
  1  'x, y, z'
loop_
 _atom_site_type_symbol
 _atom_site_label
 _atom_site_symmetry_multiplicity
 _atom_site_fract_x
 _atom_site_fract_y
 _atom_site_fract_z
 _atom_site_occupancy
  C  C0  1  0.50000000  0.00000000  0.99128600  1
  C  C1  1  0.00000000  0.00000000  0.99045100  1
  C  C2  1  0.97487000  0.35370400  0.98986800  1
  C  C3  1  0.02513000  0.64629600  0.98986800  1
  C  C4  1  0.49170300  0.19433700  0.49008800  1
  C  C5  1  0.50000000  0.50000000  0.48996000  1
  C  C6  1  0.50829700  0.80566300  0.49008800  1
  Ni  Ni7  1  0.17834600  0.58945100  0.48986400  1
  Ni  Ni8  1  0.21582600  0.95610900  0.49073700  1
  Ni  Ni9  1  0.32893200  0.11867400  0.99015700  1
  Ni  Ni10  1  0.30372000  0.74837400  0.98995500  1
  Ni  Ni11  1  0.31459900  0.43273900  0.98995100  1
  Ni  Ni12  1  0.69628000  0.25162600  0.98995500  1
  Ni  Ni13  1  0.68540100  0.56726100  0.98995100  1
  Ni  Ni14  1  0.67106800  0.88132600  0.99015700  1
  Ni  Ni15  1  0.78417400  0.04389100  0.49073700  1
  Ni  Ni16  1  0.82165400  0.41054900  0.48986400  1
  Cu  Cu17  1  0.15220700  0.28326200  0.48978100  1
  Cu  Cu18  1  0.84779300  0.71673800  0.48978100  1
