# generated using pymatgen
data_Cu6NiC12
_symmetry_space_group_name_H-M   'P 1'
_cell_length_a   7.58389067
_cell_length_b   15.65639643
_cell_length_c   3.08509826
_cell_angle_alpha   90.00000000
_cell_angle_beta   90.00000000
_cell_angle_gamma   139.31812811
_symmetry_Int_Tables_number   1
_chemical_formula_structural   Cu6NiC12
_chemical_formula_sum   'Cu6 Ni1 C12'
_cell_volume   238.78454134
_cell_formula_units_Z   1
loop_
 _symmetry_equiv_pos_site_id
 _symmetry_equiv_pos_as_xyz
  1  'x, y, z'
loop_
 _atom_site_type_symbol
 _atom_site_label
 _atom_site_symmetry_multiplicity
 _atom_site_fract_x
 _atom_site_fract_y
 _atom_site_fract_z
 _atom_site_occupancy
  Ni  Ni0  1  0.98765946  0.83461069  0.50000000  1
  Cu  Cu1  1  0.01980703  0.03070975  0.00000000  1
  Cu  Cu2  1  0.03286283  0.33446834  0.00000000  1
  Cu  Cu3  1  0.04045231  0.68257318  -0.00000000  1
  Cu  Cu4  1  0.43694175  0.32790241  0.50000000  1
  Cu  Cu5  1  0.29078063  0.59752805  0.50000000  1
  Cu  Cu6  1  0.55025852  0.99082665  0.50000000  1
  C  C7  1  0.20391391  0.33585740  0.50000000  1
  C  C8  1  0.20028334  0.68690744  0.50000000  1
  C  C9  1  0.32495546  0.22037181  -0.00000000  1
  C  C10  1  0.27228095  0.51950852  0.00000000  1
  C  C11  1  0.22598377  0.86337150  -0.00000000  1
  C  C12  1  0.82045744  -0.00406323  0.50000000  1
  C  C13  1  0.20334207  0.02166191  0.50000000  1
  C  C14  1  0.70888015  0.47130756  -0.00000000  1
  C  C15  1  0.80013739  0.82460248  -0.00000000  1
  C  C16  1  0.72394306  0.12847090  0.00000000  1
  C  C17  1  0.81624918  0.30736760  0.50000000  1
  C  C18  1  0.80414174  0.65472305  0.50000000  1
