# generated using pymatgen
data_Cu6NiC12
_symmetry_space_group_name_H-M   'P 1'
_cell_length_a   5.15014610
_cell_length_b   7.63692710
_cell_length_c   5.70004227
_cell_angle_alpha   96.25041903
_cell_angle_beta   89.72191643
_cell_angle_gamma   89.61169879
_symmetry_Int_Tables_number   1
_chemical_formula_structural   Cu6NiC12
_chemical_formula_sum   'Cu6 Ni1 C12'
_cell_volume   222.84868558
_cell_formula_units_Z   1
loop_
 _symmetry_equiv_pos_site_id
 _symmetry_equiv_pos_as_xyz
  1  'x, y, z'
loop_
 _atom_site_type_symbol
 _atom_site_label
 _atom_site_symmetry_multiplicity
 _atom_site_fract_x
 _atom_site_fract_y
 _atom_site_fract_z
 _atom_site_occupancy
  Ni  Ni0  1  0.50000500  0.49783000  0.49753600  1
  Cu  Cu1  1  0.50000900  0.99782400  0.49751400  1
  Cu  Cu2  1  0.55062800  0.67386200  0.10529100  1
  Cu  Cu3  1  0.44940500  0.32172800  0.88967400  1
  Cu  Cu4  1  0.00133800  0.70333800  0.64187300  1
  Cu  Cu5  1  0.99859700  0.29229800  0.35306100  1
  Cu  Cu6  1  0.00005500  0.99782800  0.99747700  1
  C  C7  1  0.84220800  0.77336400  0.93155400  1
  C  C8  1  0.81065900  0.07666100  0.30973600  1
  C  C9  1  0.64824900  0.74706800  0.43712400  1
  C  C10  1  0.63654000  0.43445400  0.16243200  1
  C  C11  1  0.36344300  0.56110400  0.83257900  1
  C  C12  1  0.35180100  0.24856000  0.55782100  1
  C  C13  1  0.15771600  0.22231700  0.06339800  1
  C  C14  1  0.18943000  0.91892700  0.68530100  1
  C  C15  1  0.83901300  0.43649300  0.63620400  1
  C  C16  1  0.67333600  0.10703900  0.83188900  1
  C  C17  1  0.32660400  0.88853800  0.16321700  1
  C  C18  1  0.16096200  0.55910400  0.35869900  1
