# generated using pymatgen
data_Cu5(NiC3)2
_symmetry_space_group_name_H-M   'P 1'
_cell_length_a   7.14467217
_cell_length_b   7.14467217
_cell_length_c   7.14467217
_cell_angle_alpha   124.73824528
_cell_angle_beta   119.51733913
_cell_angle_gamma   86.41581077
_symmetry_Int_Tables_number   1
_chemical_formula_structural   Cu5(NiC3)2
_chemical_formula_sum   'Cu10 Ni4 C12'
_cell_volume   248.36390395
_cell_formula_units_Z   2
loop_
 _symmetry_equiv_pos_site_id
 _symmetry_equiv_pos_as_xyz
  1  'x, y, z'
loop_
 _atom_site_type_symbol
 _atom_site_label
 _atom_site_symmetry_multiplicity
 _atom_site_fract_x
 _atom_site_fract_y
 _atom_site_fract_z
 _atom_site_occupancy
  C  C0  1  0.50000000  0.50000000  0.00000000  1
  C  C1  1  0.00000000  0.00000000  0.00000000  1
  C  C2  1  0.50000000  0.50000000  0.50000000  1
  C  C3  1  0.00000000  0.50000000  0.00000000  1
  C  C4  1  0.98822900  0.72088600  0.51640200  1
  C  C5  1  0.51177100  0.02817200  0.73265700  1
  C  C6  1  0.79551500  0.27911400  0.26734300  1
  C  C7  1  0.70448500  0.97182800  0.48359800  1
  C  C8  1  0.20448500  0.72088600  0.73265700  1
  C  C9  1  0.48822900  0.97182800  0.26734300  1
  C  C10  1  0.01177100  0.27911400  0.48359800  1
  C  C11  1  0.29551500  0.02817200  0.51640200  1
  Ni  Ni12  1  0.42313200  0.13261400  0.70948200  1
  Ni  Ni13  1  0.92313200  0.21365000  0.29051800  1
  Ni  Ni14  1  0.07686800  0.78635000  0.70948200  1
  Ni  Ni15  1  0.57686800  0.86738600  0.29051800  1
  Cu  Cu16  1  0.91981300  0.18819500  0.85591400  1
  Cu  Cu17  1  0.25000000  0.57091800  0.32091800  1
  Cu  Cu18  1  0.75000000  0.42908200  0.67908200  1
  Cu  Cu19  1  0.83228100  0.56389900  0.14408600  1
  Cu  Cu20  1  0.16771900  0.43610100  0.85591400  1
  Cu  Cu21  1  0.58018700  0.43610100  0.26838200  1
  Cu  Cu22  1  0.41981300  0.56389900  0.73161800  1
  Cu  Cu23  1  0.08018700  0.81180500  0.14408600  1
  Cu  Cu24  1  0.66771900  0.81180500  0.73161800  1
  Cu  Cu25  1  0.33228100  0.18819500  0.26838200  1
