# generated using pymatgen
data_Cu2Ni2C
_symmetry_space_group_name_H-M   'P 1'
_cell_length_a   4.22513878
_cell_length_b   4.22513878
_cell_length_c   6.06463953
_cell_angle_alpha   69.61405557
_cell_angle_beta   69.61405557
_cell_angle_gamma   59.99998775
_symmetry_Int_Tables_number   1
_chemical_formula_structural   Cu2Ni2C
_chemical_formula_sum   'Cu2 Ni2 C1'
_cell_volume   85.84085758
_cell_formula_units_Z   1
loop_
 _symmetry_equiv_pos_site_id
 _symmetry_equiv_pos_as_xyz
  1  'x, y, z'
loop_
 _atom_site_type_symbol
 _atom_site_label
 _atom_site_symmetry_multiplicity
 _atom_site_fract_x
 _atom_site_fract_y
 _atom_site_fract_z
 _atom_site_occupancy
  C  C0  1  0.00000000  0.00000000  0.00000000  1
  Ni  Ni1  1  0.89361000  0.89361000  0.31917000  1
  Ni  Ni2  1  0.10639000  0.10639000  0.68083000  1
  Cu  Cu3  1  0.33362400  0.33362400  0.99912800  1
  Cu  Cu4  1  0.66637600  0.66637600  0.00087200  1
