# generated using pymatgen
data_Cu2Ni2C7
_symmetry_space_group_name_H-M   'P 1'
_cell_length_a   2.91630858
_cell_length_b   5.50508368
_cell_length_c   8.39327099
_cell_angle_alpha   90.00000000
_cell_angle_beta   90.00000000
_cell_angle_gamma   105.34699944
_symmetry_Int_Tables_number   1
_chemical_formula_structural   Cu2Ni2C7
_chemical_formula_sum   'Cu2 Ni2 C7'
_cell_volume   129.94486284
_cell_formula_units_Z   1
loop_
 _symmetry_equiv_pos_site_id
 _symmetry_equiv_pos_as_xyz
  1  'x, y, z'
loop_
 _atom_site_type_symbol
 _atom_site_label
 _atom_site_symmetry_multiplicity
 _atom_site_fract_x
 _atom_site_fract_y
 _atom_site_fract_z
 _atom_site_occupancy
  C  C0  1  0.46047307  0.91864725  0.75000000  1
  Ni  Ni1  1  0.02761148  0.05405858  0.07101164  1
  Ni  Ni2  1  0.02761148  0.05405858  0.42898836  1
  Cu  Cu3  1  0.80273132  0.60405154  0.25000000  1
  Cu  Cu4  1  0.20615564  0.40984265  0.75000000  1
  C  C5  1  0.40547841  0.80963332  0.40631197  1
  C  C6  1  0.40547841  0.80963332  0.09368703  1
  C  C7  1  0.84368529  0.68496018  0.75000000  1
  C  C8  1  0.59760646  0.19403951  0.91481043  1
  C  C9  1  0.59760646  0.19403951  0.58518857  1
  C  C10  1  0.14638998  0.29203255  0.25000000  1
