# generated using pymatgen
data_Cu5(NiC)7
_symmetry_space_group_name_H-M   'P 1'
_cell_length_a   5.20520424
_cell_length_b   8.03096143
_cell_length_c   6.07845713
_cell_angle_alpha   101.61592854
_cell_angle_beta   99.94461656
_cell_angle_gamma   81.82034040
_symmetry_Int_Tables_number   1
_chemical_formula_structural   Cu5(NiC)7
_chemical_formula_sum   'Cu5 Ni7 C7'
_cell_volume   243.62618711
_cell_formula_units_Z   1
loop_
 _symmetry_equiv_pos_site_id
 _symmetry_equiv_pos_as_xyz
  1  'x, y, z'
loop_
 _atom_site_type_symbol
 _atom_site_label
 _atom_site_symmetry_multiplicity
 _atom_site_fract_x
 _atom_site_fract_y
 _atom_site_fract_z
 _atom_site_occupancy
  C  C0  1  0.48766027  0.99953407  0.96328137  1
  C  C1  1  0.58463917  0.02657485  0.47937091  1
  C  C2  1  0.51446541  0.64846606  0.17781933  1
  C  C3  1  0.50750816  0.35542766  0.80853370  1
  C  C4  1  0.97114054  0.66772270  0.68439267  1
  C  C5  1  0.98257537  0.32145581  0.34202375  1
  C  C6  1  0.97604241  0.99478565  0.00673845  1
  Ni  Ni7  1  0.79517207  0.80099785  0.93566638  1
  Ni  Ni8  1  0.78307885  0.09057315  0.24681582  1
  Ni  Ni9  1  0.68226955  0.11755311  0.79748623  1
  Ni  Ni10  1  0.69994660  0.76955138  0.46553297  1
  Ni  Ni11  1  0.69361104  0.42984611  0.11782656  1
  Ni  Ni12  1  0.29111579  0.57328219  0.88837024  1
  Ni  Ni13  1  0.32407708  0.23017883  0.52549657  1
  Cu  Cu14  1  0.79589468  0.43358394  0.63014695  1
  Cu  Cu15  1  0.34075326  0.89363122  0.18925917  1
  Cu  Cu16  1  0.15241005  0.55654770  0.42344250  1
  Cu  Cu17  1  0.19930894  0.18499188  0.05276396  1
  Cu  Cu18  1  0.19055075  0.90529386  0.75313049  1
