# generated using pymatgen
data_Cu(NiC)2
_symmetry_space_group_name_H-M   'P 1'
_cell_length_a   3.27679500
_cell_length_b   3.27680712
_cell_length_c   37.89308700
_cell_angle_alpha   89.99928126
_cell_angle_beta   90.00000000
_cell_angle_gamma   119.99986752
_symmetry_Int_Tables_number   1
_chemical_formula_structural   Cu(NiC)2
_chemical_formula_sum   'Cu2 Ni4 C4'
_cell_volume   352.36385255
_cell_formula_units_Z   2
loop_
 _symmetry_equiv_pos_site_id
 _symmetry_equiv_pos_as_xyz
  1  'x, y, z'
loop_
 _atom_site_type_symbol
 _atom_site_label
 _atom_site_symmetry_multiplicity
 _atom_site_fract_x
 _atom_site_fract_y
 _atom_site_fract_z
 _atom_site_occupancy
  C  C0  1  0.99997600  0.99995200  0.45739600  1
  C  C1  1  0.33324200  0.66648500  0.11562400  1
  C  C2  1  0.33336600  0.66673200  0.58693900  1
  C  C3  1  0.66670800  0.33341700  0.33801000  1
  Ni  Ni4  1  0.66663100  0.33326200  0.07106100  1
  Ni  Ni5  1  0.66671400  0.33342800  0.54175300  1
  Ni  Ni6  1  0.66653100  0.33306100  0.16025100  1
  Ni  Ni7  1  0.66669700  0.33339200  0.63177100  1
  Cu  Cu8  1  0.33336100  0.66672200  0.37869000  1
  Cu  Cu9  1  0.33337400  0.66675000  0.29759500  1
