# generated using pymatgen
data_Cu2NiC9
_symmetry_space_group_name_H-M   'P 1'
_cell_length_a   5.81991000
_cell_length_b   5.81991021
_cell_length_c   5.77746600
_cell_angle_alpha   90.00000000
_cell_angle_beta   90.00000000
_cell_angle_gamma   120.00000183
_symmetry_Int_Tables_number   1
_chemical_formula_structural   Cu2NiC9
_chemical_formula_sum   'Cu2 Ni1 C9'
_cell_volume   169.47302265
_cell_formula_units_Z   1
loop_
 _symmetry_equiv_pos_site_id
 _symmetry_equiv_pos_as_xyz
  1  'x, y, z'
loop_
 _atom_site_type_symbol
 _atom_site_label
 _atom_site_symmetry_multiplicity
 _atom_site_fract_x
 _atom_site_fract_y
 _atom_site_fract_z
 _atom_site_occupancy
  C  C0  1  0.00000000  0.00000000  0.50000000  1
  Ni  Ni1  1  0.00000000  0.00000000  0.00000000  1
  Cu  Cu2  1  0.33333300  0.66666700  0.31192000  1
  Cu  Cu3  1  0.66666700  0.33333300  0.68808000  1
  C  C4  1  0.66666700  0.33333300  0.38485400  1
  C  C5  1  0.33333300  0.66666700  0.61514600  1
  C  C6  1  0.84268300  0.15508700  0.75487900  1
  C  C7  1  0.15508700  0.31240500  0.24512100  1
  C  C8  1  0.68759500  0.84268300  0.24512100  1
  C  C9  1  0.15731700  0.84491300  0.24512100  1
  C  C10  1  0.84491300  0.68759500  0.75487900  1
  C  C11  1  0.31240500  0.15731700  0.75487900  1
