# generated using pymatgen
data_Cu5Ni2C5
_symmetry_space_group_name_H-M   'P 1'
_cell_length_a   14.15102896
_cell_length_b   14.15102810
_cell_length_c   14.15102869
_cell_angle_alpha   164.54095190
_cell_angle_beta   164.54260568
_cell_angle_gamma   21.92857435
_symmetry_Int_Tables_number   1
_chemical_formula_structural   Cu5Ni2C5
_chemical_formula_sum   'Cu5 Ni2 C5'
_cell_volume   201.28014240
_cell_formula_units_Z   1
loop_
 _symmetry_equiv_pos_site_id
 _symmetry_equiv_pos_as_xyz
  1  'x, y, z'
loop_
 _atom_site_type_symbol
 _atom_site_label
 _atom_site_symmetry_multiplicity
 _atom_site_fract_x
 _atom_site_fract_y
 _atom_site_fract_z
 _atom_site_occupancy
  C  C0  1  0.36424874  0.36424874  1.00000000  1
  C  C1  1  0.63575138  0.63575138  0.00000000  1
  C  C2  1  0.75000393  0.25000393  0.50000000  1
  C  C3  1  0.06573135  0.06573135  0.00000000  1
  C  C4  1  0.93426248  0.93426248  1.00000000  1
  Ni  Ni5  1  0.19208156  0.19208156  0.00000000  1
  Ni  Ni6  1  0.80793176  0.80793176  1.00000000  1
  Cu  Cu7  1  -0.00000284  -0.00000284  1.00000000  1
  Cu  Cu8  1  0.59267513  0.09267513  0.50000000  1
  Cu  Cu9  1  0.90739836  0.40739836  0.50000000  1
  Cu  Cu10  1  0.09212693  0.59212693  0.50000000  1
  Cu  Cu11  1  0.40779124  0.90779124  0.50000000  1
