# generated using pymatgen
data_CuNi4C3
_symmetry_space_group_name_H-M   'P 1'
_cell_length_a   3.96821291
_cell_length_b   7.76264087
_cell_length_c   7.75539033
_cell_angle_alpha   107.20742262
_cell_angle_beta   90.02324477
_cell_angle_gamma   104.64982348
_symmetry_Int_Tables_number   1
_chemical_formula_structural   CuNi4C3
_chemical_formula_sum   'Cu1 Ni4 C3'
_cell_volume   220.05107982
_cell_formula_units_Z   1
loop_
 _symmetry_equiv_pos_site_id
 _symmetry_equiv_pos_as_xyz
  1  'x, y, z'
loop_
 _atom_site_type_symbol
 _atom_site_label
 _atom_site_symmetry_multiplicity
 _atom_site_fract_x
 _atom_site_fract_y
 _atom_site_fract_z
 _atom_site_occupancy
  C  C0  1  0.81355700  0.63342900  0.88797600  1
  C  C1  1  0.49111500  0.98741400  0.49097300  1
  C  C2  1  0.04489800  0.08632400  0.05252000  1
  Ni  Ni3  1  0.63495400  0.27133400  0.81564300  1
  Ni  Ni4  1  0.35286500  0.70648400  0.68221100  1
  Ni  Ni5  1  0.34309900  0.69508800  0.14800700  1
  Ni  Ni6  1  0.63447900  0.27124700  0.35021500  1
  Cu  Cu7  1  0.98433500  0.97368000  0.48912200  1
