# generated using pymatgen
data_Cu3NiC9
_symmetry_space_group_name_H-M   'P 1'
_cell_length_a   3.33606400
_cell_length_b   3.33633287
_cell_length_c   45.97984176
_cell_angle_alpha   90.01834082
_cell_angle_beta   90.00000000
_cell_angle_gamma   119.99735406
_symmetry_Int_Tables_number   1
_chemical_formula_structural   Cu3NiC9
_chemical_formula_sum   'Cu3 Ni1 C9'
_cell_volume   443.21392874
_cell_formula_units_Z   1
loop_
 _symmetry_equiv_pos_site_id
 _symmetry_equiv_pos_as_xyz
  1  'x, y, z'
loop_
 _atom_site_type_symbol
 _atom_site_label
 _atom_site_symmetry_multiplicity
 _atom_site_fract_x
 _atom_site_fract_y
 _atom_site_fract_z
 _atom_site_occupancy
  C  C0  1  0.00004500  0.00008900  0.37955100  1
  C  C1  1  0.66659500  0.33319000  0.05229300  1
  C  C2  1  0.66675100  0.33350000  0.13483400  1
  Ni  Ni3  1  0.33336300  0.66672600  0.09357800  1
  Cu  Cu4  1  0.33323700  0.66647200  0.47724900  1
  Cu  Cu5  1  0.66675000  0.33349800  0.27469700  1
  Cu  Cu6  1  0.66664400  0.33328600  0.65765600  1
  C  C7  1  0.33356800  0.66713600  0.31143200  1
  C  C8  1  0.33339200  0.66678400  0.69420100  1
  C  C9  1  0.33329300  0.66658600  0.23826700  1
  C  C10  1  0.33325300  0.66650500  0.62112900  1
  C  C11  1  0.66642900  0.33285600  0.44385300  1
  C  C12  1  0.66668400  0.33336800  0.51021900  1
