# generated using pymatgen
data_Cu(NiC3)3
_symmetry_space_group_name_H-M   'P 1'
_cell_length_a   7.79006500
_cell_length_b   10.54952900
_cell_length_c   10.95898945
_cell_angle_alpha   82.76643351
_cell_angle_beta   90.00000000
_cell_angle_gamma   90.00000000
_symmetry_Int_Tables_number   1
_chemical_formula_structural   Cu(NiC3)3
_chemical_formula_sum   'Cu4 Ni12 C36'
_cell_volume   893.45838268
_cell_formula_units_Z   4
loop_
 _symmetry_equiv_pos_site_id
 _symmetry_equiv_pos_as_xyz
  1  'x, y, z'
loop_
 _atom_site_type_symbol
 _atom_site_label
 _atom_site_symmetry_multiplicity
 _atom_site_fract_x
 _atom_site_fract_y
 _atom_site_fract_z
 _atom_site_occupancy
  Ni  Ni0  1  0.60051400  0.31586700  0.05986000  1
  Ni  Ni1  1  0.10051400  0.68413300  0.44014000  1
  Ni  Ni2  1  0.39948600  0.68413300  0.94014000  1
  Ni  Ni3  1  0.89948600  0.31586700  0.55986000  1
  Ni  Ni4  1  0.36239900  0.20184400  0.44427000  1
  Ni  Ni5  1  0.86239900  0.79815600  0.05573000  1
  Ni  Ni6  1  0.63760100  0.79815600  0.55573000  1
  Ni  Ni7  1  0.13760100  0.20184400  0.94427000  1
  Ni  Ni8  1  0.83491600  0.05808700  0.31478100  1
  Ni  Ni9  1  0.33491600  0.94191300  0.18521900  1
  Ni  Ni10  1  0.16508400  0.94191300  0.68521900  1
  Ni  Ni11  1  0.66508400  0.05808700  0.81478100  1
  Cu  Cu12  1  0.07508600  0.40787000  0.19656500  1
  Cu  Cu13  1  0.57508600  0.59213000  0.30343500  1
  Cu  Cu14  1  0.92491400  0.59213000  0.80343500  1
  Cu  Cu15  1  0.42491400  0.40787000  0.69656500  1
  C  C16  1  0.54743200  0.46047800  0.32517600  1
  C  C17  1  0.04743200  0.53952200  0.17482400  1
  C  C18  1  0.45256800  0.53952200  0.67482400  1
  C  C19  1  0.95256800  0.46047800  0.82517600  1
  C  C20  1  0.22495300  0.37327800  0.13447700  1
  C  C21  1  0.72495300  0.62672200  0.36552300  1
  C  C22  1  0.77504700  0.62672200  0.86552300  1
  C  C23  1  0.27504700  0.37327800  0.63447700  1
  C  C24  1  0.38638200  0.04097200  0.59337900  1
  C  C25  1  0.88638200  0.95902800  0.90662100  1
  C  C26  1  0.61361800  0.95902800  0.40662100  1
  C  C27  1  0.11361800  0.04097200  0.09337900  1
  C  C28  1  0.23948500  0.07095500  0.82726300  1
  C  C29  1  0.73948500  0.92904500  0.67273700  1
  C  C30  1  0.76051500  0.92904500  0.17273700  1
  C  C31  1  0.26051500  0.07095500  0.32726300  1
  C  C32  1  0.87333100  0.17657900  0.72173700  1
  C  C33  1  0.37333100  0.82342100  0.77826300  1
  C  C34  1  0.12666900  0.82342100  0.27826300  1
  C  C35  1  0.62666900  0.17657900  0.22173700  1
  C  C36  1  0.09942600  0.17608600  0.52666300  1
  C  C37  1  0.59942600  0.82391400  0.97333700  1
  C  C38  1  0.90057400  0.82391400  0.47333700  1
  C  C39  1  0.40057400  0.17608600  0.02666300  1
  C  C40  1  0.75345600  0.19508000  0.96632800  1
  C  C41  1  0.25345600  0.80492000  0.53367200  1
  C  C42  1  0.24654400  0.80492000  0.03367200  1
  C  C43  1  0.74654400  0.19508000  0.46632800  1
  C  C44  1  0.56728300  0.33919700  0.65432500  1
  C  C45  1  0.06728300  0.66080300  0.84567500  1
  C  C46  1  0.43271700  0.66080300  0.34567500  1
  C  C47  1  0.93271700  0.33919700  0.15432500  1
  C  C48  1  0.40458000  0.36880000  0.82580700  1
  C  C49  1  0.90458000  0.63120000  0.67419300  1
  C  C50  1  0.59542000  0.63120000  0.17419300  1
  C  C51  1  0.09542000  0.36880000  0.32580700  1
