# generated using pymatgen
data_CuNi2C15
_symmetry_space_group_name_H-M   'P 1'
_cell_length_a   8.84633558
_cell_length_b   8.84633529
_cell_length_c   22.90454691
_cell_angle_alpha   89.90203157
_cell_angle_beta   90.09796842
_cell_angle_gamma   119.87811289
_symmetry_Int_Tables_number   1
_chemical_formula_structural   CuNi2C15
_chemical_formula_sum   'Cu6 Ni12 C90'
_cell_volume   1554.21248313
_cell_formula_units_Z   6
loop_
 _symmetry_equiv_pos_site_id
 _symmetry_equiv_pos_as_xyz
  1  'x, y, z'
loop_
 _atom_site_type_symbol
 _atom_site_label
 _atom_site_symmetry_multiplicity
 _atom_site_fract_x
 _atom_site_fract_y
 _atom_site_fract_z
 _atom_site_occupancy
  C  C0  1  0.00245380  0.99668072  0.49983922  1
  C  C1  1  0.00331928  0.99754620  0.99983922  1
  C  C2  1  0.66703546  0.32502831  0.83068298  1
  C  C3  1  0.67497169  0.33296454  0.33068298  1
  C  C4  1  0.32533022  0.65664805  0.16495873  1
  C  C5  1  0.34335195  0.67466978  0.66495873  1
  C  C6  1  0.65708410  0.32237221  0.68503206  1
  C  C7  1  0.67762779  0.34291590  0.18503206  1
  C  C8  1  0.99549834  0.00704901  0.35734396  1
  C  C9  1  0.99295099  0.00450166  0.85734396  1
  C  C10  1  0.98820023  0.98906096  0.64283586  1
  C  C11  1  0.01093904  0.01179977  0.14283586  1
  C  C12  1  0.66409511  0.34450290  0.97777861  1
  C  C13  1  0.65549710  0.33590489  0.47777861  1
  C  C14  1  0.32256387  0.65696260  0.01977906  1
  C  C15  1  0.34303740  0.67743613  0.51977906  1
  C  C16  1  0.32455688  0.65728960  0.31507994  1
  C  C17  1  0.34271040  0.67544312  0.81507994  1
  Ni  Ni18  1  0.99200752  0.29143803  0.24919046  1
  Ni  Ni19  1  0.70856197  0.00799248  0.74919046  1
  Ni  Ni20  1  0.38081189  0.04696717  0.58590733  1
  Ni  Ni21  1  0.65934033  0.61053018  0.58623566  1
  Ni  Ni22  1  0.95303283  0.61918811  0.08590733  1
  Ni  Ni23  1  0.38946982  0.34065967  0.08623566  1
  Ni  Ni24  1  0.61928211  0.66806951  0.91794645  1
  Ni  Ni25  1  0.04298053  0.38217525  0.91518855  1
  Ni  Ni26  1  0.33527093  0.95754760  0.91758521  1
  Ni  Ni27  1  0.61782475  0.95701947  0.41518855  1
  Ni  Ni28  1  0.33193049  0.38071789  0.41794645  1
  Ni  Ni29  1  0.04245240  0.66472907  0.41758521  1
  Cu  Cu30  1  0.28897231  0.00121591  0.25010736  1
  Cu  Cu31  1  0.71213305  0.71247838  0.25004798  1
  Cu  Cu32  1  0.28752162  0.28786695  0.75004798  1
  Cu  Cu33  1  0.99878409  0.71102769  0.75010736  1
  Cu  Cu34  1  0.95510435  0.33591120  0.58451200  1
  Cu  Cu35  1  0.66408880  0.04489565  0.08451200  1
  C  C36  1  0.20106300  0.02079513  0.30235485  1
  C  C37  1  0.82185852  0.79807215  0.30312196  1
  C  C38  1  0.98092977  0.16648737  0.30570921  1
  C  C39  1  0.20192785  0.17814148  0.80312196  1
  C  C40  1  0.97920487  0.79893700  0.80235485  1
  C  C41  1  0.83351263  0.01907023  0.80570921  1
  C  C42  1  0.81011982  0.97294979  0.69387538  1
  C  C43  1  0.17700835  0.20490634  0.69782218  1
  C  C44  1  0.03117274  0.82472066  0.69681694  1
  C  C45  1  0.79509366  0.82299165  0.19782218  1
  C  C46  1  0.02705021  0.18988018  0.19387538  1
  C  C47  1  0.17527934  0.96882726  0.19681694  1
  C  C48  1  0.88201308  0.36389522  0.63653981  1
  C  C49  1  0.49501923  0.11975190  0.64199305  1
  C  C50  1  0.63737521  0.50644891  0.64377845  1
  C  C51  1  0.88024810  0.50498077  0.14199305  1
  C  C52  1  0.63610478  0.11798692  0.13653981  1
  C  C53  1  0.49355109  0.36262479  0.14377845  1
  C  C54  1  0.46777629  0.30075360  0.02600156  1
  C  C55  1  0.83433116  0.53007472  0.02586504  1
  C  C56  1  0.69888962  0.15153891  0.03074183  1
  C  C57  1  0.46992528  0.16566884  0.52586504  1
  C  C58  1  0.69924640  0.53222371  0.52600156  1
  C  C59  1  0.84846109  0.30111038  0.53074183  1
  C  C60  1  0.53377889  0.70292438  0.97435398  1
  C  C61  1  0.16627100  0.46621089  0.97266045  1
  C  C62  1  0.30178925  0.83298315  0.97348103  1
  C  C63  1  0.53378911  0.83372900  0.47266045  1
  C  C64  1  0.29707562  0.46622111  0.47435398  1
  C  C65  1  0.16701685  0.69821075  0.47348103  1
  C  C66  1  0.13651330  0.63565056  0.35933047  1
  C  C67  1  0.49888599  0.86352587  0.35771828  1
  C  C68  1  0.36490019  0.50040633  0.35933811  1
  C  C69  1  0.13647413  0.50111401  0.85771828  1
  C  C70  1  0.36434944  0.86348670  0.85933047  1
  C  C71  1  0.49959367  0.63509981  0.85933811  1
  C  C72  1  0.02418762  0.83629744  0.40470910  1
  C  C73  1  0.80996614  0.97174888  0.40761220  1
  C  C74  1  0.16465107  0.18568293  0.40723928  1
  C  C75  1  0.02825112  0.19003386  0.90761220  1
  C  C76  1  0.16370256  0.97581238  0.90470910  1
  C  C77  1  0.81431707  0.83534893  0.90723928  1
  C  C78  1  0.97747283  0.17533242  0.59093795  1
  C  C79  1  0.18251037  0.02584256  0.59327500  1
  C  C80  1  0.83570991  0.81477613  0.59119147  1
  C  C81  1  0.97415744  0.81748963  0.09327500  1
  C  C82  1  0.82466758  0.02252717  0.09093795  1
  C  C83  1  0.18522387  0.16429009  0.09119147  1
  C  C84  1  0.69496169  0.17905829  0.74668808  1
  C  C85  1  0.46123152  0.30902780  0.74612308  1
  C  C86  1  0.84504239  0.53992507  0.74381661  1
  C  C87  1  0.69097220  0.53876848  0.24612308  1
  C  C88  1  0.82094171  0.30503831  0.24668808  1
  C  C89  1  0.46007493  0.15495761  0.24381661  1
  C  C90  1  0.64110614  0.49644803  0.92300756  1
  C  C91  1  0.85036445  0.35306173  0.92559988  1
  C  C92  1  0.50787794  0.14629252  0.92546928  1
  C  C93  1  0.64693827  0.14963555  0.42559988  1
  C  C94  1  0.50355197  0.35889386  0.42300756  1
  C  C95  1  0.85370748  0.49212206  0.42546928  1
  C  C96  1  0.35646565  0.50541381  0.07400075  1
  C  C97  1  0.15324594  0.65505415  0.07333522  1
  C  C98  1  0.51252936  0.86646751  0.07601170  1
  C  C99  1  0.34494585  0.84675406  0.57333522  1
  C  C100  1  0.49458619  0.64353435  0.57400075  1
  C  C101  1  0.13353249  0.48747064  0.57601170  1
  C  C102  1  0.30311147  0.83993076  0.25561411  1
  C  C103  1  0.53786292  0.70156736  0.25655756  1
  C  C104  1  0.17717899  0.48194201  0.25725716  1
  C  C105  1  0.29843264  0.46213708  0.75655756  1
  C  C106  1  0.16006924  0.69688853  0.75561411  1
  C  C107  1  0.51805799  0.82282101  0.75725716  1
