# generated using pymatgen
data_Cu3Ni3C29
_symmetry_space_group_name_H-M   'P 1'
_cell_length_a   17.48215456
_cell_length_b   8.71196200
_cell_length_c   22.55345592
_cell_angle_alpha   89.88728862
_cell_angle_beta   90.08401614
_cell_angle_gamma   120.19188340
_symmetry_Int_Tables_number   1
_chemical_formula_structural   Cu3Ni3C29
_chemical_formula_sum   'Cu18 Ni18 C174'
_cell_volume   2969.00393622
_cell_formula_units_Z   6
loop_
 _symmetry_equiv_pos_site_id
 _symmetry_equiv_pos_as_xyz
  1  'x, y, z'
loop_
 _atom_site_type_symbol
 _atom_site_label
 _atom_site_symmetry_multiplicity
 _atom_site_fract_x
 _atom_site_fract_y
 _atom_site_fract_z
 _atom_site_occupancy
  C  C0  1  0.99505313  0.98332828  0.49764649  1
  C  C1  1  0.50151845  0.99902569  0.99828726  1
  C  C2  1  0.33401270  0.31991881  0.84042412  1
  C  C3  1  0.83207042  0.33759108  0.83979193  1
  C  C4  1  0.32647933  0.32412798  0.33815844  1
  C  C5  1  0.83712443  0.34262053  0.34454730  1
  C  C6  1  0.49461400  0.99455030  0.36231542  1
  C  C7  1  0.00566389  0.00552690  0.86425848  1
  C  C8  1  0.49903841  0.00154879  0.63949525  1
  C  C9  1  -0.00016605  0.01075157  0.14538987  1
  C  C10  1  0.32800902  0.33489988  0.69174022  1
  C  C11  1  0.82570267  0.32723643  0.68448362  1
  C  C12  1  0.33985147  0.34449946  0.19146161  1
  C  C13  1  0.83315738  0.31940948  0.18994169  1
  C  C14  1  0.16509120  0.66578026  0.02061525  1
  C  C15  1  0.66481014  0.66022924  0.02479757  1
  C  C16  1  0.16710962  0.67334305  0.52113519  1
  C  C17  1  0.67417542  0.66393946  0.52484044  1
  C  C18  1  0.16395392  0.67932056  0.30766773  1
  C  C19  1  0.16650253  0.67171131  0.80814916  1
  C  C20  1  0.66488269  0.64754387  0.81310880  1
  C  C21  1  0.00746118  0.00146969  0.35391660  1
  C  C22  1  0.50540750  0.03757395  0.85256022  1
  C  C23  1  0.99551195  0.00595481  0.64596417  1
  C  C24  1  0.49375788  0.97494539  0.14400499  1
  C  C25  1  0.34426272  0.34195191  0.97561742  1
  C  C26  1  0.83607331  0.32779766  0.97385608  1
  C  C27  1  0.33137977  0.33345687  0.47982019  1
  C  C28  1  0.82854194  0.36687846  0.47729864  1
  C  C29  1  0.67214977  0.66679973  0.31703529  1
  Ni  Ni30  1  0.14054401  0.00529909  0.25089346  1
  Ni  Ni31  1  0.36003162  0.72627127  0.24863133  1
  Ni  Ni32  1  0.99921462  0.27591157  0.25820999  1
  Ni  Ni33  1  0.13358622  0.27477487  0.74685935  1
  Ni  Ni34  1  0.64128630  0.27642789  0.75152901  1
  Ni  Ni35  1  0.36234124  0.00268706  0.75158912  1
  Ni  Ni36  1  0.69325727  0.05527342  0.57502173  1
  Ni  Ni37  1  0.33180873  0.61070161  0.57748367  1
  Ni  Ni38  1  0.84630596  0.63788610  0.58220692  1
  Ni  Ni39  1  0.47236574  0.62574783  0.07840399  1
  Ni  Ni40  1  0.83395744  0.05150398  0.07652647  1
  Ni  Ni41  1  0.80865570  0.65168440  0.92060841  1
  Ni  Ni42  1  0.01793789  0.38363179  0.91654199  1
  Ni  Ni43  1  0.51774275  0.36541618  0.91846324  1
  Ni  Ni44  1  0.17699788  0.97077443  0.91818205  1
  Ni  Ni45  1  0.30695047  0.97001656  0.41834765  1
  Ni  Ni46  1  0.67243227  0.38841429  0.41299418  1
  Ni  Ni47  1  0.01492399  0.66430473  0.41630781  1
  Cu  Cu48  1  0.64056800  0.98870987  0.25083636  1
  Cu  Cu49  1  0.85229642  0.71427641  0.25183555  1
  Cu  Cu50  1  0.50747187  0.29204454  0.24915909  1
  Cu  Cu51  1  0.99887478  0.71591453  0.74812064  1
  Cu  Cu52  1  0.50149961  0.72094139  0.75231745  1
  Cu  Cu53  1  0.85850520  0.00197812  0.74969277  1
  Cu  Cu54  1  0.47325424  0.33442868  0.58086571  1
  Cu  Cu55  1  0.97543928  0.32645788  0.58234271  1
  Cu  Cu56  1  0.18803123  0.04923791  0.58279280  1
  Cu  Cu57  1  0.97455408  0.61764263  0.08164435  1
  Cu  Cu58  1  0.33767246  0.04970215  0.08291549  1
  Cu  Cu59  1  0.19291807  0.33291248  0.08184532  1
  Cu  Cu60  1  0.68671518  0.32369381  0.08413872  1
  Cu  Cu61  1  0.31305538  0.66677677  0.91632928  1
  Cu  Cu62  1  0.66363856  0.95474638  0.91619328  1
  Cu  Cu63  1  0.81081216  0.95448116  0.41381763  1
  Cu  Cu64  1  0.16653752  0.37407462  0.41735492  1
  Cu  Cu65  1  0.52390122  0.65984278  0.41515588  1
  C  C66  1  0.09909943  0.04141468  0.30809970  1
  C  C67  1  0.60522962  0.03041678  0.30359740  1
  C  C68  1  0.42363439  0.80858651  0.30692875  1
  C  C69  1  0.90901046  0.78631757  0.30390177  1
  C  C70  1  0.48837732  0.17664519  0.30230320  1
  C  C71  1  0.97657854  0.14379774  0.31239893  1
  C  C72  1  0.09340723  0.15324739  0.80635717  1
  C  C73  1  0.60211088  0.16088094  0.81017678  1
  C  C74  1  0.48328492  0.79265286  0.80502273  1
  C  C75  1  0.98261527  0.78815159  0.80271717  1
  C  C76  1  0.41885060  0.03041828  0.81027858  1
  C  C77  1  0.91198637  0.02603031  0.80307265  1
  C  C78  1  0.40365415  0.97155841  0.69109123  1
  C  C79  1  0.89569327  0.97060003  0.69593115  1
  C  C80  1  0.07792858  0.18059991  0.68894962  1
  C  C81  1  0.58386255  0.19141504  0.69182393  1
  C  C82  1  0.01042770  0.82156104  0.69530200  1
  C  C83  1  0.51314045  0.82116763  0.69687035  1
  C  C84  1  0.40599369  0.84566855  0.19153678  1
  C  C85  1  0.89383039  0.81989214  0.19633455  1
  C  C86  1  0.00853011  0.18861127  0.19473911  1
  C  C87  1  0.51975174  0.21232776  0.19547413  1
  C  C88  1  0.08140924  0.97260570  0.19038159  1
  C  C89  1  0.59041878  0.96935322  0.19630148  1
  C  C90  1  0.43430283  0.35814335  0.63545300  1
  C  C91  1  0.93699045  0.35825802  0.63760213  1
  C  C92  1  0.24455578  0.12759935  0.63701609  1
  C  C93  1  0.75065177  0.13234148  0.63899554  1
  C  C94  1  0.32080164  0.49349732  0.63833210  1
  C  C95  1  0.82365486  0.50458376  0.64030549  1
  C  C96  1  0.42817374  0.49884591  0.13843147  1
  C  C97  1  0.93422671  0.50968167  0.13691312  1
  C  C98  1  0.31855854  0.12254636  0.13658698  1
  C  C99  1  0.82159684  0.14527376  0.13897290  1
  C  C100  1  0.24498104  0.35754338  0.13666689  1
  C  C101  1  0.74410271  0.35657904  0.13795435  1
  C  C102  1  0.23023674  0.30282356  0.02898676  1
  C  C103  1  0.72634855  0.29630382  0.03118603  1
  C  C104  1  0.40679516  0.52226447  0.02442673  1
  C  C105  1  0.92201658  0.53877179  0.02926071  1
  C  C106  1  0.34744473  0.15484280  0.02958968  1
  C  C107  1  0.84781539  0.18457466  0.02430250  1
  C  C108  1  0.23090997  0.15590441  0.52967631  1
  C  C109  1  0.74667782  0.18283469  0.52195614  1
  C  C110  1  0.34705401  0.51452650  0.52241542  1
  C  C111  1  0.85868782  0.54825529  0.52505089  1
  C  C112  1  0.41908658  0.30462958  0.52809764  1
  C  C113  1  0.92158004  0.29725684  0.53018858  1
  C  C114  1  0.26959956  0.69559254  0.97098093  1
  C  C115  1  0.76469674  0.69770150  0.97582307  1
  C  C116  1  0.08359372  0.47323608  0.97567298  1
  C  C117  1  0.58393450  0.47006852  0.97394804  1
  C  C118  1  0.15846994  0.83625879  0.97594719  1
  C  C119  1  0.65149626  0.84461624  0.96984239  1
  C  C120  1  0.26525751  0.84008854  0.47640541  1
  C  C121  1  0.76605255  0.83832672  0.46821554  1
  C  C122  1  0.15342456  0.46027189  0.47104365  1
  C  C123  1  0.65182670  0.47338707  0.47223256  1
  C  C124  1  0.08242484  0.69597277  0.47424384  1
  C  C125  1  0.57631012  0.68998159  0.46901809  1
  C  C126  1  0.06823480  0.63982675  0.35980206  1
  C  C127  1  0.56631051  0.64107838  0.36092996  1
  C  C128  1  0.24926673  0.87377633  0.35983952  1
  C  C129  1  0.75296648  0.86804914  0.36088631  1
  C  C130  1  0.18300338  0.48454421  0.36426743  1
  C  C131  1  0.68279903  0.50822352  0.35617284  1
  C  C132  1  0.07063029  0.50906228  0.86055335  1
  C  C133  1  0.56699627  0.49500695  0.85891238  1
  C  C134  1  0.18807593  0.87095257  0.86084448  1
  C  C135  1  0.68058012  0.87578398  0.86249191  1
  C  C136  1  0.25664029  0.64038980  0.86376374  1
  C  C137  1  0.74775465  0.63004790  0.86061003  1
  C  C138  1  0.00720509  0.84238580  0.40751307  1
  C  C139  1  0.51627860  0.82492260  0.40877146  1
  C  C140  1  0.40447502  0.98388260  0.40856601  1
  C  C141  1  0.89616416  0.96026091  0.40972504  1
  C  C142  1  0.08486499  0.19783289  0.41294999  1
  C  C143  1  0.58376359  0.19155251  0.40231430  1
  C  C144  1  0.01223800  0.19177811  0.90942585  1
  C  C145  1  0.51272156  0.17556483  0.91341524  1
  C  C146  1  0.08349543  0.96797059  0.91059558  1
  C  C147  1  0.58216302  0.96385158  0.90946669  1
  C  C148  1  0.40117811  0.82343348  0.91143183  1
  C  C149  1  0.90314827  0.82377671  0.90295123  1
  C  C150  1  0.48490589  0.17681867  0.58684463  1
  C  C151  1  0.98687864  0.16978762  0.59157844  1
  C  C152  1  0.10038721  0.02914069  0.59008121  1
  C  C153  1  0.59716166  0.03187141  0.59231675  1
  C  C154  1  0.41784512  0.80544717  0.59111253  1
  C  C155  1  0.92785289  0.83305281  0.59525345  1
  C  C156  1  0.48888698  0.82496003  0.08870756  1
  C  C157  1  0.98669144  0.79599827  0.09076115  1
  C  C158  1  0.41844226  0.03651207  0.09044256  1
  C  C159  1  0.91848544  0.02503723  0.09120999  1
  C  C160  1  0.10147853  0.17653793  0.08997680  1
  C  C161  1  0.59732383  0.16952816  0.09463129  1
  C  C162  1  0.35011594  0.17701697  0.74002123  1
  C  C163  1  0.85307255  0.16790904  0.74390712  1
  C  C164  1  0.23601399  0.30377640  0.74213869  1
  C  C165  1  0.74372001  0.31015390  0.74431634  1
  C  C166  1  0.42286830  0.53408833  0.74389837  1
  C  C167  1  0.92287248  0.53045467  0.74257274  1
  C  C168  1  0.34977051  0.52471491  0.24198422  1
  C  C169  1  0.84029136  0.53129667  0.24073406  1
  C  C170  1  0.42225235  0.30145631  0.24317885  1
  C  C171  1  0.91321418  0.30897000  0.24347658  1
  C  C172  1  0.24135259  0.17217834  0.23885708  1
  C  C173  1  0.73262822  0.15772849  0.24299762  1
  C  C174  1  0.31559595  0.50190036  0.92406601  1
  C  C175  1  0.81479193  0.47644020  0.93023804  1
  C  C176  1  0.42465923  0.35949301  0.92294677  1
  C  C177  1  0.92207063  0.35975310  0.92289891  1
  C  C178  1  0.25673379  0.16480018  0.93147952  1
  C  C179  1  0.74310214  0.13315074  0.92366010  1
  C  C180  1  0.32194615  0.16567835  0.42907583  1
  C  C181  1  0.81911772  0.12759363  0.42113916  1
  C  C182  1  0.24553102  0.35415177  0.42561789  1
  C  C183  1  0.75405538  0.35670944  0.42053774  1
  C  C184  1  0.43377718  0.50479638  0.42006032  1
  C  C185  1  0.92359556  0.47990020  0.42600286  1
  C  C186  1  0.18374933  0.49443231  0.07672443  1
  C  C187  1  0.68028628  0.48798183  0.07910102  1
  C  C188  1  0.06498717  0.63490740  0.07717125  1
  C  C189  1  0.56889567  0.64036543  0.07118986  1
  C  C190  1  0.25880459  0.86478058  0.07565060  1
  C  C191  1  0.74679518  0.85781820  0.07359824  1
  C  C192  1  0.18000935  0.86989712  0.57785377  1
  C  C193  1  0.67539103  0.85292637  0.56830611  1
  C  C194  1  0.24361747  0.62888698  0.57132490  1
  C  C195  1  0.75443331  0.64850644  0.57469005  1
  C  C196  1  0.06521107  0.48832087  0.57611390  1
  C  C197  1  0.56267723  0.49503383  0.57493688  1
  C  C198  1  0.15197155  0.83157816  0.25468210  1
  C  C199  1  0.65455165  0.83761796  0.26058638  1
  C  C200  1  0.26208696  0.68856395  0.26261607  1
  C  C201  1  0.76514202  0.70000021  0.25846551  1
  C  C202  1  0.08450420  0.47002849  0.26141327  1
  C  C203  1  0.58088452  0.47293584  0.25923644  1
  C  C204  1  0.15110194  0.47421486  0.76018965  1
  C  C205  1  0.65428775  0.47822389  0.75755251  1
  C  C206  1  0.08046566  0.70195004  0.75510231  1
  C  C207  1  0.58125330  0.70316884  0.75846488  1
  C  C208  1  0.26204711  0.83323518  0.75968719  1
  C  C209  1  0.76728514  0.84957412  0.75793232  1
