# generated using pymatgen
data_Cu2Ni2C9
_symmetry_space_group_name_H-M   'P 1'
_cell_length_a   5.58172797
_cell_length_b   5.58162252
_cell_length_c   6.23614354
_cell_angle_alpha   90.00000000
_cell_angle_beta   90.00000000
_cell_angle_gamma   119.42052416
_symmetry_Int_Tables_number   1
_chemical_formula_structural   Cu2Ni2C9
_chemical_formula_sum   'Cu2 Ni2 C9'
_cell_volume   169.23192222
_cell_formula_units_Z   1
loop_
 _symmetry_equiv_pos_site_id
 _symmetry_equiv_pos_as_xyz
  1  'x, y, z'
loop_
 _atom_site_type_symbol
 _atom_site_label
 _atom_site_symmetry_multiplicity
 _atom_site_fract_x
 _atom_site_fract_y
 _atom_site_fract_z
 _atom_site_occupancy
  C  C0  1  0.84374102  0.15625669  0.25000000  1
  Ni  Ni1  1  0.57956716  0.42039779  0.25000100  1
  Ni  Ni2  1  0.38802787  0.61199548  0.75000100  1
  Cu  Cu3  1  0.06848680  0.93146241  0.52757350  1
  Cu  Cu4  1  0.06848680  0.93146241  0.97242650  1
  C  C5  1  0.23243567  0.24414636  0.75000000  1
  C  C6  1  0.79131021  0.78213114  0.25000000  1
  C  C7  1  0.21786160  0.20867142  0.25000000  1
  C  C8  1  0.75585265  0.76756466  0.75000000  1
  C  C9  1  0.27637548  0.72368356  0.96336039  1
  C  C10  1  0.69032313  0.30968876  0.45910950  1
  C  C11  1  0.69032313  0.30968876  0.04088950  1
  C  C12  1  0.27637548  0.72368356  0.53663861  1
