# generated using pymatgen
data_CuNiC9
_symmetry_space_group_name_H-M   'P 1'
_cell_length_a   6.06845815
_cell_length_b   5.68643729
_cell_length_c   5.67609091
_cell_angle_alpha   100.67377248
_cell_angle_beta   120.42031734
_cell_angle_gamma   106.35385507
_symmetry_Int_Tables_number   1
_chemical_formula_structural   CuNiC9
_chemical_formula_sum   'Cu1 Ni1 C9'
_cell_volume   148.81243010
_cell_formula_units_Z   1
loop_
 _symmetry_equiv_pos_site_id
 _symmetry_equiv_pos_as_xyz
  1  'x, y, z'
loop_
 _atom_site_type_symbol
 _atom_site_label
 _atom_site_symmetry_multiplicity
 _atom_site_fract_x
 _atom_site_fract_y
 _atom_site_fract_z
 _atom_site_occupancy
  C  C0  1  0.78987787  0.39824472  0.61022871  1
  C  C1  1  0.23872475  0.67590149  0.43138000  1
  Ni  Ni2  1  0.58753452  0.82194947  0.16076105  1
  Cu  Cu3  1  0.44203235  0.22999284  0.88297446  1
  C  C4  1  0.01790022  0.03708171  0.02202515  1
  C  C5  1  0.28459960  0.40064853  0.06041745  1
  C  C6  1  0.77648352  0.68815103  0.00262895  1
  C  C7  1  0.80622733  0.21192341  0.16505866  1
  C  C8  1  0.22822429  0.85023435  0.88677389  1
  C  C9  1  0.31115402  0.14872394  0.46989719  1
  C  C10  1  0.73152754  0.93000550  0.58166450  1
