# generated using pymatgen
data_CuNiC4
_symmetry_space_group_name_H-M   'P 1'
_cell_length_a   4.56233393
_cell_length_b   4.62647123
_cell_length_c   4.56065856
_cell_angle_alpha   80.95565047
_cell_angle_beta   81.31562917
_cell_angle_gamma   80.94570184
_symmetry_Int_Tables_number   1
_chemical_formula_structural   CuNiC4
_chemical_formula_sum   'Cu1 Ni1 C4'
_cell_volume   93.09270531
_cell_formula_units_Z   1
loop_
 _symmetry_equiv_pos_site_id
 _symmetry_equiv_pos_as_xyz
  1  'x, y, z'
loop_
 _atom_site_type_symbol
 _atom_site_label
 _atom_site_symmetry_multiplicity
 _atom_site_fract_x
 _atom_site_fract_y
 _atom_site_fract_z
 _atom_site_occupancy
  C  C0  1  0.62329666  0.62205919  0.62321943  1
  Ni  Ni1  1  0.23932024  0.23403848  0.23937923  1
  Cu  Cu2  1  0.95512494  0.94988927  0.95518512  1
  C  C3  1  0.48344758  0.97995135  0.98176426  1
  C  C4  1  0.98374166  0.48413409  0.98375103  1
  C  C5  1  0.98173593  0.97992762  0.48336793  1
