# generated using pymatgen
data_Cu3NiC33
_symmetry_space_group_name_H-M   'P 1'
_cell_length_a   9.19107849
_cell_length_b   9.26807370
_cell_length_c   23.79525233
_cell_angle_alpha   89.70280132
_cell_angle_beta   90.49014469
_cell_angle_gamma   120.38814059
_symmetry_Int_Tables_number   1
_chemical_formula_structural   Cu3NiC33
_chemical_formula_sum   'Cu9 Ni3 C99'
_cell_volume   1748.43251695
_cell_formula_units_Z   3
loop_
 _symmetry_equiv_pos_site_id
 _symmetry_equiv_pos_as_xyz
  1  'x, y, z'
loop_
 _atom_site_type_symbol
 _atom_site_label
 _atom_site_symmetry_multiplicity
 _atom_site_fract_x
 _atom_site_fract_y
 _atom_site_fract_z
 _atom_site_occupancy
  C  C0  1  0.35258438  0.35667673  0.24087745  1
  C  C1  1  0.63391165  0.62144179  0.75688317  1
  C  C2  1  0.96920097  0.28844145  0.41780771  1
  C  C3  1  0.99302993  0.01066597  0.50065652  1
  C  C4  1  0.99442547  0.98527270  0.00295663  1
  C  C5  1  0.66117479  0.34219510  0.83261095  1
  C  C6  1  0.67371041  0.32038179  0.33063899  1
  C  C7  1  0.30421840  0.65152233  0.16308320  1
  C  C8  1  0.28983864  0.64214696  0.66697976  1
  Ni  Ni9  1  0.99403280  0.00123701  0.35582439  1
  Ni  Ni10  1  0.68144803  0.33673864  0.68565585  1
  Ni  Ni11  1  0.69241091  0.34704867  0.17533798  1
  Cu  Cu12  1  0.00697802  0.99175459  0.85467973  1
  Cu  Cu13  1  0.01657684  0.01862774  0.64915333  1
  Cu  Cu14  1  0.01298248  0.01527987  0.14363884  1
  Cu  Cu15  1  0.66329684  0.35990659  0.98332744  1
  Cu  Cu16  1  0.65941396  0.31643732  0.48047862  1
  Cu  Cu17  1  0.33725724  0.65906193  0.01789966  1
  Cu  Cu18  1  0.33834062  0.65772136  0.51817099  1
  Cu  Cu19  1  0.33965378  0.66198362  0.31690919  1
  Cu  Cu20  1  0.32192251  0.65275887  0.81349924  1
  C  C21  1  0.00503338  0.30414363  0.25235100  1
  C  C22  1  0.28771805  0.29303717  0.75459316  1
  C  C23  1  0.01133981  0.72297192  0.75046038  1
  C  C24  1  0.96972297  0.33074590  0.58068518  1
  C  C25  1  0.97862907  0.64849863  0.08016301  1
  C  C26  1  0.36722127  0.33627597  0.08477817  1
  C  C27  1  0.62606317  0.67244004  0.91448703  1
  C  C28  1  0.61487185  0.95780281  0.41943285  1
  C  C29  1  0.34785240  0.38206081  0.41813597  1
  C  C30  1  0.29184692  0.98952019  0.24837538  1
  C  C31  1  0.69386541  0.70422825  0.24838849  1
  C  C32  1  0.71184234  0.98825850  0.75347737  1
  C  C33  1  0.36195896  0.02894137  0.58078778  1
  C  C34  1  0.67123732  0.63658773  0.58181921  1
  C  C35  1  0.66683386  0.03048173  0.07863616  1
  C  C36  1  0.03812186  0.37308863  0.91707139  1
  C  C37  1  0.33950140  0.95788747  0.91661304  1
  C  C38  1  0.04363886  0.65385128  0.41971580  1
  C  C39  1  0.21282651  0.00690447  0.29987278  1
  C  C40  1  0.79024654  0.77497403  0.30088849  1
  C  C41  1  0.99617759  0.21125888  0.31165075  1
  C  C42  1  0.18030683  0.18114681  0.80790581  1
  C  C43  1  0.98822117  0.81665954  0.80562753  1
  C  C44  1  0.81351266  0.00402526  0.80379644  1
  C  C45  1  0.79232848  0.97213667  0.70129875  1
  C  C46  1  0.17757264  0.20457728  0.69623947  1
  C  C47  1  0.02245855  0.83266425  0.69408992  1
  C  C48  1  0.78427314  0.80377912  0.19888256  1
  C  C49  1  0.02535238  0.19386641  0.19929700  1
  C  C50  1  0.18458008  0.97262177  0.19817649  1
  C  C51  1  0.89377531  0.36118890  0.63742650  1
  C  C52  1  0.45794104  0.09669481  0.63263479  1
  C  C53  1  0.63838859  0.54414337  0.63524520  1
  C  C54  1  0.92543754  0.54033348  0.13731108  1
  C  C55  1  0.63238813  0.08802889  0.13160726  1
  C  C56  1  0.45689550  0.36495169  0.14540741  1
  C  C57  1  0.47259137  0.31162430  0.03276402  1
  C  C58  1  0.84261837  0.53761564  0.02849905  1
  C  C59  1  0.69189209  0.14401406  0.03094788  1
  C  C60  1  0.45206514  0.14249245  0.53210158  1
  C  C61  1  0.68514463  0.54107590  0.53445067  1
  C  C62  1  0.84617356  0.31127136  0.52581143  1
  C  C63  1  0.52523017  0.68848728  0.96729653  1
  C  C64  1  0.14387032  0.45763012  0.96640246  1
  C  C65  1  0.31315740  0.85556000  0.96648372  1
  C  C66  1  0.50945440  0.85101907  0.47330454  1
  C  C67  1  0.32249894  0.48358183  0.46932769  1
  C  C68  1  0.14376772  0.66928581  0.47009296  1
  C  C69  1  0.12445720  0.63636780  0.36790287  1
  C  C70  1  0.50588718  0.86495182  0.36185553  1
  C  C71  1  0.36212080  0.48953404  0.35971915  1
  C  C72  1  0.11904660  0.47912468  0.86577231  1
  C  C73  1  0.35282860  0.87358989  0.86546111  1
  C  C74  1  0.51185714  0.64908266  0.85738566  1
  C  C75  1  0.02098895  0.79902358  0.41740620  1
  C  C76  1  0.80557405  0.98881451  0.42227111  1
  C  C77  1  0.17667135  0.20021354  0.41945866  1
  C  C78  1  0.02484648  0.20766564  0.91106383  1
  C  C79  1  0.18752554  0.97974395  0.91114590  1
  C  C80  1  0.81560137  0.83945407  0.90999187  1
  C  C81  1  0.98259007  0.15872760  0.58728796  1
  C  C82  1  0.19304280  0.01659700  0.58428571  1
  C  C83  1  0.82563745  0.80472883  0.58553287  1
  C  C84  1  0.98014568  0.82524911  0.08981667  1
  C  C85  1  0.82135222  0.01559073  0.08538291  1
  C  C86  1  0.17751709  0.16566153  0.08669289  1
  C  C87  1  0.68730683  0.13257069  0.75142545  1
  C  C88  1  0.47819074  0.32538438  0.75279771  1
  C  C89  1  0.83851290  0.54101862  0.75093014  1
  C  C90  1  0.65460578  0.52802701  0.24546181  1
  C  C91  1  0.84305255  0.32896631  0.24948971  1
  C  C92  1  0.45843339  0.14351166  0.24366023  1
  C  C93  1  0.64238433  0.50126721  0.92219209  1
  C  C94  1  0.86799937  0.35332825  0.92256758  1
  C  C95  1  0.49280053  0.12712112  0.92184117  1
  C  C96  1  0.63993178  0.15006132  0.42309590  1
  C  C97  1  0.52010987  0.37433226  0.42697231  1
  C  C98  1  0.87608702  0.49488763  0.42326924  1
  C  C99  1  0.34117224  0.49470852  0.07024059  1
  C  C100  1  0.16380736  0.67911179  0.06343748  1
  C  C101  1  0.52121805  0.86020860  0.06861161  1
  C  C102  1  0.33653672  0.86011748  0.57135066  1
  C  C103  1  0.52360578  0.66171213  0.57334652  1
  C  C104  1  0.15759183  0.49684811  0.57293777  1
  C  C105  1  0.30654579  0.83739697  0.25220745  1
  C  C106  1  0.52691055  0.69869896  0.25227130  1
  C  C107  1  0.18763517  0.48778375  0.25404788  1
  C  C108  1  0.30600355  0.48206308  0.75838252  1
  C  C109  1  0.18078887  0.70736563  0.75879772  1
  C  C110  1  0.54425710  0.82901807  0.75701718  1
