# generated using pymatgen
data_Cu5NiC13
_symmetry_space_group_name_H-M   'P 1'
_cell_length_a   5.15438437
_cell_length_b   5.09731557
_cell_length_c   10.00100905
_cell_angle_alpha   85.59247519
_cell_angle_beta   81.25047184
_cell_angle_gamma   59.13541672
_symmetry_Int_Tables_number   1
_chemical_formula_structural   Cu5NiC13
_chemical_formula_sum   'Cu5 Ni1 C13'
_cell_volume   222.92500572
_cell_formula_units_Z   1
loop_
 _symmetry_equiv_pos_site_id
 _symmetry_equiv_pos_as_xyz
  1  'x, y, z'
loop_
 _atom_site_type_symbol
 _atom_site_label
 _atom_site_symmetry_multiplicity
 _atom_site_fract_x
 _atom_site_fract_y
 _atom_site_fract_z
 _atom_site_occupancy
  Ni  Ni0  1  0.92444500  0.33256000  0.25094200  1
  Cu  Cu1  1  0.18218200  0.66259600  0.50027900  1
  Cu  Cu2  1  0.65983100  0.65149700  0.00092000  1
  Cu  Cu3  1  0.32572300  0.31565800  0.99801600  1
  Cu  Cu4  1  0.84385100  0.33061800  0.51640900  1
  Cu  Cu5  1  0.51520100  0.99676000  0.49719500  1
  C  C6  1  0.99446400  0.98778800  0.98347500  1
  C  C7  1  0.95933100  0.63442800  0.10185300  1
  C  C8  1  0.39125700  0.62058000  0.90339200  1
  C  C9  1  0.18985700  0.31851700  0.40156300  1
  C  C10  1  0.57334100  0.64628900  0.40182000  1
  C  C11  1  0.49004900  0.31734300  0.59387800  1
  C  C12  1  0.16542200  0.00307500  0.59534200  1
  C  C13  1  0.80333100  0.67529700  0.59432500  1
  C  C14  1  0.65290200  0.33995700  0.11318700  1
  C  C15  1  0.29621600  0.99998200  0.10402900  1
  C  C16  1  0.99119500  0.36225300  0.89162500  1
  C  C17  1  0.65946300  0.98143600  0.89987200  1
  C  C18  1  0.86943900  0.02336400  0.40187900  1
