# generated using pymatgen
data_Cu2NiC16
_symmetry_space_group_name_H-M   'P 1'
_cell_length_a   5.10764266
_cell_length_b   4.97821038
_cell_length_c   8.80219500
_cell_angle_alpha   90.00000000
_cell_angle_beta   90.00000000
_cell_angle_gamma   89.90906444
_symmetry_Int_Tables_number   1
_chemical_formula_structural   Cu2NiC16
_chemical_formula_sum   'Cu2 Ni1 C16'
_cell_volume   223.81242358
_cell_formula_units_Z   1
loop_
 _symmetry_equiv_pos_site_id
 _symmetry_equiv_pos_as_xyz
  1  'x, y, z'
loop_
 _atom_site_type_symbol
 _atom_site_label
 _atom_site_symmetry_multiplicity
 _atom_site_fract_x
 _atom_site_fract_y
 _atom_site_fract_z
 _atom_site_occupancy
  Ni  Ni0  1  0.50000000  0.00000000  0.81981600  1
  C  C1  1  0.00000000  0.00000000  0.00830300  1
  C  C2  1  0.00000000  0.00000000  0.63283700  1
  C  C3  1  0.50000000  0.50000000  0.14608700  1
  C  C4  1  0.50000000  0.50000000  0.49290600  1
  Cu  Cu5  1  0.00000000  0.00000000  0.32048100  1
  Cu  Cu6  1  0.50000000  0.50000000  0.82059100  1
  C  C7  1  0.19366200  0.76377800  0.14481200  1
  C  C8  1  0.16647900  0.80478300  0.82067500  1
  C  C9  1  0.19305900  0.76286100  0.49654300  1
  C  C10  1  0.32010900  0.25163100  0.98953500  1
  C  C11  1  0.32980900  0.30677300  0.31994600  1
  C  C12  1  0.32017200  0.25161100  0.65083600  1
  C  C13  1  0.67989100  0.74836900  0.98953500  1
  C  C14  1  0.67019100  0.69322700  0.31994600  1
  C  C15  1  0.67982800  0.74838900  0.65083600  1
  C  C16  1  0.83352100  0.19521600  0.82067500  1
  C  C17  1  0.80633800  0.23622200  0.14481200  1
  C  C18  1  0.80694100  0.23713900  0.49654300  1
