# generated using pymatgen
data_Cu2NiC18
_symmetry_space_group_name_H-M   'P 1'
_cell_length_a   8.71392216
_cell_length_b   8.71392189
_cell_length_c   21.51489371
_cell_angle_alpha   90.00101353
_cell_angle_beta   89.99898648
_cell_angle_gamma   120.00160682
_symmetry_Int_Tables_number   1
_chemical_formula_structural   Cu2NiC18
_chemical_formula_sum   'Cu12 Ni6 C108'
_cell_volume   1414.78401200
_cell_formula_units_Z   6
loop_
 _symmetry_equiv_pos_site_id
 _symmetry_equiv_pos_as_xyz
  1  'x, y, z'
loop_
 _atom_site_type_symbol
 _atom_site_label
 _atom_site_symmetry_multiplicity
 _atom_site_fract_x
 _atom_site_fract_y
 _atom_site_fract_z
 _atom_site_occupancy
  C  C0  1  0.63764901  0.00275326  0.25078139  1
  C  C1  1  0.36229271  0.36508889  0.24928179  1
  C  C2  1  0.00001926  0.62902765  0.24990791  1
  C  C3  1  0.63491111  0.63770729  0.74928179  1
  C  C4  1  0.99724674  0.36235099  0.75078139  1
  C  C5  1  0.37097235  0.99998074  0.74990791  1
  C  C6  1  0.30135497  0.32982413  0.58268804  1
  C  C7  1  0.03711487  0.70301406  0.58196477  1
  C  C8  1  0.66415495  0.96752440  0.58549808  1
  C  C9  1  0.29698594  0.96288513  0.08196477  1
  C  C10  1  0.67017587  0.69864503  0.08268804  1
  C  C11  1  0.03247560  0.33584505  0.08549808  1
  C  C12  1  0.97050997  0.66979262  0.91864450  1
  C  C13  1  0.69620309  0.03269712  0.91458391  1
  C  C14  1  0.33335079  0.29748851  0.91672767  1
  C  C15  1  0.96730288  0.30379691  0.41458391  1
  C  C16  1  0.33020738  0.02949003  0.41864450  1
  C  C17  1  0.70251149  0.66664921  0.41672767  1
  C  C18  1  0.00300485  0.99818091  0.49998985  1
  C  C19  1  0.00181909  0.99699515  0.99998985  1
  C  C20  1  0.66497674  0.32825690  0.83339032  1
  C  C21  1  0.67174310  0.33502326  0.33339032  1
  C  C22  1  0.32792745  0.66310980  0.16664812  1
  C  C23  1  0.33689020  0.67207255  0.66664812  1
  C  C24  1  0.99900452  0.99880200  0.35142909  1
  C  C25  1  0.00119800  0.00099548  0.85142909  1
  C  C26  1  0.00035687  0.99878347  0.64851013  1
  C  C27  1  0.00121653  0.99964313  0.14851013  1
  C  C28  1  0.66466988  0.32416052  0.68499072  1
  C  C29  1  0.67583948  0.33533012  0.18499072  1
  C  C30  1  0.66580735  0.33391420  0.98193970  1
  C  C31  1  0.66608580  0.33419265  0.48193970  1
  C  C32  1  0.32599243  0.66904414  0.01813412  1
  C  C33  1  0.33095586  0.67400757  0.51813412  1
  C  C34  1  0.32330151  0.65909185  0.31509745  1
  C  C35  1  0.34090815  0.67669849  0.81509745  1
  Ni  Ni36  1  0.00000345  0.28799963  0.24997978  1
  Ni  Ni37  1  0.71200037  -0.00000345  0.74997978  1
  Ni  Ni38  1  0.37567955  0.04305753  0.58298029  1
  Ni  Ni39  1  0.95694247  0.62432045  0.08298029  1
  Ni  Ni40  1  0.33341526  0.95995578  0.91660210  1
  Ni  Ni41  1  0.04004422  0.66658474  0.41660210  1
  Cu  Cu42  1  0.29043703  0.00125270  0.24983541  1
  Cu  Cu43  1  0.70938651  0.71077419  0.25008886  1
  Cu  Cu44  1  0.28922581  0.29061349  0.75008886  1
  Cu  Cu45  1  0.99874730  0.70956297  0.74983541  1
  Cu  Cu46  1  0.95604372  0.33349969  0.58331720  1
  Cu  Cu47  1  0.66595548  0.62058574  0.58368130  1
  Cu  Cu48  1  0.66650031  0.04395628  0.08331720  1
  Cu  Cu49  1  0.37941426  0.33404452  0.08368130  1
  Cu  Cu50  1  0.62003985  0.66585232  0.91706359  1
  Cu  Cu51  1  0.04663195  0.37926484  0.91623777  1
  Cu  Cu52  1  0.62073516  0.95336805  0.41623777  1
  Cu  Cu53  1  0.33414768  0.37996015  0.41706359  1
  C  C54  1  0.20683931  0.03610723  0.30784277  1
  C  C55  1  0.82989727  0.79257772  0.30772450  1
  C  C56  1  0.96274521  0.16142367  0.31074208  1
  C  C57  1  0.20742228  0.17010273  0.80772450  1
  C  C58  1  0.96389277  0.79316069  0.80784277  1
  C  C59  1  0.83857633  0.03725479  0.81074208  1
  C  C60  1  0.80139569  0.96278409  0.68930287  1
  C  C61  1  0.17088497  0.20688246  0.69218905  1
  C  C62  1  0.03736765  0.82990416  0.69227530  1
  C  C63  1  0.79311754  0.82911503  0.19218905  1
  C  C64  1  0.03721591  0.19860431  0.18930287  1
  C  C65  1  0.17009584  0.96263235  0.19227530  1
  C  C66  1  0.87515946  0.37318175  0.64090088  1
  C  C67  1  0.50161175  0.13153533  0.64347570  1
  C  C68  1  0.63322677  0.50329356  0.64165734  1
  C  C69  1  0.86846467  0.49838825  0.14347570  1
  C  C70  1  0.62681825  0.12484054  0.14090088  1
  C  C71  1  0.49670644  0.36677323  0.14165734  1
  C  C72  1  0.46143175  0.29751448  0.02563065  1
  C  C73  1  0.82938606  0.53516715  0.02241067  1
  C  C74  1  0.70206911  0.16325367  0.02555776  1
  C  C75  1  0.46483285  0.17061394  0.52241067  1
  C  C76  1  0.70248552  0.53856825  0.52563065  1
  C  C77  1  0.83674633  0.29793089  0.52555776  1
  C  C78  1  0.53541348  0.69947536  0.97497720  1
  C  C79  1  0.16564896  0.46052543  0.97426993  1
  C  C80  1  0.29469777  0.83301629  0.97695223  1
  C  C81  1  0.53947457  0.83435104  0.47426993  1
  C  C82  1  0.30052464  0.46458652  0.47497720  1
  C  C83  1  0.16698371  0.70530223  0.47695223  1
  C  C84  1  0.12838251  0.62797032  0.35629980  1
  C  C85  1  0.50270029  0.86887083  0.35843156  1
  C  C86  1  0.37168238  0.49879836  0.35912929  1
  C  C87  1  0.13112917  0.49729971  0.85843156  1
  C  C88  1  0.37202968  0.87161749  0.85629980  1
  C  C89  1  0.50120164  0.62831762  0.85912929  1
  C  C90  1  0.02026504  0.84439663  0.40843609  1
  C  C91  1  0.80867384  0.97500517  0.41059731  1
  C  C92  1  0.16677903  0.19300070  0.41043488  1
  C  C93  1  0.02499483  0.19132616  0.91059731  1
  C  C94  1  0.15560337  0.97973496  0.90843609  1
  C  C95  1  0.80699930  0.83322097  0.91043488  1
  C  C96  1  0.97434350  0.16562341  0.58998538  1
  C  C97  1  0.17714945  0.02139898  0.59115849  1
  C  C98  1  0.83258061  0.80821942  0.58936380  1
  C  C99  1  0.97860102  0.82285055  0.09115849  1
  C  C100  1  0.83437659  0.02565650  0.08998538  1
  C  C101  1  0.19178058  0.16741939  0.08936380  1
  C  C102  1  0.69251771  0.17844989  0.74394654  1
  C  C103  1  0.47764301  0.31466025  0.74342411  1
  C  C104  1  0.83016181  0.52441640  0.74230085  1
  C  C105  1  0.68533975  0.52235699  0.24342411  1
  C  C106  1  0.82155011  0.30748229  0.24394654  1
  C  C107  1  0.47558360  0.16983819  0.24230085  1
  C  C108  1  0.64168068  0.49968839  0.92268858  1
  C  C109  1  0.85969572  0.35959457  0.92301338  1
  C  C110  1  0.51102285  0.15746958  0.92487140  1
  C  C111  1  0.64040543  0.14030428  0.42301338  1
  C  C112  1  0.50031161  0.35831932  0.42268858  1
  C  C113  1  0.84253042  0.48897715  0.42487140  1
  C  C114  1  0.36132862  0.50189631  0.07610503  1
  C  C115  1  0.15392144  0.64205389  0.07696164  1
  C  C116  1  0.50243996  0.85525307  0.07661508  1
  C  C117  1  0.35794611  0.84607856  0.57696164  1
  C  C118  1  0.49810369  0.63867138  0.57610503  1
  C  C119  1  0.14474693  0.49756004  0.57661508  1
  C  C120  1  0.31457637  0.83705113  0.25666571  1
  C  C121  1  0.52440116  0.69422016  0.25766812  1
  C  C122  1  0.17838360  0.48591215  0.25600016  1
  C  C123  1  0.30577984  0.47559884  0.75766812  1
  C  C124  1  0.16294887  0.68542363  0.75666571  1
  C  C125  1  0.51408785  0.82161640  0.75600016  1
