# generated using pymatgen
data_Cu4NiC14
_symmetry_space_group_name_H-M   'P 1'
_cell_length_a   5.45498315
_cell_length_b   8.12050950
_cell_length_c   5.74851823
_cell_angle_alpha   69.27217266
_cell_angle_beta   89.99578836
_cell_angle_gamma   70.35962577
_symmetry_Int_Tables_number   1
_chemical_formula_structural   Cu4NiC14
_chemical_formula_sum   'Cu4 Ni1 C14'
_cell_volume   222.25260519
_cell_formula_units_Z   1
loop_
 _symmetry_equiv_pos_site_id
 _symmetry_equiv_pos_as_xyz
  1  'x, y, z'
loop_
 _atom_site_type_symbol
 _atom_site_label
 _atom_site_symmetry_multiplicity
 _atom_site_fract_x
 _atom_site_fract_y
 _atom_site_fract_z
 _atom_site_occupancy
  C  C0  1  0.60411900  0.78152500  0.15431400  1
  C  C1  1  0.88549000  0.21851200  0.43593700  1
  C  C2  1  0.42929000  0.17648200  0.89579700  1
  C  C3  1  0.10602000  0.82350800  0.57217600  1
  Ni  Ni4  1  0.08138800  0.50008300  0.55073900  1
  Cu  Cu5  1  0.02278100  0.99338100  0.01120200  1
  Cu  Cu6  1  0.18043800  0.49986600  0.11496900  1
  Cu  Cu7  1  0.51643100  0.00641400  0.50451300  1
  Cu  Cu8  1  0.68179300  0.50012900  0.84134000  1
  C  C9  1  0.75412400  0.04046400  0.23760200  1
  C  C10  1  0.26491900  0.01478300  0.25264000  1
  C  C11  1  0.82791500  0.49991800  0.13865400  1
  C  C12  1  0.14668400  0.69915400  0.22375700  1
  C  C13  1  0.34612600  0.30065600  0.42298700  1
  C  C14  1  0.93157900  0.30317600  0.78111800  1
  C  C15  1  0.73451400  0.69717900  0.58418100  1
  C  C16  1  0.32752300  0.50003100  0.81593000  1
  C  C17  1  0.29461600  0.95951700  0.77803000  1
  C  C18  1  0.77975400  0.98522300  0.76744700  1
