# generated using pymatgen
data_Cu7(NiC3)2
_symmetry_space_group_name_H-M   'P 1'
_cell_length_a   7.00059137
_cell_length_b   7.00059137
_cell_length_c   15.24210088
_cell_angle_alpha   80.37715628
_cell_angle_beta   80.37715628
_cell_angle_gamma   98.01633451
_symmetry_Int_Tables_number   1
_chemical_formula_structural   Cu7(NiC3)2
_chemical_formula_sum   'Cu14 Ni4 C12'
_cell_volume   715.26790094
_cell_formula_units_Z   2
loop_
 _symmetry_equiv_pos_site_id
 _symmetry_equiv_pos_as_xyz
  1  'x, y, z'
loop_
 _atom_site_type_symbol
 _atom_site_label
 _atom_site_symmetry_multiplicity
 _atom_site_fract_x
 _atom_site_fract_y
 _atom_site_fract_z
 _atom_site_occupancy
  C  C0  1  0.96840900  0.26098000  0.42647500  1
  C  C1  1  0.73902000  0.03159100  0.07352500  1
  C  C2  1  0.03159100  0.73902000  0.57352500  1
  C  C3  1  0.26098000  0.96840900  0.92647500  1
  C  C4  1  0.50819700  0.95261900  0.63884300  1
  C  C5  1  0.04738100  0.49180300  0.86115700  1
  C  C6  1  0.42133800  0.57866200  0.25000000  1
  C  C7  1  0.57866200  0.42133800  0.75000000  1
  C  C8  1  0.50000000  0.50000000  0.00000000  1
  C  C9  1  0.50000000  0.50000000  0.50000000  1
  C  C10  1  0.49180300  0.04738100  0.36115700  1
  C  C11  1  0.95261900  0.50819700  0.13884300  1
  Ni  Ni12  1  0.23805500  0.07524900  0.13987300  1
  Ni  Ni13  1  0.92475100  0.76194500  0.36012700  1
  Ni  Ni14  1  0.76194500  0.92475100  0.86012700  1
  Ni  Ni15  1  0.07524900  0.23805500  0.63987300  1
  Cu  Cu16  1  0.79498700  0.30873100  0.60576400  1
  Cu  Cu17  1  0.20501300  0.69126900  0.39423600  1
  Cu  Cu18  1  0.86566100  0.74010200  0.97140900  1
  Cu  Cu19  1  0.25989800  0.13433900  0.52859100  1
  Cu  Cu20  1  0.13433900  0.25989800  0.02859100  1
  Cu  Cu21  1  0.74010200  0.86566100  0.47140900  1
  Cu  Cu22  1  0.75728300  0.50710200  0.32015100  1
  Cu  Cu23  1  0.49289800  0.24271700  0.17984900  1
  Cu  Cu24  1  0.24271700  0.49289800  0.67984900  1
  Cu  Cu25  1  0.50710200  0.75728300  0.82015100  1
  Cu  Cu26  1  0.96156400  0.03843600  0.25000000  1
  Cu  Cu27  1  0.03843600  0.96156400  0.75000000  1
  Cu  Cu28  1  0.30873100  0.79498700  0.10576400  1
  Cu  Cu29  1  0.69126900  0.20501300  0.89423600  1
