# generated using pymatgen
data_Cu9(Ni2C)4
_symmetry_space_group_name_H-M   'P 1'
_cell_length_a   6.43301000
_cell_length_b   6.58094992
_cell_length_c   13.01484084
_cell_angle_alpha   78.34676265
_cell_angle_beta   88.49857674
_cell_angle_gamma   83.75776381
_symmetry_Int_Tables_number   1
_chemical_formula_structural   Cu9(Ni2C)4
_chemical_formula_sum   'Cu9 Ni8 C4'
_cell_volume   536.42594055
_cell_formula_units_Z   1
loop_
 _symmetry_equiv_pos_site_id
 _symmetry_equiv_pos_as_xyz
  1  'x, y, z'
loop_
 _atom_site_type_symbol
 _atom_site_label
 _atom_site_symmetry_multiplicity
 _atom_site_fract_x
 _atom_site_fract_y
 _atom_site_fract_z
 _atom_site_occupancy
  C  C0  1  0.64933400  0.89518900  0.39367800  1
  C  C1  1  0.35066600  0.10481100  0.60632200  1
  C  C2  1  0.36380300  0.32307700  0.15259900  1
  C  C3  1  0.63619700  0.67692300  0.84740100  1
  Ni  Ni4  1  0.23128400  0.11169500  0.06449100  1
  Ni  Ni5  1  0.15948800  0.82146900  0.63344500  1
  Ni  Ni6  1  0.84051200  0.17853100  0.36655500  1
  Ni  Ni7  1  0.63984700  0.25954300  0.64016100  1
  Ni  Ni8  1  0.75404600  0.86309500  0.22541800  1
  Ni  Ni9  1  0.24595400  0.13690500  0.77458200  1
  Ni  Ni10  1  0.76871600  0.88830500  0.93550900  1
  Ni  Ni11  1  0.36015300  0.74045700  0.35983900  1
  Cu  Cu12  1  0.50000000  0.00000000  0.50000000  1
  Cu  Cu13  1  0.19858000  0.54942500  0.14352800  1
  Cu  Cu14  1  0.80142000  0.45057500  0.85647200  1
  Cu  Cu15  1  0.60461200  0.38464500  0.10240500  1
  Cu  Cu16  1  0.60843600  0.79708900  0.71585800  1
  Cu  Cu17  1  0.80869600  0.69844300  0.46387800  1
  Cu  Cu18  1  0.19130400  0.30155700  0.53612200  1
  Cu  Cu19  1  0.39538800  0.61535500  0.89759500  1
  Cu  Cu20  1  0.39156400  0.20291100  0.28414200  1
