# generated using pymatgen
data_CuNiC11
_symmetry_space_group_name_H-M   'P 1'
_cell_length_a   17.61035124
_cell_length_b   8.86495071
_cell_length_c   22.08584393
_cell_angle_alpha   89.60462008
_cell_angle_beta   89.06803458
_cell_angle_gamma   119.83844081
_symmetry_Int_Tables_number   1
_chemical_formula_structural   CuNiC11
_chemical_formula_sum   'Cu18 Ni18 C198'
_cell_volume   2990.00102994
_cell_formula_units_Z   18
loop_
 _symmetry_equiv_pos_site_id
 _symmetry_equiv_pos_as_xyz
  1  'x, y, z'
loop_
 _atom_site_type_symbol
 _atom_site_label
 _atom_site_symmetry_multiplicity
 _atom_site_fract_x
 _atom_site_fract_y
 _atom_site_fract_z
 _atom_site_occupancy
  C  C0  1  0.31774045  0.00061828  0.25005245  1
  C  C1  1  0.81837181  0.00146934  0.25214307  1
  C  C2  1  0.18396548  0.36537771  0.25138575  1
  C  C3  1  0.68554500  0.37174894  0.24279590  1
  C  C4  1  0.99766382  0.63103722  0.24796071  1
  C  C5  1  0.49703244  0.61989579  0.25320878  1
  C  C6  1  0.31498117  0.62768784  0.74983760  1
  C  C7  1  0.80825157  0.61830774  0.74944872  1
  C  C8  1  0.99639037  0.35581808  0.74951024  1
  C  C9  1  0.68260680  0.00559260  0.75486353  1
  C  C10  1  0.16194579  0.34923335  0.58005099  1
  C  C11  1  0.01329854  0.69361732  0.57974573  1
  C  C12  1  0.33300447  0.96629516  0.58528529  1
  C  C13  1  0.82912781  0.96507205  0.57745344  1
  C  C14  1  0.83306654  0.68911955  0.07602160  1
  C  C15  1  0.16902199  0.30378559  0.91140812  1
  C  C16  1  0.67021447  0.30514437  0.91623488  1
  C  C17  1  0.35500403  0.66524468  0.41759264  1
  C  C18  1  0.99843557  0.99564167  0.49069542  1
  C  C19  1  0.51073630  0.99614530  0.49858671  1
  C  C20  1  0.99335447  0.98103179  0.99428605  1
  C  C21  1  0.49454113  0.97497761  0.99633619  1
  C  C22  1  0.33614181  0.32864979  0.83362556  1
  C  C23  1  0.83136645  0.33049077  0.83681463  1
  C  C24  1  0.33878594  0.33077399  0.33572715  1
  C  C25  1  0.83770066  0.33952875  0.33540285  1
  C  C26  1  0.16165512  0.66402517  0.16315058  1
  C  C27  1  0.65468193  0.64684547  0.16023949  1
  C  C28  1  0.16945243  0.67483830  0.66537847  1
  C  C29  1  0.65686985  0.63409683  0.66707280  1
  C  C30  1  0.99854175  0.00547707  0.64429854  1
  C  C31  1  0.00052633  0.99446958  0.14847884  1
  C  C32  1  0.49590666  0.00137491  0.14159894  1
  C  C33  1  0.99743681  0.00080295  0.34136545  1
  C  C34  1  0.49608164  0.98140208  0.35147469  1
  C  C35  1  0.99047126  0.00312477  0.85061195  1
  C  C36  1  0.49749758  0.98918359  0.85206227  1
  C  C37  1  0.50215168  0.00189276  0.64891796  1
  C  C38  1  0.31624736  0.31924730  0.68137193  1
  C  C39  1  0.82491964  0.33125987  0.68321166  1
  C  C40  1  0.34408713  0.34512523  0.19149036  1
  C  C41  1  0.84647829  0.36686477  0.18128116  1
  C  C42  1  0.34418394  0.37200247  0.98125671  1
  C  C43  1  0.83546111  0.36917910  0.98468173  1
  C  C44  1  0.34419456  0.36164117  0.48649770  1
  C  C45  1  0.83869400  0.34341532  0.48500311  1
  C  C46  1  0.17084049  0.67714790  0.01586657  1
  C  C47  1  0.66570522  0.65375513  0.02095217  1
  C  C48  1  0.16888587  0.66726467  0.52377067  1
  C  C49  1  0.66355375  0.65881883  0.51434818  1
  C  C50  1  0.16207360  0.66230199  0.30866854  1
  C  C51  1  0.65880056  0.64027183  0.31659193  1
  C  C52  1  0.17136736  0.65789058  0.81939085  1
  C  C53  1  0.67186626  0.65187373  0.81369494  1
  Ni  Ni54  1  0.14813064  0.00569287  0.25308632  1
  Ni  Ni55  1  0.35283162  0.70554300  0.25377253  1
  Ni  Ni56  1  0.85057132  0.70399566  0.25586152  1
  Ni  Ni57  1  0.99503411  0.28911407  0.25073617  1
  Ni  Ni58  1  0.50124611  0.28267853  0.25497111  1
  Ni  Ni59  1  0.14629800  0.28913861  0.75546125  1
  Ni  Ni60  1  0.63790725  0.28209590  0.75025865  1
  Ni  Ni61  1  0.84929758  0.00337233  0.75137640  1
  Ni  Ni62  1  0.97417719  0.33782216  0.58247041  1
  Ni  Ni63  1  0.19464304  0.04923822  0.57912037  1
  Ni  Ni64  1  0.34161772  0.64017451  0.58478186  1
  Ni  Ni65  1  0.82493226  0.61507159  0.58229742  1
  Ni  Ni66  1  0.48257013  0.62002363  0.08398727  1
  Ni  Ni67  1  0.98954975  0.63103642  0.08101001  1
  Ni  Ni68  1  0.69061205  0.33274919  0.08303384  1
  Ni  Ni69  1  0.31595815  0.67263368  0.91651189  1
  Ni  Ni70  1  0.81651495  0.67452266  0.91679681  1
  Ni  Ni71  1  0.52302920  0.66892953  0.41717870  1
  Cu  Cu72  1  0.64476925  0.00051086  0.24930285  1
  Cu  Cu73  1  0.00426081  0.71407562  0.75247386  1
  Cu  Cu74  1  0.49880667  0.70243486  0.75000138  1
  Cu  Cu75  1  0.35296000  0.00516614  0.75053419  1
  Cu  Cu76  1  0.47909656  0.33659525  0.58516491  1
  Cu  Cu77  1  0.68495929  0.04021951  0.58210032  1
  Cu  Cu78  1  0.33020687  0.04756075  0.08190088  1
  Cu  Cu79  1  0.83433568  0.05158937  0.08324294  1
  Cu  Cu80  1  0.18856285  0.33421537  0.08228598  1
  Cu  Cu81  1  0.01860334  0.37643254  0.91773937  1
  Cu  Cu82  1  0.51911327  0.37494925  0.91585023  1
  Cu  Cu83  1  0.16767924  0.95654759  0.91594665  1
  Cu  Cu84  1  0.66741548  0.95265394  0.91552734  1
  Cu  Cu85  1  0.31000689  0.95909277  0.41683016  1
  Cu  Cu86  1  0.81541269  0.96621921  0.41656991  1
  Cu  Cu87  1  0.16270204  0.37276422  0.41654033  1
  Cu  Cu88  1  0.66977967  0.36811473  0.41785019  1
  Cu  Cu89  1  0.02038926  0.66704434  0.41731707  1
  C  C90  1  0.10790439  0.05893592  0.31012579  1
  C  C91  1  0.60710577  0.03359446  0.30465196  1
  C  C92  1  0.41363700  0.77756834  0.31283725  1
  C  C93  1  0.92016864  0.78681678  0.30941553  1
  C  C94  1  0.48583518  0.15730515  0.31292805  1
  C  C95  1  0.97109889  0.16116338  0.30917163  1
  C  C96  1  0.10024764  0.17278338  0.81586943  1
  C  C97  1  0.59732551  0.15578806  0.81144852  1
  C  C98  1  0.47735646  0.77861638  0.80340380  1
  C  C99  1  0.98970516  0.79906934  0.80436291  1
  C  C100  1  0.40606054  0.02243717  0.80365475  1
  C  C101  1  0.91712018  0.05103146  0.80554575  1
  C  C102  1  0.38844557  0.96603960  0.69423789  1
  C  C103  1  0.89652817  0.96275787  0.69158048  1
  C  C104  1  0.08382426  0.19145875  0.69519039  1
  C  C105  1  0.58039428  0.18670722  0.69151919  1
  C  C106  1  0.01518141  0.81426841  0.69422253  1
  C  C107  1  0.51502823  0.81371245  0.69490100  1
  C  C108  1  0.40086535  0.84178549  0.19612286  1
  C  C109  1  0.89582487  0.83012631  0.19303910  1
  C  C110  1  0.01663885  0.19588794  0.19281538  1
  C  C111  1  0.51850154  0.19384316  0.19446407  1
  C  C112  1  0.08017015  0.96203747  0.19490940  1
  C  C113  1  0.58787418  0.97071673  0.19615609  1
  C  C114  1  0.43744479  0.36123986  0.63998866  1
  C  C115  1  0.93406314  0.37604170  0.64349072  1
  C  C116  1  0.25425904  0.11627709  0.63918875  1
  C  C117  1  0.73850635  0.11465963  0.63758487  1
  C  C118  1  0.31669793  0.51174216  0.64466470  1
  C  C119  1  0.81200449  0.51195669  0.64633758  1
  C  C120  1  0.44174111  0.50640458  0.14663233  1
  C  C121  1  0.95326631  0.53098420  0.14637180  1
  C  C122  1  0.32052343  0.12179001  0.13919972  1
  C  C123  1  0.82515995  0.12940472  0.14024238  1
  C  C124  1  0.23809801  0.34961269  0.13725809  1
  C  C125  1  0.75034489  0.36357524  0.14309062  1
  C  C126  1  0.22691973  0.30313889  0.02620023  1
  C  C127  1  0.72659146  0.29062738  0.02080611  1
  C  C128  1  0.42154235  0.54608481  0.02577798  1
  C  C129  1  0.92081038  0.54818055  0.02688879  1
  C  C130  1  0.34159691  0.15423329  0.02779647  1
  C  C131  1  0.84777882  0.15881632  0.02926158  1
  C  C132  1  0.23855206  0.18686162  0.52315317  1
  C  C133  1  0.72702265  0.15009899  0.52759646  1
  C  C134  1  0.35715469  0.56382531  0.52227400  1
  C  C135  1  0.85350476  0.53797468  0.52562455  1
  C  C136  1  0.42428370  0.30296308  0.53049063  1
  C  C137  1  0.90895916  0.27618138  0.52594818  1
  C  C138  1  0.26627140  0.69802014  0.97476377  1
  C  C139  1  0.76978898  0.69843750  0.97811455  1
  C  C140  1  0.07638320  0.46595708  0.96844833  1
  C  C141  1  0.57269907  0.45345710  0.96974118  1
  C  C142  1  0.15269715  0.84899028  0.97116680  1
  C  C143  1  0.65495714  0.84343915  0.96918707  1
  C  C144  1  0.26662302  0.84389271  0.47171367  1
  C  C145  1  0.77422563  0.86175752  0.47346772  1
  C  C146  1  0.15416856  0.45720395  0.47304973  1
  C  C147  1  0.65802785  0.45583740  0.47120227  1
  C  C148  1  0.07079513  0.68193270  0.47262526  1
  C  C149  1  0.58348904  0.69490067  0.47531474  1
  C  C150  1  0.06363996  0.64808186  0.36143641  1
  C  C151  1  0.56574061  0.64362373  0.35375103  1
  C  C152  1  0.25950822  0.87600675  0.36153942  1
  C  C153  1  0.76362506  0.88064832  0.36233620  1
  C  C154  1  0.17487622  0.48453862  0.36168653  1
  C  C155  1  0.68669535  0.47488384  0.36072762  1
  C  C156  1  0.05611000  0.48060371  0.85915956  1
  C  C157  1  0.55812458  0.48641702  0.86065203  1
  C  C158  1  0.17756008  0.86966871  0.86071679  1
  C  C159  1  0.67276768  0.86956815  0.85793649  1
  C  C160  1  0.25615183  0.62694047  0.85484218  1
  C  C161  1  0.75500380  0.62957952  0.85674219  1
  C  C162  1  0.01218607  0.82484585  0.41399106  1
  C  C163  1  0.50902523  0.84197085  0.41336957  1
  C  C164  1  0.39749400  0.97008550  0.41519170  1
  C  C165  1  0.90401324  0.98240691  0.41335418  1
  C  C166  1  0.08320476  0.20087667  0.41389075  1
  C  C167  1  0.59047752  0.19735042  0.41352995  1
  C  C168  1  0.01690911  0.20655578  0.91423033  1
  C  C169  1  0.51476903  0.20312344  0.90997937  1
  C  C170  1  0.09109801  0.98308603  0.91284862  1
  C  C171  1  0.58948730  0.98107664  0.91435635  1
  C  C172  1  0.41302040  0.84682750  0.90941340  1
  C  C173  1  0.91479085  0.84705076  0.91037819  1
  C  C174  1  0.48661097  0.17602800  0.58946890  1
  C  C175  1  0.98839158  0.16487346  0.59002611  1
  C  C176  1  0.09520240  0.02655555  0.58984120  1
  C  C177  1  0.59715982  0.02242652  0.58790930  1
  C  C178  1  0.42339051  0.83957377  0.59351041  1
  C  C179  1  0.91710245  0.81306538  0.59048201  1
  C  C180  1  0.48858131  0.81351688  0.09397896  1
  C  C181  1  0.99166589  0.82411988  0.08762519  1
  C  C182  1  0.41344837  0.03242655  0.08482034  1
  C  C183  1  0.91540884  0.02833164  0.08676673  1
  C  C184  1  0.09836191  0.17450180  0.08709659  1
  C  C185  1  0.59133426  0.16196693  0.08993791  1
  C  C186  1  0.34813957  0.16575712  0.74471843  1
  C  C187  1  0.84199281  0.17801243  0.74110230  1
  C  C188  1  0.24567871  0.31953986  0.74857921  1
  C  C189  1  0.73832914  0.30709299  0.74583670  1
  C  C190  1  0.42224350  0.52707584  0.74388265  1
  C  C191  1  0.92537759  0.53840072  0.74901292  1
  C  C192  1  0.33987214  0.51240635  0.24513532  1
  C  C193  1  0.83708624  0.51013988  0.24713989  1
  C  C194  1  0.41339522  0.29901452  0.24942574  1
  C  C195  1  0.90671496  0.30335700  0.24216214  1
  C  C196  1  0.24333654  0.17210017  0.23849599  1
  C  C197  1  0.73275238  0.15422317  0.24185174  1
  C  C198  1  0.31798839  0.48639251  0.92075204  1
  C  C199  1  0.82179064  0.49164644  0.91938779  1
  C  C200  1  0.42831515  0.34583739  0.92170579  1
  C  C201  1  0.92929110  0.34818394  0.92381963  1
  C  C202  1  0.24814931  0.13031550  0.91980985  1
  C  C203  1  0.74742301  0.12682316  0.91734258  1
  C  C204  1  0.31818558  0.13081398  0.42253009  1
  C  C205  1  0.82125469  0.14011196  0.42015494  1
  C  C206  1  0.24391405  0.36133068  0.41783182  1
  C  C207  1  0.74941072  0.34936643  0.42336021  1
  C  C208  1  0.42274089  0.49211882  0.42150094  1
  C  C209  1  0.93253955  0.50470038  0.41980533  1
  C  C210  1  0.17851061  0.48932462  0.07709268  1
  C  C211  1  0.68425844  0.51054640  0.07954170  1
  C  C212  1  0.08646114  0.65379995  0.07260362  1
  C  C213  1  0.58149954  0.65397411  0.07452670  1
  C  C214  1  0.25554250  0.86911109  0.07870448  1
  C  C215  1  0.75878061  0.87291664  0.08095552  1
  C  C216  1  0.17516511  0.85007476  0.57279186  1
  C  C217  1  0.67789234  0.86648412  0.57765606  1
  C  C218  1  0.25146253  0.65557465  0.57808798  1
  C  C219  1  0.74443971  0.65642673  0.57253842  1
  C  C220  1  0.07350174  0.50225355  0.57510182  1
  C  C221  1  0.56740033  0.49146174  0.57817450  1
  C  C222  1  0.15353584  0.82843342  0.25773612  1
  C  C223  1  0.65343553  0.84272266  0.25349270  1
  C  C224  1  0.25708857  0.69223648  0.25811165  1
  C  C225  1  0.75693444  0.70055512  0.26204236  1
  C  C226  1  0.08241501  0.48001411  0.25600194  1
  C  C227  1  0.58805087  0.47857222  0.25521030  1
  C  C228  1  0.15162570  0.48355887  0.75562946  1
  C  C229  1  0.64983912  0.47740395  0.75479013  1
  C  C230  1  0.08339673  0.69594851  0.75643637  1
  C  C231  1  0.58039147  0.69655446  0.75790904  1
  C  C232  1  0.26284706  0.84622526  0.75683744  1
  C  C233  1  0.75262945  0.82975812  0.75549508  1
