# generated using pymatgen
data_CuNiC9
_symmetry_space_group_name_H-M   'P 1'
_cell_length_a   5.92098850
_cell_length_b   5.92264347
_cell_length_c   6.53580672
_cell_angle_alpha   63.05776666
_cell_angle_beta   63.14681314
_cell_angle_gamma   59.99075359
_symmetry_Int_Tables_number   1
_chemical_formula_structural   CuNiC9
_chemical_formula_sum   'Cu1 Ni1 C9'
_cell_volume   169.24167806
_cell_formula_units_Z   1
loop_
 _symmetry_equiv_pos_site_id
 _symmetry_equiv_pos_as_xyz
  1  'x, y, z'
loop_
 _atom_site_type_symbol
 _atom_site_label
 _atom_site_symmetry_multiplicity
 _atom_site_fract_x
 _atom_site_fract_y
 _atom_site_fract_z
 _atom_site_occupancy
  C  C0  1  0.19747371  0.19566296  0.41120137  1
  C  C1  1  0.74409760  0.74220017  0.77150107  1
  Ni  Ni2  1  0.36798003  0.36528487  0.90145024  1
  Cu  Cu3  1  0.52952629  0.52833480  0.41380411  1
  C  C4  1  0.99486787  0.99431779  0.01649656  1
  C  C5  1  0.25983720  0.25847741  0.73342237  1
  C  C6  1  0.25983720  0.74826202  0.73342237  1
  C  C7  1  0.74996542  0.25919158  0.73165042  1
  C  C8  1  0.76231462  0.76290585  0.21685326  1
  C  C9  1  0.76231462  0.25792727  0.21685326  1
  C  C10  1  0.25720245  0.76243530  0.21792796  1
