# generated using pymatgen
data_Cu4Ni2C25
_symmetry_space_group_name_H-M   'P 1'
_cell_length_a   6.01466020
_cell_length_b   6.06343727
_cell_length_c   15.42968103
_cell_angle_alpha   85.14671977
_cell_angle_beta   90.00731436
_cell_angle_gamma   119.76662809
_symmetry_Int_Tables_number   1
_chemical_formula_structural   Cu4Ni2C25
_chemical_formula_sum   'Cu4 Ni2 C25'
_cell_volume   486.14359325
_cell_formula_units_Z   1
loop_
 _symmetry_equiv_pos_site_id
 _symmetry_equiv_pos_as_xyz
  1  'x, y, z'
loop_
 _atom_site_type_symbol
 _atom_site_label
 _atom_site_symmetry_multiplicity
 _atom_site_fract_x
 _atom_site_fract_y
 _atom_site_fract_z
 _atom_site_occupancy
  C  C0  1  0.37768900  0.75560500  0.61770600  1
  C  C1  1  0.64733900  0.29657100  0.07557300  1
  C  C2  1  0.61236000  0.22442200  0.37679500  1
  C  C3  1  0.33957500  0.67766700  0.91773900  1
  C  C4  1  0.02321000  0.04618600  0.76480500  1
  C  C5  1  0.96321800  0.92642800  0.22613800  1
  C  C6  1  0.92079300  0.84022600  0.46148300  1
  Ni  Ni7  1  0.99518100  0.99170500  0.99858500  1
  Ni  Ni8  1  0.12484900  0.24955900  0.53520600  1
  Cu  Cu9  1  0.30673600  0.61374100  0.14314200  1
  Cu  Cu10  1  0.69456200  0.38951900  0.65989800  1
  Cu  Cu11  1  0.68263700  0.36463300  0.84906800  1
  Cu  Cu12  1  0.29231600  0.58369000  0.33718700  1
  C  C13  1  0.14426500  0.79378400  0.07421700  1
  C  C14  1  0.14430900  0.28708700  0.08068400  1
  C  C15  1  0.64936100  0.79400300  0.07401000  1
  C  C16  1  0.36322000  0.20013300  0.60512700  1
  C  C17  1  0.84170800  0.68230700  0.90745600  1
  C  C18  1  0.83512400  0.20056500  0.60413200  1
  C  C19  1  0.85534400  0.71224800  0.58644000  1
  C  C20  1  0.13731700  0.74432500  0.40251500  1
  C  C21  1  0.61005800  0.74250500  0.40142900  1
  C  C22  1  0.35443600  0.19806100  0.91756200  1
  C  C23  1  0.84561900  0.19921000  0.91741800  1
  C  C24  1  0.12187400  0.24259300  0.41089800  1
  C  C25  1  0.44891600  0.89705600  0.24427900  1
  C  C26  1  0.54170000  0.52439400  0.75066400  1
  C  C27  1  0.98298600  0.52441700  0.75039000  1
  C  C28  1  0.54238100  0.08407600  0.76277200  1
  C  C29  1  0.44904600  0.44469400  0.25300700  1
  C  C30  1  0.99562800  0.44568100  0.25349600  1
