# generated using pymatgen
data_Cu2NiC4
_symmetry_space_group_name_H-M   'P 1'
_cell_length_a   5.81182598
_cell_length_b   5.81182598
_cell_length_c   10.00616738
_cell_angle_alpha   73.11735495
_cell_angle_beta   73.11735495
_cell_angle_gamma   60.00000022
_symmetry_Int_Tables_number   1
_chemical_formula_structural   Cu2NiC4
_chemical_formula_sum   'Cu2 Ni1 C4'
_cell_volume   275.75247195
_cell_formula_units_Z   1
loop_
 _symmetry_equiv_pos_site_id
 _symmetry_equiv_pos_as_xyz
  1  'x, y, z'
loop_
 _atom_site_type_symbol
 _atom_site_label
 _atom_site_symmetry_multiplicity
 _atom_site_fract_x
 _atom_site_fract_y
 _atom_site_fract_z
 _atom_site_occupancy
  C  C0  1  0.20785500  0.20785500  0.37643500  1
  C  C1  1  0.79214500  0.79214500  0.62356500  1
  C  C2  1  0.38888800  0.38888800  0.83333600  1
  C  C3  1  0.61111200  0.61111200  0.16666400  1
  Ni  Ni4  1  0.00000000  0.00000000  0.00000000  1
  Cu  Cu5  1  0.91063100  0.91063100  0.26810700  1
  Cu  Cu6  1  0.08936900  0.08936900  0.73189300  1
