# generated using pymatgen
data_Cu(NiC2)2
_symmetry_space_group_name_H-M   'P 1'
_cell_length_a   8.04211098
_cell_length_b   8.04211098
_cell_length_c   8.04211098
_cell_angle_alpha   132.04638600
_cell_angle_beta   132.04638600
_cell_angle_gamma   70.15577510
_symmetry_Int_Tables_number   1
_chemical_formula_structural   Cu(NiC2)2
_chemical_formula_sum   'Cu1 Ni2 C4'
_cell_volume   281.16235698
_cell_formula_units_Z   1
loop_
 _symmetry_equiv_pos_site_id
 _symmetry_equiv_pos_as_xyz
  1  'x, y, z'
loop_
 _atom_site_type_symbol
 _atom_site_label
 _atom_site_symmetry_multiplicity
 _atom_site_fract_x
 _atom_site_fract_y
 _atom_site_fract_z
 _atom_site_occupancy
  Ni  Ni0  1  0.25000000  0.75000000  0.50000000  1
  Ni  Ni1  1  0.50000000  0.50000000  0.00000000  1
  Cu  Cu2  1  0.00000000  0.00000000  0.00000000  1
  C  C3  1  0.62962300  0.12998300  0.01958200  1
  C  C4  1  0.87001700  0.88959900  0.49964000  1
  C  C5  1  0.11040100  0.61004100  0.98041800  1
  C  C6  1  0.38995900  0.37037700  0.50036000  1
