# generated using pymatgen
data_Cu4NiC
_symmetry_space_group_name_H-M   'P 1'
_cell_length_a   8.91034395
_cell_length_b   8.91034365
_cell_length_c   23.72880147
_cell_angle_alpha   90.00000000
_cell_angle_beta   90.00000000
_cell_angle_gamma   120.00000114
_symmetry_Int_Tables_number   1
_chemical_formula_structural   Cu4NiC
_chemical_formula_sum   'Cu72 Ni18 C18'
_cell_volume   1631.53108336
_cell_formula_units_Z   18
loop_
 _symmetry_equiv_pos_site_id
 _symmetry_equiv_pos_as_xyz
  1  'x, y, z'
loop_
 _atom_site_type_symbol
 _atom_site_label
 _atom_site_symmetry_multiplicity
 _atom_site_fract_x
 _atom_site_fract_y
 _atom_site_fract_z
 _atom_site_occupancy
  C  C0  1  -0.00000000  0.00000000  0.49416019  1
  C  C1  1  -0.00000000  0.00000000  0.99416019  1
  C  C2  1  0.66666700  0.33333300  0.82749319  1
  C  C3  1  0.66666700  0.33333300  0.32749319  1
  C  C4  1  0.33333300  0.66666700  0.16082719  1
  C  C5  1  0.33333300  0.66666700  0.66082719  1
  C  C6  1  -0.00000000  0.00000000  0.64841743  1
  C  C7  1  -0.00000000  0.00000000  0.14841743  1
  C  C8  1  0.66666700  0.33333300  0.98175043  1
  C  C9  1  0.66666700  0.33333300  0.48175043  1
  C  C10  1  0.33333300  0.66666700  0.31508443  1
  C  C11  1  0.33333300  0.66666700  0.81508443  1
  C  C12  1  -0.00000000  0.00000000  0.34958921  1
  C  C13  1  -0.00000000  0.00000000  0.84958921  1
  C  C14  1  0.66666700  0.33333300  0.68292221  1
  C  C15  1  0.66666700  0.33333300  0.18292221  1
  C  C16  1  0.33333300  0.66666700  0.01625621  1
  C  C17  1  0.33333300  0.66666700  0.51625621  1
  Ni  Ni18  1  0.30166056  0.01205838  0.25133698  1
  Ni  Ni19  1  0.71039782  0.69833944  0.25133698  1
  Ni  Ni20  1  0.98794162  0.28960218  0.25133698  1
  Ni  Ni21  1  0.30166056  0.28960218  0.75133698  1
  Ni  Ni22  1  0.98794162  0.69833944  0.75133698  1
  Ni  Ni23  1  0.71039782  0.01205838  0.75133698  1
  Ni  Ni24  1  0.96832756  0.34539138  0.58466998  1
  Ni  Ni25  1  0.37706482  0.03167244  0.58466998  1
  Ni  Ni26  1  0.65460862  0.62293518  0.58466998  1
  Ni  Ni27  1  0.96832756  0.62293518  0.08466998  1
  Ni  Ni28  1  0.65460862  0.03167244  0.08466998  1
  Ni  Ni29  1  0.37706482  0.34539138  0.08466998  1
  Ni  Ni30  1  0.63499356  0.67872538  0.91800398  1
  Ni  Ni31  1  0.04373082  0.36500644  0.91800398  1
  Ni  Ni32  1  0.32127462  0.95626918  0.91800398  1
  Ni  Ni33  1  0.63499356  0.95626918  0.41800398  1
  Ni  Ni34  1  0.32127462  0.36500644  0.41800398  1
  Ni  Ni35  1  0.04373082  0.67872538  0.41800398  1
  Cu  Cu36  1  0.21272237  0.02646016  0.30145175  1
  Cu  Cu37  1  0.81373779  0.78727763  0.30145175  1
  Cu  Cu38  1  0.97353984  0.18626221  0.30145175  1
  Cu  Cu39  1  0.21272237  0.18626221  0.80145175  1
  Cu  Cu40  1  0.97353984  0.78727763  0.80145175  1
  Cu  Cu41  1  0.81373779  0.02646016  0.80145175  1
  Cu  Cu42  1  0.78855135  0.98601907  0.69962366  1
  Cu  Cu43  1  0.19746772  0.21144865  0.69962366  1
  Cu  Cu44  1  0.01398093  0.80253228  0.69962366  1
  Cu  Cu45  1  0.78855135  0.80253228  0.19962366  1
  Cu  Cu46  1  0.01398093  0.21144865  0.19962366  1
  Cu  Cu47  1  0.19746772  0.98601907  0.19962366  1
  Cu  Cu48  1  0.87938937  0.35979316  0.63478475  1
  Cu  Cu49  1  0.48040479  0.12061063  0.63478475  1
  Cu  Cu50  1  0.64020684  0.51959521  0.63478475  1
  Cu  Cu51  1  0.87938937  0.51959521  0.13478475  1
  Cu  Cu52  1  0.64020684  0.12061063  0.13478475  1
  Cu  Cu53  1  0.48040479  0.35979316  0.13478475  1
  Cu  Cu54  1  0.45521835  0.31935207  0.03295666  1
  Cu  Cu55  1  0.86413472  0.54478165  0.03295666  1
  Cu  Cu56  1  0.68064793  0.13586528  0.03295666  1
  Cu  Cu57  1  0.45521835  0.13586528  0.53295666  1
  Cu  Cu58  1  0.68064793  0.54478165  0.53295666  1
  Cu  Cu59  1  0.86413472  0.31935207  0.53295666  1
  Cu  Cu60  1  0.54605537  0.69312716  0.96811875  1
  Cu  Cu61  1  0.14707079  0.45394463  0.96811875  1
  Cu  Cu62  1  0.30687284  0.85292921  0.96811875  1
  Cu  Cu63  1  0.54605537  0.85292921  0.46811875  1
  Cu  Cu64  1  0.30687284  0.45394463  0.46811875  1
  Cu  Cu65  1  0.14707079  0.69312716  0.46811875  1
  Cu  Cu66  1  0.12188435  0.65268607  0.36629066  1
  Cu  Cu67  1  0.53080072  0.87811565  0.36629066  1
  Cu  Cu68  1  0.34731393  0.46919928  0.36629066  1
  Cu  Cu69  1  0.12188435  0.46919928  0.86629066  1
  Cu  Cu70  1  0.34731393  0.87811565  0.86629066  1
  Cu  Cu71  1  0.53080072  0.65268607  0.86629066  1
  Cu  Cu72  1  0.02685831  0.83458697  0.41172328  1
  Cu  Cu73  1  0.80772866  0.97314169  0.41172328  1
  Cu  Cu74  1  0.16541303  0.19227134  0.41172328  1
  Cu  Cu75  1  0.02685831  0.19227134  0.91172328  1
  Cu  Cu76  1  0.16541303  0.97314169  0.91172328  1
  Cu  Cu77  1  0.80772866  0.83458697  0.91172328  1
  Cu  Cu78  1  0.98827910  0.18835347  0.58847538  1
  Cu  Cu79  1  0.20007437  0.01172090  0.58847538  1
  Cu  Cu80  1  0.81164653  0.79992563  0.58847538  1
  Cu  Cu81  1  0.98827910  0.79992563  0.08847538  1
  Cu  Cu82  1  0.81164653  0.01172090  0.08847538  1
  Cu  Cu83  1  0.20007437  0.18835347  0.08847538  1
  Cu  Cu84  1  0.69352531  0.16791997  0.74505628  1
  Cu  Cu85  1  0.47439566  0.30647469  0.74505628  1
  Cu  Cu86  1  0.83208003  0.52560434  0.74505628  1
  Cu  Cu87  1  0.69352531  0.52560434  0.24505628  1
  Cu  Cu88  1  0.83208003  0.30647469  0.24505628  1
  Cu  Cu89  1  0.47439566  0.16791997  0.24505628  1
  Cu  Cu90  1  0.65494610  0.52168647  0.92180838  1
  Cu  Cu91  1  0.86674137  0.34505390  0.92180838  1
  Cu  Cu92  1  0.47831353  0.13325863  0.92180838  1
  Cu  Cu93  1  0.65494610  0.13325863  0.42180838  1
  Cu  Cu94  1  0.47831353  0.34505390  0.42180838  1
  Cu  Cu95  1  0.86674137  0.52168647  0.42180838  1
  Cu  Cu96  1  0.36019131  0.50125397  0.07839028  1
  Cu  Cu97  1  0.14106166  0.63980869  0.07839028  1
  Cu  Cu98  1  0.49874603  0.85893834  0.07839028  1
  Cu  Cu99  1  0.36019131  0.85893834  0.57839028  1
  Cu  Cu100  1  0.49874603  0.63980869  0.57839028  1
  Cu  Cu101  1  0.14106166  0.50125397  0.57839028  1
  Cu  Cu102  1  0.32161210  0.85502047  0.25514238  1
  Cu  Cu103  1  0.53340737  0.67838790  0.25514238  1
  Cu  Cu104  1  0.14497953  0.46659263  0.25514238  1
  Cu  Cu105  1  0.32161210  0.46659263  0.75514238  1
  Cu  Cu106  1  0.14497953  0.67838790  0.75514238  1
  Cu  Cu107  1  0.53340737  0.85502047  0.75514238  1
