# generated using pymatgen
data_Cu6NiC33
_symmetry_space_group_name_H-M   'P 1'
_cell_length_a   9.10560437
_cell_length_b   9.10694462
_cell_length_c   22.40666908
_cell_angle_alpha   90.00674288
_cell_angle_beta   90.03211594
_cell_angle_gamma   119.91584315
_symmetry_Int_Tables_number   1
_chemical_formula_structural   Cu6NiC33
_chemical_formula_sum   'Cu18 Ni3 C99'
_cell_volume   1610.48601036
_cell_formula_units_Z   3
loop_
 _symmetry_equiv_pos_site_id
 _symmetry_equiv_pos_as_xyz
  1  'x, y, z'
loop_
 _atom_site_type_symbol
 _atom_site_label
 _atom_site_symmetry_multiplicity
 _atom_site_fract_x
 _atom_site_fract_y
 _atom_site_fract_z
 _atom_site_occupancy
  C  C0  1  0.00975649  0.00095678  0.49980569  1
  C  C1  1  0.98569905  0.98694387  0.99711515  1
  C  C2  1  0.66667082  0.33240085  0.83336954  1
  C  C3  1  0.66678419  0.33294904  0.32507114  1
  C  C4  1  0.35118037  0.66734710  0.16155796  1
  C  C5  1  0.31716559  0.65045108  0.66431179  1
  C  C6  1  0.64130593  0.01692138  0.24353267  1
  C  C7  1  0.37405774  0.35829094  0.24337993  1
  C  C8  1  0.98545061  0.62432880  0.24303267  1
  C  C9  1  0.62996388  0.62002396  0.74516503  1
  C  C10  1  0.98715638  0.36771262  0.74585915  1
  C  C11  1  0.38222006  0.01102275  0.74602286  1
  C  C12  1  0.66216742  0.97063717  0.58768756  1
  C  C13  1  0.31174182  0.97580436  0.08226889  1
  C  C14  1  0.02511601  0.33958679  0.08236977  1
  C  C15  1  0.96287448  0.28582833  0.41119422  1
  C  C16  1  0.32418110  0.03606882  0.41122551  1
  C  C17  1  0.71329219  0.67807497  0.41216122  1
  C  C18  1  0.00078236  0.00089741  0.85775105  1
  C  C19  1  0.00321646  0.99956409  0.64357355  1
  C  C20  1  0.99766002  0.99746861  0.14596807  1
  C  C21  1  0.66737167  0.33466666  0.97775266  1
  C  C22  1  0.66634824  0.33454675  0.48215862  1
  C  C23  1  0.33594355  0.66635942  0.01699101  1
  C  C24  1  0.33067333  0.66338614  0.52237292  1
  C  C25  1  0.33291154  0.66654404  0.31074376  1
  C  C26  1  0.33379941  0.66685381  0.81294969  1
  Ni  Ni27  1  0.99951671  0.99968211  0.35312475  1
  Ni  Ni28  1  0.66773389  0.33537451  0.68536759  1
  Ni  Ni29  1  0.66534924  0.33430877  0.17989416  1
  Cu  Cu30  1  0.29414453  -0.00037303  0.25216044  1
  Cu  Cu31  1  0.70646088  0.70739214  0.25306252  1
  Cu  Cu32  1  0.00156208  0.29449738  0.25167185  1
  Cu  Cu33  1  0.28312041  0.28844027  0.75098603  1
  Cu  Cu34  1  0.00406465  0.71539099  0.75166415  1
  Cu  Cu35  1  0.71067992  0.99515065  0.75021297  1
  Cu  Cu36  1  0.96308268  0.33417651  0.58614036  1
  Cu  Cu37  1  0.37106846  0.03956106  0.58468819  1
  Cu  Cu38  1  0.66761745  0.62878436  0.58587504  1
  Cu  Cu39  1  0.96107870  0.62869347  0.08284577  1
  Cu  Cu40  1  0.66548629  0.03679850  0.08324766  1
  Cu  Cu41  1  0.37255488  0.33604174  0.08413493  1
  Cu  Cu42  1  0.62503396  0.66376435  0.91474995  1
  Cu  Cu43  1  0.03823046  0.37526174  0.91584836  1
  Cu  Cu44  1  0.33547982  0.96045169  0.91628891  1
  Cu  Cu45  1  0.61969276  0.95934735  0.41803956  1
  Cu  Cu46  1  0.34085607  0.38097754  0.41650128  1
  Cu  Cu47  1  0.04133063  0.66066054  0.41694343  1
  C  C48  1  0.22082624  0.03068183  0.31364109  1
  C  C49  1  0.80701688  0.77582543  0.31547102  1
  C  C50  1  0.96853751  0.18986688  0.31323239  1
  C  C51  1  0.18307111  0.17177773  0.80865008  1
  C  C52  1  0.99056091  0.81776285  0.80910789  1
  C  C53  1  0.83079712  0.00998158  0.80670287  1
  C  C54  1  0.79967215  0.97068079  0.68934849  1
  C  C55  1  0.16074557  0.19207679  0.69264926  1
  C  C56  1  0.02636078  0.83597138  0.69300363  1
  C  C57  1  0.81444087  0.83876758  0.19725414  1
  C  C58  1  0.02692408  0.19425678  0.19374676  1
  C  C59  1  0.16969228  0.97663250  0.19401218  1
  C  C60  1  0.89575947  0.36711155  0.64814413  1
  C  C61  1  0.48684743  0.10502743  0.64413548  1
  C  C62  1  0.63260309  0.52736021  0.64756183  1
  C  C63  1  0.90046725  0.51828060  0.14353684  1
  C  C64  1  0.61743880  0.09772926  0.14439509  1
  C  C65  1  0.46661138  0.36781781  0.14740399  1
  C  C66  1  0.47672019  0.30473030  0.03033523  1
  C  C67  1  0.83477535  0.52472440  0.02729671  1
  C  C68  1  0.69748290  0.17096532  0.02894329  1
  C  C69  1  0.47336153  0.16244734  0.52613328  1
  C  C70  1  0.68603135  0.52423376  0.52758976  1
  C  C71  1  0.83285379  0.30979071  0.52899902  1
  C  C72  1  0.51816499  0.68148254  0.97041932  1
  C  C73  1  0.15454271  0.47399216  0.97419295  1
  C  C74  1  0.31462747  0.84206688  0.97429614  1
  C  C75  1  0.51973285  0.84489925  0.47566914  1
  C  C76  1  0.32992586  0.48981039  0.47206287  1
  C  C77  1  0.16373432  0.67570116  0.47213796  1
  C  C78  1  0.13366921  0.63568897  0.35631063  1
  C  C79  1  0.49935985  0.86194473  0.35837036  1
  C  C80  1  0.36298838  0.49695553  0.35589199  1
  C  C81  1  0.13871970  0.49481514  0.85690786  1
  C  C82  1  0.35727703  0.86169208  0.85717864  1
  C  C83  1  0.50832781  0.64197737  0.85467515  1
  C  C84  1  0.02246341  0.82763524  0.41825582  1
  C  C85  1  0.80656460  0.97983140  0.41840058  1
  C  C86  1  0.17404445  0.19537105  0.41819848  1
  C  C87  1  0.01928172  0.18739608  0.91145273  1
  C  C88  1  0.16689053  0.97990110  0.91165485  1
  C  C89  1  0.81171648  0.83307094  0.91143679  1
  C  C90  1  0.96506832  0.15415309  0.58654304  1
  C  C91  1  0.18654008  0.02829395  0.58801732  1
  C  C92  1  0.83894225  0.81797366  0.58663901  1
  C  C93  1  0.98198104  0.81929069  0.08917754  1
  C  C94  1  0.84335932  0.03067267  0.08951335  1
  C  C95  1  0.18306379  0.15927378  0.08809325  1
  C  C96  1  0.68985557  0.16182386  0.75136222  1
  C  C97  1  0.46904269  0.30643895  0.74998606  1
  C  C98  1  0.83740081  0.52895606  0.75156829  1
  C  C99  1  0.67727827  0.51889631  0.24595203  1
  C  C100  1  0.84227745  0.32485528  0.24568815  1
  C  C101  1  0.48416535  0.15789240  0.24707949  1
  C  C102  1  0.63903929  0.49310027  0.92338711  1
  C  C103  1  0.85164126  0.35866190  0.92234311  1
  C  C104  1  0.50563976  0.14605238  0.92382970  1
  C  C105  1  0.63183467  0.14662773  0.42161134  1
  C  C106  1  0.51626429  0.37012250  0.42120283  1
  C  C107  1  0.85570868  0.48549715  0.42263493  1
  C  C108  1  0.33264518  0.49224396  0.07402389  1
  C  C109  1  0.15591059  0.66141442  0.07354857  1
  C  C110  1  0.50159580  0.84698800  0.07244051  1
  C  C111  1  0.34761573  0.85000675  0.57438062  1
  C  C112  1  0.50843224  0.66488894  0.57604374  1
  C  C113  1  0.15362479  0.49417140  0.57477991  1
  C  C114  1  0.29528175  0.81668878  0.25354185  1
  C  C115  1  0.52294650  0.70715400  0.25342546  1
  C  C116  1  0.18405801  0.47860910  0.25334347  1
  C  C117  1  0.29621485  0.47703766  0.75400451  1
  C  C118  1  0.17998423  0.70267020  0.75403083  1
  C  C119  1  0.52132277  0.82019215  0.75416119  1
