# generated using pymatgen
data_Cu2Ni8C13
_symmetry_space_group_name_H-M   'P 1'
_cell_length_a   6.52221000
_cell_length_b   7.16279000
_cell_length_c   12.35283759
_cell_angle_alpha   64.95496438
_cell_angle_beta   90.00000000
_cell_angle_gamma   90.00000000
_symmetry_Int_Tables_number   1
_chemical_formula_structural   Cu2Ni8C13
_chemical_formula_sum   'Cu4 Ni16 C26'
_cell_volume   522.82951386
_cell_formula_units_Z   2
loop_
 _symmetry_equiv_pos_site_id
 _symmetry_equiv_pos_as_xyz
  1  'x, y, z'
loop_
 _atom_site_type_symbol
 _atom_site_label
 _atom_site_symmetry_multiplicity
 _atom_site_fract_x
 _atom_site_fract_y
 _atom_site_fract_z
 _atom_site_occupancy
  C  C0  1  0.64796500  0.24771600  0.17586200  1
  C  C1  1  0.14796500  0.75228400  0.32413800  1
  C  C2  1  0.35203500  0.75228400  0.82413800  1
  C  C3  1  0.85203500  0.24771600  0.67586200  1
  C  C4  1  0.00000000  0.00000000  0.00000000  1
  C  C5  1  0.50000000  0.00000000  0.50000000  1
  Ni  Ni6  1  0.67972900  0.29318500  0.91447800  1
  Ni  Ni7  1  0.17972900  0.70681500  0.58552200  1
  Ni  Ni8  1  0.32027100  0.70681500  0.08552200  1
  Ni  Ni9  1  0.82027100  0.29318500  0.41447800  1
  Ni  Ni10  1  0.88468800  0.42619300  0.87787500  1
  Ni  Ni11  1  0.38468800  0.57380700  0.62212500  1
  Ni  Ni12  1  0.65512800  0.79993000  0.36505700  1
  Ni  Ni13  1  0.15512800  0.20007000  0.13494300  1
  Ni  Ni14  1  0.34487200  0.20007000  0.63494300  1
  Ni  Ni15  1  0.61531200  0.42619300  0.37787500  1
  Ni  Ni16  1  0.70641300  0.80067800  0.97751000  1
  Ni  Ni17  1  0.20641300  0.19932200  0.52249000  1
  Ni  Ni18  1  0.29358700  0.19932200  0.02249000  1
  Ni  Ni19  1  0.79358700  0.80067800  0.47751000  1
  Ni  Ni20  1  0.11531200  0.57380700  0.12212500  1
  Ni  Ni21  1  0.84487200  0.79993000  0.86505700  1
  Cu  Cu22  1  0.65113900  0.75319900  0.17484700  1
  Cu  Cu23  1  0.84886100  0.75319900  0.67484700  1
  Cu  Cu24  1  0.34886100  0.24680100  0.82515300  1
  Cu  Cu25  1  0.15113900  0.24680100  0.32515300  1
  C  C26  1  0.16843100  0.71385000  0.06957700  1
  C  C27  1  0.57427800  0.69186900  0.09737700  1
  C  C28  1  0.69939800  0.88533700  0.40839400  1
  C  C29  1  0.19939800  0.11466300  0.09160600  1
  C  C30  1  0.30060200  0.11466300  0.59160600  1
  C  C31  1  0.80060200  0.88533700  0.90839400  1
  C  C32  1  0.66843100  0.28615000  0.43042300  1
  C  C33  1  0.07427800  0.30813100  0.40262300  1
  C  C34  1  0.33156900  0.71385000  0.56957700  1
  C  C35  1  0.83156900  0.28615000  0.93042300  1
  C  C36  1  0.80235000  0.88245900  0.14543000  1
  C  C37  1  0.30235000  0.11754100  0.35457000  1
  C  C38  1  0.19765000  0.11754100  0.85457000  1
  C  C39  1  0.69765000  0.88245900  0.64543000  1
  C  C40  1  0.07399900  0.31664900  0.21793800  1
  C  C41  1  0.42600100  0.31664900  0.71793800  1
  C  C42  1  0.92572200  0.69186900  0.59737700  1
  C  C43  1  0.57399900  0.68335100  0.28206200  1
  C  C44  1  0.42572200  0.30813100  0.90262300  1
  C  C45  1  0.92600100  0.68335100  0.78206200  1
