# generated using pymatgen
data_Cu2NiC16
_symmetry_space_group_name_H-M   'P 1'
_cell_length_a   5.18696900
_cell_length_b   7.07326462
_cell_length_c   8.95217557
_cell_angle_alpha   108.24121810
_cell_angle_beta   90.00000000
_cell_angle_gamma   111.50979333
_symmetry_Int_Tables_number   1
_chemical_formula_structural   Cu2NiC16
_chemical_formula_sum   'Cu2 Ni1 C16'
_cell_volume   287.75569592
_cell_formula_units_Z   1
loop_
 _symmetry_equiv_pos_site_id
 _symmetry_equiv_pos_as_xyz
  1  'x, y, z'
loop_
 _atom_site_type_symbol
 _atom_site_label
 _atom_site_symmetry_multiplicity
 _atom_site_fract_x
 _atom_site_fract_y
 _atom_site_fract_z
 _atom_site_occupancy
  C  C0  1  0.70248900  0.38525700  0.08631000  1
  C  C1  1  0.31723200  0.61474200  0.41369000  1
  C  C2  1  0.72082900  0.35310600  0.59964700  1
  C  C3  1  0.36772200  0.64689400  0.90035300  1
  Ni  Ni4  1  0.40620400  0.00000000  0.25000000  1
  Cu  Cu5  1  0.90783200  0.00000000  0.25000000  1
  Cu  Cu6  1  0.06099800  0.00000000  0.75000000  1
  C  C7  1  0.69724400  0.49760000  0.86654900  1
  C  C8  1  0.24756200  0.99532400  0.90076600  1
  C  C9  1  0.24411600  0.21782300  0.31125900  1
  C  C10  1  0.76399200  0.78080300  0.68881000  1
  C  C11  1  0.19964400  0.50240000  0.63345100  1
  C  C12  1  0.25223700  0.00467600  0.59923400  1
  C  C13  1  0.82970600  0.46555900  0.36838000  1
  C  C14  1  0.68171700  0.01042600  0.09838800  1
  C  C15  1  0.36414700  0.53444100  0.13162000  1
  C  C16  1  0.67129200  0.98957400  0.40161200  1
  C  C17  1  0.98318900  0.21919700  0.81119000  1
  C  C18  1  0.02629300  0.78217700  0.18874100  1
