# generated using pymatgen
data_CuNiC15
_symmetry_space_group_name_H-M   'P 1'
_cell_length_a   8.55532287
_cell_length_b   8.55892214
_cell_length_c   22.20561396
_cell_angle_alpha   89.71887209
_cell_angle_beta   89.81106221
_cell_angle_gamma   120.21263548
_symmetry_Int_Tables_number   1
_chemical_formula_structural   CuNiC15
_chemical_formula_sum   'Cu6 Ni6 C90'
_cell_volume   1405.07485573
_cell_formula_units_Z   6
loop_
 _symmetry_equiv_pos_site_id
 _symmetry_equiv_pos_as_xyz
  1  'x, y, z'
loop_
 _atom_site_type_symbol
 _atom_site_label
 _atom_site_symmetry_multiplicity
 _atom_site_fract_x
 _atom_site_fract_y
 _atom_site_fract_z
 _atom_site_occupancy
  Ni  Ni0  1  0.99320059  0.00007410  0.35504629  1
  Ni  Ni1  1  0.00289850  0.00199073  0.85276008  1
  Ni  Ni2  1  0.67799895  0.33751022  0.68874919  1
  Ni  Ni3  1  0.65891912  0.33612710  0.18666669  1
  Ni  Ni4  1  0.65762079  0.33037584  0.97923894  1
  Ni  Ni5  1  0.33073966  0.66450317  0.81473321  1
  C  C6  1  0.95647139  0.33854177  0.58809928  1
  C  C7  1  0.39256455  0.33473449  0.08276142  1
  C  C8  1  0.63317542  0.95790015  0.41520643  1
  Cu  Cu9  1  0.99543346  0.00397504  0.64897927  1
  Cu  Cu10  1  0.00724546  0.00772746  0.14241512  1
  Cu  Cu11  1  0.67211432  0.32091741  0.47853074  1
  Cu  Cu12  1  0.33508982  0.66103369  0.02122369  1
  Cu  Cu13  1  0.33505272  0.66641166  0.52193854  1
  Cu  Cu14  1  0.33865334  0.67052308  0.31297204  1
  C  C15  1  0.29243884  0.00640215  0.25119260  1
  C  C16  1  0.71864022  0.70624411  0.24924266  1
  C  C17  1  0.99138608  0.28999252  0.25077218  1
  C  C18  1  0.29824006  0.29724666  0.75392228  1
  C  C19  1  0.00057017  0.70835387  0.75371010  1
  C  C20  1  0.70110899  0.99691315  0.75485390  1
  C  C21  1  0.38124220  0.04956454  0.58847231  1
  C  C22  1  0.66622515  0.61273956  0.58690798  1
  C  C23  1  0.94252886  0.60909052  0.08290818  1
  C  C24  1  0.66569429  0.05755564  0.08307927  1
  C  C25  1  0.63121999  0.66969577  0.91255740  1
  C  C26  1  0.03563447  0.37007567  0.91342752  1
  C  C27  1  0.33288094  0.95754437  0.91381555  1
  C  C28  1  0.32657750  0.36295838  0.41495559  1
  C  C29  1  0.03925809  0.67664808  0.41350552  1
  C  C30  1  0.20333932  0.03276410  0.30373160  1
  C  C31  1  0.83243525  0.79749098  0.30144550  1
  C  C32  1  0.96690658  0.17540162  0.30346529  1
  C  C33  1  0.20741320  0.17115450  0.80515709  1
  C  C34  1  0.97060402  0.80243317  0.80427992  1
  C  C35  1  0.82893945  0.03321643  0.80460817  1
  C  C36  1  0.76677829  0.94670331  0.69931822  1
  C  C37  1  0.18341107  0.22793424  0.69883752  1
  C  C38  1  0.04676441  0.82342498  0.69743462  1
  C  C39  1  0.78951074  0.82193209  0.19352825  1
  C  C40  1  0.03431955  0.22024386  0.19544849  1
  C  C41  1  0.17817786  0.96679157  0.19634799  1
  C  C42  1  0.85947704  0.36353582  0.64602672  1
  C  C43  1  0.49115633  0.14165026  0.64131890  1
  C  C44  1  0.63825049  0.49923295  0.64030490  1
  C  C45  1  0.86807030  0.50035438  0.13802635  1
  C  C46  1  0.64660686  0.13872467  0.13859158  1
  C  C47  1  0.50469046  0.36130529  0.14345477  1
  C  C48  1  0.47879214  0.30688708  0.02218576  1
  C  C49  1  0.84163982  0.52672767  0.02741664  1
  C  C50  1  0.70081961  0.16649338  0.02784596  1
  C  C51  1  0.44395684  0.15696456  0.53183354  1
  C  C52  1  0.69144882  0.54066984  0.52952065  1
  C  C53  1  0.84772742  0.29967164  0.52538392  1
  C  C54  1  0.56385959  0.71910327  0.96785559  1
  C  C55  1  0.15094764  0.43970483  0.96850234  1
  C  C56  1  0.28631976  0.84150057  0.97005896  1
  C  C57  1  0.54790114  0.83176764  0.47627135  1
  C  C58  1  0.28067645  0.43444699  0.46857343  1
  C  C59  1  0.14873460  0.70955845  0.46843467  1
  C  C60  1  0.11003915  0.62274988  0.36096780  1
  C  C61  1  0.50102749  0.87818399  0.35684426  1
  C  C62  1  0.36553412  0.47825068  0.36005167  1
  C  C63  1  0.12567811  0.49547310  0.86189134  1
  C  C64  1  0.36287074  0.86437474  0.86279587  1
  C  C65  1  0.50441304  0.63353299  0.86221635  1
  C  C66  1  0.03832896  0.84327756  0.40078271  1
  C  C67  1  0.82302121  0.97202888  0.40333117  1
  C  C68  1  0.17334937  0.18410490  0.40312121  1
  C  C69  1  0.01610478  0.19175041  0.90138459  1
  C  C70  1  0.17448978  0.97878107  0.90259622  1
  C  C71  1  0.81014461  0.82992723  0.90033160  1
  C  C72  1  0.97797865  0.16016862  0.59139802  1
  C  C73  1  0.19540482  0.01772665  0.59450228  1
  C  C74  1  0.83380089  0.79083109  0.59279176  1
  C  C75  1  0.95093106  0.78582925  0.08827269  1
  C  C76  1  0.82138086  0.02694352  0.08803498  1
  C  C77  1  0.18873449  0.15614288  0.08505277  1
  C  C78  1  0.68323050  0.15694368  0.74466515  1
  C  C79  1  0.47538409  0.31244514  0.74291262  1
  C  C80  1  0.83464038  0.53333533  0.74542616  1
  C  C81  1  0.70949593  0.53157461  0.24197928  1
  C  C82  1  0.83049662  0.30591712  0.24098014  1
  C  C83  1  0.47287845  0.16519048  0.24333577  1
  C  C84  1  0.65003843  0.50994223  0.92237240  1
  C  C85  1  0.85828130  0.35475167  0.92443341  1
  C  C86  1  0.49854504  0.13283763  0.92220881  1
  C  C87  1  0.63676327  0.14878884  0.41725334  1
  C  C88  1  0.49374574  0.35842668  0.42404515  1
  C  C89  1  0.85302820  0.52606477  0.42046847  1
  C  C90  1  0.36773167  0.51343261  0.07923748  1
  C  C91  1  0.12951268  0.63946527  0.07760397  1
  C  C92  1  0.49622603  0.88004888  0.07729673  1
  C  C93  1  0.37549446  0.87590413  0.58315772  1
  C  C94  1  0.50574546  0.63316016  0.58385066  1
  C  C95  1  0.15492056  0.51984977  0.58106607  1
  C  C96  1  0.30436097  0.83904664  0.25491435  1
  C  C97  1  0.53290960  0.67823195  0.25427336  1
  C  C98  1  0.15399207  0.47391582  0.25753665  1
  C  C99  1  0.31750221  0.47572774  0.76559315  1
  C  C100  1  0.15919106  0.68717244  0.76451222  1
  C  C101  1  0.52215415  0.83658794  0.76665700  1
