# generated using pymatgen
data_Cu3(NiC15)2
_symmetry_space_group_name_H-M   'P 1'
_cell_length_a   8.66353770
_cell_length_b   8.67435167
_cell_length_c   22.39102910
_cell_angle_alpha   90.12232969
_cell_angle_beta   89.56973881
_cell_angle_gamma   120.04926502
_symmetry_Int_Tables_number   1
_chemical_formula_structural   Cu3(NiC15)2
_chemical_formula_sum   'Cu9 Ni6 C90'
_cell_volume   1456.49218914
_cell_formula_units_Z   3
loop_
 _symmetry_equiv_pos_site_id
 _symmetry_equiv_pos_as_xyz
  1  'x, y, z'
loop_
 _atom_site_type_symbol
 _atom_site_label
 _atom_site_symmetry_multiplicity
 _atom_site_fract_x
 _atom_site_fract_y
 _atom_site_fract_z
 _atom_site_occupancy
  C  C0  1  0.67930912  0.33529744  0.83405819  1
  C  C1  1  0.66196803  0.34040147  0.32977314  1
  C  C2  1  0.34883222  0.67664883  0.17363960  1
  C  C3  1  0.00588416  0.99243472  0.35412981  1
  C  C4  1  0.99313477  0.00186832  0.85381403  1
  C  C5  1  0.99342624  0.99179750  0.64735037  1
  C  C6  1  0.99988912  0.99860163  0.14384907  1
  C  C7  1  0.33437565  0.66290946  0.02563346  1
  C  C8  1  0.32784510  0.66280018  0.52282917  1
  Ni  Ni9  1  0.67076199  0.33184375  0.68906264  1
  Ni  Ni10  1  0.65112119  0.32746724  0.18708299  1
  Ni  Ni11  1  0.67051538  0.32520179  0.98168196  1
  Ni  Ni12  1  0.66518416  0.33847791  0.47468107  1
  Ni  Ni13  1  0.33264475  0.66194135  0.31470239  1
  Ni  Ni14  1  0.32110384  0.66784480  0.81166683  1
  Cu  Cu15  1  0.30507660  0.99467609  0.24948716  1
  Cu  Cu16  1  0.69362916  0.69326010  0.24972390  1
  Cu  Cu17  1  0.99762870  0.69405792  0.75021817  1
  Cu  Cu18  1  0.68864746  0.99570594  0.75071859  1
  Cu  Cu19  1  0.66713581  0.06350548  0.08472781  1
  Cu  Cu20  1  0.39728037  0.33099510  0.08247075  1
  Cu  Cu21  1  0.03857594  0.39150369  0.91485206  1
  Cu  Cu22  1  0.34665471  0.38639471  0.41461100  1
  Cu  Cu23  1  0.03849691  0.64804714  0.41509493  1
  C  C24  1  0.99902894  0.30317707  0.25017219  1
  C  C25  1  0.30460588  0.30515515  0.74946260  1
  C  C26  1  0.93450020  0.32913492  0.58323855  1
  C  C27  1  0.39816833  0.06735508  0.58344514  1
  C  C28  1  0.66723842  0.60292526  0.58362178  1
  C  C29  1  0.93620317  0.60377044  0.08391919  1
  C  C30  1  0.61316083  0.64948541  0.91455263  1
  C  C31  1  0.34641451  0.96261669  0.91497307  1
  C  C32  1  0.61685264  0.96434758  0.41603924  1
  C  C33  1  0.21689637  0.03183914  0.30443860  1
  C  C34  1  0.81569837  0.78465663  0.30431001  1
  C  C35  1  0.96529224  0.18801028  0.30300557  1
  C  C36  1  0.22462936  0.18357512  0.80143024  1
  C  C37  1  0.95926084  0.78468342  0.80337682  1
  C  C38  1  0.82126866  0.04164179  0.80332672  1
  C  C39  1  0.78241514  0.96363780  0.69555736  1
  C  C40  1  0.18737512  0.22067726  0.69664953  1
  C  C41  1  0.03249458  0.81960759  0.69505712  1
  C  C42  1  0.78291156  0.81676159  0.19497380  1
  C  C43  1  0.03314702  0.22099271  0.19699879  1
  C  C44  1  0.18234887  0.96278341  0.19531141  1
  C  C45  1  0.85382327  0.35292768  0.63792235  1
  C  C46  1  0.50196237  0.14895311  0.63768978  1
  C  C47  1  0.64436161  0.49893828  0.63801597  1
  C  C48  1  0.85732694  0.50105429  0.13834785  1
  C  C49  1  0.64343642  0.14881826  0.14072638  1
  C  C50  1  0.50391569  0.36261662  0.13928311  1
  C  C51  1  0.48381172  0.31638678  0.02458051  1
  C  C52  1  0.84144994  0.52532503  0.02801203  1
  C  C53  1  0.69188023  0.16358694  0.02597937  1
  C  C54  1  0.47974142  0.17063166  0.52861548  1
  C  C55  1  0.69189018  0.52417657  0.52874757  1
  C  C56  1  0.83208895  0.30693730  0.52890184  1
  C  C57  1  0.53951815  0.68482270  0.96949389  1
  C  C58  1  0.15163358  0.47128432  0.97140422  1
  C  C59  1  0.31552842  0.85606558  0.96955847  1
  C  C60  1  0.54095201  0.85614177  0.47144611  1
  C  C61  1  0.31750551  0.46857799  0.47297186  1
  C  C62  1  0.15218549  0.68528380  0.47280240  1
  C  C63  1  0.13470868  0.62621702  0.36137718  1
  C  C64  1  0.50378936  0.87923459  0.36408950  1
  C  C65  1  0.37621542  0.50863217  0.36158117  1
  C  C66  1  0.13450576  0.50843636  0.86012238  1
  C  C67  1  0.37308550  0.87550743  0.86223344  1
  C  C68  1  0.50296076  0.62820182  0.86206755  1
  C  C69  1  0.01424877  0.81129140  0.40905071  1
  C  C70  1  0.79547876  0.98763863  0.40908388  1
  C  C71  1  0.17874897  0.20398740  0.40727237  1
  C  C72  1  0.01939915  0.20533648  0.90587826  1
  C  C73  1  0.18713196  0.98147067  0.90710622  1
  C  C74  1  0.79365250  0.81018867  0.90867615  1
  C  C75  1  0.95667675  0.17126964  0.58930885  1
  C  C76  1  0.21865350  0.04824657  0.58975990  1
  C  C77  1  0.82922406  0.78308224  0.58862497  1
  C  C78  1  0.95642830  0.78292782  0.08743269  1
  C  C79  1  0.82981344  0.03743804  0.09173852  1
  C  C80  1  0.21009244  0.16617854  0.08906802  1
  C  C81  1  0.66930366  0.16035224  0.73942320  1
  C  C82  1  0.48173459  0.32288709  0.73904666  1
  C  C83  1  0.83005920  0.51165285  0.73923349  1
  C  C84  1  0.68036811  0.51111462  0.24069453  1
  C  C85  1  0.84239008  0.32435174  0.24165076  1
  C  C86  1  0.48943500  0.16170338  0.24185071  1
  C  C87  1  0.63262526  0.49137565  0.92150787  1
  C  C88  1  0.85142024  0.36961362  0.92355316  1
  C  C89  1  0.50602090  0.14173701  0.92134257  1
  C  C90  1  0.63233189  0.14123846  0.42509182  1
  C  C91  1  0.51121346  0.36422701  0.42402027  1
  C  C92  1  0.85462089  0.48075284  0.42491891  1
  C  C93  1  0.37090799  0.49801004  0.07874381  1
  C  C94  1  0.12029076  0.62824847  0.08078168  1
  C  C95  1  0.49715566  0.87347283  0.08019219  1
  C  C96  1  0.37903741  0.88828134  0.57864310  1
  C  C97  1  0.50992341  0.62614745  0.57961299  1
  C  C98  1  0.11488755  0.49037281  0.57960583  1
  C  C99  1  0.31828454  0.82705337  0.26108767  1
  C  C100  1  0.50960537  0.67568872  0.26018217  1
  C  C101  1  0.16124141  0.47935466  0.25808838  1
  C  C102  1  0.32151062  0.47837791  0.76043297  1
  C  C103  1  0.16262520  0.67955565  0.76038322  1
  C  C104  1  0.51281535  0.82943215  0.76455463  1
