# generated using pymatgen
data_Cu2Ni3C32
_symmetry_space_group_name_H-M   'P 1'
_cell_length_a   17.70820777
_cell_length_b   8.86605820
_cell_length_c   22.99196083
_cell_angle_alpha   90.34858036
_cell_angle_beta   89.47548989
_cell_angle_gamma   119.97976997
_symmetry_Int_Tables_number   1
_chemical_formula_structural   Cu2Ni3C32
_chemical_formula_sum   'Cu12 Ni18 C192'
_cell_volume   3126.66582767
_cell_formula_units_Z   6
loop_
 _symmetry_equiv_pos_site_id
 _symmetry_equiv_pos_as_xyz
  1  'x, y, z'
loop_
 _atom_site_type_symbol
 _atom_site_label
 _atom_site_symmetry_multiplicity
 _atom_site_fract_x
 _atom_site_fract_y
 _atom_site_fract_z
 _atom_site_occupancy
  Ni  Ni0  1  0.00548741  0.64286007  0.25586931  1
  Ni  Ni1  1  0.50343010  0.36951754  0.74089905  1
  Ni  Ni2  1  0.15999395  0.31062269  0.91120019  1
  Ni  Ni3  1  0.66008101  0.30437672  0.90852308  1
  Ni  Ni4  1  0.16236170  0.02020794  0.41622365  1
  Ni  Ni5  1  0.65858773  0.00517764  0.41740221  1
  Ni  Ni6  1  0.99350686  0.98321904  0.49478789  1
  Ni  Ni7  1  0.49012112  0.00127069  0.49846881  1
  Ni  Ni8  1  0.99169616  0.00065163  0.99046514  1
  Ni  Ni9  1  0.49386982  0.00380233  0.99131439  1
  Ni  Ni10  1  0.33389974  0.33311298  0.82758059  1
  Ni  Ni11  1  0.84002728  0.33624641  0.83695195  1
  Ni  Ni12  1  0.34195742  0.34759732  0.34066024  1
  Ni  Ni13  1  0.83155700  0.33022084  0.33392071  1
  Ni  Ni14  1  0.17489870  0.68474733  0.17588512  1
  Ni  Ni15  1  0.66595237  0.68649305  0.17350272  1
  Ni  Ni16  1  0.17020354  0.64972659  0.67154272  1
  Ni  Ni17  1  0.66293898  0.64700554  0.66736950  1
  Cu  Cu18  1  0.99854010  0.00854251  0.64635676  1
  Cu  Cu19  1  0.50903037  0.01913217  0.64614174  1
  Cu  Cu20  1  0.00950597  0.00342152  0.14859318  1
  Cu  Cu21  1  0.49928795  0.98865219  0.14680491  1
  Cu  Cu22  1  0.82927821  0.33502310  0.69367896  1
  Cu  Cu23  1  0.33009513  0.32649831  0.19479533  1
  Cu  Cu24  1  0.15763901  0.65147891  0.01384843  1
  Cu  Cu25  1  0.66576080  0.65611074  0.01436522  1
  Cu  Cu26  1  0.16746620  0.67537962  0.51444926  1
  Cu  Cu27  1  0.64678370  0.64560689  0.51914650  1
  Cu  Cu28  1  0.66001195  0.67131931  0.31902672  1
  Cu  Cu29  1  0.16035101  0.64814460  0.81723097  1
  C  C30  1  0.00253005  0.99193277  0.35326665  1
  C  C31  1  0.50843635  0.99296101  0.34719643  1
  C  C32  1  0.00937071  0.02932831  0.84353259  1
  C  C33  1  0.50074672  0.01559303  0.84778710  1
  C  C34  1  0.32510808  0.32959842  0.68031907  1
  C  C35  1  0.82440577  0.31974224  0.18719818  1
  C  C36  1  0.34287932  0.33434073  0.97739167  1
  C  C37  1  0.83656231  0.32863143  0.98217554  1
  C  C38  1  0.35026694  0.35838071  0.48790735  1
  C  C39  1  0.84278906  0.34895894  0.47841854  1
  C  C40  1  0.16066914  0.67248985  0.32110666  1
  C  C41  1  0.65529264  0.64985657  0.81769767  1
  C  C42  1  0.14550215  0.98748900  0.25880112  1
  C  C43  1  0.65333680  0.01192200  0.24983241  1
  C  C44  1  0.15715228  0.29449517  0.74856073  1
  C  C45  1  0.64675635  0.30569860  0.75937028  1
  C  C46  1  0.46848752  0.32873199  0.58919445  1
  C  C47  1  0.00421256  0.34198647  0.91653786  1
  C  C48  1  0.51352847  0.35852982  0.91342656  1
  C  C49  1  0.01348595  0.66659373  0.41396535  1
  C  C50  1  0.50386856  0.66756504  0.41582195  1
  C  C51  1  0.34867910  0.71575013  0.25787821  1
  C  C52  1  0.85432881  0.70060278  0.24924803  1
  C  C53  1  0.00098669  0.29637772  0.25327201  1
  C  C54  1  0.50186201  0.28271199  0.25439991  1
  C  C55  1  0.00130038  0.72249841  0.75480916  1
  C  C56  1  0.50337445  0.71555965  0.75693458  1
  C  C57  1  0.35551593  0.00316608  0.75304593  1
  C  C58  1  0.84831639  0.98243768  0.75836955  1
  C  C59  1  0.97416466  0.33172227  0.57833364  1
  C  C60  1  0.19564880  0.05933933  0.57966926  1
  C  C61  1  0.69632540  0.05472240  0.57611382  1
  C  C62  1  0.33109002  0.60775279  0.58427937  1
  C  C63  1  0.83425522  0.61824573  0.57698740  1
  C  C64  1  0.47329667  0.61552149  0.07826326  1
  C  C65  1  0.96642142  0.60191078  0.08496947  1
  C  C66  1  0.33325932  0.04965328  0.07731709  1
  C  C67  1  0.83275571  0.05997797  0.08469228  1
  C  C68  1  0.19348782  0.33512299  0.07749506  1
  C  C69  1  0.69931084  0.33538753  0.08158860  1
  C  C70  1  0.32461195  0.66704047  0.91854452  1
  C  C71  1  0.81871970  0.66725254  0.91391451  1
  C  C72  1  0.16849611  0.98113887  0.91810178  1
  C  C73  1  0.66476139  0.96192049  0.91411465  1
  C  C74  1  0.31784961  0.96520391  0.41085567  1
  C  C75  1  0.82503391  0.97917742  0.41825937  1
  C  C76  1  0.16183451  0.36784821  0.41052322  1
  C  C77  1  0.66822093  0.35470716  0.41636316  1
  C  C78  1  0.09004318  0.01333959  0.31054337  1
  C  C79  1  0.60456316  0.02969272  0.30864087  1
  C  C80  1  0.40974004  0.81717256  0.30463097  1
  C  C81  1  0.90964944  0.78817311  0.30099212  1
  C  C82  1  0.49491682  0.17319808  0.30471150  1
  C  C83  1  0.98286755  0.17846785  0.30304060  1
  C  C84  1  0.10971866  0.18339041  0.80906347  1
  C  C85  1  0.59594605  0.17588007  0.81339453  1
  C  C86  1  0.48958806  0.80730965  0.80679581  1
  C  C87  1  0.99487807  0.82021669  0.80543278  1
  C  C88  1  0.40978121  0.01578081  0.80457323  1
  C  C89  1  0.91008386  0.00564238  0.80539374  1
  C  C90  1  0.39132741  0.97127313  0.69934838  1
  C  C91  1  0.87878354  0.95010265  0.70162459  1
  C  C92  1  0.09247225  0.20421072  0.69366550  1
  C  C93  1  0.59040439  0.23122004  0.69977629  1
  C  C94  1  0.00190933  0.80332709  0.69879573  1
  C  C95  1  0.51652733  0.80883351  0.70173971  1
  C  C96  1  0.37877658  0.80634887  0.20071945  1
  C  C97  1  0.89103649  0.80848264  0.19619268  1
  C  C98  1  0.01486601  0.22346658  0.19851002  1
  C  C99  1  0.50242750  0.20191125  0.19800722  1
  C  C100  1  0.08950345  0.94462726  0.19785990  1
  C  C101  1  0.59332504  0.97759331  0.19245461  1
  C  C102  1  0.41935436  0.34062653  0.64932506  1
  C  C103  1  0.93579596  0.34282696  0.63407833  1
  C  C104  1  0.24320753  0.14973727  0.63274087  1
  C  C105  1  0.74018654  0.13902658  0.63103593  1
  C  C106  1  0.32220944  0.50684952  0.63775296  1
  C  C107  1  0.82845126  0.52838372  0.63230146  1
  C  C108  1  0.43448649  0.52854755  0.13382291  1
  C  C109  1  0.92449835  0.50560271  0.13962224  1
  C  C110  1  0.32763162  0.12895346  0.13268886  1
  C  C111  1  0.82884387  0.15030038  0.13863201  1
  C  C112  1  0.23783436  0.34163658  0.13218604  1
  C  C113  1  0.74944029  0.34496262  0.13406207  1
  C  C114  1  0.24115942  0.32915968  0.02516210  1
  C  C115  1  0.74223204  0.32385947  0.02637365  1
  C  C116  1  0.42137208  0.51465304  0.02762909  1
  C  C117  1  0.91729470  0.51256820  0.03183902  1
  C  C118  1  0.33616103  0.15518927  0.02654518  1
  C  C119  1  0.83603337  0.15751676  0.03142365  1
  C  C120  1  0.23742069  0.15594264  0.52462132  1
  C  C121  1  0.74378155  0.16012856  0.52409201  1
  C  C122  1  0.33126989  0.51510001  0.53011096  1
  C  C123  1  0.83808280  0.51805571  0.52608223  1
  C  C124  1  0.41814842  0.32081904  0.52970916  1
  C  C125  1  0.92227719  0.32741186  0.52767702  1
  C  C126  1  0.28713177  0.70881535  0.97016982  1
  C  C127  1  0.78877787  0.71280267  0.96889030  1
  C  C128  1  0.07428425  0.41965739  0.97098648  1
  C  C129  1  0.58012367  0.43111399  0.96962380  1
  C  C130  1  0.15404650  0.87272986  0.97050892  1
  C  C131  1  0.65268310  0.86214311  0.96826292  1
  C  C132  1  0.28811529  0.86221238  0.46564482  1
  C  C133  1  0.78898841  0.86538542  0.46911134  1
  C  C134  1  0.14905688  0.44029402  0.46557145  1
  C  C135  1  0.65459506  0.43487810  0.46859780  1
  C  C136  1  0.08137128  0.72677137  0.46880660  1
  C  C137  1  0.57567969  0.72881165  0.46854284  1
  C  C138  1  0.06240596  0.63320118  0.35822662  1
  C  C139  1  0.54472704  0.61976389  0.35983736  1
  C  C140  1  0.25367563  0.86497918  0.36382429  1
  C  C141  1  0.76701371  0.90548474  0.36696354  1
  C  C142  1  0.17670549  0.48745760  0.36114569  1
  C  C143  1  0.68984982  0.46699210  0.36494979  1
  C  C144  1  0.04733912  0.47388245  0.86239856  1
  C  C145  1  0.56461731  0.49620289  0.86038995  1
  C  C146  1  0.18966948  0.90967896  0.86707418  1
  C  C147  1  0.68217244  0.87815245  0.86392765  1
  C  C148  1  0.26536759  0.62443681  0.86830621  1
  C  C149  1  0.75542974  0.63306935  0.86662188  1
  C  C150  1  0.00216001  0.84025542  0.40517912  1
  C  C151  1  0.49982943  0.84644966  0.40349238  1
  C  C152  1  0.40658052  0.00014501  0.39778422  1
  C  C153  1  0.91326780  0.00655154  0.40410802  1
  C  C154  1  0.08071644  0.19325316  0.40304966  1
  C  C155  1  0.58718293  0.18266441  0.40798326  1
  C  C156  1  0.00021429  0.15471119  0.90271947  1
  C  C157  1  0.50077814  0.16139861  0.90388529  1
  C  C158  1  0.08834177  0.99373962  0.91024309  1
  C  C159  1  0.58545653  0.97776365  0.90687131  1
  C  C160  1  0.41209906  0.81576070  0.90648835  1
  C  C161  1  0.90755656  0.80871115  0.90172059  1
  C  C162  1  0.47876103  0.15566705  0.58495228  1
  C  C163  1  0.97874778  0.16843526  0.57580245  1
  C  C164  1  0.10574020  0.03257669  0.58124610  1
  C  C165  1  0.60750587  0.03152480  0.57555085  1
  C  C166  1  0.41219880  0.77674108  0.58554598  1
  C  C167  1  0.91572598  0.79065859  0.57637619  1
  C  C168  1  0.47822284  0.78807113  0.07569562  1
  C  C169  1  0.97392344  0.77658349  0.08500752  1
  C  C170  1  0.41357513  0.03624222  0.07611367  1
  C  C171  1  0.91263804  0.04521125  0.08518020  1
  C  C172  1  0.10495788  0.17637111  0.07679382  1
  C  C173  1  0.61095408  0.18043187  0.08256950  1
  C  C174  1  0.35566452  0.17073759  0.75050192  1
  C  C175  1  0.84542591  0.14722319  0.75475186  1
  C  C176  1  0.25242648  0.30584179  0.73812603  1
  C  C177  1  0.74253132  0.32267695  0.75753161  1
  C  C178  1  0.42732059  0.53620537  0.75319233  1
  C  C179  1  0.92474878  0.54365213  0.75678050  1
  C  C180  1  0.34527396  0.54467329  0.25438544  1
  C  C181  1  0.85641885  0.53268042  0.24098640  1
  C  C182  1  0.42502989  0.30846788  0.25589530  1
  C  C183  1  0.92518980  0.32705554  0.24492847  1
  C  C184  1  0.24015042  0.16226363  0.25613541  1
  C  C185  1  0.74885347  0.19252618  0.24134724  1
  C  C186  1  0.32770062  0.50377854  0.92951085  1
  C  C187  1  0.81785114  0.49672197  0.92395324  1
  C  C188  1  0.41899197  0.34364106  0.92541715  1
  C  C189  1  0.91130852  0.32891174  0.93184667  1
  C  C190  1  0.24311382  0.16336003  0.92844604  1
  C  C191  1  0.74065404  0.14441770  0.92236909  1
  C  C192  1  0.31601733  0.13108159  0.41824477  1
  C  C193  1  0.82997810  0.15168422  0.42849831  1
  C  C194  1  0.23614288  0.33646989  0.41598552  1
  C  C195  1  0.74245904  0.31947789  0.42596960  1
  C  C196  1  0.40894771  0.49603771  0.42973124  1
  C  C197  1  0.91863637  0.49263376  0.42553971  1
  C  C198  1  0.18486395  0.49376744  0.07790998  1
  C  C199  1  0.69374856  0.49701362  0.08139704  1
  C  C200  1  0.05544394  0.62357746  0.08271738  1
  C  C201  1  0.56251536  0.64017222  0.07599207  1
  C  C202  1  0.25493119  0.87332570  0.07497589  1
  C  C203  1  0.75385734  0.88498124  0.08320169  1
  C  C204  1  0.19061046  0.88655572  0.58044789  1
  C  C205  1  0.69267388  0.88470224  0.57526671  1
  C  C206  1  0.25349518  0.63073827  0.58248675  1
  C  C207  1  0.75758767  0.64074043  0.57388528  1
  C  C208  1  0.06332151  0.48494920  0.57568946  1
  C  C209  1  0.56604736  0.50437125  0.59010716  1
  C  C210  1  0.15545914  0.81265709  0.26571709  1
  C  C211  1  0.66922975  0.84600341  0.25319111  1
  C  C212  1  0.25969087  0.68627178  0.26834483  1
  C  C213  1  0.76510187  0.66296990  0.25642027  1
  C  C214  1  0.08104472  0.47064645  0.26113429  1
  C  C215  1  0.58264864  0.45319258  0.25525745  1
  C  C216  1  0.17092744  0.49055843  0.75280006  1
  C  C217  1  0.65508093  0.49950903  0.76533967  1
  C  C218  1  0.08215856  0.71316091  0.75610262  1
  C  C219  1  0.58425893  0.70104703  0.76509580  1
  C  C220  1  0.26586482  0.85883103  0.75978372  1
  C  C221  1  0.76038331  0.83460873  0.77030917  1
