# generated using pymatgen
data_Cu(NiC9)2
_symmetry_space_group_name_H-M   'P 1'
_cell_length_a   9.34672243
_cell_length_b   9.34672208
_cell_length_c   22.84674772
_cell_angle_alpha   90.71045797
_cell_angle_beta   89.28954204
_cell_angle_gamma   120.12781047
_symmetry_Int_Tables_number   1
_chemical_formula_structural   Cu(NiC9)2
_chemical_formula_sum   'Cu6 Ni12 C108'
_cell_volume   1726.10996511
_cell_formula_units_Z   6
loop_
 _symmetry_equiv_pos_site_id
 _symmetry_equiv_pos_as_xyz
  1  'x, y, z'
loop_
 _atom_site_type_symbol
 _atom_site_label
 _atom_site_symmetry_multiplicity
 _atom_site_fract_x
 _atom_site_fract_y
 _atom_site_fract_z
 _atom_site_occupancy
  C  C0  1  0.64178672  0.00464645  0.25175234  1
  C  C1  1  0.36833507  0.36866208  0.24545574  1
  C  C2  1  0.99159730  0.62629260  0.25053118  1
  C  C3  1  0.63133792  0.63166493  0.74545574  1
  C  C4  1  0.99535355  0.35821328  0.75175234  1
  C  C5  1  0.37370740  0.00840270  0.75053118  1
  C  C6  1  0.30845372  0.33797945  0.58508534  1
  C  C7  1  0.03500207  0.70199508  0.57878874  1
  C  C8  1  0.65826430  0.95962560  0.58386418  1
  C  C9  1  0.29800492  0.96499793  0.07878874  1
  C  C10  1  0.66202055  0.69154628  0.08508534  1
  C  C11  1  0.04037440  0.34173570  0.08386418  1
  C  C12  1  0.97511972  0.67131345  0.91841934  1
  C  C13  1  0.70166807  0.03532908  0.91212274  1
  C  C14  1  0.32493030  0.29295960  0.91719818  1
  C  C15  1  0.96467092  0.29833193  0.41212274  1
  C  C16  1  0.32868655  0.02488028  0.41841934  1
  C  C17  1  0.70704040  0.67506970  0.41719818  1
  C  C18  1  0.99425379  0.99058063  0.49954165  1
  C  C19  1  0.00941937  0.00574621  0.99954165  1
  C  C20  1  0.66092079  0.32391363  0.83287465  1
  C  C21  1  0.67608637  0.33907921  0.33287465  1
  C  C22  1  0.32758679  0.65724763  0.16620865  1
  C  C23  1  0.34275237  0.67241321  0.66620865  1
  C  C24  1  0.99607693  0.99717289  0.35021918  1
  C  C25  1  0.00282711  0.00392307  0.85021918  1
  C  C26  1  0.66274393  0.33050589  0.68355218  1
  C  C27  1  0.66949411  0.33725607  0.18355218  1
  C  C28  1  0.32940993  0.66383989  0.01688618  1
  C  C29  1  0.33616011  0.67059007  0.51688618  1
  Ni  Ni30  1  0.69733172  0.70517083  0.25066948  1
  Ni  Ni31  1  0.00696693  0.30142573  0.25128746  1
  Ni  Ni32  1  0.29482917  0.30266828  0.75066948  1
  Ni  Ni33  1  0.69857427  0.99303307  0.75128746  1
  Ni  Ni34  1  0.36399872  0.03850383  0.58400248  1
  Ni  Ni35  1  0.67363393  0.63475873  0.58462046  1
  Ni  Ni36  1  0.96149617  0.63600128  0.08400248  1
  Ni  Ni37  1  0.36524127  0.32636607  0.08462046  1
  Ni  Ni38  1  0.03066472  0.37183783  0.91733648  1
  Ni  Ni39  1  0.34029993  0.96809273  0.91795446  1
  Ni  Ni40  1  0.62816217  0.96933528  0.41733648  1
  Ni  Ni41  1  0.03190727  0.65970007  0.41795446  1
  Cu  Cu42  1  0.99896799  0.00027368  0.64992136  1
  Cu  Cu43  1  -0.00027368  0.00103201  0.14992136  1
  Cu  Cu44  1  0.66563499  0.33360668  0.98325436  1
  Cu  Cu45  1  0.66639332  0.33436501  0.48325436  1
  Cu  Cu46  1  0.33230099  0.66694068  0.31658836  1
  Cu  Cu47  1  0.33305932  0.66769901  0.81658836  1
  C  C48  1  0.29312632  0.99212164  0.24986729  1
  C  C49  1  0.00787836  0.70687368  0.74986729  1
  C  C50  1  0.95979332  0.32545464  0.58320029  1
  C  C51  1  0.67454536  0.04020668  0.08320029  1
  C  C52  1  0.62645932  0.65878864  0.91653429  1
  C  C53  1  0.34121136  0.37354068  0.41653429  1
  C  C54  1  0.21911060  0.02226401  0.30478141  1
  C  C55  1  0.80986478  0.78141808  0.30788269  1
  C  C56  1  0.97987662  0.19412817  0.30907723  1
  C  C57  1  0.21858192  0.19013522  0.80788269  1
  C  C58  1  0.97773599  0.78088940  0.80478141  1
  C  C59  1  0.80587183  0.02012338  0.80907723  1
  C  C60  1  0.78621845  0.95934588  0.69204365  1
  C  C61  1  0.17296560  0.21417010  0.69214031  1
  C  C62  1  0.03602573  0.81894387  0.69457661  1
  C  C63  1  0.78582990  0.82703440  0.19214031  1
  C  C64  1  0.04065412  0.21378155  0.19204365  1
  C  C65  1  0.18105613  0.96397427  0.19457661  1
  C  C66  1  0.88577760  0.35559701  0.63811441  1
  C  C67  1  0.47653178  0.11475108  0.64121569  1
  C  C68  1  0.64654362  0.52746117  0.64241023  1
  C  C69  1  0.88524892  0.52346822  0.14121569  1
  C  C70  1  0.64440299  0.11422240  0.13811441  1
  C  C71  1  0.47253883  0.35345638  0.14241023  1
  C  C72  1  0.45288545  0.29267888  0.02537665  1
  C  C73  1  0.83963260  0.54750310  0.02547331  1
  C  C74  1  0.70269273  0.15227687  0.02790961  1
  C  C75  1  0.45249690  0.16036740  0.52547331  1
  C  C76  1  0.70732112  0.54711455  0.52537665  1
  C  C77  1  0.84772313  0.29730727  0.52790961  1
  C  C78  1  0.55244360  0.68893101  0.97144841  1
  C  C79  1  0.14319778  0.44808508  0.97454969  1
  C  C80  1  0.31320962  0.86079517  0.97574423  1
  C  C81  1  0.55191492  0.85680222  0.47454969  1
  C  C82  1  0.31106899  0.44755640  0.47144841  1
  C  C83  1  0.13920483  0.68679038  0.47574423  1
  C  C84  1  0.11955145  0.62601288  0.35871065  1
  C  C85  1  0.50629860  0.88083710  0.35880731  1
  C  C86  1  0.36935873  0.48561087  0.36124361  1
  C  C87  1  0.11916290  0.49370140  0.85880731  1
  C  C88  1  0.37398712  0.88044855  0.85871065  1
  C  C89  1  0.51438913  0.63064127  0.86124361  1
  C  C90  1  0.01302048  0.82430004  0.41380365  1
  C  C91  1  0.81604730  0.99944419  0.41322089  1
  C  C92  1  0.19310803  0.19756329  0.41037731  1
  C  C93  1  0.00055581  0.18395270  0.91322089  1
  C  C94  1  0.17569996  0.98697952  0.91380365  1
  C  C95  1  0.80243671  0.80689197  0.91037731  1
  C  C96  1  0.96778885  0.16033451  0.58663813  1
  C  C97  1  0.18076934  0.03130076  0.58861968  1
  C  C98  1  0.84696119  0.82064031  0.58759277  1
  C  C99  1  0.96869924  0.81923066  0.08861968  1
  C  C100  1  0.83966549  0.03221115  0.08663813  1
  C  C101  1  0.17935969  0.15303881  0.08759277  1
  C  C102  1  0.67968748  0.15763304  0.74713665  1
  C  C103  1  0.48271430  0.33277719  0.74655389  1
  C  C104  1  0.85977503  0.53089629  0.74371031  1
  C  C105  1  0.66722281  0.51728570  0.24655389  1
  C  C106  1  0.84236696  0.32031252  0.24713665  1
  C  C107  1  0.46910371  0.14022497  0.24371031  1
  C  C108  1  0.63445585  0.49366751  0.91997113  1
  C  C109  1  0.84743634  0.36463376  0.92195268  1
  C  C110  1  0.51362819  0.15397331  0.92092577  1
  C  C111  1  0.63536624  0.15256366  0.42195268  1
  C  C112  1  0.50633249  0.36554415  0.41997113  1
  C  C113  1  0.84602669  0.48637181  0.42092577  1
  C  C114  1  0.34635348  0.49096704  0.08047065  1
  C  C115  1  0.14938030  0.66611119  0.07988789  1
  C  C116  1  0.52644103  0.86423029  0.07704431  1
  C  C117  1  0.33388881  0.85061970  0.57988789  1
  C  C118  1  0.50903296  0.65364652  0.58047065  1
  C  C119  1  0.13576971  0.47355897  0.57704431  1
  C  C120  1  0.30112185  0.82700151  0.25330513  1
  C  C121  1  0.51410234  0.69796776  0.25528668  1
  C  C122  1  0.18029419  0.48730731  0.25425977  1
  C  C123  1  0.30203224  0.48589766  0.75528668  1
  C  C124  1  0.17299849  0.69887815  0.75330513  1
  C  C125  1  0.51269269  0.81970581  0.75425977  1
