# generated using pymatgen
data_Cu2Ni5C2
_symmetry_space_group_name_H-M   'P 1'
_cell_length_a   7.80173700
_cell_length_b   7.80173700
_cell_length_c   9.67423000
_cell_angle_alpha   90.00000000
_cell_angle_beta   90.00000000
_cell_angle_gamma   90.00000000
_symmetry_Int_Tables_number   1
_chemical_formula_structural   Cu2Ni5C2
_chemical_formula_sum   'Cu8 Ni20 C8'
_cell_volume   588.84232693
_cell_formula_units_Z   4
loop_
 _symmetry_equiv_pos_site_id
 _symmetry_equiv_pos_as_xyz
  1  'x, y, z'
loop_
 _atom_site_type_symbol
 _atom_site_label
 _atom_site_symmetry_multiplicity
 _atom_site_fract_x
 _atom_site_fract_y
 _atom_site_fract_z
 _atom_site_occupancy
  C  C0  1  0.57628100  0.17005000  0.63610200  1
  C  C1  1  0.42371900  0.82995000  0.63610200  1
  C  C2  1  0.32995000  0.92371900  0.13610200  1
  C  C3  1  0.82995000  0.57628100  0.36389800  1
  C  C4  1  0.17005000  0.42371900  0.36389800  1
  C  C5  1  0.92371900  0.67005000  0.86389800  1
  C  C6  1  0.07628100  0.32995000  0.86389800  1
  C  C7  1  0.67005000  0.07628100  0.13610200  1
  Ni  Ni8  1  0.52148400  0.79482400  0.51579600  1
  Ni  Ni9  1  0.39033700  0.71229700  0.74421100  1
  Ni  Ni10  1  0.21229700  0.89033700  0.24421100  1
  Ni  Ni11  1  0.71229700  0.60966300  0.25578900  1
  Ni  Ni12  1  0.28770300  0.39033700  0.25578900  1
  Ni  Ni13  1  0.89033700  0.78770300  0.75578900  1
  Ni  Ni14  1  0.10966300  0.21229700  0.75578900  1
  Ni  Ni15  1  0.78770300  0.10966300  0.24421100  1
  Ni  Ni16  1  0.50000000  0.00000000  0.21623400  1
  Ni  Ni17  1  0.00000000  0.50000000  0.78376600  1
  Ni  Ni18  1  0.00000000  0.50000000  0.28376600  1
  Ni  Ni19  1  0.50000000  0.00000000  0.71623400  1
  Ni  Ni20  1  0.70517600  0.97851600  0.01579600  1
  Ni  Ni21  1  0.47851600  0.20517600  0.51579600  1
  Ni  Ni22  1  0.02148400  0.70517600  0.98420400  1
  Ni  Ni23  1  0.20517600  0.52148400  0.48420400  1
  Ni  Ni24  1  0.79482400  0.47851600  0.48420400  1
  Ni  Ni25  1  0.29482400  0.02148400  0.01579600  1
  Ni  Ni26  1  0.97851600  0.29482400  0.98420400  1
  Ni  Ni27  1  0.60966300  0.28770300  0.74421100  1
  Cu  Cu28  1  0.59178500  0.25230600  0.08828400  1
  Cu  Cu29  1  0.25230600  0.40821500  0.91171600  1
  Cu  Cu30  1  0.74769400  0.59178500  0.91171600  1
  Cu  Cu31  1  0.09178500  0.24769400  0.41171600  1
  Cu  Cu32  1  0.90821500  0.75230600  0.41171600  1
  Cu  Cu33  1  0.40821500  0.74769400  0.08828400  1
  Cu  Cu34  1  0.24769400  0.90821500  0.58828400  1
  Cu  Cu35  1  0.75230600  0.09178500  0.58828400  1
