# generated using pymatgen
data_Cu4Ni2C11
_symmetry_space_group_name_H-M   'P 1'
_cell_length_a   4.48653737
_cell_length_b   5.73797155
_cell_length_c   11.07017058
_cell_angle_alpha   90.00000000
_cell_angle_beta   90.00000000
_cell_angle_gamma   112.29623575
_symmetry_Int_Tables_number   1
_chemical_formula_structural   Cu4Ni2C11
_chemical_formula_sum   'Cu4 Ni2 C11'
_cell_volume   263.67920432
_cell_formula_units_Z   1
loop_
 _symmetry_equiv_pos_site_id
 _symmetry_equiv_pos_as_xyz
  1  'x, y, z'
loop_
 _atom_site_type_symbol
 _atom_site_label
 _atom_site_symmetry_multiplicity
 _atom_site_fract_x
 _atom_site_fract_y
 _atom_site_fract_z
 _atom_site_occupancy
  C  C0  1  0.57279799  0.96799326  0.75000000  1
  Ni  Ni1  1  0.82865316  0.59254855  0.75000000  1
  Ni  Ni2  1  0.22468925  0.37870263  0.25000000  1
  Cu  Cu3  1  0.16478716  0.30621485  0.57168541  1
  Cu  Cu4  1  0.85036946  0.73485535  0.42757741  1
  Cu  Cu5  1  0.85036946  0.73485535  0.07242259  1
  Cu  Cu6  1  0.16478716  0.30621485  0.92831459  1
  C  C7  1  0.72786007  0.54307671  0.25000000  1
  C  C8  1  0.29102045  0.58808503  0.75000000  1
  C  C9  1  0.29111994  0.63016367  0.07783219  1
  C  C10  1  0.65695879  0.28681909  0.87599435  1
  C  C11  1  0.65695879  0.28681909  0.62400565  1
  C  C12  1  0.29111994  0.63016367  0.42216681  1
  C  C13  1  0.90596672  0.89375003  0.62838907  1
  C  C14  1  0.06610398  0.12341242  0.38585512  1
  C  C15  1  0.90596672  0.89375003  0.87161093  1
  C  C16  1  0.06610398  0.12341242  0.11414588  1
