# generated using pymatgen
data_Cu2Ni4C7
_symmetry_space_group_name_H-M   'P 1'
_cell_length_a   3.33807100
_cell_length_b   3.33840051
_cell_length_c   45.18232079
_cell_angle_alpha   90.01912083
_cell_angle_beta   89.99999366
_cell_angle_gamma   119.99672505
_symmetry_Int_Tables_number   1
_chemical_formula_structural   Cu2Ni4C7
_chemical_formula_sum   'Cu2 Ni4 C7'
_cell_volume   436.06122793
_cell_formula_units_Z   1
loop_
 _symmetry_equiv_pos_site_id
 _symmetry_equiv_pos_as_xyz
  1  'x, y, z'
loop_
 _atom_site_type_symbol
 _atom_site_label
 _atom_site_symmetry_multiplicity
 _atom_site_fract_x
 _atom_site_fract_y
 _atom_site_fract_z
 _atom_site_occupancy
  C  C0  1  0.00003700  0.00007300  0.37323400  1
  C  C1  1  0.66653800  0.33307600  0.05143900  1
  C  C2  1  0.66668700  0.33337200  0.13540300  1
  C  C3  1  0.33328000  0.66656100  0.09342300  1
  C  C4  1  0.66658000  0.33316100  0.27607900  1
  C  C5  1  0.33330200  0.66660400  0.47783700  1
  C  C6  1  0.66683800  0.33367900  0.65770100  1
  Ni  Ni7  1  0.33342300  0.66684600  0.31362200  1
  Ni  Ni8  1  0.33360100  0.66720200  0.69483600  1
  Ni  Ni9  1  0.33308600  0.66617200  0.23929100  1
  Ni  Ni10  1  0.33341600  0.66683200  0.62055000  1
  Cu  Cu11  1  0.66652700  0.33305200  0.44410700  1
  Cu  Cu12  1  0.66668500  0.33337100  0.51143200  1
