# generated using pymatgen
data_Cu8Ni8C9
_symmetry_space_group_name_H-M   'P 1'
_cell_length_a   9.78882706
_cell_length_b   9.87824014
_cell_length_c   3.07167300
_cell_angle_alpha   90.00000000
_cell_angle_beta   90.00000000
_cell_angle_gamma   84.49289457
_symmetry_Int_Tables_number   1
_chemical_formula_structural   Cu8Ni8C9
_chemical_formula_sum   'Cu8 Ni8 C9'
_cell_volume   295.64872075
_cell_formula_units_Z   1
loop_
 _symmetry_equiv_pos_site_id
 _symmetry_equiv_pos_as_xyz
  1  'x, y, z'
loop_
 _atom_site_type_symbol
 _atom_site_label
 _atom_site_symmetry_multiplicity
 _atom_site_fract_x
 _atom_site_fract_y
 _atom_site_fract_z
 _atom_site_occupancy
  C  C0  1  0.76322700  0.77088900  0.00000000  1
  C  C1  1  0.03410200  0.02704100  0.00000000  1
  C  C2  1  0.02456200  0.55548000  0.00000000  1
  C  C3  1  0.20746800  0.27263900  0.50000000  1
  C  C4  1  0.23386800  0.77015000  0.50000000  1
  C  C5  1  0.47512100  0.49043300  0.00000000  1
  C  C6  1  0.49798500  0.99781000  0.00000000  1
  C  C7  1  0.73363600  0.25083100  0.50000000  1
  C  C8  1  0.73141300  0.51380600  0.50000000  1
  Ni  Ni9  1  0.09215300  0.44467800  0.50000000  1
  Ni  Ni10  1  0.12701100  0.94248000  0.50000000  1
  Ni  Ni11  1  0.13546800  0.18515300  0.00000000  1
  Ni  Ni12  1  0.14798800  0.69271100  0.00000000  1
  Ni  Ni13  1  0.58111600  0.38537400  0.50000000  1
  Ni  Ni14  1  0.64537200  0.61479200  0.00000000  1
  Ni  Ni15  1  0.80730000  0.36287500  0.00000000  1
  Ni  Ni16  1  0.88207900  0.63777100  0.50000000  1
  Cu  Cu17  1  0.32732600  0.34841400  0.00000000  1
  Cu  Cu18  1  0.36489200  0.84985000  0.00000000  1
  Cu  Cu19  1  0.39645100  0.10685200  0.50000000  1
  Cu  Cu20  1  0.37921100  0.61282400  0.50000000  1
  Cu  Cu21  1  0.63516700  0.87832100  0.50000000  1
  Cu  Cu22  1  0.65416700  0.13215100  0.00000000  1
  Cu  Cu23  1  0.88468600  0.90706800  0.00000000  1
  Cu  Cu24  1  0.90490100  0.12460300  0.50000000  1
