# generated using pymatgen
data_CuNiC11
_symmetry_space_group_name_H-M   'P 1'
_cell_length_a   5.15416746
_cell_length_b   5.15416696
_cell_length_c   9.24191955
_cell_angle_alpha   89.51818323
_cell_angle_beta   89.51817654
_cell_angle_gamma   63.85029800
_symmetry_Int_Tables_number   1
_chemical_formula_structural   CuNiC11
_chemical_formula_sum   'Cu1 Ni1 C11'
_cell_volume   220.37523228
_cell_formula_units_Z   1
loop_
 _symmetry_equiv_pos_site_id
 _symmetry_equiv_pos_as_xyz
  1  'x, y, z'
loop_
 _atom_site_type_symbol
 _atom_site_label
 _atom_site_symmetry_multiplicity
 _atom_site_fract_x
 _atom_site_fract_y
 _atom_site_fract_z
 _atom_site_occupancy
  C  C0  1  0.98656600  0.98656600  0.04024200  1
  Ni  Ni1  1  0.33298800  0.33298800  0.63545600  1
  Cu  Cu2  1  0.99930600  0.99930600  0.50318100  1
  C  C3  1  0.37068600  0.37068600  0.31749400  1
  C  C4  1  0.63426700  0.63426700  0.70937700  1
  C  C5  1  0.73999100  0.29759200  0.67417800  1
  C  C6  1  0.76563900  0.76563900  0.59703500  1
  C  C7  1  0.68169100  0.68169100  0.86467800  1
  C  C8  1  0.29759200  0.73999100  0.67417800  1
  C  C9  1  0.31119200  0.31119200  0.16625900  1
  C  C10  1  0.24504000  0.24504000  0.44278700  1
  C  C11  1  0.70236800  0.24517300  0.35185300  1
  C  C12  1  0.24517300  0.70236800  0.35185300  1
