# generated using pymatgen
data_CuNiC
_symmetry_space_group_name_H-M   'P 1'
_cell_length_a   8.14045965
_cell_length_b   8.14045965
_cell_length_c   8.14045965
_cell_angle_alpha   149.75321595
_cell_angle_beta   149.75321595
_cell_angle_gamma   43.30377583
_symmetry_Int_Tables_number   1
_chemical_formula_structural   CuNiC
_chemical_formula_sum   'Cu2 Ni2 C2'
_cell_volume   136.51271333
_cell_formula_units_Z   2
loop_
 _symmetry_equiv_pos_site_id
 _symmetry_equiv_pos_as_xyz
  1  'x, y, z'
loop_
 _atom_site_type_symbol
 _atom_site_label
 _atom_site_symmetry_multiplicity
 _atom_site_fract_x
 _atom_site_fract_y
 _atom_site_fract_z
 _atom_site_occupancy
  C  C0  1  0.74977400  0.74977400  0.00000000  1
  C  C1  1  0.49977400  0.99977400  0.50000000  1
  Ni  Ni2  1  0.33103200  0.33103200  0.00000000  1
  Ni  Ni3  1  0.08103200  0.58103200  0.50000000  1
  Cu  Cu4  1  0.91629400  0.41629400  0.50000000  1
  Cu  Cu5  1  0.16629400  0.16629400  0.00000000  1
