# generated using pymatgen
data_Cu2NiC6
_symmetry_space_group_name_H-M   'P 1'
_cell_length_a   5.28168764
_cell_length_b   6.78601722
_cell_length_c   6.78601795
_cell_angle_alpha   116.54390219
_cell_angle_beta   102.78353109
_cell_angle_gamma   102.78353235
_symmetry_Int_Tables_number   1
_chemical_formula_structural   Cu2NiC6
_chemical_formula_sum   'Cu2 Ni1 C6'
_cell_volume   197.38734505
_cell_formula_units_Z   1
loop_
 _symmetry_equiv_pos_site_id
 _symmetry_equiv_pos_as_xyz
  1  'x, y, z'
loop_
 _atom_site_type_symbol
 _atom_site_label
 _atom_site_symmetry_multiplicity
 _atom_site_fract_x
 _atom_site_fract_y
 _atom_site_fract_z
 _atom_site_occupancy
  C  C0  1  0.75000000  0.58573600  0.41426400  1
  C  C1  1  0.25000000  0.35461800  0.64538200  1
  Ni  Ni2  1  0.25000000  0.75063300  0.24936700  1
  Cu  Cu3  1  0.25000000  0.01006100  0.98993900  1
  Cu  Cu4  1  0.75000000  0.01180500  0.98819500  1
  C  C5  1  0.38755200  0.91884000  0.68958500  1
  C  C6  1  0.11244800  0.31041500  0.08116000  1
  C  C7  1  0.89412300  0.71919600  0.93130300  1
  C  C8  1  0.60587700  0.06869700  0.28080400  1
