# generated using pymatgen
data_Cu3NiC11
_symmetry_space_group_name_H-M   'P 1'
_cell_length_a   5.01563095
_cell_length_b   5.37294503
_cell_length_c   6.90980101
_cell_angle_alpha   100.25931438
_cell_angle_beta   111.39332199
_cell_angle_gamma   90.34162675
_symmetry_Int_Tables_number   1
_chemical_formula_structural   Cu3NiC11
_chemical_formula_sum   'Cu3 Ni1 C11'
_cell_volume   170.09597497
_cell_formula_units_Z   1
loop_
 _symmetry_equiv_pos_site_id
 _symmetry_equiv_pos_as_xyz
  1  'x, y, z'
loop_
 _atom_site_type_symbol
 _atom_site_label
 _atom_site_symmetry_multiplicity
 _atom_site_fract_x
 _atom_site_fract_y
 _atom_site_fract_z
 _atom_site_occupancy
  Ni  Ni0  1  0.29826600  0.67410300  0.07610300  1
  Cu  Cu1  1  0.59795100  0.71377500  0.70543600  1
  Cu  Cu2  1  0.09831700  0.21495600  0.73849600  1
  Cu  Cu3  1  0.90257500  0.80106300  0.29954300  1
  C  C4  1  0.42041300  0.28188300  0.30885800  1
  C  C5  1  0.27787800  0.60014700  0.38279600  1
  C  C6  1  0.64799400  0.49280300  0.23202600  1
  C  C7  1  0.43182700  0.02130500  0.76515300  1
  C  C8  1  0.87794600  0.86365700  0.59332500  1
  C  C9  1  0.31165300  0.53870200  0.78531600  1
  C  C10  1  0.69559400  0.35080500  0.57274500  1
  C  C11  1  0.15189800  0.26931000  0.02842100  1
  C  C12  1  0.88643300  0.74276000  0.99458100  1
  C  C13  1  0.54642900  0.99953900  0.22052900  1
  C  C14  1  0.16038300  0.12269100  0.38000400  1
