# generated using pymatgen
data_CuNi5C33
_symmetry_space_group_name_H-M   'P 1'
_cell_length_a   9.10337366
_cell_length_b   9.05832094
_cell_length_c   22.95641160
_cell_angle_alpha   89.93268165
_cell_angle_beta   90.19067299
_cell_angle_gamma   119.90100337
_symmetry_Int_Tables_number   1
_chemical_formula_structural   CuNi5C33
_chemical_formula_sum   'Cu3 Ni15 C99'
_cell_volume   1641.02275805
_cell_formula_units_Z   3
loop_
 _symmetry_equiv_pos_site_id
 _symmetry_equiv_pos_as_xyz
  1  'x, y, z'
loop_
 _atom_site_type_symbol
 _atom_site_label
 _atom_site_symmetry_multiplicity
 _atom_site_fract_x
 _atom_site_fract_y
 _atom_site_fract_z
 _atom_site_occupancy
  Ni  Ni0  1  0.64533566  0.01343587  0.24403744  1
  Ni  Ni1  1  0.36908017  0.35565621  0.24399059  1
  Ni  Ni2  1  0.98695969  0.63277525  0.24443454  1
  Ni  Ni3  1  0.63440006  0.62592712  0.74782405  1
  Ni  Ni4  1  0.99073457  0.36561528  0.74811824  1
  Ni  Ni5  1  0.37801917  0.01093019  0.74392606  1
  Ni  Ni6  1  0.65923199  0.97575835  0.58388232  1
  Ni  Ni7  1  0.33301487  0.30643975  0.92234994  1
  Ni  Ni8  1  0.32457308  0.03205237  0.41463881  1
  Ni  Ni9  1  0.00055892  0.00057088  0.49471292  1
  Ni  Ni10  1  0.98520786  0.99041304  0.00282493  1
  Ni  Ni11  1  0.67919503  0.33714802  0.83939832  1
  Ni  Ni12  1  0.67840610  0.34416211  0.33137208  1
  Ni  Ni13  1  0.33361061  0.66768411  0.15858389  1
  Ni  Ni14  1  0.32354731  0.66375614  0.66101295  1
  Cu  Cu15  1  0.99124701  0.99906307  0.35538502  1
  Cu  Cu16  1  0.66505443  0.33270555  0.67924360  1
  Cu  Cu17  1  0.66747380  0.33392853  0.17478317  1
  C  C18  1  0.99249873  0.99464493  0.85817906  1
  C  C19  1  0.00939393  0.00078633  0.64362736  1
  C  C20  1  0.99951487  0.00112161  0.14500990  1
  C  C21  1  0.67655700  0.33747440  0.98342719  1
  C  C22  1  0.66719607  0.33760789  0.48302279  1
  C  C23  1  0.33478877  0.66490023  0.01694143  1
  C  C24  1  0.32819968  0.66077509  0.51846360  1
  C  C25  1  0.33304790  0.66417498  0.31628171  1
  C  C26  1  0.33172603  0.66469524  0.81929904  1
  C  C27  1  0.36830767  0.03312875  0.58309574  1
  C  C28  1  0.62518953  0.66264613  0.91720531  1
  C  C29  1  0.03700302  0.37504152  0.91612814  1
  C  C30  1  0.29226976  0.99596043  0.25225504  1
  C  C31  1  0.70351153  0.70760859  0.25027109  1
  C  C32  1  0.00426994  0.29715648  0.25019945  1
  C  C33  1  0.28385531  0.29073304  0.75240177  1
  C  C34  1  0.00735296  0.71681519  0.75148493  1
  C  C35  1  0.70972418  0.99435592  0.75065536  1
  C  C36  1  0.96535590  0.33376182  0.58434397  1
  C  C37  1  0.66673407  0.63403381  0.58409833  1
  C  C38  1  0.97118575  0.63686650  0.08385374  1
  C  C39  1  0.66534511  0.03016118  0.08400039  1
  C  C40  1  0.36355806  0.33237158  0.08260695  1
  C  C41  1  0.33608376  0.96051240  0.91657366  1
  C  C42  1  0.61965277  0.96015013  0.41953865  1
  C  C43  1  0.34311281  0.37879595  0.41777939  1
  C  C44  1  0.03986191  0.65797576  0.41741197  1
  C  C45  1  0.22134948  0.02363552  0.30840132  1
  C  C46  1  0.81034385  0.78208841  0.30414886  1
  C  C47  1  0.97414878  0.19090654  0.30401447  1
  C  C48  1  0.19595874  0.18255881  0.80639114  1
  C  C49  1  0.98998782  0.81034765  0.80423858  1
  C  C50  1  0.82410141  0.01024860  0.80273820  1
  C  C51  1  0.79064516  0.97053264  0.69441388  1
  C  C52  1  0.17159805  0.20048017  0.69801493  1
  C  C53  1  0.02748789  0.82602965  0.69650327  1
  C  C54  1  0.79206725  0.82544447  0.19654999  1
  C  C55  1  0.03209220  0.20789825  0.19637535  1
  C  C56  1  0.17199625  0.96923842  0.19949645  1
  C  C57  1  0.90841147  0.36946240  0.64221316  1
  C  C58  1  0.47382996  0.09030335  0.64318289  1
  C  C59  1  0.63446060  0.54235937  0.64197856  1
  C  C60  1  0.91126405  0.54515770  0.14167432  1
  C  C61  1  0.63685163  0.09094521  0.14222055  1
  C  C62  1  0.45704410  0.36168177  0.14003040  1
  C  C63  1  0.45744052  0.30900827  0.02961446  1
  C  C64  1  0.84624158  0.53606942  0.03288478  1
  C  C65  1  0.68859563  0.15433066  0.03317101  1
  C  C66  1  0.46968140  0.15886813  0.52741382  1
  C  C67  1  0.69304960  0.53795734  0.53305086  1
  C  C68  1  0.83986773  0.30628881  0.53365358  1
  C  C69  1  0.53006713  0.69275242  0.97045495  1
  C  C70  1  0.16724221  0.46920650  0.96879097  1
  C  C71  1  0.30698683  0.84490876  0.96817345  1
  C  C72  1  0.52126885  0.85157793  0.47231153  1
  C  C73  1  0.33004983  0.47731030  0.46936335  1
  C  C74  1  0.15450006  0.67164608  0.46886911  1
  C  C75  1  0.12612420  0.63911070  0.36085446  1
  C  C76  1  0.50853218  0.87159119  0.36370405  1
  C  C77  1  0.35814804  0.48218000  0.36116305  1
  C  C78  1  0.12264417  0.48751070  0.85607920  1
  C  C79  1  0.36033273  0.87805007  0.85997699  1
  C  C80  1  0.50845696  0.63307270  0.85762592  1
  C  C81  1  0.03495040  0.82339104  0.41724960  1
  C  C82  1  0.79392390  0.97970994  0.41936838  1
  C  C83  1  0.19245264  0.19863392  0.41772153  1
  C  C84  1  0.03241333  0.19224199  0.90877374  1
  C  C85  1  0.18007640  0.98534900  0.90831070  1
  C  C86  1  0.81373886  0.82718693  0.90984077  1
  C  C87  1  0.96767361  0.16224694  0.58839256  1
  C  C88  1  0.18141247  0.01835119  0.58777279  1
  C  C89  1  0.82501586  0.81709388  0.58803920  1
  C  C90  1  0.98205803  0.81453252  0.08783691  1
  C  C91  1  0.83032639  0.01685905  0.08763361  1
  C  C92  1  0.18504541  0.16769901  0.08755139  1
  C  C93  1  0.69259222  0.15479046  0.75076595  1
  C  C94  1  0.46263315  0.31385874  0.74921481  1
  C  C95  1  0.85062629  0.53832691  0.74927474  1
  C  C96  1  0.67028808  0.52473129  0.24340583  1
  C  C97  1  0.85512807  0.33019807  0.24359146  1
  C  C98  1  0.47292622  0.14645727  0.24455124  1
  C  C99  1  0.63034609  0.48564116  0.92473471  1
  C  C100  1  0.84900884  0.35017372  0.92446189  1
  C  C101  1  0.49108513  0.14068244  0.92397273  1
  C  C102  1  0.62481625  0.13570468  0.42340547  1
  C  C103  1  0.50866624  0.36700574  0.42257977  1
  C  C104  1  0.86375575  0.49707612  0.42375892  1
  C  C105  1  0.33967899  0.48829218  0.07277698  1
  C  C106  1  0.14798715  0.66185074  0.07111720  1
  C  C107  1  0.51057372  0.85346921  0.07221902  1
  C  C108  1  0.34842298  0.84548737  0.57176788  1
  C  C109  1  0.51522056  0.66310037  0.57208906  1
  C  C110  1  0.14479281  0.48033954  0.57172790  1
  C  C111  1  0.30295453  0.82615118  0.25616558  1
  C  C112  1  0.52486770  0.69848916  0.25623725  1
  C  C113  1  0.17387361  0.47611922  0.25563017  1
  C  C114  1  0.29708837  0.47055045  0.75505417  1
  C  C115  1  0.17303192  0.70481085  0.75499296  1
  C  C116  1  0.53006530  0.83172809  0.75626342  1
