# generated using pymatgen
data_CuNiC9
_symmetry_space_group_name_H-M   'P 1'
_cell_length_a   6.47591528
_cell_length_b   6.56059041
_cell_length_c   6.23295931
_cell_angle_alpha   124.32664038
_cell_angle_beta   123.89063961
_cell_angle_gamma   85.84628406
_symmetry_Int_Tables_number   1
_chemical_formula_structural   CuNiC9
_chemical_formula_sum   'Cu1 Ni1 C9'
_cell_volume   169.84826520
_cell_formula_units_Z   1
loop_
 _symmetry_equiv_pos_site_id
 _symmetry_equiv_pos_as_xyz
  1  'x, y, z'
loop_
 _atom_site_type_symbol
 _atom_site_label
 _atom_site_symmetry_multiplicity
 _atom_site_fract_x
 _atom_site_fract_y
 _atom_site_fract_z
 _atom_site_occupancy
  C  C0  1  0.70298500  0.38955700  0.60048000  1
  C  C1  1  0.10250400  0.78907700  0.39952000  1
  Ni  Ni2  1  0.44735100  0.76011100  0.00000000  1
  Cu  Cu3  1  0.53573700  0.33815800  0.00000000  1
  C  C4  1  0.00630700  0.02084100  0.00000000  1
  C  C5  1  0.73100100  0.85214900  0.00000000  1
  C  C6  1  0.14750300  0.73268900  0.00000000  1
  C  C7  1  0.87495500  0.31465200  0.00000000  1
  C  C8  1  0.33324800  0.08587700  0.00000000  1
  C  C9  1  0.28398700  0.31239400  0.54071100  1
  C  C10  1  0.74327600  0.77168300  0.45928900  1
