# generated using pymatgen
data_Cu3NiC30
_symmetry_space_group_name_H-M   'P 1'
_cell_length_a   8.49535775
_cell_length_b   8.45015361
_cell_length_c   21.85680499
_cell_angle_alpha   90.14906311
_cell_angle_beta   90.26048325
_cell_angle_gamma   120.09701295
_symmetry_Int_Tables_number   1
_chemical_formula_structural   Cu3NiC30
_chemical_formula_sum   'Cu9 Ni3 C90'
_cell_volume   1357.45925135
_cell_formula_units_Z   3
loop_
 _symmetry_equiv_pos_site_id
 _symmetry_equiv_pos_as_xyz
  1  'x, y, z'
loop_
 _atom_site_type_symbol
 _atom_site_label
 _atom_site_symmetry_multiplicity
 _atom_site_fract_x
 _atom_site_fract_y
 _atom_site_fract_z
 _atom_site_occupancy
  Ni  Ni0  1  0.99951034  0.99830472  0.35608423  1
  Ni  Ni1  1  0.66415893  0.33998543  0.68839243  1
  Ni  Ni2  1  0.66513970  0.33217294  0.18428130  1
  C  C3  1  0.66779864  0.62578833  0.58497047  1
  C  C4  1  0.04668860  0.38025219  0.91600391  1
  C  C5  1  0.33184772  0.95206820  0.91631104  1
  Cu  Cu6  1  0.01029194  0.00910124  0.85967673  1
  Cu  Cu7  1  0.98985530  0.98995107  0.64736682  1
  Cu  Cu8  1  0.00161808  0.00141899  0.14622630  1
  Cu  Cu9  1  0.66928852  0.32671266  0.97212314  1
  Cu  Cu10  1  0.67087271  0.34211585  0.48544702  1
  Cu  Cu11  1  0.32198898  0.66186482  0.01486847  1
  Cu  Cu12  1  0.33884455  0.66581825  0.52356179  1
  Cu  Cu13  1  0.33454765  0.66763328  0.31195600  1
  Cu  Cu14  1  0.32478520  0.67189092  0.81574714  1
  C  C15  1  0.29036688  0.99714467  0.25115587  1
  C  C16  1  0.70644639  0.71004778  0.25106162  1
  C  C17  1  0.00294083  0.29331983  0.25108181  1
  C  C18  1  0.28348917  0.28924840  0.75056564  1
  C  C19  1  0.00552904  0.71716851  0.75203975  1
  C  C20  1  0.70825455  0.99314604  0.75224390  1
  C  C21  1  0.96065253  0.33303597  0.58308816  1
  C  C22  1  0.37297083  0.04080136  0.58303536  1
  C  C23  1  0.96054259  0.62676910  0.08363510  1
  C  C24  1  0.66456686  0.03390208  0.08328140  1
  C  C25  1  0.37377854  0.33771735  0.08287101  1
  C  C26  1  0.62069796  0.66665219  0.91648736  1
  C  C27  1  0.61846081  0.96108165  0.41835188  1
  C  C28  1  0.33842955  0.38101240  0.41722412  1
  C  C29  1  0.04544809  0.65905880  0.41823940  1
  C  C30  1  0.20924303  0.02556461  0.30544497  1
  C  C31  1  0.81585711  0.79152910  0.30585963  1
  C  C32  1  0.97569148  0.18388355  0.30538863  1
  C  C33  1  0.19501549  0.17125817  0.80457889  1
  C  C34  1  0.97154960  0.80382984  0.80554293  1
  C  C35  1  0.82599941  0.02374132  0.80651352  1
  C  C36  1  0.78846299  0.95796764  0.69505105  1
  C  C37  1  0.16454698  0.20863853  0.69304238  1
  C  C38  1  0.04440601  0.83472281  0.69532377  1
  C  C39  1  0.78504945  0.83006184  0.19465307  1
  C  C40  1  0.04424159  0.21439468  0.19423511  1
  C  C41  1  0.16980706  0.95482351  0.19416251  1
  C  C42  1  0.88592385  0.36913551  0.63675243  1
  C  C43  1  0.48859045  0.10909747  0.63641390  1
  C  C44  1  0.62010976  0.50002501  0.64229332  1
  C  C45  1  0.88489804  0.51920996  0.13867858  1
  C  C46  1  0.63019648  0.10789729  0.13854361  1
  C  C47  1  0.47937503  0.36802268  0.13877554  1
  C  C48  1  0.45264633  0.29920990  0.02827807  1
  C  C49  1  0.84226069  0.54867498  0.02861632  1
  C  C50  1  0.70466201  0.15342311  0.02893650  1
  C  C51  1  0.45289010  0.15535282  0.52553591  1
  C  C52  1  0.71373902  0.54389516  0.52149496  1
  C  C53  1  0.84035973  0.28658242  0.52586317  1
  C  C54  1  0.54658424  0.70730267  0.97221789  1
  C  C55  1  0.17514663  0.45635842  0.97700560  1
  C  C56  1  0.29688876  0.83146898  0.97787034  1
  C  C57  1  0.53147755  0.84171270  0.47175381  1
  C  C58  1  0.30278345  0.46665880  0.47083232  1
  C  C59  1  0.16463389  0.69330261  0.47279674  1
  C  C60  1  0.12622644  0.62331751  0.36141215  1
  C  C61  1  0.50100376  0.88241338  0.36116466  1
  C  C62  1  0.37827359  0.50038057  0.36082846  1
  C  C63  1  0.13240297  0.50510111  0.85535003  1
  C  C64  1  0.38762096  0.87584338  0.85648376  1
  C  C65  1  0.50415287  0.62332790  0.86107588  1
  C  C66  1  0.02691658  0.81917133  0.41198787  1
  C  C67  1  0.79524019  0.97829695  0.41146987  1
  C  C68  1  0.17743072  0.20320485  0.41046928  1
  C  C69  1  0.01317129  0.17704215  0.90671337  1
  C  C70  1  0.14904105  0.96094472  0.90602864  1
  C  C71  1  0.80072151  0.82799447  0.90787770  1
  C  C72  1  0.98787167  0.17418701  0.58919126  1
  C  C73  1  0.19459607  0.02919327  0.58976244  1
  C  C74  1  0.84920030  0.82984984  0.59202585  1
  C  C75  1  0.97897274  0.81522605  0.09054037  1
  C  C76  1  0.83519849  0.01906158  0.09084374  1
  C  C77  1  0.18548706  0.16827029  0.08976079  1
  C  C78  1  0.69080737  0.15369931  0.74432449  1
  C  C79  1  0.45734019  0.29934224  0.74573282  1
  C  C80  1  0.84892966  0.53658792  0.74639096  1
  C  C81  1  0.68171751  0.53029763  0.24186237  1
  C  C82  1  0.84893728  0.31768050  0.24145426  1
  C  C83  1  0.46911066  0.15190516  0.24190809  1
  C  C84  1  0.63752198  0.50297152  0.92632049  1
  C  C85  1  0.85586467  0.37367894  0.92775964  1
  C  C86  1  0.50292858  0.15527575  0.92735905  1
  C  C87  1  0.63098130  0.14321025  0.42633124  1
  C  C88  1  0.50443839  0.36573327  0.42410216  1
  C  C89  1  0.86685997  0.48685144  0.42375070  1
  C  C90  1  0.35724758  0.50376482  0.07524155  1
  C  C91  1  0.14378901  0.64825076  0.07649116  1
  C  C92  1  0.50647562  0.84793124  0.07373748  1
  C  C93  1  0.34389342  0.85376472  0.57117896  1
  C  C94  1  0.49182087  0.64998497  0.57086954  1
  C  C95  1  0.13854996  0.50112943  0.57119139  1
  C  C96  1  0.30143951  0.82313237  0.25690973  1
  C  C97  1  0.52178753  0.69837864  0.25708449  1
  C  C98  1  0.17642256  0.47872316  0.25698151  1
  C  C99  1  0.29990101  0.47230593  0.75669327  1
  C  C100  1  0.17750974  0.70954632  0.75600935  1
  C  C101  1  0.52934971  0.82009627  0.75749452  1
