# generated using pymatgen
data_Cu2NiC16
_symmetry_space_group_name_H-M   'P 1'
_cell_length_a   9.20524259
_cell_length_b   9.23383309
_cell_length_c   23.58632420
_cell_angle_alpha   90.31279665
_cell_angle_beta   89.94164914
_cell_angle_gamma   119.96004533
_symmetry_Int_Tables_number   1
_chemical_formula_structural   Cu2NiC16
_chemical_formula_sum   'Cu12 Ni6 C96'
_cell_volume   1736.90293145
_cell_formula_units_Z   6
loop_
 _symmetry_equiv_pos_site_id
 _symmetry_equiv_pos_as_xyz
  1  'x, y, z'
loop_
 _atom_site_type_symbol
 _atom_site_label
 _atom_site_symmetry_multiplicity
 _atom_site_fract_x
 _atom_site_fract_y
 _atom_site_fract_z
 _atom_site_occupancy
  C  C0  1  0.63682194  0.99873156  0.25742288  1
  C  C1  1  0.36040034  0.36152141  0.25063481  1
  C  C2  1  0.31361903  0.34676592  0.59552543  1
  C  C3  1  0.66389832  0.94891776  0.57983238  1
  C  C4  1  0.98966710  0.68376293  0.91173333  1
  C  C5  1  0.31665742  0.29610761  0.90580115  1
  C  C6  1  0.97297180  0.96990522  0.49587476  1
  C  C7  1  0.98254080  0.00112124  0.99417990  1
  C  C8  1  0.65178051  0.31696182  0.82163773  1
  C  C9  1  0.68319042  0.33605153  0.33934033  1
  C  C10  1  0.31445652  0.66629617  0.15912030  1
  C  C11  1  0.32849972  0.65531948  0.67588199  1
  C  C12  1  0.99373939  0.99495769  0.35423130  1
  C  C13  1  0.99398960  0.00290755  0.84704680  1
  C  C14  1  0.00180610  0.99248517  0.65678615  1
  C  C15  1  0.99948033  0.99405802  0.14253439  1
  C  C16  1  0.66638684  0.34611298  0.68806358  1
  C  C17  1  0.67653665  0.34185162  0.18057291  1
  C  C18  1  0.34009131  0.67119810  0.01586087  1
  C  C19  1  0.33514436  0.66986324  0.51193036  1
  C  C20  1  0.33378750  0.67778598  0.32673871  1
  C  C21  1  0.66583109  0.32644766  0.97788697  1
  C  C22  1  0.66945075  0.34005028  0.48214095  1
  C  C23  1  0.33713049  0.66238172  0.82083315  1
  Ni  Ni24  1  0.30559497  0.31457283  0.75294899  1
  Ni  Ni25  1  0.66594505  0.62891677  0.58112761  1
  Ni  Ni26  1  0.62843365  0.65841603  0.91948423  1
  Ni  Ni27  1  0.03819370  0.37720488  0.91885960  1
  Ni  Ni28  1  0.33724049  0.96229888  0.91763958  1
  Ni  Ni29  1  0.64468678  0.98651697  0.41945998  1
  Cu  Cu30  1  0.30209439  0.00159272  0.24938059  1
  Cu  Cu31  1  0.69377823  0.69889766  0.25014666  1
  Cu  Cu32  1  0.00386831  0.29744119  0.24994176  1
  Cu  Cu33  1  0.01417176  0.69502614  0.75565035  1
  Cu  Cu34  1  0.68112381  0.98802314  0.74979940  1
  Cu  Cu35  1  0.95695273  0.33000577  0.58177105  1
  Cu  Cu36  1  0.37921722  0.04759887  0.58110125  1
  Cu  Cu37  1  0.95853031  0.62636262  0.07846927  1
  Cu  Cu38  1  0.66855640  0.04359906  0.08255310  1
  Cu  Cu39  1  0.37419650  0.33178167  0.08150448  1
  Cu  Cu40  1  0.34110870  0.35932303  0.41777346  1
  Cu  Cu41  1  0.01896541  0.65846834  0.41921242  1
  C  C42  1  0.21770834  0.01657634  0.30003300  1
  C  C43  1  0.79130632  0.77979999  0.30127175  1
  C  C44  1  0.98530876  0.19595468  0.30037254  1
  C  C45  1  0.21407249  0.21079754  0.80521788  1
  C  C46  1  0.99298726  0.77240788  0.80744669  1
  C  C47  1  0.78835739  0.00484324  0.79792145  1
  C  C48  1  0.74853042  0.96339020  0.69551803  1
  C  C49  1  0.21018328  0.24396147  0.69595565  1
  C  C50  1  0.03351298  0.79430795  0.70460491  1
  C  C51  1  0.77782340  0.79757000  0.19904021  1
  C  C52  1  0.02220502  0.21580239  0.19813581  1
  C  C53  1  0.20634717  0.98842104  0.19751816  1
  C  C54  1  0.87891300  0.34479553  0.63343405  1
  C  C55  1  0.47765566  0.12358377  0.63246141  1
  C  C56  1  0.64713660  0.52618326  0.63347669  1
  C  C57  1  0.87580050  0.53830961  0.13055375  1
  C  C58  1  0.66402756  0.11940157  0.13712961  1
  C  C59  1  0.45803353  0.33657989  0.13545928  1
  C  C60  1  0.47909724  0.32917387  0.03181079  1
  C  C61  1  0.85624790  0.52591467  0.02731158  1
  C  C62  1  0.67094579  0.15300239  0.03393380  1
  C  C63  1  0.47482830  0.15374006  0.53045525  1
  C  C64  1  0.67481806  0.52674440  0.52799780  1
  C  C65  1  0.85199899  0.32287153  0.53109281  1
  C  C66  1  0.55784373  0.68713094  0.97299646  1
  C  C67  1  0.14210289  0.45280846  0.97153504  1
  C  C68  1  0.30269443  0.85754391  0.97019225  1
  C  C69  1  0.55206227  0.87970023  0.47119451  1
  C  C70  1  0.32219887  0.44329805  0.46799142  1
  C  C71  1  0.11760464  0.67159876  0.46958093  1
  C  C72  1  0.08838054  0.63044351  0.36682708  1
  C  C73  1  0.54798323  0.91629201  0.36290663  1
  C  C74  1  0.36344595  0.45516596  0.36507397  1
  C  C75  1  0.12711766  0.49939425  0.86699650  1
  C  C76  1  0.36506204  0.87372448  0.86518075  1
  C  C77  1  0.50738504  0.62988664  0.86740690  1
  C  C78  1  0.99515122  0.80394011  0.41554139  1
  C  C79  1  0.82194620  0.01082565  0.41718139  1
  C  C80  1  0.19954575  0.18829209  0.41372609  1
  C  C81  1  0.01184536  0.20214446  0.90909332  1
  C  C82  1  0.19156328  0.99761539  0.90865389  1
  C  C83  1  0.81083440  0.79330746  0.90917711  1
  C  C84  1  0.96293694  0.17059785  0.58084996  1
  C  C85  1  0.21666482  0.04504686  0.58220532  1
  C  C86  1  0.82047366  0.80690391  0.58066559  1
  C  C87  1  0.96735330  0.79082610  0.07602447  1
  C  C88  1  0.82365613  0.03362605  0.07810319  1
  C  C89  1  0.20879323  0.17691652  0.07776456  1
  C  C90  1  0.65835186  0.13493511  0.74675959  1
  C  C91  1  0.48480864  0.34259981  0.75129601  1
  C  C92  1  0.87107352  0.52337843  0.75053874  1
  C  C93  1  0.66286710  0.52375476  0.24671162  1
  C  C94  1  0.84884147  0.31151394  0.24682611  1
  C  C95  1  0.47390173  0.15776877  0.24735328  1
  C  C96  1  0.62785182  0.48310077  0.92453818  1
  C  C97  1  0.86213998  0.37038123  0.92469514  1
  C  C98  1  0.50081428  0.14173319  0.92534913  1
  C  C99  1  0.65983055  0.16552323  0.42764092  1
  C  C100  1  0.50016574  0.34906558  0.42446047  1
  C  C101  1  0.84666806  0.50462960  0.42531145  1
  C  C102  1  0.35616736  0.48124513  0.07904208  1
  C  C103  1  0.12728547  0.64606739  0.07735595  1
  C  C104  1  0.51864539  0.87698139  0.07921405  1
  C  C105  1  0.35636987  0.87816665  0.57478386  1
  C  C106  1  0.50450585  0.64453353  0.57673549  1
  C  C107  1  0.13079889  0.47180497  0.57613653  1
  C  C108  1  0.33079226  0.85563870  0.25230488  1
  C  C109  1  0.52283561  0.68505784  0.25326340  1
  C  C110  1  0.15791274  0.46592400  0.25461391  1
  C  C111  1  0.31957337  0.49370608  0.76162765  1
  C  C112  1  0.17276587  0.68534266  0.76120634  1
  C  C113  1  0.51140432  0.83307506  0.75877868  1
