# generated using pymatgen
data_Cu(NiC8)2
_symmetry_space_group_name_H-M   'P 1'
_cell_length_a   9.20912256
_cell_length_b   9.17864568
_cell_length_c   23.48567204
_cell_angle_alpha   90.18042689
_cell_angle_beta   89.92000231
_cell_angle_gamma   119.74706174
_symmetry_Int_Tables_number   1
_chemical_formula_structural   Cu(NiC8)2
_chemical_formula_sum   'Cu6 Ni12 C96'
_cell_volume   1723.57269660
_cell_formula_units_Z   6
loop_
 _symmetry_equiv_pos_site_id
 _symmetry_equiv_pos_as_xyz
  1  'x, y, z'
loop_
 _atom_site_type_symbol
 _atom_site_label
 _atom_site_symmetry_multiplicity
 _atom_site_fract_x
 _atom_site_fract_y
 _atom_site_fract_z
 _atom_site_occupancy
  Ni  Ni0  1  0.98966756  0.64607318  0.25302901  1
  Ni  Ni1  1  0.99201095  0.34965915  0.74032731  1
  Ni  Ni2  1  0.65940462  0.98082500  0.59092071  1
  Ni  Ni3  1  0.67018815  0.69568010  0.08017384  1
  Ni  Ni4  1  0.33733748  0.30981248  0.90254625  1
  Ni  Ni5  1  0.31699583  0.01640141  0.42131164  1
  Ni  Ni6  1  0.01171063  0.99370442  0.50597041  1
  Ni  Ni7  1  0.98165314  0.97423354  0.99673923  1
  Ni  Ni8  1  0.65001924  0.32091785  0.82025925  1
  Ni  Ni9  1  0.65945643  0.34597043  0.33376278  1
  Ni  Ni10  1  0.32720796  0.67607955  0.17200842  1
  Ni  Ni11  1  0.32218811  0.66697160  0.66079789  1
  Cu  Cu12  1  0.99679028  0.98977279  0.35158807  1
  Cu  Cu13  1  0.98710037  0.99008655  0.84903985  1
  Cu  Cu14  1  0.65272121  0.32422034  0.68461279  1
  Cu  Cu15  1  0.66211319  0.33085227  0.18785885  1
  Cu  Cu16  1  0.32882750  0.67219058  0.01788117  1
  Cu  Cu17  1  0.31190644  0.65588443  0.52065847  1
  C  C18  1  0.01498391  0.02070212  0.64767899  1
  C  C19  1  0.99685420  0.98095959  0.15271817  1
  C  C20  1  0.67989836  0.35222948  0.98096149  1
  C  C21  1  0.67942542  0.33722180  0.48583450  1
  C  C22  1  0.33055289  0.66997376  0.31351431  1
  C  C23  1  0.36043332  0.67415597  0.80910711  1
  C  C24  1  0.29566347  0.99562793  0.25329083  1
  C  C25  1  0.69502412  0.70481548  0.24945251  1
  C  C26  1  0.29493649  0.29611699  0.75566915  1
  C  C27  1  0.70879933  0.00058472  0.74713421  1
  C  C28  1  0.96125145  0.32934879  0.58808265  1
  C  C29  1  0.36853929  0.04122109  0.57966978  1
  C  C30  1  0.96416853  0.63294186  0.08653319  1
  C  C31  1  0.62977233  0.66724628  0.92072066  1
  C  C32  1  0.02906026  0.65661638  0.41487154  1
  C  C33  1  0.00904365  0.29557292  0.24900217  1
  C  C34  1  0.00932752  0.70776243  0.74998357  1
  C  C35  1  0.67640450  0.63335059  0.58210963  1
  C  C36  1  0.67582792  0.04517234  0.08169616  1
  C  C37  1  0.36827681  0.32474873  0.08109877  1
  C  C38  1  0.03477353  0.37468887  0.91686305  1
  C  C39  1  0.34124090  0.96850483  0.91661030  1
  C  C40  1  0.62062535  0.96183241  0.41689347  1
  C  C41  1  0.34188661  0.37748201  0.41492701  1
  C  C42  1  0.21875305  0.02457739  0.31065804  1
  C  C43  1  0.82018970  0.79738715  0.30129939  1
  C  C44  1  0.98627366  0.19973500  0.30075093  1
  C  C45  1  0.21732284  0.19845766  0.81520287  1
  C  C46  1  0.98641147  0.78220084  0.80246823  1
  C  C47  1  0.81730973  0.02245149  0.80353995  1
  C  C48  1  0.79756716  0.97078364  0.69038098  1
  C  C49  1  0.16685943  0.19655006  0.70104812  1
  C  C50  1  0.03105978  0.81232344  0.69954400  1
  C  C51  1  0.78782560  0.82183520  0.19020721  1
  C  C52  1  0.02603722  0.20871403  0.19744540  1
  C  C53  1  0.16366960  0.96580726  0.19818851  1
  C  C54  1  0.88373790  0.35658535  0.64563379  1
  C  C55  1  0.48731988  0.12955446  0.63364036  1
  C  C56  1  0.64961323  0.53573874  0.63397335  1
  C  C57  1  0.87596500  0.52698409  0.14241043  1
  C  C58  1  0.65037485  0.11816654  0.13299656  1
  C  C59  1  0.47450086  0.35064529  0.13110069  1
  C  C60  1  0.45171471  0.30245356  0.02881581  1
  C  C61  1  0.83417681  0.53055687  0.03049878  1
  C  C62  1  0.68550384  0.14567106  0.03027464  1
  C  C63  1  0.46002230  0.15763889  0.52094262  1
  C  C64  1  0.69272308  0.54169764  0.53116853  1
  C  C65  1  0.83407850  0.30545620  0.53252061  1
  C  C66  1  0.54415286  0.67842319  0.97967378  1
  C  C67  1  0.13893671  0.45878336  0.96732562  1
  C  C68  1  0.31652206  0.86774878  0.96823849  1
  C  C69  1  0.55165567  0.86397022  0.46893523  1
  C  C70  1  0.32929252  0.45796761  0.46684347  1
  C  C71  1  0.15727551  0.69403055  0.46654802  1
  C  C72  1  0.12571239  0.63626199  0.35644771  1
  C  C73  1  0.50961073  0.86970436  0.36651327  1
  C  C74  1  0.35716790  0.48191274  0.36381948  1
  C  C75  1  0.10661910  0.47581976  0.86517575  1
  C  C76  1  0.35666962  0.88187087  0.86570349  1
  C  C77  1  0.49899413  0.63669111  0.86648560  1
  C  C78  1  0.01778936  0.82970777  0.41332896  1
  C  C79  1  0.79193749  0.99520272  0.40854148  1
  C  C80  1  0.19050262  0.20865864  0.41078387  1
  C  C81  1  0.02283597  0.20806655  0.91409535  1
  C  C82  1  0.19832606  0.99942163  0.91336123  1
  C  C83  1  0.81792329  0.82155055  0.91624738  1
  C  C84  1  0.95817389  0.14541223  0.58924108  1
  C  C85  1  0.18009043  0.01719263  0.58931904  1
  C  C86  1  0.83152836  0.79936124  0.58571862  1
  C  C87  1  0.96561114  0.81762428  0.08844224  1
  C  C88  1  0.83198073  0.03282865  0.08496011  1
  C  C89  1  0.20016050  0.17687653  0.08687006  1
  C  C90  1  0.69586677  0.17049098  0.74652117  1
  C  C91  1  0.48449501  0.33698247  0.74915380  1
  C  C92  1  0.86442278  0.53704331  0.74505794  1
  C  C93  1  0.68921193  0.52499215  0.24449039  1
  C  C94  1  0.86543774  0.32466123  0.24304485  1
  C  C95  1  0.48224442  0.14574767  0.24351542  1
  C  C96  1  0.63045753  0.48152055  0.92518972  1
  C  C97  1  0.86214054  0.35143257  0.92604892  1
  C  C98  1  0.49734377  0.13677637  0.92323481  1
  C  C99  1  0.62088331  0.12619033  0.42010269  1
  C  C100  1  0.49216805  0.35494934  0.41700283  1
  C  C101  1  0.84280661  0.48692641  0.42328440  1
  C  C102  1  0.35776405  0.48097417  0.07582871  1
  C  C103  1  0.15025708  0.66100050  0.07902487  1
  C  C104  1  0.53189033  0.86989527  0.07679546  1
  C  C105  1  0.36909602  0.86338790  0.57595037  1
  C  C106  1  0.53336431  0.66162342  0.57388212  1
  C  C107  1  0.15054320  0.47953371  0.58104850  1
  C  C108  1  0.29155532  0.81120879  0.25647102  1
  C  C109  1  0.50910542  0.68494473  0.25739985  1
  C  C110  1  0.16431339  0.46526049  0.25290055  1
  C  C111  1  0.28922576  0.47752479  0.75966589  1
  C  C112  1  0.16312957  0.69055206  0.75723366  1
  C  C113  1  0.51972860  0.83110791  0.75591377  1
