# generated using pymatgen
data_Cu2NiC10
_symmetry_space_group_name_H-M   'P 1'
_cell_length_a   5.03229323
_cell_length_b   5.03229323
_cell_length_c   6.28096438
_cell_angle_alpha   93.54286130
_cell_angle_beta   86.45713870
_cell_angle_gamma   112.02687894
_symmetry_Int_Tables_number   1
_chemical_formula_structural   Cu2NiC10
_chemical_formula_sum   'Cu2 Ni1 C10'
_cell_volume   147.03890233
_cell_formula_units_Z   1
loop_
 _symmetry_equiv_pos_site_id
 _symmetry_equiv_pos_as_xyz
  1  'x, y, z'
loop_
 _atom_site_type_symbol
 _atom_site_label
 _atom_site_symmetry_multiplicity
 _atom_site_fract_x
 _atom_site_fract_y
 _atom_site_fract_z
 _atom_site_occupancy
  Ni  Ni0  1  0.50000000  0.50000000  0.50000000  1
  C  C1  1  0.00000000  0.00000000  0.50000000  1
  C  C2  1  0.00000000  0.00000000  0.00000000  1
  Cu  Cu3  1  0.66514500  0.33485500  0.79562900  1
  Cu  Cu4  1  0.33485500  0.66514500  0.20437100  1
  C  C5  1  0.77044500  0.22955500  0.56356900  1
  C  C6  1  0.22955500  0.77044500  0.43643100  1
  C  C7  1  0.76817600  0.23182400  0.99739600  1
  C  C8  1  0.23182400  0.76817600  0.00260400  1
  C  C9  1  0.76727800  0.69222600  0.75607100  1
  C  C10  1  0.69222600  0.76727800  0.24392900  1
  C  C11  1  0.23272200  0.30777400  0.24392900  1
  C  C12  1  0.30777400  0.23272200  0.75607100  1
