# generated using pymatgen
data_Cu6Ni6C7
_symmetry_space_group_name_H-M   'P 1'
_cell_length_a   5.30955275
_cell_length_b   15.27412662
_cell_length_c   3.10289559
_cell_angle_alpha   89.99219563
_cell_angle_beta   90.01039138
_cell_angle_gamma   106.35924283
_symmetry_Int_Tables_number   1
_chemical_formula_structural   Cu6Ni6C7
_chemical_formula_sum   'Cu6 Ni6 C7'
_cell_volume   241.45325042
_cell_formula_units_Z   1
loop_
 _symmetry_equiv_pos_site_id
 _symmetry_equiv_pos_as_xyz
  1  'x, y, z'
loop_
 _atom_site_type_symbol
 _atom_site_label
 _atom_site_symmetry_multiplicity
 _atom_site_fract_x
 _atom_site_fract_y
 _atom_site_fract_z
 _atom_site_occupancy
  C  C0  1  0.00966587  0.16375995  0.01367691  1
  C  C1  1  0.19532557  0.95808127  0.00870378  1
  C  C2  1  0.87584602  0.37290469  0.00885424  1
  C  C3  1  0.97993266  0.66843462  0.00790005  1
  C  C4  1  0.51189109  0.16538379  0.51324350  1
  C  C5  1  0.44053250  0.51612099  0.50786602  1
  C  C6  1  0.52719785  0.81689307  0.50820709  1
  Ni  Ni7  1  0.33155986  0.91630915  0.50871859  1
  Ni  Ni8  1  0.29910693  0.09697524  0.01311949  1
  Ni  Ni9  1  0.32487832  0.75448380  0.00817519  1
  Ni  Ni10  1  0.23594294  0.45223063  0.00799910  1
  Ni  Ni11  1  0.72414791  0.23253230  0.01314870  1
  Ni  Ni12  1  0.64108581  0.58025682  0.00789107  1
  Cu  Cu13  1  0.20568342  0.23717800  0.51377624  1
  Cu  Cu14  1  0.10364118  0.60262187  0.50704243  1
  Cu  Cu15  1  0.78802397  0.89005286  0.00801653  1
  Cu  Cu16  1  0.81377303  0.09092769  0.51357824  1
  Cu  Cu17  1  0.67469700  0.40884105  0.50880289  1
  Cu  Cu18  1  0.84484607  0.73804821  0.50877995  1
