# generated using pymatgen
data_Cu2Ni2C37
_symmetry_space_group_name_H-M   'P 1'
_cell_length_a   9.06594154
_cell_length_b   9.07576407
_cell_length_c   22.26824744
_cell_angle_alpha   90.19513914
_cell_angle_beta   89.87546889
_cell_angle_gamma   119.91787155
_symmetry_Int_Tables_number   1
_chemical_formula_structural   Cu2Ni2C37
_chemical_formula_sum   'Cu6 Ni6 C111'
_cell_volume   1588.06771628
_cell_formula_units_Z   3
loop_
 _symmetry_equiv_pos_site_id
 _symmetry_equiv_pos_as_xyz
  1  'x, y, z'
loop_
 _atom_site_type_symbol
 _atom_site_label
 _atom_site_symmetry_multiplicity
 _atom_site_fract_x
 _atom_site_fract_y
 _atom_site_fract_z
 _atom_site_occupancy
  C  C0  1  0.64321086  0.99590080  0.25259974  1
  C  C1  1  0.99738169  0.62723457  0.25570881  1
  C  C2  1  0.63300776  0.63891128  0.74828950  1
  C  C3  1  0.00710289  0.36831517  0.75318346  1
  C  C4  1  0.36337680  0.99411143  0.75329583  1
  C  C5  1  0.29941867  0.33202359  0.58663434  1
  C  C6  1  0.03626379  0.70244298  0.58189898  1
  C  C7  1  0.66845416  0.96362034  0.58322089  1
  C  C8  1  0.29860155  0.96381764  0.07858935  1
  C  C9  1  0.66664528  0.69943170  0.08724419  1
  C  C10  1  0.03595487  0.33388557  0.08342059  1
  C  C11  1  0.98514011  0.67023937  0.91600065  1
  C  C12  1  0.32754835  0.29724074  0.91930485  1
  C  C13  1  0.96289945  0.30616628  0.41357649  1
  C  C14  1  0.70338128  0.67473691  0.41829752  1
  C  C15  1  0.00697126  0.99176572  0.50335571  1
  C  C16  1  0.99603424  0.00907746  0.00261889  1
  C  C17  1  0.66868020  0.30951520  0.83419567  1
  C  C18  1  0.65680749  0.32810732  0.33303193  1
  C  C19  1  0.33520815  0.64157921  0.16832435  1
  C  C20  1  0.33399115  0.66800017  0.66656780  1
  Ni  Ni21  1  0.99950684  0.00022216  0.65202725  1
  Ni  Ni22  1  0.99624271  0.00357219  0.15133958  1
  Ni  Ni23  1  0.32835617  0.66841036  0.01544784  1
  Ni  Ni24  1  0.33357252  0.67812734  0.51483564  1
  Ni  Ni25  1  0.33351180  0.66304450  0.31697502  1
  Ni  Ni26  1  0.32863275  0.67102228  0.81660799  1
  Cu  Cu27  1  0.99589273  0.99567327  0.34839907  1
  Cu  Cu28  1  0.00082750  0.00597330  0.84792074  1
  Cu  Cu29  1  0.66838514  0.33348452  0.67936506  1
  Cu  Cu30  1  0.66763271  0.33567243  0.17972764  1
  Cu  Cu31  1  0.66827306  0.32147764  0.98439861  1
  Cu  Cu32  1  0.66607425  0.32574528  0.48463855  1
  C  C33  1  0.69662399  0.69677689  0.24879223  1
  C  C34  1  0.00245957  0.30276921  0.24932850  1
  C  C35  1  0.30294088  0.30372920  0.74936751  1
  C  C36  1  0.99918759  0.70148762  0.74951677  1
  C  C37  1  0.69975503  0.99788895  0.74765251  1
  C  C38  1  0.97647335  0.33350061  0.58278356  1
  C  C39  1  0.36142228  0.03017904  0.58451655  1
  C  C40  1  0.66480902  0.63695284  0.58163715  1
  C  C41  1  0.97143890  0.63922722  0.08241147  1
  C  C42  1  0.66558630  0.02520306  0.08599759  1
  C  C43  1  0.36407022  0.33388870  0.08079369  1
  C  C44  1  0.03997645  0.37307182  0.91636635  1
  C  C45  1  0.33220841  0.96433047  0.91585223  1
  C  C46  1  0.62779057  0.96233467  0.41521227  1
  C  C47  1  0.03695935  0.66757805  0.41638799  1
  C  C48  1  0.29742625  0.99962171  0.24860245  1
  C  C49  1  0.62706866  0.66729543  0.91688056  1
  C  C50  1  0.33312147  0.37514374  0.41752559  1
  C  C51  1  0.21993489  0.02462432  0.30378568  1
  C  C52  1  0.80665645  0.77056517  0.30747934  1
  C  C53  1  0.97728929  0.19792233  0.30828959  1
  C  C54  1  0.23048790  0.19565498  0.80783376  1
  C  C55  1  0.96603199  0.77589797  0.80832739  1
  C  C56  1  0.81516490  0.03489796  0.80363265  1
  C  C57  1  0.78346362  0.97470433  0.69109971  1
  C  C58  1  0.18930967  0.21391379  0.69487667  1
  C  C59  1  0.01886938  0.81293208  0.69511440  1
  C  C60  1  0.79121641  0.80919288  0.19441848  1
  C  C61  1  0.01706535  0.21148787  0.19368987  1
  C  C62  1  0.19645537  0.98534437  0.19460087  1
  C  C63  1  0.89645778  0.37161847  0.63882266  1
  C  C64  1  0.47291929  0.10375921  0.64215602  1
  C  C65  1  0.63011686  0.52281690  0.63830976  1
  C  C66  1  0.89397002  0.52319030  0.13864206  1
  C  C67  1  0.62520699  0.09970866  0.14316751  1
  C  C68  1  0.48743461  0.37211995  0.13424290  1
  C  C69  1  0.44109340  0.29898836  0.02305384  1
  C  C70  1  0.85138587  0.55731594  0.02692047  1
  C  C71  1  0.71044703  0.15170193  0.03311295  1
  C  C72  1  0.44662451  0.15672646  0.53181688  1
  C  C73  1  0.69724590  0.55245007  0.52571618  1
  C  C74  1  0.85963976  0.29666329  0.52675847  1
  C  C75  1  0.54256834  0.67810827  0.97206481  1
  C  C76  1  0.14423621  0.45861865  0.97323508  1
  C  C77  1  0.31880750  0.86419734  0.97308216  1
  C  C78  1  0.54435991  0.85859665  0.47212275  1
  C  C79  1  0.31538093  0.45314234  0.47346324  1
  C  C80  1  0.13070918  0.67520697  0.47453921  1
  C  C81  1  0.12272315  0.64742409  0.35960961  1
  C  C82  1  0.53247076  0.87441688  0.35731935  1
  C  C83  1  0.34965775  0.47936448  0.36447613  1
  C  C84  1  0.12618422  0.47472633  0.85897709  1
  C  C85  1  0.34466547  0.87863944  0.85808993  1
  C  C86  1  0.52959967  0.65552448  0.86213796  1
  C  C87  1  0.01152607  0.82666875  0.41433471  1
  C  C88  1  0.81426602  0.98576656  0.41497981  1
  C  C89  1  0.17718093  0.20287875  0.41319973  1
  C  C90  1  0.02157890  0.19210517  0.91453954  1
  C  C91  1  0.16281026  0.97638686  0.91526695  1
  C  C92  1  0.80410080  0.81622283  0.91554070  1
  C  C93  1  0.99167041  0.17262681  0.59004110  1
  C  C94  1  0.18275788  0.01003773  0.59066151  1
  C  C95  1  0.82667042  0.81292211  0.58794930  1
  C  C96  1  0.99008262  0.81700704  0.09030999  1
  C  C97  1  0.82487715  0.00648420  0.09220675  1
  C  C98  1  0.18774511  0.17287732  0.08909218  1
  C  C99  1  0.67782380  0.15863324  0.74505163  1
  C  C100  1  0.48453387  0.32428261  0.74483022  1
  C  C101  1  0.83886693  0.51933687  0.74564864  1
  C  C102  1  0.68134997  0.51774059  0.24499379  1
  C  C103  1  0.83226494  0.31238687  0.24758556  1
  C  C104  1  0.47461457  0.14723254  0.24608994  1
  C  C105  1  0.64166868  0.50827627  0.91777664  1
  C  C106  1  0.86225537  0.36504549  0.91883968  1
  C  C107  1  0.48529984  0.15191943  0.91746110  1
  C  C108  1  0.65453918  0.14728778  0.41718991  1
  C  C109  1  0.49068872  0.36050625  0.41896524  1
  C  C110  1  0.85074919  0.50442948  0.41731582  1
  C  C111  1  0.34499357  0.49327657  0.07549919  1
  C  C112  1  0.14831541  0.65612410  0.07512406  1
  C  C113  1  0.50669760  0.84908938  0.07640292  1
  C  C114  1  0.34613010  0.85430238  0.57605173  1
  C  C115  1  0.50489462  0.65471170  0.57530435  1
  C  C116  1  0.15374717  0.49287208  0.57594751  1
  C  C117  1  0.30839793  0.84123888  0.25291363  1
  C  C118  1  0.52352219  0.68964199  0.25476331  1
  C  C119  1  0.15404349  0.48567815  0.25426522  1
  C  C120  1  0.32184588  0.48269789  0.75561290  1
  C  C121  1  0.15995771  0.68320129  0.75420352  1
  C  C122  1  0.52210990  0.83717857  0.75505434  1
