# generated using pymatgen
data_Cu3Ni3C11
_symmetry_space_group_name_H-M   'P 1'
_cell_length_a   7.98270087
_cell_length_b   7.98270087
_cell_length_c   7.18166000
_cell_angle_alpha   90.00000000
_cell_angle_beta   90.00000000
_cell_angle_gamma   120.00000724
_symmetry_Int_Tables_number   1
_chemical_formula_structural   Cu3Ni3C11
_chemical_formula_sum   'Cu6 Ni6 C22'
_cell_volume   396.32836178
_cell_formula_units_Z   2
loop_
 _symmetry_equiv_pos_site_id
 _symmetry_equiv_pos_as_xyz
  1  'x, y, z'
loop_
 _atom_site_type_symbol
 _atom_site_label
 _atom_site_symmetry_multiplicity
 _atom_site_fract_x
 _atom_site_fract_y
 _atom_site_fract_z
 _atom_site_occupancy
  C  C0  1  0.33333300  0.66666700  0.94537800  1
  C  C1  1  0.66666700  0.33333300  0.44537800  1
  C  C2  1  0.66666700  0.33333300  0.05462200  1
  C  C3  1  0.33333300  0.66666700  0.55462200  1
  Ni  Ni4  1  0.36279300  0.04936700  0.75000000  1
  Ni  Ni5  1  0.04936700  0.68657400  0.25000000  1
  Ni  Ni6  1  0.68657400  0.63720700  0.75000000  1
  Ni  Ni7  1  0.31342600  0.36279300  0.25000000  1
  Ni  Ni8  1  0.63720700  0.95063300  0.25000000  1
  Ni  Ni9  1  0.95063300  0.31342600  0.75000000  1
  Cu  Cu10  1  0.82312300  0.83543100  0.75000000  1
  Cu  Cu11  1  0.98769200  0.82312300  0.25000000  1
  Cu  Cu12  1  0.83543100  0.01230800  0.25000000  1
  Cu  Cu13  1  0.16456900  0.98769200  0.75000000  1
  Cu  Cu14  1  0.01230800  0.17687700  0.75000000  1
  Cu  Cu15  1  0.17687700  0.16456900  0.25000000  1
  C  C16  1  0.13823900  0.51674300  0.75000000  1
  C  C17  1  0.62149500  0.13823900  0.25000000  1
  C  C18  1  0.51674300  0.37850500  0.25000000  1
  C  C19  1  0.48325700  0.62149500  0.75000000  1
  C  C20  1  0.16392200  0.71863400  0.07129100  1
  C  C21  1  0.44528800  0.16392200  0.57129100  1
  C  C22  1  0.71863400  0.55471200  0.57129100  1
  C  C23  1  0.28136600  0.44528800  0.07129100  1
  C  C24  1  0.55471200  0.83607800  0.07129100  1
  C  C25  1  0.83607800  0.28136600  0.57129100  1
  C  C26  1  0.83607800  0.28136600  0.92870900  1
  C  C27  1  0.55471200  0.83607800  0.42870900  1
  C  C28  1  0.28136600  0.44528800  0.42870900  1
  C  C29  1  0.71863400  0.55471200  0.92870900  1
  C  C30  1  0.44528800  0.16392200  0.92870900  1
  C  C31  1  0.16392200  0.71863400  0.42870900  1
  C  C32  1  0.86176100  0.48325700  0.25000000  1
  C  C33  1  0.37850500  0.86176100  0.75000000  1
