# generated using pymatgen
data_Cu4NiC2
_symmetry_space_group_name_H-M   'P 1'
_cell_length_a   9.78555900
_cell_length_b   8.76019200
_cell_length_c   9.24518647
_cell_angle_alpha   71.45429227
_cell_angle_beta   90.00000000
_cell_angle_gamma   90.00000000
_symmetry_Int_Tables_number   1
_chemical_formula_structural   Cu4NiC2
_chemical_formula_sum   'Cu32 Ni8 C16'
_cell_volume   751.37275993
_cell_formula_units_Z   8
loop_
 _symmetry_equiv_pos_site_id
 _symmetry_equiv_pos_as_xyz
  1  'x, y, z'
loop_
 _atom_site_type_symbol
 _atom_site_label
 _atom_site_symmetry_multiplicity
 _atom_site_fract_x
 _atom_site_fract_y
 _atom_site_fract_z
 _atom_site_occupancy
  C  C0  1  0.50000000  0.00000000  0.50000000  1
  C  C1  1  0.00000000  0.00000000  0.00000000  1
  C  C2  1  0.00000000  0.50000000  0.50000000  1
  C  C3  1  0.50000000  0.50000000  0.00000000  1
  C  C4  1  0.15603100  0.11327700  0.62833600  1
  C  C5  1  0.65603100  0.88672300  0.87166400  1
  C  C6  1  0.84396900  0.88672300  0.37166400  1
  C  C7  1  0.34396900  0.11327700  0.12833600  1
  C  C8  1  0.49567500  0.24057200  0.72497300  1
  C  C9  1  0.99567500  0.75942800  0.77502700  1
  C  C10  1  0.50432500  0.75942800  0.27502700  1
  C  C11  1  0.00432500  0.24057200  0.22497300  1
  C  C12  1  0.26354800  0.60463200  0.38280200  1
  C  C13  1  0.76354800  0.39536800  0.11719800  1
  C  C14  1  0.73645200  0.39536800  0.61719800  1
  C  C15  1  0.23645200  0.60463200  0.88280200  1
  Ni  Ni16  1  0.18006500  0.86521300  0.40454900  1
  Ni  Ni17  1  0.68006500  0.13478700  0.09545100  1
  Ni  Ni18  1  0.81993500  0.13478700  0.59545100  1
  Ni  Ni19  1  0.31993500  0.86521300  0.90454900  1
  Ni  Ni20  1  0.30836800  0.36085000  0.35799200  1
  Ni  Ni21  1  0.80836800  0.63915000  0.14200800  1
  Ni  Ni22  1  0.69163200  0.63915000  0.64200800  1
  Ni  Ni23  1  0.19163200  0.36085000  0.85799200  1
  Cu  Cu24  1  0.09361300  0.96384500  0.27617900  1
  Cu  Cu25  1  0.59361300  0.03615500  0.22382100  1
  Cu  Cu26  1  0.90638700  0.03615500  0.72382100  1
  Cu  Cu27  1  0.40638700  0.96384500  0.77617900  1
  Cu  Cu28  1  0.16372700  0.68962100  0.41675900  1
  Cu  Cu29  1  0.66372700  0.31037900  0.08324100  1
  Cu  Cu30  1  0.83627300  0.31037900  0.58324100  1
  Cu  Cu31  1  0.33627300  0.68962100  0.91675900  1
  Cu  Cu32  1  0.13449100  0.88497600  0.54972800  1
  Cu  Cu33  1  0.63449100  0.11502400  0.95027200  1
  Cu  Cu34  1  0.86550900  0.11502400  0.45027200  1
  Cu  Cu35  1  0.36550900  0.88497600  0.04972800  1
  Cu  Cu36  1  0.32646900  0.90994400  0.37349700  1
  Cu  Cu37  1  0.82646900  0.09005600  0.12650300  1
  Cu  Cu38  1  0.67353100  0.09005600  0.62650300  1
  Cu  Cu39  1  0.17353100  0.90994400  0.87349700  1
  Cu  Cu40  1  0.15179300  0.53378800  0.85551800  1
  Cu  Cu41  1  0.65179300  0.46621200  0.64448200  1
  Cu  Cu42  1  0.84820700  0.46621200  0.14448200  1
  Cu  Cu43  1  0.34820700  0.53378800  0.35551800  1
  Cu  Cu44  1  0.12470700  0.24584200  0.99226400  1
  Cu  Cu45  1  0.62470700  0.75415800  0.50773600  1
  Cu  Cu46  1  0.87529300  0.75415800  0.00773600  1
  Cu  Cu47  1  0.37529300  0.24584200  0.49226400  1
  Cu  Cu48  1  0.34252000  0.34611200  0.87381800  1
  Cu  Cu49  1  0.84252000  0.65388800  0.62618200  1
  Cu  Cu50  1  0.65748000  0.65388800  0.12618200  1
  Cu  Cu51  1  0.15748000  0.34611200  0.37381800  1
  Cu  Cu52  1  0.14239400  0.34267900  0.71471500  1
  Cu  Cu53  1  0.64239400  0.65732100  0.78528500  1
  Cu  Cu54  1  0.85760600  0.65732100  0.28528500  1
  Cu  Cu55  1  0.35760600  0.34267900  0.21471500  1
