# generated using pymatgen
data_Cu4Ni4C5
_symmetry_space_group_name_H-M   'P 1'
_cell_length_a   5.59518765
_cell_length_b   5.14542770
_cell_length_c   5.31734809
_cell_angle_alpha   93.36627251
_cell_angle_beta   104.97569014
_cell_angle_gamma   82.03415916
_symmetry_Int_Tables_number   1
_chemical_formula_structural   Cu4Ni4C5
_chemical_formula_sum   'Cu4 Ni4 C5'
_cell_volume   146.41611967
_cell_formula_units_Z   1
loop_
 _symmetry_equiv_pos_site_id
 _symmetry_equiv_pos_as_xyz
  1  'x, y, z'
loop_
 _atom_site_type_symbol
 _atom_site_label
 _atom_site_symmetry_multiplicity
 _atom_site_fract_x
 _atom_site_fract_y
 _atom_site_fract_z
 _atom_site_occupancy
  C  C0  1  -0.00000000  0.00000000  0.50000000  1
  C  C1  1  0.32576804  0.45651612  0.70230777  1
  C  C2  1  0.66287735  0.91440140  0.81228644  1
  C  C3  1  0.67423196  0.54348388  0.29769223  1
  C  C4  1  0.33712265  0.08559860  0.18771356  1
  Ni  Ni5  1  0.41042251  0.74983675  0.98502155  1
  Ni  Ni6  1  0.60381304  0.22829465  0.52028365  1
  Ni  Ni7  1  0.58957749  0.25016325  0.01497845  1
  Ni  Ni8  1  0.39618696  0.77170535  0.47971635  1
  Cu  Cu9  1  0.08070157  0.30691436  0.35248210  1
  Cu  Cu10  1  0.88136708  0.78834135  0.15871172  1
  Cu  Cu11  1  0.91929843  0.69308564  0.64751790  1
  Cu  Cu12  1  0.11863292  0.21165865  0.84128828  1
