# generated using pymatgen
data_Cu5Ni7C5
_symmetry_space_group_name_H-M   'P 1'
_cell_length_a   5.29554336
_cell_length_b   7.17525900
_cell_length_c   5.66037585
_cell_angle_alpha   92.92304324
_cell_angle_beta   91.70428435
_cell_angle_gamma   90.69617983
_symmetry_Int_Tables_number   1
_chemical_formula_structural   Cu5Ni7C5
_chemical_formula_sum   'Cu5 Ni7 C5'
_cell_volume   214.68173708
_cell_formula_units_Z   1
loop_
 _symmetry_equiv_pos_site_id
 _symmetry_equiv_pos_as_xyz
  1  'x, y, z'
loop_
 _atom_site_type_symbol
 _atom_site_label
 _atom_site_symmetry_multiplicity
 _atom_site_fract_x
 _atom_site_fract_y
 _atom_site_fract_z
 _atom_site_occupancy
  C  C0  1  0.98254800  0.21744000  0.60826300  1
  C  C1  1  0.50763700  0.48962500  0.46093300  1
  C  C2  1  0.46896600  0.99823600  0.52938800  1
  C  C3  1  0.02180700  0.51100000  0.00492400  1
  C  C4  1  0.93929100  0.99565800  0.03570100  1
  Ni  Ni5  1  0.94201100  0.25625400  0.96623300  1
  Ni  Ni6  1  0.67926800  0.95816000  0.18077600  1
  Ni  Ni7  1  0.62383500  0.23437400  0.49078100  1
  Ni  Ni8  1  0.43916400  0.76147100  0.49525300  1
  Ni  Ni9  1  0.31324300  0.46183300  0.21603800  1
  Ni  Ni10  1  0.28622800  0.05258600  0.75891400  1
  Ni  Ni11  1  0.08136100  0.75055400  0.00345600  1
  Cu  Cu12  1  0.82327100  0.53571700  0.29545100  1
  Cu  Cu13  1  0.80300400  0.95946300  0.69558100  1
  Cu  Cu14  1  0.71786800  0.54036800  0.76546300  1
  Cu  Cu15  1  0.16233800  0.07438700  0.32699900  1
  Cu  Cu16  1  0.20815800  0.44361700  0.67834700  1
