# generated using pymatgen
data_Cu11NiC4
_symmetry_space_group_name_H-M   'P 1'
_cell_length_a   7.40860831
_cell_length_b   5.79571762
_cell_length_c   5.19799007
_cell_angle_alpha   98.74079793
_cell_angle_beta   101.26386033
_cell_angle_gamma   95.49827567
_symmetry_Int_Tables_number   1
_chemical_formula_structural   Cu11NiC4
_chemical_formula_sum   'Cu11 Ni1 C4'
_cell_volume   214.53011471
_cell_formula_units_Z   1
loop_
 _symmetry_equiv_pos_site_id
 _symmetry_equiv_pos_as_xyz
  1  'x, y, z'
loop_
 _atom_site_type_symbol
 _atom_site_label
 _atom_site_symmetry_multiplicity
 _atom_site_fract_x
 _atom_site_fract_y
 _atom_site_fract_z
 _atom_site_occupancy
  C  C0  1  0.03127200  0.58292000  0.44258900  1
  C  C1  1  0.01842900  0.00228600  0.04268300  1
  C  C2  1  0.36542200  0.15714800  0.62214800  1
  C  C3  1  0.63105500  0.84954400  0.37793800  1
  Ni  Ni4  1  0.13251100  0.92657900  0.33441800  1
  Cu  Cu5  1  0.05314700  0.71986700  0.81988600  1
  Cu  Cu6  1  0.24582200  0.41929700  0.52099200  1
  Cu  Cu7  1  0.20881500  0.15417100  0.90666600  1
  Cu  Cu8  1  0.47639400  0.85179500  0.64193500  1
  Cu  Cu9  1  0.44462800  0.68181800  0.14341500  1
  Cu  Cu10  1  0.56340900  0.31941900  0.86053300  1
  Cu  Cu11  1  0.52675700  0.13510700  0.34141000  1
  Cu  Cu12  1  0.77610700  0.87914800  0.10511800  1
  Cu  Cu13  1  0.76211800  0.58975700  0.43465100  1
  Cu  Cu14  1  0.82936300  0.02189000  0.65014200  1
  Cu  Cu15  1  0.95443200  0.30793600  0.14673600  1
