# generated using pymatgen
data_Cu2Ni3C31
_symmetry_space_group_name_H-M   'P 1'
_cell_length_a   8.53878006
_cell_length_b   8.68444547
_cell_length_c   8.69816005
_cell_angle_alpha   59.71817790
_cell_angle_beta   58.38267963
_cell_angle_gamma   58.35431922
_symmetry_Int_Tables_number   1
_chemical_formula_structural   Cu2Ni3C31
_chemical_formula_sum   'Cu2 Ni3 C31'
_cell_volume   443.61193398
_cell_formula_units_Z   1
loop_
 _symmetry_equiv_pos_site_id
 _symmetry_equiv_pos_as_xyz
  1  'x, y, z'
loop_
 _atom_site_type_symbol
 _atom_site_label
 _atom_site_symmetry_multiplicity
 _atom_site_fract_x
 _atom_site_fract_y
 _atom_site_fract_z
 _atom_site_occupancy
  Ni  Ni0  1  0.05708400  0.64624700  0.64686400  1
  Ni  Ni1  1  0.43730000  0.85684600  0.85051800  1
  Ni  Ni2  1  0.93416300  0.35191900  0.35901200  1
  C  C3  1  0.56129300  0.14867900  0.14518700  1
  Cu  Cu4  1  0.99508100  0.99875600  0.00347800  1
  Cu  Cu5  1  0.50039200  0.50088200  0.49830700  1
  C  C6  1  0.25483400  0.24696900  0.55075900  1
  C  C7  1  0.25310600  0.95428300  0.24628600  1
  C  C8  1  0.24438200  0.54631700  0.95718200  1
  C  C9  1  0.74279600  0.45378900  0.05088100  1
  C  C10  1  0.75352500  0.05283900  0.74811000  1
  C  C11  1  0.75271800  0.74690500  0.44672900  1
  C  C12  1  0.06287700  0.10680700  0.32157700  1
  C  C13  1  0.06271600  0.49725900  0.11167900  1
  C  C14  1  0.06710600  0.31666200  0.52130200  1
  C  C15  1  0.23009200  0.08502300  0.75275100  1
  C  C16  1  0.43606100  0.16606100  0.38951000  1
  C  C17  1  0.30268100  0.39384500  0.55487900  1
  C  C18  1  0.22096800  0.93880200  0.09172200  1
  C  C19  1  0.29905800  0.75378300  0.39583400  1
  C  C20  1  0.56291100  0.61304900  0.99839900  1
  C  C21  1  0.29681300  0.54872200  0.75659100  1
  C  C22  1  0.76623900  0.24891600  0.07151200  1
  C  C23  1  0.56987000  0.01605200  0.81616700  1
  C  C24  1  0.43151000  0.01243300  0.16653300  1
  C  C25  1  0.20307900  0.74964200  0.94567100  1
  C  C26  1  0.69828400  0.43889800  0.25548100  1
  C  C27  1  0.42830700  0.39321400  0.01309500  1
  C  C28  1  0.72297300  0.25828500  0.59096700  1
  C  C29  1  0.77165900  0.07700800  0.90911900  1
  C  C30  1  0.72045200  0.59337100  0.42885600  1
  C  C31  1  0.56574700  0.81639600  0.60437500  1
  C  C32  1  0.77082900  0.90963500  0.24319800  1
  C  C33  1  0.94179300  0.68210700  0.46974700  1
  C  C34  1  0.93535300  0.47580400  0.90641100  1
  C  C35  1  0.94594400  0.90379600  0.68130900  1
