# generated using pymatgen
data_Cu2NiC12
_symmetry_space_group_name_H-M   'P 1'
_cell_length_a   6.41986905
_cell_length_b   6.27214234
_cell_length_c   6.20983492
_cell_angle_alpha   86.91124477
_cell_angle_beta   120.62368103
_cell_angle_gamma   120.99209373
_symmetry_Int_Tables_number   1
_chemical_formula_structural   Cu2NiC12
_chemical_formula_sum   'Cu2 Ni1 C12'
_cell_volume   176.94014106
_cell_formula_units_Z   1
loop_
 _symmetry_equiv_pos_site_id
 _symmetry_equiv_pos_as_xyz
  1  'x, y, z'
loop_
 _atom_site_type_symbol
 _atom_site_label
 _atom_site_symmetry_multiplicity
 _atom_site_fract_x
 _atom_site_fract_y
 _atom_site_fract_z
 _atom_site_occupancy
  Ni  Ni0  1  0.29898800  0.65052000  0.89945600  1
  C  C1  1  0.48014700  0.98035700  0.48861100  1
  C  C2  1  0.48047500  0.49990800  0.49147300  1
  C  C3  1  0.87292900  0.43625600  0.96412500  1
  C  C4  1  0.87397300  0.43642700  0.40928600  1
  Cu  Cu5  1  0.16249000  0.08161100  0.83170400  1
  Cu  Cu6  1  0.87880400  0.93897100  0.19096000  1
  C  C7  1  0.04087600  0.73796700  0.26707300  1
  C  C8  1  0.53510900  0.78740500  0.75797000  1
  C  C9  1  0.53642500  0.74855300  0.27689700  1
  C  C10  1  0.95384500  0.69200600  0.72402400  1
  C  C11  1  0.43439300  0.24240200  0.69817100  1
  C  C12  1  0.43515900  0.19202500  0.23627200  1
  C  C13  1  0.04119300  0.30253200  0.27332500  1
  C  C14  1  0.95435900  0.26264500  0.73023600  1
