# generated using pymatgen
data_Cu2Ni3C32
_symmetry_space_group_name_H-M   'P 1'
_cell_length_a   17.69027397
_cell_length_b   8.86389411
_cell_length_c   22.52432362
_cell_angle_alpha   89.96076254
_cell_angle_beta   90.13945943
_cell_angle_gamma   120.14744046
_symmetry_Int_Tables_number   1
_chemical_formula_structural   Cu2Ni3C32
_chemical_formula_sum   'Cu12 Ni18 C192'
_cell_volume   3054.16843250
_cell_formula_units_Z   6
loop_
 _symmetry_equiv_pos_site_id
 _symmetry_equiv_pos_as_xyz
  1  'x, y, z'
loop_
 _atom_site_type_symbol
 _atom_site_label
 _atom_site_symmetry_multiplicity
 _atom_site_fract_x
 _atom_site_fract_y
 _atom_site_fract_z
 _atom_site_occupancy
  Ni  Ni0  1  0.81615265  0.98904390  0.24657937  1
  Ni  Ni1  1  0.99525829  0.62843445  0.25662972  1
  Ni  Ni2  1  0.31547159  0.64371256  0.74608633  1
  Ni  Ni3  1  0.81138564  0.63715579  0.74488510  1
  Ni  Ni4  1  0.99949342  0.36225165  0.75288249  1
  Ni  Ni5  1  0.69318165  0.99628113  0.74976507  1
  Ni  Ni6  1  -0.00000317  0.99886911  0.49830011  1
  Ni  Ni7  1  0.50154848  0.00395894  0.49814949  1
  Ni  Ni8  1  0.00199067  0.00293830  0.00294097  1
  Ni  Ni9  1  0.50027829  0.99700696  0.00184197  1
  Ni  Ni10  1  0.33628787  0.29773519  0.83240420  1
  Ni  Ni11  1  0.83406916  0.31481475  0.84070323  1
  Ni  Ni12  1  0.33527927  0.33573257  0.33349040  1
  Ni  Ni13  1  0.82566128  0.35169741  0.33311191  1
  Ni  Ni14  1  0.17520057  0.66752227  0.16202793  1
  Ni  Ni15  1  0.66504205  0.64942795  0.16806644  1
  Ni  Ni16  1  0.17899937  0.70567683  0.66281443  1
  Ni  Ni17  1  0.66757808  0.66983503  0.66324499  1
  Cu  Cu18  1  0.49519237  0.99313775  0.35351440  1
  Cu  Cu19  1  0.83410042  0.32862736  0.68335828  1
  Cu  Cu20  1  0.33118287  0.32786512  0.17627351  1
  Cu  Cu21  1  0.83056556  0.34351624  0.17827891  1
  Cu  Cu22  1  0.33296564  0.33429578  0.99068059  1
  Cu  Cu23  1  0.83244165  0.33369030  0.98930177  1
  Cu  Cu24  1  0.83138822  0.32782634  0.48302381  1
  Cu  Cu25  1  0.16340022  0.65928742  0.51699042  1
  Cu  Cu26  1  0.67198513  0.67664117  0.51925366  1
  Cu  Cu27  1  0.18167737  0.67928765  0.31821054  1
  Cu  Cu28  1  0.17338612  0.68712118  0.81127324  1
  Cu  Cu29  1  0.66346577  0.66124402  0.81406540  1
  C  C30  1  0.99806642  0.99008874  0.34936117  1
  C  C31  1  0.99921102  0.00424732  0.85536772  1
  C  C32  1  0.48740990  0.01271493  0.85292578  1
  C  C33  1  0.99692988  0.00209617  0.64995805  1
  C  C34  1  0.49233492  0.99269388  0.64741373  1
  C  C35  1  0.98931991  0.98572735  0.15290194  1
  C  C36  1  0.50376903  0.00436634  0.15140355  1
  C  C37  1  0.33503242  0.31618453  0.68502667  1
  C  C38  1  0.33365569  0.33085551  0.48556581  1
  C  C39  1  0.16718190  0.66681692  0.01353787  1
  C  C40  1  0.66563909  0.66887944  0.01337518  1
  C  C41  1  0.66758829  0.64879624  0.31122282  1
  C  C42  1  0.85285374  0.71067669  0.25307521  1
  C  C43  1  0.36060720  0.01574539  0.74524565  1
  C  C44  1  0.86222243  0.00372820  0.75258139  1
  C  C45  1  0.13813456  0.00463595  0.24952096  1
  C  C46  1  0.64262716  0.98449349  0.24887189  1
  C  C47  1  0.35522795  0.71327359  0.24220370  1
  C  C48  1  0.00444530  0.28129007  0.24944366  1
  C  C49  1  0.50544324  0.29968240  0.24879924  1
  C  C50  1  0.14570439  0.27264735  0.74799782  1
  C  C51  1  0.63332687  0.26659288  0.75076646  1
  C  C52  1  0.00143630  0.73022289  0.75038228  1
  C  C53  1  0.49407499  0.71650049  0.74688479  1
  C  C54  1  0.47093526  0.31858959  0.58513916  1
  C  C55  1  0.98954236  0.31943799  0.59000976  1
  C  C56  1  0.18963806  0.05821211  0.58720898  1
  C  C57  1  0.66535816  0.02518899  0.59022756  1
  C  C58  1  0.33973975  0.61086815  0.58739795  1
  C  C59  1  0.84440097  0.65937129  0.59026069  1
  C  C60  1  0.49812712  0.66273792  0.08236234  1
  C  C61  1  0.99875449  0.66090498  0.08457932  1
  C  C62  1  0.33325518  0.00397725  0.08270961  1
  C  C63  1  0.83218219  0.00502161  0.08303598  1
  C  C64  1  0.16775851  0.33272874  0.08223823  1
  C  C65  1  0.66827409  0.33491754  0.08225033  1
  C  C66  1  0.31900260  0.68124452  0.91581605  1
  C  C67  1  0.81911597  0.68130181  0.91631497  1
  C  C68  1  0.02452275  0.36551509  0.91470606  1
  C  C69  1  0.52112394  0.36148664  0.91835367  1
  C  C70  1  0.15758446  0.95799802  0.91781703  1
  C  C71  1  0.65698575  0.95595780  0.91520794  1
  C  C72  1  0.32051591  0.99264494  0.42437001  1
  C  C73  1  0.81839301  0.96194192  0.40692531  1
  C  C74  1  0.16748960  0.34624071  0.41751247  1
  C  C75  1  0.66850467  0.37914331  0.41334770  1
  C  C76  1  0.01468506  0.68066442  0.41133165  1
  C  C77  1  0.51284457  0.64507130  0.41678615  1
  C  C78  1  0.09711530  0.01756221  0.30519097  1
  C  C79  1  0.60841583  0.01653314  0.30267059  1
  C  C80  1  0.39252757  0.78460095  0.30030013  1
  C  C81  1  0.91880775  0.81713771  0.30728763  1
  C  C82  1  0.49335587  0.20370062  0.30322303  1
  C  C83  1  0.00218719  0.18538852  0.30387555  1
  C  C84  1  0.10891242  0.17433725  0.80376351  1
  C  C85  1  0.58980790  0.16193951  0.80512041  1
  C  C86  1  0.48250527  0.79877454  0.80102291  1
  C  C87  1  0.00283572  0.82414294  0.80515959  1
  C  C88  1  0.41218297  0.03289500  0.80836858  1
  C  C89  1  0.92261800  0.02120051  0.81081451  1
  C  C90  1  0.41045473  0.98366185  0.69029291  1
  C  C91  1  0.91294108  0.99170846  0.69405539  1
  C  C92  1  0.09278425  0.18022466  0.69534161  1
  C  C93  1  0.58859550  0.17587562  0.69562227  1
  C  C94  1  0.00979970  0.82965170  0.69557109  1
  C  C95  1  0.50810079  0.82458753  0.69313640  1
  C  C96  1  0.41248444  0.82766709  0.19315738  1
  C  C97  1  0.89687834  0.83046382  0.19314315  1
  C  C98  1  0.00949432  0.19329999  0.19479710  1
  C  C99  1  0.51622592  0.20745114  0.19602265  1
  C  C100  1  0.08451169  0.99338229  0.19661456  1
  C  C101  1  0.59091705  0.97757656  0.19503881  1
  C  C102  1  0.42688204  0.33809905  0.63818169  1
  C  C103  1  0.94992854  0.33640088  0.64536958  1
  C  C104  1  0.24252997  0.14741244  0.64092432  1
  C  C105  1  0.71555430  0.10356082  0.64518215  1
  C  C106  1  0.33157332  0.50627400  0.64190462  1
  C  C107  1  0.83373928  0.56292021  0.64610010  1
  C  C108  1  0.46221919  0.54787661  0.13417237  1
  C  C109  1  0.96692903  0.55382564  0.13920139  1
  C  C110  1  0.30961985  0.07045855  0.13509932  1
  C  C111  1  0.81382152  0.07153110  0.13810340  1
  C  C112  1  0.22504148  0.37753387  0.13461425  1
  C  C113  1  0.72427023  0.37851520  0.13499946  1
  C  C114  1  0.20470025  0.29103575  0.03062841  1
  C  C115  1  0.70410809  0.29047619  0.03088302  1
  C  C116  1  0.44061520  0.59187326  0.03037799  1
  C  C117  1  0.93795105  0.58001039  0.03486876  1
  C  C118  1  0.35441137  0.11981869  0.03132363  1
  C  C119  1  0.84943966  0.12331217  0.03305377  1
  C  C120  1  0.23337325  0.16434690  0.53343620  1
  C  C121  1  0.70962853  0.12903096  0.53755188  1
  C  C122  1  0.34857196  0.52399050  0.53293409  1
  C  C123  1  0.84852928  0.56426182  0.53840923  1
  C  C124  1  0.41834526  0.30310908  0.53117527  1
  C  C125  1  0.93529730  0.29890836  0.53767552  1
  C  C126  1  0.26802886  0.69950356  0.96576655  1
  C  C127  1  0.76661674  0.69529412  0.96617232  1
  C  C128  1  0.08245636  0.46991722  0.96530819  1
  C  C129  1  0.57885760  0.46138152  0.96964255  1
  C  C130  1  0.14907398  0.84321383  0.96959442  1
  C  C131  1  0.65103150  0.83794451  0.96547181  1
  C  C132  1  0.27489874  0.87717045  0.47417778  1
  C  C133  1  0.78601473  0.86986218  0.46342106  1
  C  C134  1  0.14731766  0.42009689  0.46927098  1
  C  C135  1  0.66652298  0.46204501  0.46896184  1
  C  C136  1  0.06623234  0.69816636  0.46468414  1
  C  C137  1  0.56398457  0.66863883  0.47053794  1
  C  C138  1  0.05640998  0.66213926  0.35685407  1
  C  C139  1  0.55615380  0.62623772  0.36261605  1
  C  C140  1  0.27433817  0.92569055  0.36740371  1
  C  C141  1  0.75853021  0.85969262  0.35644996  1
  C  C142  1  0.18813932  0.45676221  0.36434001  1
  C  C143  1  0.66806706  0.48290653  0.36065430  1
  C  C144  1  0.05784095  0.45546058  0.85771224  1
  C  C145  1  0.55537458  0.45399245  0.86283006  1
  C  C146  1  0.16985137  0.88780707  0.86273744  1
  C  C147  1  0.66969288  0.89065306  0.85813406  1
  C  C148  1  0.27323361  0.65283940  0.85893162  1
  C  C149  1  0.77480486  0.65818727  0.85897409  1
  C  C150  1  0.00870253  0.84397319  0.40821830  1
  C  C151  1  0.49826502  0.79460906  0.41228790  1
  C  C152  1  0.40989173  0.02143125  0.42257525  1
  C  C153  1  0.90930634  0.99163329  0.39972110  1
  C  C154  1  0.08968244  0.16956626  0.40623355  1
  C  C155  1  0.59200411  0.20272195  0.41258490  1
  C  C156  1  0.02407914  0.19455013  0.91357491  1
  C  C157  1  0.51974985  0.18895879  0.91542390  1
  C  C158  1  0.07364274  0.96405216  0.91370203  1
  C  C159  1  0.57383602  0.96093603  0.91304418  1
  C  C160  1  0.40567304  0.85065521  0.91292626  1
  C  C161  1  0.90650838  0.84664947  0.91579689  1
  C  C162  1  0.47718181  0.15641911  0.58820350  1
  C  C163  1  0.99844052  0.16003376  0.59261148  1
  C  C164  1  0.10165512  0.03940050  0.59199899  1
  C  C165  1  0.57886750  0.02064883  0.59342512  1
  C  C166  1  0.42053678  0.78559662  0.59106315  1
  C  C167  1  0.92986263  0.82971828  0.59184062  1
  C  C168  1  0.51145003  0.84152071  0.09410643  1
  C  C169  1  0.01029956  0.83843713  0.09487400  1
  C  C170  1  0.41063125  0.98278355  0.09529562  1
  C  C171  1  0.91116939  0.98593430  0.09071914  1
  C  C172  1  0.07894773  0.18113094  0.09392547  1
  C  C173  1  0.57948748  0.17971122  0.09458657  1
  C  C174  1  0.34973578  0.18965154  0.73994506  1
  C  C175  1  0.85031921  0.17612125  0.75593120  1
  C  C176  1  0.23778720  0.31014473  0.74177882  1
  C  C177  1  0.72387908  0.29302167  0.75262773  1
  C  C178  1  0.41327881  0.54113460  0.74116883  1
  C  C179  1  0.91694172  0.56060840  0.75147177  1
  C  C180  1  0.34531183  0.53911550  0.23759583  1
  C  C181  1  0.84801102  0.52314156  0.24967888  1
  C  C182  1  0.43041006  0.32616489  0.23998397  1
  C  C183  1  0.92183324  0.28885027  0.24764979  1
  C  C184  1  0.22628347  0.15768267  0.24645104  1
  C  C185  1  0.73457017  0.12679881  0.24075198  1
  C  C186  1  0.33456270  0.53612931  0.92603820  1
  C  C187  1  0.83224248  0.53134054  0.92490086  1
  C  C188  1  0.43189981  0.32896969  0.92643456  1
  C  C189  1  0.93532724  0.33414823  0.92362712  1
  C  C190  1  0.23187373  0.13554807  0.92592637  1
  C  C191  1  0.73264268  0.13247294  0.92423454  1
  C  C192  1  0.32480639  0.16413279  0.43282746  1
  C  C193  1  0.82413407  0.13446498  0.40765388  1
  C  C194  1  0.24684657  0.33079550  0.43057790  1
  C  C195  1  0.74908416  0.36865305  0.40995006  1
  C  C196  1  0.42377245  0.48226333  0.42347106  1
  C  C197  1  0.92617307  0.52716016  0.41548073  1
  C  C198  1  0.15887098  0.49068398  0.06864727  1
  C  C199  1  0.65736554  0.48901465  0.06917531  1
  C  C200  1  0.08621345  0.68084719  0.07012237  1
  C  C201  1  0.58655410  0.68346261  0.06940695  1
  C  C202  1  0.25608443  0.82628831  0.06894406  1
  C  C203  1  0.75449968  0.82817237  0.06993922  1
  C  C204  1  0.18108974  0.88429842  0.58382855  1
  C  C205  1  0.64978073  0.84600496  0.58674999  1
  C  C206  1  0.26217264  0.62979476  0.58424184  1
  C  C207  1  0.77115302  0.69431781  0.58726999  1
  C  C208  1  0.07738438  0.47459750  0.58668590  1
  C  C209  1  0.55910619  0.47172652  0.58289683  1
  C  C210  1  0.14250253  0.84093203  0.24955323  1
  C  C211  1  0.64355011  0.81547663  0.25300441  1
  C  C212  1  0.26937132  0.70416740  0.23637433  1
  C  C213  1  0.75507448  0.69355704  0.25965070  1
  C  C214  1  0.07943309  0.46195726  0.25030658  1
  C  C215  1  0.58780522  0.47579217  0.25288244  1
  C  C216  1  0.14918543  0.44482416  0.74971616  1
  C  C217  1  0.64125723  0.44013473  0.75021127  1
  C  C218  1  0.07220223  0.68790481  0.74852915  1
  C  C219  1  0.57179179  0.69603917  0.75026896  1
  C  C220  1  0.26626181  0.83610452  0.74375180  1
  C  C221  1  0.76377582  0.83100700  0.74864653  1
