# generated using pymatgen
data_Cu2NiC18
_symmetry_space_group_name_H-M   'P 1'
_cell_length_a   9.45706419
_cell_length_b   9.45706430
_cell_length_c   23.32800777
_cell_angle_alpha   90.00192548
_cell_angle_beta   89.99805835
_cell_angle_gamma   120.00029187
_symmetry_Int_Tables_number   1
_chemical_formula_structural   Cu2NiC18
_chemical_formula_sum   'Cu12 Ni6 C108'
_cell_volume   1806.83994885
_cell_formula_units_Z   6
loop_
 _symmetry_equiv_pos_site_id
 _symmetry_equiv_pos_as_xyz
  1  'x, y, z'
loop_
 _atom_site_type_symbol
 _atom_site_label
 _atom_site_symmetry_multiplicity
 _atom_site_fract_x
 _atom_site_fract_y
 _atom_site_fract_z
 _atom_site_occupancy
  C  C0  1  0.64207651  0.00625799  0.25212790  1
  C  C1  1  0.35787874  0.36424251  0.24793919  1
  C  C2  1  0.99991065  0.62584941  0.25002138  1
  C  C3  1  0.63575850  0.64212173  0.74793956  1
  C  C4  1  0.99374213  0.35792323  0.75212771  1
  C  C5  1  0.37414869  0.00008911  0.75002139  1
  C  C6  1  0.30287363  0.32622158  0.58135585  1
  C  C7  1  0.04028084  0.70684982  0.58006505  1
  C  C8  1  0.66034249  0.96771369  0.58864890  1
  C  C9  1  0.29315007  0.95971826  0.08006485  1
  C  C10  1  0.67377827  0.69712617  0.08135603  1
  C  C11  1  0.03228629  0.33965822  0.08864936  1
  C  C12  1  0.97509819  0.67367155  0.92190392  1
  C  C13  1  0.69156663  0.03176293  0.91144807  1
  C  C14  1  0.33350508  0.29362453  0.91673784  1
  C  C15  1  0.96823703  0.30843288  0.41144818  1
  C  C16  1  0.32632905  0.02490236  0.42190435  1
  C  C17  1  0.70637783  0.66649458  0.41673780  1
  C  C18  1  0.00817424  0.99348571  0.49997498  1
  C  C19  1  0.00651432  0.99182580  0.99997501  1
  C  C20  1  0.66069894  0.31900367  0.83348555  1
  C  C21  1  0.68099699  0.33930120  0.33348555  1
  C  C22  1  0.31869815  0.65756449  0.16660114  1
  C  C23  1  0.34243498  0.68130117  0.66660119  1
  C  C24  1  0.00014638  0.00050100  0.34848822  1
  C  C25  1  0.99949888  0.99985358  0.84848817  1
  C  C26  1  0.99930078  0.99883815  0.65153342  1
  C  C27  1  0.00116169  0.00069905  0.15153346  1
  C  C28  1  0.66398693  0.32683723  0.68187110  1
  C  C29  1  0.67316292  0.33601309  0.18187106  1
  C  C30  1  0.66853195  0.33452354  0.98490552  1
  C  C31  1  0.66547656  0.33146790  0.48490543  1
  C  C32  1  0.32979227  0.66956855  0.01515553  1
  C  C33  1  0.33043150  0.67020773  0.51515543  1
  C  C34  1  0.32601400  0.66335861  0.31817766  1
  C  C35  1  0.33664137  0.67398547  0.81817778  1
  Ni  Ni36  1  0.00006694  0.30305897  0.24999642  1
  Ni  Ni37  1  0.69694092  0.99993285  0.74999642  1
  Ni  Ni38  1  0.36205701  0.02888275  0.58287587  1
  Ni  Ni39  1  0.97111734  0.63794296  0.08287589  1
  Ni  Ni40  1  0.33354200  0.97267106  0.91681480  1
  Ni  Ni41  1  0.02732896  0.66645813  0.41681473  1
  Cu  Cu42  1  0.30253031  0.00138737  0.25012823  1
  Cu  Cu43  1  0.69753061  0.69894622  0.24992252  1
  Cu  Cu44  1  0.30105399  0.30246940  0.74992254  1
  Cu  Cu45  1  0.99861245  0.69746949  0.75012822  1
  Cu  Cu46  1  0.96859951  0.33327713  0.58340426  1
  Cu  Cu47  1  0.66625101  0.63336277  0.58360448  1
  Cu  Cu48  1  0.66672280  0.03140044  0.08340425  1
  Cu  Cu49  1  0.36663736  0.33374927  0.08360452  1
  Cu  Cu50  1  0.63325350  0.66549961  0.91691249  1
  Cu  Cu51  1  0.03348912  0.36565863  0.91630159  1
  Cu  Cu52  1  0.63434159  0.96651108  0.41630156  1
  Cu  Cu53  1  0.33450020  0.36674637  0.41691246  1
  C  C54  1  0.21776492  0.02156878  0.30369848  1
  C  C55  1  0.80514866  0.78018982  0.30347883  1
  C  C56  1  0.97652581  0.19226021  0.30700577  1
  C  C57  1  0.21981019  0.19485168  0.80347865  1
  C  C58  1  0.97843122  0.78223499  0.80369845  1
  C  C59  1  0.80774000  0.02347416  0.80700579  1
  C  C60  1  0.78432902  0.97636021  0.69300457  1
  C  C61  1  0.19619674  0.21764923  0.69621356  1
  C  C62  1  0.02508415  0.80502048  0.69654915  1
  C  C63  1  0.78235073  0.80380365  0.19621347  1
  C  C64  1  0.02363985  0.21567060  0.19300452  1
  C  C65  1  0.19497931  0.97491589  0.19654912  1
  C  C66  1  0.88791351  0.35975838  0.63696985  1
  C  C67  1  0.47434787  0.11837725  0.63938909  1
  C  C68  1  0.64647264  0.53036970  0.63763978  1
  C  C69  1  0.88162304  0.52565243  0.13938908  1
  C  C70  1  0.64024176  0.11208648  0.13696983  1
  C  C71  1  0.46962992  0.35352707  0.13763974  1
  C  C72  1  0.44968856  0.31034310  0.03004097  1
  C  C73  1  0.85991610  0.55201366  0.02580752  1
  C  C74  1  0.68846243  0.13723933  0.02993825  1
  C  C75  1  0.44798629  0.14008365  0.52580765  1
  C  C76  1  0.68965678  0.55031160  0.53004099  1
  C  C77  1  0.86276039  0.31153752  0.52993809  1
  C  C78  1  0.55084335  0.68686703  0.97082342  1
  C  C79  1  0.13989465  0.44848203  0.96971665  1
  C  C80  1  0.30879541  0.86002409  0.97348195  1
  C  C81  1  0.55151797  0.86010532  0.46971671  1
  C  C82  1  0.31313299  0.44915687  0.47082353  1
  C  C83  1  0.13997577  0.69120448  0.47348203  1
  C  C84  1  0.11542601  0.64194968  0.36021338  1
  C  C85  1  0.53058511  0.88429422  0.36232655  1
  C  C86  1  0.35788070  0.47302963  0.36336870  1
  C  C87  1  0.11570555  0.46941458  0.86232665  1
  C  C88  1  0.35805027  0.88457370  0.86021334  1
  C  C89  1  0.52697017  0.64211934  0.86336862  1
  C  C90  1  0.01017301  0.83151523  0.41412145  1
  C  C91  1  0.80706658  0.98546959  0.41255551  1
  C  C92  1  0.17904028  0.19494295  0.41241130  1
  C  C93  1  0.01453068  0.19293379  0.91255548  1
  C  C94  1  0.16848474  0.98982699  0.91412129  1
  C  C95  1  0.80505670  0.82095956  0.91241132  1
  C  C96  1  0.98267813  0.17669211  0.58791764  1
  C  C97  1  0.17887069  0.00950114  0.58594791  1
  C  C98  1  0.82046377  0.80630327  0.58707326  1
  C  C99  1  0.99049898  0.82112988  0.08594797  1
  C  C100  1  0.82330819  0.01732196  0.08791772  1
  C  C101  1  0.19369684  0.17953618  0.08707331  1
  C  C102  1  0.68058089  0.16584795  0.74778886  1
  C  C103  1  0.47520789  0.32535620  0.74558776  1
  C  C104  1  0.84163355  0.52826650  0.74551853  1
  C  C105  1  0.67464350  0.52479169  0.24558773  1
  C  C106  1  0.83415250  0.31941880  0.24778900  1
  C  C107  1  0.47173368  0.15836660  0.24551844  1
  C  C108  1  0.65205081  0.51170475  0.92061190  1
  C  C109  1  0.86169876  0.34913876  0.92080198  1
  C  C110  1  0.49851114  0.15486306  0.91950522  1
  C  C111  1  0.65086120  0.13830155  0.42080195  1
  C  C112  1  0.48829554  0.34794912  0.42061192  1
  C  C113  1  0.84513678  0.50148876  0.41950523  1
  C  C114  1  0.35178933  0.48945128  0.07907249  1
  C  C115  1  0.15229300  0.65195854  0.08116700  1
  C  C116  1  0.51591900  0.85748915  0.07873030  1
  C  C117  1  0.34804169  0.84770710  0.58116683  1
  C  C118  1  0.51054867  0.64821079  0.57907241  1
  C  C119  1  0.14251055  0.48408068  0.57873036  1
  C  C120  1  0.32542691  0.85017116  0.25441845  1
  C  C121  1  0.52835877  0.68675648  0.25457145  1
  C  C122  1  0.16596337  0.48535497  0.25213016  1
  C  C123  1  0.31324328  0.47164175  0.75457156  1
  C  C124  1  0.14982866  0.67457328  0.75441848  1
  C  C125  1  0.51464495  0.83403658  0.75213024  1
