# generated using pymatgen
data_Cu(NiC4)2
_symmetry_space_group_name_H-M   'P 1'
_cell_length_a   6.65916863
_cell_length_b   6.00543592
_cell_length_c   6.00543538
_cell_angle_alpha   59.88648990
_cell_angle_beta   63.02986370
_cell_angle_gamma   63.02986008
_symmetry_Int_Tables_number   1
_chemical_formula_structural   Cu(NiC4)2
_chemical_formula_sum   'Cu1 Ni2 C8'
_cell_volume   177.02297611
_cell_formula_units_Z   1
loop_
 _symmetry_equiv_pos_site_id
 _symmetry_equiv_pos_as_xyz
  1  'x, y, z'
loop_
 _atom_site_type_symbol
 _atom_site_label
 _atom_site_symmetry_multiplicity
 _atom_site_fract_x
 _atom_site_fract_y
 _atom_site_fract_z
 _atom_site_occupancy
  Ni  Ni0  1  0.91798909  0.69434026  0.69434026  1
  Ni  Ni1  1  0.29593724  0.23413865  0.23413865  1
  Cu  Cu2  1  0.92141188  0.02574442  0.02574442  1
  C  C3  1  0.40564803  0.86386859  0.86386859  1
  C  C4  1  0.50227716  0.49882995  0.49882995  1
  C  C5  1  0.24029931  0.75595654  0.75595654  1
  C  C6  1  0.24126733  0.75523455  0.24674535  1
  C  C7  1  0.69937120  0.27054160  0.75948141  1
  C  C8  1  0.24126732  0.24674535  0.75523455  1
  C  C9  1  0.69974325  0.27011868  0.27011868  1
  C  C10  1  0.69937120  0.75948141  0.27054160  1
