# generated using pymatgen
data_CuNiC10
_symmetry_space_group_name_H-M   'P 1'
_cell_length_a   9.07974105
_cell_length_b   9.09483884
_cell_length_c   23.49986810
_cell_angle_alpha   91.31741639
_cell_angle_beta   90.17565908
_cell_angle_gamma   119.69425823
_symmetry_Int_Tables_number   1
_chemical_formula_structural   CuNiC10
_chemical_formula_sum   'Cu9 Ni9 C90'
_cell_volume   1685.07531847
_cell_formula_units_Z   9
loop_
 _symmetry_equiv_pos_site_id
 _symmetry_equiv_pos_as_xyz
  1  'x, y, z'
loop_
 _atom_site_type_symbol
 _atom_site_label
 _atom_site_symmetry_multiplicity
 _atom_site_fract_x
 _atom_site_fract_y
 _atom_site_fract_z
 _atom_site_occupancy
  C  C0  1  0.97626101  0.97357014  0.49143320  1
  C  C1  1  0.01729897  0.98983023  -0.00005160  1
  C  C2  1  0.64115811  0.30744965  0.82456587  1
  C  C3  1  0.66861846  0.30688254  0.32794270  1
  C  C4  1  0.30387784  0.65663734  0.17162128  1
  C  C5  1  0.35554956  0.66088564  0.66023806  1
  C  C6  1  0.99913228  0.00380384  0.35479297  1
  C  C7  1  0.00986046  0.00764133  0.85291287  1
  C  C8  1  0.65562695  0.33406888  0.68742528  1
  C  C9  1  0.68091669  0.33524782  0.18889866  1
  C  C10  1  0.32363926  0.67222345  0.02149689  1
  C  C11  1  0.34492357  0.67713598  0.51918141  1
  C  C12  1  0.98953317  0.00870133  0.64596533  1
  C  C13  1  0.00643356  0.99185615  0.15348530  1
  C  C14  1  0.66659574  0.33574535  0.98005386  1
  C  C15  1  0.67616977  0.34815427  0.47430512  1
  C  C16  1  0.31546449  0.67827316  0.31409623  1
  C  C17  1  0.34909252  0.68633116  0.80699328  1
  Ni  Ni18  1  0.29682438  0.00004751  0.25357296  1
  Ni  Ni19  1  0.01619743  0.30002281  0.25203274  1
  Ni  Ni20  1  0.28735039  0.29526999  0.75179575  1
  Ni  Ni21  1  0.71293612  0.00384712  0.75192688  1
  Ni  Ni22  1  0.67372283  0.62979413  0.58532527  1
  Ni  Ni23  1  0.95468965  0.63580582  0.08474569  1
  Ni  Ni24  1  0.33790480  0.96247308  0.91829831  1
  Ni  Ni25  1  0.62250082  0.96185027  0.41823687  1
  Ni  Ni26  1  0.03884974  0.66716417  0.41975571  1
  Cu  Cu27  1  0.70162204  0.71641752  0.24789756  1
  Cu  Cu28  1  0.01292625  0.71535564  0.74881113  1
  Cu  Cu29  1  0.95144186  0.32438911  0.58292921  1
  Cu  Cu30  1  0.36373110  0.04611017  0.58292232  1
  Cu  Cu31  1  0.68234579  0.05185933  0.07979614  1
  Cu  Cu32  1  0.37169738  0.32118233  0.08205625  1
  Cu  Cu33  1  0.61681786  0.65359551  0.91654145  1
  Cu  Cu34  1  0.03090671  0.37835944  0.91723519  1
  Cu  Cu35  1  0.34561757  0.38183641  0.41670441  1
  C  C36  1  0.20702500  0.01626935  0.30797355  1
  C  C37  1  0.80263792  0.78879982  0.29942124  1
  C  C38  1  0.98234526  0.18484650  0.30467162  1
  C  C39  1  0.20652471  0.18508275  0.80625525  1
  C  C40  1  0.98622375  0.78492124  0.80177304  1
  C  C41  1  0.80513709  0.00620462  0.80900107  1
  C  C42  1  0.80842376  0.97387989  0.69366783  1
  C  C43  1  0.16316778  0.19197725  0.69366000  1
  C  C44  1  0.03734130  0.82253878  0.69896627  1
  C  C45  1  0.80016353  0.82720589  0.19610017  1
  C  C46  1  0.02798829  0.18832578  0.19201615  1
  C  C47  1  0.16538173  0.96591357  0.19391692  1
  C  C48  1  0.87621906  0.34455349  0.63455865  1
  C  C49  1  0.46591087  0.12069574  0.63499740  1
  C  C50  1  0.66588163  0.52834025  0.63995076  1
  C  C51  1  0.86061159  0.52560780  0.13727251  1
  C  C52  1  0.64915714  0.12155110  0.13117822  1
  C  C53  1  0.47078946  0.34495051  0.13302026  1
  C  C54  1  0.46253463  0.30039274  0.02932902  1
  C  C55  1  0.82809556  0.52400268  0.02602216  1
  C  C56  1  0.69214931  0.16047948  0.02896180  1
  C  C57  1  0.44775847  0.14724490  0.53241713  1
  C  C58  1  0.69042912  0.52094264  0.52748939  1
  C  C59  1  0.84404559  0.29818531  0.53102410  1
  C  C60  1  0.53926570  0.67430208  0.96808863  1
  C  C61  1  0.13261350  0.45407028  0.96931120  1
  C  C62  1  0.32733435  0.85568042  0.97208050  1
  C  C63  1  0.54097747  0.85264962  0.47270750  1
  C  C64  1  0.32568482  0.45642780  0.46955075  1
  C  C65  1  0.13899709  0.67206658  0.47506881  1
  C  C66  1  0.13277745  0.63778687  0.36025156  1
  C  C67  1  0.49537432  0.85400250  0.36032056  1
  C  C68  1  0.36871743  0.48473166  0.36622887  1
  C  C69  1  0.10737756  0.47971895  0.86682929  1
  C  C70  1  0.35866431  0.85649107  0.86035466  1
  C  C71  1  0.50839017  0.62939686  0.86443377  1
  C  C72  1  0.00096048  0.81815810  0.41391663  1
  C  C73  1  0.81490744  0.00639075  0.41305135  1
  C  C74  1  0.20532538  0.20850251  0.41185183  1
  C  C75  1  0.99713580  0.20344119  0.91286250  1
  C  C76  1  0.17781144  0.99147837  0.91633735  1
  C  C77  1  0.78890538  0.79457525  0.91090672  1
  C  C78  1  0.96210526  0.15968386  0.58811933  1
  C  C79  1  0.19376513  0.03781690  0.58990887  1
  C  C80  1  0.85568047  0.82158266  0.59325855  1
  C  C81  1  0.96404485  0.82589401  0.08980911  1
  C  C82  1  0.84479420  0.05008127  0.08303533  1
  C  C83  1  0.20190857  0.16245950  0.08463298  1
  C  C84  1  0.67938028  0.15751972  0.74497168  1
  C  C85  1  0.48072493  0.33927116  0.74692796  1
  C  C86  1  0.87677600  0.54094971  0.74140543  1
  C  C87  1  0.67461324  0.54605397  0.23887742  1
  C  C88  1  0.86467175  0.34148995  0.24486751  1
  C  C89  1  0.48008555  0.15532359  0.24253625  1
  C  C90  1  0.62618862  0.48971232  0.92236166  1
  C  C91  1  0.85651156  0.36656926  0.92572150  1
  C  C92  1  0.51741966  0.15391938  0.92720860  1
  C  C93  1  0.62292285  0.14758824  0.42893183  1
  C  C94  1  0.50840665  0.36928293  0.42270895  1
  C  C95  1  0.84838403  0.48234300  0.42491443  1
  C  C96  1  0.34982527  0.46860395  0.07335459  1
  C  C97  1  0.14386591  0.66246057  0.08070028  1
  C  C98  1  0.54184547  0.87801235  0.07173820  1
  C  C99  1  0.33214042  0.87096944  0.57887178  1
  C  C100  1  0.51425760  0.66041905  0.58272844  1
  C  C101  1  0.12528840  0.46427630  0.57754741  1
  C  C102  1  0.30227913  0.81743942  0.25676651  1
  C  C103  1  0.53857664  0.71483354  0.24902037  1
  C  C104  1  0.20038389  0.48333189  0.25924309  1
  C  C105  1  0.29135365  0.48289726  0.76326506  1
  C  C106  1  0.17757796  0.70681867  0.75573182  1
  C  C107  1  0.51882432  0.81979455  0.75709750  1
