# generated using pymatgen
data_Cu2NiC5
_symmetry_space_group_name_H-M   'P 1'
_cell_length_a   5.64448800
_cell_length_b   5.64448800
_cell_length_c   4.70584400
_cell_angle_alpha   90.00000000
_cell_angle_beta   90.00000000
_cell_angle_gamma   90.00000000
_symmetry_Int_Tables_number   1
_chemical_formula_structural   Cu2NiC5
_chemical_formula_sum   'Cu4 Ni2 C10'
_cell_volume   149.92934175
_cell_formula_units_Z   2
loop_
 _symmetry_equiv_pos_site_id
 _symmetry_equiv_pos_as_xyz
  1  'x, y, z'
loop_
 _atom_site_type_symbol
 _atom_site_label
 _atom_site_symmetry_multiplicity
 _atom_site_fract_x
 _atom_site_fract_y
 _atom_site_fract_z
 _atom_site_occupancy
  C  C0  1  0.85724300  0.64275700  0.96153500  1
  C  C1  1  0.35724300  0.85724300  0.03846500  1
  C  C2  1  0.64275700  0.14275700  0.03846500  1
  C  C3  1  0.14275700  0.35724300  0.96153500  1
  C  C4  1  0.25681000  0.24319000  0.28179600  1
  C  C5  1  0.24319000  0.74319000  0.71820400  1
  C  C6  1  0.75681000  0.25681000  0.71820400  1
  C  C7  1  0.74319000  0.75681000  0.28179600  1
  Ni  Ni8  1  0.50000000  0.00000000  0.67264800  1
  Ni  Ni9  1  0.00000000  0.50000000  0.32735200  1
  Cu  Cu10  1  0.35538600  0.85538600  0.82194700  1
  Cu  Cu11  1  0.14461400  0.35538600  0.17805300  1
  Cu  Cu12  1  0.64461400  0.14461400  0.82194700  1
  Cu  Cu13  1  0.85538600  0.64461400  0.17805300  1
  C  C14  1  0.00000000  0.50000000  0.59872300  1
  C  C15  1  0.50000000  0.00000000  0.40127700  1
