# generated using pymatgen
data_Cu3NiC16
_symmetry_space_group_name_H-M   'P 1'
_cell_length_a   15.77982852
_cell_length_b   9.06656256
_cell_length_c   8.97521285
_cell_angle_alpha   90.00000000
_cell_angle_beta   126.43100347
_cell_angle_gamma   90.00000000
_symmetry_Int_Tables_number   1
_chemical_formula_structural   Cu3NiC16
_chemical_formula_sum   'Cu12 Ni4 C64'
_cell_volume   1033.12988104
_cell_formula_units_Z   4
loop_
 _symmetry_equiv_pos_site_id
 _symmetry_equiv_pos_as_xyz
  1  'x, y, z'
loop_
 _atom_site_type_symbol
 _atom_site_label
 _atom_site_symmetry_multiplicity
 _atom_site_fract_x
 _atom_site_fract_y
 _atom_site_fract_z
 _atom_site_occupancy
  C  C0  1  0.25393718  0.72726028  0.99115991  1
  C  C1  1  0.75393718  0.77273972  0.49115991  1
  C  C2  1  0.75393718  0.22726028  0.99115991  1
  C  C3  1  0.25393718  0.27273972  0.49115991  1
  C  C4  1  0.50409442  0.10509055  0.74517582  1
  C  C5  1  0.50409442  0.89490945  0.24517582  1
  C  C6  1  0.00409442  0.60509055  0.74517582  1
  C  C7  1  0.00409442  0.39490945  0.24517582  1
  C  C8  1  0.17935693  0.93815154  0.28754613  1
  C  C9  1  0.17935693  0.06184846  0.78754613  1
  C  C10  1  0.67935693  0.43815154  0.28754613  1
  C  C11  1  0.67935693  0.56184846  0.78754613  1
  C  C12  1  0.10655473  0.74681781  0.56980120  1
  C  C13  1  0.10655473  0.25318219  0.06980120  1
  C  C14  1  0.60655473  0.24681781  0.56980120  1
  C  C15  1  0.60655473  0.75318219  0.06980120  1
  Ni  Ni16  1  0.89526932  0.76212832  0.93228148  1
  Ni  Ni17  1  0.89526932  0.23787168  0.43228148  1
  Ni  Ni18  1  0.39526932  0.26212832  0.93228148  1
  Ni  Ni19  1  0.39526932  0.73787168  0.43228148  1
  Cu  Cu20  1  0.98865802  0.95918534  0.75586017  1
  Cu  Cu21  1  0.98865802  0.04081466  0.25586017  1
  Cu  Cu22  1  0.48865802  0.45918534  0.75586017  1
  Cu  Cu23  1  0.48865802  0.54081466  0.25586017  1
  Cu  Cu24  1  0.35789460  0.91891668  0.76069816  1
  Cu  Cu25  1  0.65129247  0.87503433  0.74662739  1
  Cu  Cu26  1  0.65129247  0.12496567  0.24662739  1
  Cu  Cu27  1  0.35789460  0.08108332  0.26069816  1
  Cu  Cu28  1  0.85789460  0.41891668  0.76069816  1
  Cu  Cu29  1  0.15129247  0.37503433  0.74662739  1
  Cu  Cu30  1  0.15129247  0.62496567  0.24662739  1
  Cu  Cu31  1  0.85789460  0.58108332  0.26069816  1
  C  C32  1  0.16030963  0.54224233  0.75246215  1
  C  C33  1  0.85595410  0.59759847  0.75481376  1
  C  C34  1  0.85595410  0.40240153  0.25481376  1
  C  C35  1  0.16030963  0.45775767  0.25246215  1
  C  C36  1  0.66030963  0.04224233  0.75246215  1
  C  C37  1  0.35595410  0.09759847  0.75481376  1
  C  C38  1  0.35595410  0.90240153  0.25481376  1
  C  C39  1  0.66030963  0.95775767  0.25246215  1
  C  C40  1  0.42631933  0.56676286  0.58000795  1
  C  C41  1  0.55767089  0.53917166  0.93602626  1
  C  C42  1  0.55767089  0.46082834  0.43602626  1
  C  C43  1  0.42631933  0.43323714  0.08000795  1
  C  C44  1  0.92631933  0.06676286  0.58000795  1
  C  C45  1  0.05767089  0.03917166  0.93602626  1
  C  C46  1  0.05767089  0.96082834  0.43602626  1
  C  C47  1  0.92631933  0.93323714  0.08000795  1
  C  C48  1  0.26329856  0.86756348  0.75358072  1
  C  C49  1  0.74282962  0.79886921  0.74806166  1
  C  C50  1  0.74282962  0.20113079  0.24806166  1
  C  C51  1  0.26329856  0.13243652  0.25358072  1
  C  C52  1  0.76329856  0.36756348  0.75358072  1
  C  C53  1  0.24282962  0.29886921  0.74806166  1
  C  C54  1  0.24282962  0.70113079  0.24806166  1
  C  C55  1  0.76329856  0.63243652  0.25358072  1
  C  C56  1  0.35486504  0.87728656  0.58543953  1
  C  C57  1  0.65847321  0.81675325  0.90941562  1
  C  C58  1  0.65847321  0.18324675  0.40941562  1
  C  C59  1  0.35486504  0.12271344  0.08543953  1
  C  C60  1  0.85486504  0.37728656  0.58543953  1
  C  C61  1  0.15847321  0.31675325  0.90941562  1
  C  C62  1  0.15847321  0.68324675  0.40941562  1
  C  C63  1  0.85486504  0.62271344  0.08543953  1
  C  C64  1  0.45905150  0.87438614  0.94121743  1
  C  C65  1  0.54505847  0.81412395  0.55870418  1
  C  C66  1  0.54505847  0.18587605  0.05870418  1
  C  C67  1  0.45905150  0.12561386  0.44121743  1
  C  C68  1  0.95905150  0.37438614  0.94121743  1
  C  C69  1  0.04505847  0.31412395  0.55870418  1
  C  C70  1  0.04505847  0.68587605  0.05870418  1
  C  C71  1  0.95905150  0.62561386  0.44121743  1
  C  C72  1  0.05776477  0.84996898  0.74028978  1
  C  C73  1  0.90134722  0.86814306  0.75083070  1
  C  C74  1  0.90134722  0.13185694  0.25083070  1
  C  C75  1  0.05776477  0.15003102  0.24028978  1
  C  C76  1  0.55776477  0.34996898  0.74028978  1
  C  C77  1  0.40134722  0.36814306  0.75083070  1
  C  C78  1  0.40134722  0.63185694  0.25083070  1
  C  C79  1  0.55776477  0.65003102  0.24028978  1
