# generated using pymatgen
data_Cu10Ni21C92
_symmetry_space_group_name_H-M   'P 1'
_cell_length_a   18.94532532
_cell_length_b   9.50219262
_cell_length_c   22.80680361
_cell_angle_alpha   90.10309249
_cell_angle_beta   90.03432199
_cell_angle_gamma   120.00154833
_symmetry_Int_Tables_number   1
_chemical_formula_structural   Cu10Ni21C92
_chemical_formula_sum   'Cu20 Ni42 C184'
_cell_volume   3555.59938441
_cell_formula_units_Z   2
loop_
 _symmetry_equiv_pos_site_id
 _symmetry_equiv_pos_as_xyz
  1  'x, y, z'
loop_
 _atom_site_type_symbol
 _atom_site_label
 _atom_site_symmetry_multiplicity
 _atom_site_fract_x
 _atom_site_fract_y
 _atom_site_fract_z
 _atom_site_occupancy
  Ni  Ni0  1  0.30575486  0.99295591  0.22904388  1
  Ni  Ni1  1  0.80107520  0.98635300  0.22967657  1
  Ni  Ni2  1  0.19574419  0.37254848  0.24357487  1
  Ni  Ni3  1  0.69402116  0.36562197  0.23188143  1
  Ni  Ni4  1  0.99797335  0.64629599  0.24742222  1
  Ni  Ni5  1  0.49737613  0.65484236  0.24432138  1
  Ni  Ni6  1  0.29964147  0.61473894  0.73407357  1
  Ni  Ni7  1  0.80943773  0.61958120  0.73155953  1
  Ni  Ni8  1  0.99975817  0.34198599  0.75250538  1
  Ni  Ni9  1  0.49514520  0.34448816  0.75380462  1
  Ni  Ni10  1  0.19115490  0.01796336  0.74914490  1
  Ni  Ni11  1  0.69671787  0.02148118  0.74837670  1
  Ni  Ni12  1  0.17050228  0.34101831  0.59380031  1
  Ni  Ni13  1  0.67254738  0.36561400  0.59690101  1
  Ni  Ni14  1  0.30894447  0.96185505  0.59452329  1
  Ni  Ni15  1  0.16970928  0.97080592  0.07106745  1
  Ni  Ni16  1  0.67140200  0.00056764  0.08866597  1
  Ni  Ni17  1  0.81246778  0.66181322  0.08847393  1
  Ni  Ni18  1  0.48036290  0.66223052  0.92169379  1
  Ni  Ni19  1  0.00390620  0.69425727  0.92217308  1
  Ni  Ni20  1  0.33295240  0.02354389  0.91767441  1
  Ni  Ni21  1  0.85466389  0.03834429  0.91741725  1
  Ni  Ni22  1  0.16485352  0.28169942  0.90405094  1
  Ni  Ni23  1  0.66808392  0.29480210  0.92249658  1
  Ni  Ni24  1  0.48116533  0.30015670  0.41692941  1
  Ni  Ni25  1  0.98323484  0.29899167  0.42101637  1
  Ni  Ni26  1  0.16763605  0.04456072  0.42193244  1
  Ni  Ni27  1  0.66709412  0.03686779  0.40377068  1
  Ni  Ni28  1  0.35276813  0.66499629  0.41752591  1
  Ni  Ni29  1  0.85263565  0.67162785  0.41996552  1
  Ni  Ni30  1  0.99606617  0.95601763  0.51492512  1
  Ni  Ni31  1  0.49282474  0.95169691  0.50723089  1
  Ni  Ni32  1  0.01088310  0.02674323  0.99627534  1
  Ni  Ni33  1  0.48898245  0.03265477  0.01213479  1
  Ni  Ni34  1  0.30759285  0.28592665  0.82902748  1
  Ni  Ni35  1  0.82914202  0.32090614  0.82176569  1
  Ni  Ni36  1  0.32466915  0.33435647  0.31897971  1
  Ni  Ni37  1  0.82286938  0.33087921  0.31926306  1
  Ni  Ni38  1  0.18549625  0.68478456  0.16303151  1
  Ni  Ni39  1  0.67212776  0.66231726  0.16056215  1
  Ni  Ni40  1  0.17029521  0.67851052  0.66470316  1
  Ni  Ni41  1  0.68654012  0.68382059  0.66547443  1
  Cu  Cu42  1  0.00080634  0.99213276  0.34628820  1
  Cu  Cu43  1  0.49754162  0.98747617  0.34360610  1
  Cu  Cu44  1  0.00103003  0.00557360  0.84649220  1
  Cu  Cu45  1  0.50028594  0.00883439  0.84792620  1
  Cu  Cu46  1  0.33014229  0.33262018  0.67983445  1
  Cu  Cu47  1  0.83434220  0.33279481  0.67781482  1
  Cu  Cu48  1  0.33241628  0.33226301  0.17602288  1
  Cu  Cu49  1  0.83113646  0.32770526  0.17770499  1
  Cu  Cu50  1  0.33195186  0.31154435  0.99044981  1
  Cu  Cu51  1  0.83001598  0.31687139  0.99419143  1
  Cu  Cu52  1  0.32738719  0.34217493  0.49706057  1
  Cu  Cu53  1  0.83727680  0.35630577  0.49494248  1
  Cu  Cu54  1  0.17111104  0.67251988  0.01600020  1
  Cu  Cu55  1  0.66629180  0.66087863  0.02033112  1
  Cu  Cu56  1  0.16671001  0.67181890  0.52103425  1
  Cu  Cu57  1  0.67155795  0.67827108  0.52030070  1
  Cu  Cu58  1  0.17261530  0.68029535  0.30969813  1
  Cu  Cu59  1  0.67143215  0.67465776  0.30970601  1
  Cu  Cu60  1  0.17131051  0.67733020  0.81460719  1
  Cu  Cu61  1  0.67191077  0.66423962  0.81052856  1
  C  C62  1  0.99739239  0.00013108  0.65158174  1
  C  C63  1  0.49487898  0.00167257  0.65439499  1
  C  C64  1  0.99545132  0.98666136  0.15369057  1
  C  C65  1  0.49724039  0.99176831  0.15100562  1
  C  C66  1  0.15131856  0.00448765  0.25250933  1
  C  C67  1  0.64960776  0.99966386  0.25282647  1
  C  C68  1  0.35059751  0.69711402  0.25442553  1
  C  C69  1  0.84893437  0.69273632  0.25557961  1
  C  C70  1  0.14911019  0.30282914  0.75098215  1
  C  C71  1  0.65130195  0.29895817  0.75114819  1
  C  C72  1  0.34755879  0.00342482  0.75478868  1
  C  C73  1  0.85066045  0.00213559  0.75469964  1
  C  C74  1  0.17302524  0.02489348  0.58260309  1
  C  C75  1  0.33897527  0.65514175  0.58244475  1
  C  C76  1  0.83375103  0.65060978  0.58320524  1
  C  C77  1  0.33376697  0.01699094  0.08509437  1
  C  C78  1  0.83775150  0.02191409  0.08364178  1
  C  C79  1  0.67308186  0.32184773  0.08426227  1
  C  C80  1  0.16526777  0.97466234  0.91762916  1
  C  C81  1  0.00115252  0.29162219  0.25018265  1
  C  C82  1  0.50057108  0.29435688  0.25087867  1
  C  C83  1  -0.00033873  0.70639981  0.74868470  1
  C  C84  1  0.50247291  0.71276866  0.74933436  1
  C  C85  1  0.48826351  0.32103055  0.58449882  1
  C  C86  1  0.98859849  0.31855805  0.58316351  1
  C  C87  1  0.67231226  0.02910613  0.58369030  1
  C  C88  1  0.48872374  0.65594648  0.08430362  1
  C  C89  1  0.98789997  0.65175908  0.08771678  1
  C  C90  1  0.17065813  0.31761914  0.08698235  1
  C  C91  1  0.32187977  0.66319087  0.91579691  1
  C  C92  1  0.81781565  0.65668196  0.91763341  1
  C  C93  1  0.01289504  0.36926373  0.91534365  1
  C  C94  1  0.51563176  0.36988323  0.91349349  1
  C  C95  1  0.66610043  0.96624769  0.91565191  1
  C  C96  1  0.32071709  0.97980304  0.41764656  1
  C  C97  1  0.81901917  0.98012671  0.41571143  1
  C  C98  1  0.16600954  0.36656873  0.41553458  1
  C  C99  1  0.66480638  0.36252000  0.41783764  1
  C  C100  1  0.01351190  0.65730663  0.41348428  1
  C  C101  1  0.51530007  0.65999106  0.41605867  1
  C  C102  1  0.11401235  0.02142155  0.31417916  1
  C  C103  1  0.61249125  0.01550289  0.31493779  1
  C  C104  1  0.38951772  0.76474642  0.31867448  1
  C  C105  1  0.89132258  0.77584136  0.31693275  1
  C  C106  1  0.49064359  0.21240755  0.30805238  1
  C  C107  1  0.99132613  0.20844178  0.30659598  1
  C  C108  1  0.10983903  0.20967922  0.81157250  1
  C  C109  1  0.61197026  0.20130888  0.81098327  1
  C  C110  1  0.49211217  0.77769963  0.80504839  1
  C  C111  1  0.98897218  0.77081823  0.80454159  1
  C  C112  1  0.39461849  0.01000731  0.81393716  1
  C  C113  1  0.89027163  0.01185458  0.81818171  1
  C  C114  1  0.41388221  0.00367018  0.69885708  1
  C  C115  1  0.91672389  0.00032694  0.70337088  1
  C  C116  1  0.08656456  0.17549977  0.69611349  1
  C  C117  1  0.58931577  0.17411088  0.69394203  1
  C  C118  1  0.00112861  0.81290457  0.69941070  1
  C  C119  1  0.50239962  0.82197378  0.70000435  1
  C  C120  1  0.41814707  0.83173665  0.20476130  1
  C  C121  1  0.91479897  0.82601972  0.20124722  1
  C  C122  1  0.00117929  0.18356162  0.20128719  1
  C  C123  1  0.50215707  0.18882007  0.20264669  1
  C  C124  1  0.08674336  0.00504947  0.19832669  1
  C  C125  1  0.58656077  0.00008048  0.19931429  1
  C  C126  1  0.44932781  0.33737224  0.63769022  1
  C  C127  1  0.94689116  0.33557534  0.63468973  1
  C  C128  1  0.23777982  0.12031729  0.63486481  1
  C  C129  1  0.72061026  0.10727551  0.63689073  1
  C  C130  1  0.32714690  0.53771009  0.63704608  1
  C  C131  1  0.81991892  0.52114703  0.63468554  1
  C  C132  1  0.44901394  0.56078605  0.13715121  1
  C  C133  1  0.94802641  0.56387518  0.14168057  1
  C  C134  1  0.32485489  0.11640680  0.13955681  1
  C  C135  1  0.82475196  0.11080837  0.13968052  1
  C  C136  1  0.21807315  0.33910131  0.14111209  1
  C  C137  1  0.73482784  0.35503317  0.13868812  1
  C  C138  1  0.21263992  0.29663558  0.03550554  1
  C  C139  1  0.70671422  0.27297791  0.02563169  1
  C  C140  1  0.44336097  0.57856573  0.03016616  1
  C  C141  1  0.93701723  0.57767938  0.03498382  1
  C  C142  1  0.35278113  0.11382621  0.02285569  1
  C  C143  1  0.85235849  0.11720763  0.02181253  1
  C  C144  1  0.20362610  0.13543553  0.52235748  1
  C  C145  1  0.71408302  0.12666636  0.53045545  1
  C  C146  1  0.35538988  0.59634470  0.51910349  1
  C  C147  1  0.85028522  0.59260314  0.51929576  1
  C  C148  1  0.43865905  0.29638978  0.53116579  1
  C  C149  1  0.94416939  0.30688996  0.52801171  1
  C  C150  1  0.27550914  0.67506021  0.96535790  1
  C  C151  1  0.77428329  0.66699973  0.96992560  1
  C  C152  1  0.06424925  0.46218095  0.96522790  1
  C  C153  1  0.56895512  0.46736918  0.96193228  1
  C  C154  1  0.15767573  0.86674571  0.97579521  1
  C  C155  1  0.66465593  0.87527538  0.96844244  1
  C  C156  1  0.27749378  0.88187983  0.46957760  1
  C  C157  1  0.77432911  0.87471058  0.46557809  1
  C  C158  1  0.16426206  0.45453920  0.46849506  1
  C  C159  1  0.66205717  0.45101203  0.47048181  1
  C  C160  1  0.06436655  0.66153509  0.46276903  1
  C  C161  1  0.56605231  0.66711681  0.46611377  1
  C  C162  1  0.05051564  0.65000468  0.35703598  1
  C  C163  1  0.55435904  0.65414311  0.36028640  1
  C  C164  1  0.27417472  0.89864096  0.36375276  1
  C  C165  1  0.77430842  0.90443672  0.36053301  1
  C  C166  1  0.16754002  0.45667887  0.36191708  1
  C  C167  1  0.67111350  0.45628020  0.36427916  1
  C  C168  1  0.05139214  0.45102261  0.85912259  1
  C  C169  1  0.55227434  0.44910298  0.85642863  1
  C  C170  1  0.17314423  0.88629262  0.85769345  1
  C  C171  1  0.66763750  0.87913454  0.86177961  1
  C  C172  1  0.27836942  0.64840583  0.85996055  1
  C  C173  1  0.76947065  0.64090767  0.86402075  1
  C  C174  1  0.00390095  0.80481032  0.41747251  1
  C  C175  1  0.50590584  0.80832045  0.41868433  1
  C  C176  1  0.40500960  0.00138156  0.41688123  1
  C  C177  1  0.90373374  0.00504202  0.41553029  1
  C  C178  1  0.09103266  0.20125322  0.41610478  1
  C  C179  1  0.58893950  0.19869895  0.41711686  1
  C  C180  1  0.00126018  0.20132291  0.91750086  1
  C  C181  1  0.50566813  0.20325554  0.91719618  1
  C  C182  1  0.08165203  0.99015163  0.91925694  1
  C  C183  1  0.59123078  0.98207873  0.91638113  1
  C  C184  1  0.40584096  0.81134486  0.91660680  1
  C  C185  1  0.90029909  0.80460513  0.91603538  1
  C  C186  1  0.49465415  0.16632646  0.59004122  1
  C  C187  1  0.99218470  0.16300470  0.58805160  1
  C  C188  1  0.08138579  0.00878811  0.59705813  1
  C  C189  1  0.59193451  0.02730324  0.58773489  1
  C  C190  1  0.42412461  0.84363034  0.59579730  1
  C  C191  1  0.91492275  0.83234158  0.59986667  1
  C  C192  1  0.49318024  0.82067787  0.08931148  1
  C  C193  1  0.99590063  0.82168892  0.09199136  1
  C  C194  1  0.41595405  0.99676568  0.10170129  1
  C  C195  1  0.92200100  0.00177995  0.09789128  1
  C  C196  1  0.08960753  0.15848137  0.09176868  1
  C  C197  1  0.58158858  0.15320239  0.09826483  1
  C  C198  1  0.34658820  0.17175673  0.74749779  1
  C  C199  1  0.84401243  0.16582801  0.74520257  1
  C  C200  1  0.24100121  0.32948092  0.74664427  1
  C  C201  1  0.74323798  0.32753316  0.74484210  1
  C  C202  1  0.43554075  0.54591283  0.74041350  1
  C  C203  1  0.92960783  0.53863422  0.74106363  1
  C  C204  1  0.34371574  0.52050724  0.24487685  1
  C  C205  1  0.84786203  0.52234277  0.24762696  1
  C  C206  1  0.43202761  0.32539412  0.24282344  1
  C  C207  1  0.93346321  0.32426225  0.24228642  1
  C  C208  1  0.24264280  0.15979885  0.24508952  1
  C  C209  1  0.74204067  0.15370600  0.24722394  1
  C  C210  1  0.33273506  0.51809258  0.92175597  1
  C  C211  1  0.82738608  0.50944818  0.92106167  1
  C  C212  1  0.43438069  0.35889599  0.91803611  1
  C  C213  1  0.93098243  0.35861824  0.91860675  1
  C  C214  1  0.24800607  0.15877710  0.91877503  1
  C  C215  1  0.74057603  0.13272711  0.91516536  1
  C  C216  1  0.33006364  0.14643669  0.42089908  1
  C  C217  1  0.82611800  0.14459032  0.42146616  1
  C  C218  1  0.24069801  0.34917853  0.41519023  1
  C  C219  1  0.73765994  0.33828172  0.42005347  1
  C  C220  1  0.43265796  0.51009533  0.41882538  1
  C  C221  1  0.93024135  0.50750755  0.41696665  1
  C  C222  1  0.15388907  0.45149183  0.07996219  1
  C  C223  1  0.66275016  0.48038986  0.08014469  1
  C  C224  1  0.07083806  0.67805730  0.08291258  1
  C  C225  1  0.57483649  0.69487265  0.08132750  1
  C  C226  1  0.25236141  0.83803119  0.08455936  1
  C  C227  1  0.76012418  0.83628485  0.08321265  1
  C  C228  1  0.16205468  0.84510285  0.57907710  1
  C  C229  1  0.65572974  0.86113196  0.57874924  1
  C  C230  1  0.26124322  0.68524080  0.58276389  1
  C  C231  1  0.75094417  0.66343814  0.58412595  1
  C  C232  1  0.07435055  0.45214268  0.58072284  1
  C  C233  1  0.57264315  0.45723086  0.57860146  1
  C  C234  1  0.14697452  0.82899198  0.24329771  1
  C  C235  1  0.64724980  0.82526734  0.24451193  1
  C  C236  1  0.26321329  0.68921300  0.24351236  1
  C  C237  1  0.76260376  0.68431362  0.24138656  1
  C  C238  1  0.08026407  0.44700342  0.24738589  1
  C  C239  1  0.57902363  0.45119560  0.24893240  1
  C  C240  1  0.14695802  0.47175523  0.74234990  1
  C  C241  1  0.64658796  0.46516747  0.74179069  1
  C  C242  1  0.07661160  0.70202172  0.74606804  1
  C  C243  1  0.58225795  0.71868518  0.74616376  1
  C  C244  1  0.26336035  0.83705493  0.74021995  1
  C  C245  1  0.76301409  0.83574106  0.74355878  1
