# generated using pymatgen
data_Cu5Ni7C5
_symmetry_space_group_name_H-M   'P 1'
_cell_length_a   5.18871912
_cell_length_b   7.41044658
_cell_length_c   5.44814785
_cell_angle_alpha   94.06723533
_cell_angle_beta   85.77138146
_cell_angle_gamma   90.71094101
_symmetry_Int_Tables_number   1
_chemical_formula_structural   Cu5Ni7C5
_chemical_formula_sum   'Cu5 Ni7 C5'
_cell_volume   208.38339656
_cell_formula_units_Z   1
loop_
 _symmetry_equiv_pos_site_id
 _symmetry_equiv_pos_as_xyz
  1  'x, y, z'
loop_
 _atom_site_type_symbol
 _atom_site_label
 _atom_site_symmetry_multiplicity
 _atom_site_fract_x
 _atom_site_fract_y
 _atom_site_fract_z
 _atom_site_occupancy
  C  C0  1  0.50605000  0.79665700  0.89788700  1
  C  C1  1  0.43860400  0.49753200  0.47529600  1
  C  C2  1  0.50995200  0.02331300  0.48039600  1
  C  C3  1  0.02128800  0.51495200  0.01367800  1
  C  C4  1  0.00799400  0.00420000  0.00523700  1
  Ni  Ni5  1  0.69492100  0.93778100  0.16748400  1
  Ni  Ni6  1  0.58733800  0.24460400  0.49814500  1
  Ni  Ni7  1  0.43218100  0.73328700  0.52233100  1
  Ni  Ni8  1  0.29911200  0.44765400  0.20407800  1
  Ni  Ni9  1  0.28832500  0.02417800  0.80093500  1
  Ni  Ni10  1  0.20470100  0.44693000  0.70422100  1
  Ni  Ni11  1  0.12643000  0.74055100  0.01449900  1
  Cu  Cu12  1  0.89862900  0.25590400  0.00523100  1
  Cu  Cu13  1  0.80352000  0.53167900  0.32437800  1
  Cu  Cu14  1  0.79165300  0.94373400  0.69800900  1
  Cu  Cu15  1  0.70053900  0.56836500  0.85368300  1
  Cu  Cu16  1  0.18876500  0.04760900  0.30951600  1
