# generated using pymatgen
data_Cu(Ni3C7)2
_symmetry_space_group_name_H-M   'P 1'
_cell_length_a   9.87499025
_cell_length_b   9.87499025
_cell_length_c   12.01198100
_cell_angle_alpha   90.00000000
_cell_angle_beta   90.00000000
_cell_angle_gamma   96.19092559
_symmetry_Int_Tables_number   1
_chemical_formula_structural   Cu(Ni3C7)2
_chemical_formula_sum   'Cu2 Ni12 C28'
_cell_volume   1164.52225412
_cell_formula_units_Z   2
loop_
 _symmetry_equiv_pos_site_id
 _symmetry_equiv_pos_as_xyz
  1  'x, y, z'
loop_
 _atom_site_type_symbol
 _atom_site_label
 _atom_site_symmetry_multiplicity
 _atom_site_fract_x
 _atom_site_fract_y
 _atom_site_fract_z
 _atom_site_occupancy
  Ni  Ni0  1  0.04750400  0.80781000  0.38106400  1
  Ni  Ni1  1  0.84828600  0.84828600  0.61124600  1
  Ni  Ni2  1  0.15171400  0.15171400  0.38875400  1
  Ni  Ni3  1  0.34828600  0.34828600  0.88875400  1
  Ni  Ni4  1  0.45249600  0.69219000  0.88106400  1
  Ni  Ni5  1  0.65171400  0.65171400  0.11124600  1
  Ni  Ni6  1  0.19219000  0.95249600  0.61893600  1
  Ni  Ni7  1  0.30781000  0.54750400  0.11893600  1
  Ni  Ni8  1  0.54750400  0.30781000  0.11893600  1
  Ni  Ni9  1  0.95249600  0.19219000  0.61893600  1
  Ni  Ni10  1  0.80781000  0.04750400  0.38106400  1
  Ni  Ni11  1  0.69219000  0.45249600  0.88106400  1
  Cu  Cu12  1  0.00000000  0.00000000  0.50000000  1
  Cu  Cu13  1  0.50000000  0.50000000  0.00000000  1
  C  C14  1  0.36077600  0.11753000  0.50787000  1
  C  C15  1  0.10053800  0.60053800  0.25000000  1
  C  C16  1  0.24788200  0.75211800  0.50000000  1
  C  C17  1  0.25211800  0.74788200  0.00000000  1
  C  C18  1  0.75211800  0.24788200  0.50000000  1
  C  C19  1  0.74788200  0.25211800  0.00000000  1
  C  C20  1  0.84352300  0.84352300  0.24428900  1
  C  C21  1  0.65647700  0.65647700  0.74428900  1
  C  C22  1  0.34352300  0.34352300  0.25571100  1
  C  C23  1  0.15647700  0.15647700  0.75571100  1
  C  C24  1  0.60053800  0.10053800  0.25000000  1
  C  C25  1  0.89946200  0.39946200  0.75000000  1
  C  C26  1  0.96379700  0.20710400  0.25518600  1
  C  C27  1  0.53620300  0.29289600  0.75518600  1
  C  C28  1  0.38247000  0.13922400  0.00787000  1
  C  C29  1  0.79289600  0.03620300  0.74481400  1
  C  C30  1  0.03620300  0.79289600  0.74481400  1
  C  C31  1  0.46379700  0.70710400  0.24481400  1
  C  C32  1  0.29289600  0.53620300  0.75518600  1
  C  C33  1  0.20710400  0.96379700  0.25518600  1
  C  C34  1  0.13922400  0.38247000  0.00787000  1
  C  C35  1  0.70710400  0.46379700  0.24481400  1
  C  C36  1  0.88247000  0.63922400  0.49213000  1
  C  C37  1  0.61753000  0.86077600  0.99213000  1
  C  C38  1  0.86077600  0.61753000  0.99213000  1
  C  C39  1  0.63922400  0.88247000  0.49213000  1
  C  C40  1  0.11753000  0.36077600  0.50787000  1
  C  C41  1  0.39946200  0.89946200  0.75000000  1
