# generated using pymatgen
data_Cu6NiC12
_symmetry_space_group_name_H-M   'P 1'
_cell_length_a   5.56438147
_cell_length_b   4.96339402
_cell_length_c   8.81305992
_cell_angle_alpha   90.84226622
_cell_angle_beta   88.44200287
_cell_angle_gamma   80.09872302
_symmetry_Int_Tables_number   1
_chemical_formula_structural   Cu6NiC12
_chemical_formula_sum   'Cu6 Ni1 C12'
_cell_volume   239.64063120
_cell_formula_units_Z   1
loop_
 _symmetry_equiv_pos_site_id
 _symmetry_equiv_pos_as_xyz
  1  'x, y, z'
loop_
 _atom_site_type_symbol
 _atom_site_label
 _atom_site_symmetry_multiplicity
 _atom_site_fract_x
 _atom_site_fract_y
 _atom_site_fract_z
 _atom_site_occupancy
  Ni  Ni0  1  0.54805100  0.70676700  0.76914700  1
  Cu  Cu1  1  0.99316800  0.00859900  0.99126400  1
  Cu  Cu2  1  0.41081000  0.48165600  0.13640500  1
  Cu  Cu3  1  0.33993300  0.96308800  0.33883600  1
  Cu  Cu4  1  0.83645900  0.50182800  0.31105800  1
  Cu  Cu5  1  0.14152700  0.50341100  0.67087400  1
  Cu  Cu6  1  0.77729200  0.15141200  0.58121900  1
  C  C7  1  0.57725800  0.72437900  0.23334700  1
  C  C8  1  0.21510000  0.20835700  0.09025200  1
  C  C9  1  0.11284500  0.71470300  0.25750500  1
  C  C10  1  0.72531700  0.26574200  0.07526000  1
  C  C11  1  0.06216200  0.23048600  0.42068300  1
  C  C12  1  0.57485700  0.19470600  0.40426100  1
  C  C13  1  0.31438800  0.78704300  0.60186400  1
  C  C14  1  0.81327000  0.70633900  0.60622200  1
  C  C15  1  0.48359800  0.31888200  0.72351700  1
  C  C16  1  0.27586100  0.73249100  0.91972300  1
  C  C17  1  0.98174300  0.22046400  0.74862800  1
  C  C18  1  0.77886200  0.78797800  0.90899600  1
