# generated using pymatgen
data_CuNiC3
_symmetry_space_group_name_H-M   'P 1'
_cell_length_a   3.04732252
_cell_length_b   3.05055907
_cell_length_c   6.21815447
_cell_angle_alpha   89.84561391
_cell_angle_beta   89.95075629
_cell_angle_gamma   120.02918533
_symmetry_Int_Tables_number   1
_chemical_formula_structural   CuNiC3
_chemical_formula_sum   'Cu1 Ni1 C3'
_cell_volume   50.04482925
_cell_formula_units_Z   1
loop_
 _symmetry_equiv_pos_site_id
 _symmetry_equiv_pos_as_xyz
  1  'x, y, z'
loop_
 _atom_site_type_symbol
 _atom_site_label
 _atom_site_symmetry_multiplicity
 _atom_site_fract_x
 _atom_site_fract_y
 _atom_site_fract_z
 _atom_site_occupancy
  Ni  Ni0  1  0.33092836  0.66492634  0.58205075  1
  Cu  Cu1  1  0.00233438  0.00114224  0.03157598  1
  C  C2  1  0.66350554  0.33110098  0.45732341  1
  C  C3  1  0.33424288  0.66661092  0.17632354  1
  C  C4  1  0.66882084  0.33618652  0.82592033  1
