# generated using pymatgen
data_CuNi2C27
_symmetry_space_group_name_H-M   'P 1'
_cell_length_a   15.55399234
_cell_length_b   26.85672243
_cell_length_c   8.91523361
_cell_angle_alpha   89.88037634
_cell_angle_beta   125.02380083
_cell_angle_gamma   90.06060021
_symmetry_Int_Tables_number   1
_chemical_formula_structural   CuNi2C27
_chemical_formula_sum   'Cu8 Ni16 C216'
_cell_volume   3049.75398165
_cell_formula_units_Z   8
loop_
 _symmetry_equiv_pos_site_id
 _symmetry_equiv_pos_as_xyz
  1  'x, y, z'
loop_
 _atom_site_type_symbol
 _atom_site_label
 _atom_site_symmetry_multiplicity
 _atom_site_fract_x
 _atom_site_fract_y
 _atom_site_fract_z
 _atom_site_occupancy
  C  C0  1  0.26087247  0.24915651  0.02846784  1
  C  C1  1  0.24725618  0.58223038  0.00023985  1
  C  C2  1  0.24987128  0.91797747  0.00389324  1
  C  C3  1  0.75555420  0.25135375  0.51589525  1
  C  C4  1  0.76207900  0.58983993  0.53072857  1
  C  C5  1  0.75261624  0.90907166  0.52252067  1
  C  C6  1  0.74725618  0.08223038  0.00023985  1
  C  C7  1  0.74987128  0.41797747  0.00389324  1
  C  C8  1  0.76087247  0.74915651  0.02846784  1
  C  C9  1  0.26207900  0.08983993  0.53072857  1
  C  C10  1  0.25261624  0.40907166  0.52252067  1
  C  C11  1  0.25555420  0.75135375  0.51589525  1
  C  C12  1  0.49396683  0.04017936  0.73751231  1
  C  C13  1  0.49598722  0.37519547  0.73864478  1
  C  C14  1  0.49623007  0.70228968  0.75521622  1
  C  C15  1  0.50114503  0.29963018  0.26933253  1
  C  C16  1  0.49250462  0.62921672  0.24868334  1
  C  C17  1  0.49853809  0.96778382  0.26539857  1
  C  C18  1  0.99623007  0.20228968  0.75521622  1
  C  C19  1  0.99396683  0.54017936  0.73751231  1
  C  C20  1  0.99598722  0.87519547  0.73864478  1
  C  C21  1  0.99250462  0.12921672  0.24868334  1
  C  C22  1  0.99853809  0.46778382  0.26539857  1
  C  C23  1  0.00114503  0.79963018  0.26933253  1
  C  C24  1  0.82211628  0.97625683  0.21566194  1
  C  C25  1  0.18684295  0.63814760  0.29879429  1
  C  C26  1  0.19585915  0.97319871  0.30573141  1
  C  C27  1  0.18452916  0.68857965  0.75578146  1
  C  C28  1  0.80547733  0.02004209  0.71281267  1
  C  C29  1  0.80479000  0.35608246  0.70494664  1
  C  C30  1  0.32211628  0.47625683  0.21566194  1
  C  C31  1  0.68684295  0.13814760  0.29879429  1
  C  C32  1  0.69585915  0.47319871  0.30573141  1
  C  C33  1  0.68452916  0.18857965  0.75578146  1
  C  C34  1  0.30547733  0.52004209  0.71281267  1
  C  C35  1  0.30479000  0.85608246  0.70494664  1
  Ni  Ni36  1  0.09672107  0.58460046  0.55704328  1
  Ni  Ni37  1  0.10343501  0.92004466  0.56405363  1
  Ni  Ni38  1  0.89783764  0.25114435  0.94578494  1
  Ni  Ni39  1  0.89697223  0.58430427  0.94712237  1
  Ni  Ni40  1  0.89727132  0.91629259  0.94607983  1
  Ni  Ni41  1  0.89838018  0.08206602  0.44235583  1
  Ni  Ni42  1  0.89680800  0.41565696  0.43780420  1
  Ni  Ni43  1  0.89561119  0.74820563  0.43888418  1
  Ni  Ni44  1  0.59672107  0.08460046  0.55704328  1
  Ni  Ni45  1  0.60343501  0.42004466  0.56405363  1
  Ni  Ni46  1  0.39697223  0.08430427  0.94712237  1
  Ni  Ni47  1  0.39727132  0.41629259  0.94607983  1
  Ni  Ni48  1  0.39783764  0.75114435  0.94578494  1
  Ni  Ni49  1  0.39561119  0.24820563  0.43888418  1
  Ni  Ni50  1  0.39838018  0.58206602  0.44235583  1
  Ni  Ni51  1  0.39680800  0.91565696  0.43780420  1
  Cu  Cu52  1  0.10873095  0.25176617  0.56180164  1
  Cu  Cu53  1  0.10699094  0.08371382  0.05885218  1
  Cu  Cu54  1  0.10627638  0.41316585  0.06024133  1
  Cu  Cu55  1  0.10358816  0.74924368  0.06143238  1
  Cu  Cu56  1  0.60873095  0.75176617  0.56180164  1
  Cu  Cu57  1  0.60358816  0.24924368  0.06143238  1
  Cu  Cu58  1  0.60699094  0.58371382  0.05885218  1
  Cu  Cu59  1  0.60627638  0.91316585  0.06024133  1
  C  C60  1  0.99711478  0.31797839  0.73909583  1
  C  C61  1  0.99764178  0.65070370  0.74563101  1
  C  C62  1  0.99865781  0.98431191  0.74291918  1
  C  C63  1  0.99922557  0.01569652  0.24394418  1
  C  C64  1  0.99486637  0.34885144  0.23705408  1
  C  C65  1  0.99957136  0.68170170  0.25404385  1
  C  C66  1  0.49764178  0.15070370  0.74563101  1
  C  C67  1  0.49865781  0.48431191  0.74291918  1
  C  C68  1  0.49711478  0.81797839  0.73909583  1
  C  C69  1  0.49957136  0.18170170  0.25404385  1
  C  C70  1  0.49922557  0.51569652  0.24394418  1
  C  C71  1  0.49486637  0.84885144  0.23705408  1
  C  C72  1  0.35472128  0.29842213  0.74619744  1
  C  C73  1  0.34985917  0.63250273  0.74884423  1
  C  C74  1  0.35179639  0.96524758  0.75046913  1
  C  C75  1  0.64518994  0.30001775  0.73842431  1
  C  C76  1  0.64431664  0.63249337  0.73334080  1
  C  C77  1  0.64602367  0.96556118  0.73818654  1
  C  C78  1  0.64768709  0.03255661  0.24401275  1
  C  C79  1  0.64553616  0.36778825  0.24300478  1
  C  C80  1  0.64374628  0.70159083  0.23543799  1
  C  C81  1  0.35443305  0.03502383  0.25664789  1
  C  C82  1  0.35573440  0.36750187  0.25955991  1
  C  C83  1  0.35065579  0.70184590  0.24857793  1
  C  C84  1  0.84985917  0.13250273  0.74884423  1
  C  C85  1  0.85179639  0.46524758  0.75046913  1
  C  C86  1  0.85472128  0.79842213  0.74619744  1
  C  C87  1  0.14431664  0.13249337  0.73334080  1
  C  C88  1  0.14602367  0.46556118  0.73818654  1
  C  C89  1  0.14518994  0.80001775  0.73842431  1
  C  C90  1  0.14374628  0.20159083  0.23543799  1
  C  C91  1  0.14768709  0.53255661  0.24401275  1
  C  C92  1  0.14553616  0.86778825  0.24300478  1
  C  C93  1  0.85065579  0.20184590  0.24857793  1
  C  C94  1  0.85443305  0.53502383  0.25664789  1
  C  C95  1  0.85573440  0.86750187  0.25955991  1
  C  C96  1  0.14891495  0.19209592  0.73884908  1
  C  C97  1  0.15489132  0.52294331  0.75892223  1
  C  C98  1  0.15545548  0.85675539  0.75730466  1
  C  C99  1  0.84163500  0.18965665  0.75537790  1
  C  C100  1  0.85126356  0.52170936  0.76467358  1
  C  C101  1  0.84750277  0.85423724  0.76353876  1
  C  C102  1  0.84202128  0.14535666  0.26355070  1
  C  C103  1  0.83608179  0.47843656  0.25837114  1
  C  C104  1  0.84554197  0.81089510  0.25682223  1
  C  C105  1  0.15024401  0.14275415  0.24693889  1
  C  C106  1  0.15652741  0.47295557  0.23663463  1
  C  C107  1  0.15221787  0.80821613  0.23221550  1
  C  C108  1  0.65489132  0.02294331  0.75892223  1
  C  C109  1  0.65545548  0.35675539  0.75730466  1
  C  C110  1  0.64891495  0.69209592  0.73884908  1
  C  C111  1  0.35126356  0.02170936  0.76467358  1
  C  C112  1  0.34750277  0.35423724  0.76353876  1
  C  C113  1  0.34163500  0.68965665  0.75537790  1
  C  C114  1  0.34554197  0.31089510  0.25682223  1
  C  C115  1  0.34202128  0.64535666  0.26355070  1
  C  C116  1  0.33608179  0.97843656  0.25837114  1
  C  C117  1  0.65221787  0.30821613  0.23221550  1
  C  C118  1  0.65024401  0.64275415  0.24693889  1
  C  C119  1  0.65652741  0.97295557  0.23663463  1
  C  C120  1  0.44095692  0.18432480  0.58068742  1
  C  C121  1  0.43433302  0.51683282  0.57298411  1
  C  C122  1  0.43478928  0.85148973  0.57585081  1
  C  C123  1  0.56032433  0.18694766  0.92464492  1
  C  C124  1  0.55868791  0.52306827  0.91494943  1
  C  C125  1  0.56470158  0.85058279  0.91831040  1
  C  C126  1  0.57676341  0.15303270  0.43426516  1
  C  C127  1  0.57186616  0.48308482  0.41105227  1
  C  C128  1  0.55963297  0.81167721  0.40954067  1
  C  C129  1  0.44315849  0.14861217  0.08818942  1
  C  C130  1  0.43114072  0.48574250  0.06753155  1
  C  C131  1  0.43380342  0.81822284  0.06462519  1
  C  C132  1  0.93433302  0.01683282  0.57298411  1
  C  C133  1  0.93478928  0.35148973  0.57585081  1
  C  C134  1  0.94095692  0.68432480  0.58068742  1
  C  C135  1  0.05868791  0.02306827  0.91494943  1
  C  C136  1  0.06470158  0.35058279  0.91831040  1
  C  C137  1  0.06032433  0.68694766  0.92464492  1
  C  C138  1  0.05963297  0.31167721  0.40954067  1
  C  C139  1  0.07676341  0.65303270  0.43426516  1
  C  C140  1  0.07186616  0.98308482  0.41105227  1
  C  C141  1  0.93380342  0.31822284  0.06462519  1
  C  C142  1  0.94315849  0.64861217  0.08818942  1
  C  C143  1  0.93114072  0.98574250  0.06753155  1
  C  C144  1  0.25758964  0.27273047  0.73305979  1
  C  C145  1  0.26680057  0.60622238  0.76226944  1
  C  C146  1  0.27000711  0.93732888  0.76229095  1
  C  C147  1  0.74128963  0.27632943  0.75696272  1
  C  C148  1  0.74039336  0.61073348  0.75805480  1
  C  C149  1  0.74162359  0.94431220  0.75228037  1
  C  C150  1  0.74291526  0.05366270  0.25206465  1
  C  C151  1  0.73913860  0.39089863  0.25499616  1
  C  C152  1  0.73960033  0.72360057  0.25783107  1
  C  C153  1  0.25150078  0.05951846  0.23127671  1
  C  C154  1  0.25314081  0.39069246  0.23697707  1
  C  C155  1  0.25902411  0.72589068  0.25088614  1
  C  C156  1  0.76680057  0.10622238  0.76226944  1
  C  C157  1  0.77000711  0.43732888  0.76229095  1
  C  C158  1  0.75758964  0.77273047  0.73305979  1
  C  C159  1  0.24039336  0.11073348  0.75805480  1
  C  C160  1  0.24162359  0.44431220  0.75228037  1
  C  C161  1  0.24128963  0.77632943  0.75696272  1
  C  C162  1  0.23960033  0.22360057  0.25783107  1
  C  C163  1  0.24291526  0.55366270  0.25206465  1
  C  C164  1  0.23913860  0.89089863  0.25499616  1
  C  C165  1  0.75902411  0.22589068  0.25088614  1
  C  C166  1  0.75150078  0.55951846  0.23127671  1
  C  C167  1  0.75314081  0.89069246  0.23697707  1
  C  C168  1  0.35511049  0.28454234  0.58410832  1
  C  C169  1  0.34501170  0.61842598  0.57773029  1
  C  C170  1  0.34785715  0.95045878  0.58075725  1
  C  C171  1  0.63933864  0.27982881  0.90375755  1
  C  C172  1  0.63839187  0.61992559  0.90307041  1
  C  C173  1  0.64733319  0.94642878  0.91270771  1
  C  C174  1  0.65189143  0.04276544  0.41886511  1
  C  C175  1  0.64703250  0.37584802  0.41665258  1
  C  C176  1  0.63701764  0.71563348  0.40444567  1
  C  C177  1  0.35795675  0.04770433  0.09529449  1
  C  C178  1  0.35452715  0.38606005  0.09700952  1
  C  C179  1  0.34379168  0.71431790  0.07587956  1
  C  C180  1  0.84501170  0.11842598  0.57773029  1
  C  C181  1  0.84785715  0.45045878  0.58075725  1
  C  C182  1  0.85511049  0.78454234  0.58410832  1
  C  C183  1  0.13839187  0.11992559  0.90307041  1
  C  C184  1  0.14733319  0.44642878  0.91270771  1
  C  C185  1  0.13933864  0.77982881  0.90375755  1
  C  C186  1  0.13701764  0.21563348  0.40444567  1
  C  C187  1  0.15189143  0.54276544  0.41886511  1
  C  C188  1  0.14703250  0.87584802  0.41665258  1
  C  C189  1  0.84379168  0.21431790  0.07587956  1
  C  C190  1  0.85795675  0.54770433  0.09529449  1
  C  C191  1  0.85452715  0.88606005  0.09700952  1
  C  C192  1  0.45668775  0.27707896  0.92896364  1
  C  C193  1  0.46190022  0.61488760  0.92172847  1
  C  C194  1  0.46484043  0.94315962  0.92167842  1
  C  C195  1  0.54506483  0.28171736  0.56363464  1
  C  C196  1  0.54057174  0.61767356  0.55967556  1
  C  C197  1  0.54289508  0.94908597  0.56583086  1
  C  C198  1  0.54590013  0.05050715  0.07134595  1
  C  C199  1  0.54260365  0.38473687  0.06832180  1
  C  C200  1  0.54030834  0.71675720  0.06191253  1
  C  C201  1  0.44860434  0.05462836  0.43984331  1
  C  C202  1  0.44805621  0.39009595  0.44003968  1
  C  C203  1  0.45718503  0.72287177  0.42251976  1
  C  C204  1  0.96190022  0.11488760  0.92172847  1
  C  C205  1  0.96484043  0.44315962  0.92167842  1
  C  C206  1  0.95668775  0.77707896  0.92896364  1
  C  C207  1  0.04057174  0.11767356  0.55967556  1
  C  C208  1  0.04289508  0.44908597  0.56583086  1
  C  C209  1  0.04506483  0.78171736  0.56363464  1
  C  C210  1  0.04030834  0.21675720  0.06191253  1
  C  C211  1  0.04590013  0.55050715  0.07134595  1
  C  C212  1  0.04260365  0.88473687  0.06832180  1
  C  C213  1  0.95718503  0.22287177  0.42251976  1
  C  C214  1  0.94860434  0.55462836  0.43984331  1
  C  C215  1  0.94805621  0.89009595  0.44003968  1
  C  C216  1  0.07984579  0.28447208  0.73643664  1
  C  C217  1  0.08810189  0.62062190  0.76203823  1
  C  C218  1  0.08356485  0.95213144  0.75733085  1
  C  C219  1  0.92497587  0.28241934  0.75375936  1
  C  C220  1  0.92634351  0.61560162  0.76176074  1
  C  C221  1  0.92282563  0.95212429  0.76098359  1
  C  C222  1  0.92645764  0.05183144  0.25693269  1
  C  C223  1  0.92915970  0.38587289  0.25837048  1
  C  C224  1  0.92795227  0.72011417  0.25708925  1
  C  C225  1  0.07780701  0.05148849  0.23090347  1
  C  C226  1  0.08382462  0.38008637  0.24509511  1
  C  C227  1  0.08214718  0.71697994  0.24163680  1
  C  C228  1  0.58810189  0.12062190  0.76203823  1
  C  C229  1  0.58356485  0.45213144  0.75733085  1
  C  C230  1  0.57984579  0.78447208  0.73643664  1
  C  C231  1  0.42634351  0.11560162  0.76176074  1
  C  C232  1  0.42282563  0.45212429  0.76098359  1
  C  C233  1  0.42497587  0.78241934  0.75375936  1
  C  C234  1  0.42795227  0.22011417  0.25708925  1
  C  C235  1  0.42645764  0.55183144  0.25693269  1
  C  C236  1  0.42915970  0.88587289  0.25837048  1
  C  C237  1  0.58214718  0.21697994  0.24163680  1
  C  C238  1  0.57780701  0.55148849  0.23090347  1
  C  C239  1  0.58382462  0.88008637  0.24509511  1
