# generated using pymatgen
data_Cu5NiC32
_symmetry_space_group_name_H-M   'P 1'
_cell_length_a   8.74726936
_cell_length_b   8.76776535
_cell_length_c   22.25681322
_cell_angle_alpha   90.76402590
_cell_angle_beta   89.57968086
_cell_angle_gamma   120.37678439
_symmetry_Int_Tables_number   1
_chemical_formula_structural   Cu5NiC32
_chemical_formula_sum   'Cu15 Ni3 C96'
_cell_volume   1472.49851104
_cell_formula_units_Z   3
loop_
 _symmetry_equiv_pos_site_id
 _symmetry_equiv_pos_as_xyz
  1  'x, y, z'
loop_
 _atom_site_type_symbol
 _atom_site_label
 _atom_site_symmetry_multiplicity
 _atom_site_fract_x
 _atom_site_fract_y
 _atom_site_fract_z
 _atom_site_occupancy
  C  C0  1  0.36162069  0.36173677  0.25061251  1
  C  C1  1  0.31272300  0.34218136  0.58693871  1
  C  C2  1  0.02318295  0.69669630  0.58241494  1
  C  C3  1  0.98205812  0.67544503  0.91876877  1
  C  C4  1  0.69951443  0.03146171  0.91331151  1
  C  C5  1  0.31645568  0.29168648  0.91899405  1
  C  C6  1  0.97771992  0.98629898  0.49894195  1
  C  C7  1  0.01203482  0.01094897  0.00060528  1
  C  C8  1  0.66632702  0.32777969  0.82889544  1
  C  C9  1  0.67651831  0.33095836  0.33247704  1
  C  C10  1  0.33119998  0.67584861  0.16645647  1
  C  C11  1  0.35908732  0.67505971  0.66578333  1
  C  C12  1  0.99710540  0.99822832  0.35116383  1
  C  C13  1  0.00469142  0.00615836  0.84992235  1
  C  C14  1  0.98283649  0.99038148  0.64940683  1
  C  C15  1  0.99858012  0.99643360  0.14843075  1
  C  C16  1  0.66198723  0.33723129  0.68572716  1
  C  C17  1  0.67272064  0.33291462  0.18619994  1
  C  C18  1  0.32519945  0.66381699  0.01918212  1
  C  C19  1  0.34641488  0.67236822  0.51643805  1
  C  C20  1  0.33441404  0.67627840  0.31705101  1
  Ni  Ni21  1  0.66410471  0.62732120  0.58449110  1
  Ni  Ni22  1  0.04419300  0.37640449  0.91899219  1
  Ni  Ni23  1  0.33298372  0.95814197  0.91972316  1
  C  C24  1  0.67091795  0.31907501  0.98368035  1
  C  C25  1  0.67329823  0.34401210  0.48238225  1
  C  C26  1  0.31835216  0.67537481  0.81845720  1
  Cu  Cu27  1  0.29179693  0.99766862  0.24951323  1
  Cu  Cu28  1  0.70595228  0.70695930  0.24997782  1
  Cu  Cu29  1  0.99934708  0.29261898  0.25044725  1
  Cu  Cu30  1  0.29685738  0.30385468  0.75138789  1
  Cu  Cu31  1  0.00434765  0.70417604  0.75097190  1
  Cu  Cu32  1  0.69534128  0.99269061  0.75246120  1
  Cu  Cu33  1  0.95228809  0.33005401  0.58229374  1
  Cu  Cu34  1  0.38163363  0.04500875  0.58296707  1
  Cu  Cu35  1  0.95348346  0.62169579  0.08339371  1
  Cu  Cu36  1  0.66768018  0.03933644  0.08400345  1
  Cu  Cu37  1  0.38021118  0.33560914  0.08369707  1
  Cu  Cu38  1  0.61971248  0.66383794  0.91674329  1
  Cu  Cu39  1  0.63018095  0.97163625  0.41860153  1
  Cu  Cu40  1  0.33584286  0.36791179  0.41706429  1
  Cu  Cu41  1  0.03535981  0.66218833  0.41872275  1
  C  C42  1  0.21129856  0.03024029  0.30333983  1
  C  C43  1  0.81282167  0.78874872  0.30423903  1
  C  C44  1  0.97447509  0.18603401  0.30425587  1
  C  C45  1  0.21061322  0.19917900  0.80540135  1
  C  C46  1  0.98246466  0.78694967  0.80585924  1
  C  C47  1  0.79744719  0.01480314  0.80763028  1
  C  C48  1  0.77838069  0.96692605  0.69871284  1
  C  C49  1  0.19106093  0.22262664  0.69613092  1
  C  C50  1  0.03231531  0.80981921  0.69674047  1
  C  C51  1  0.78671155  0.81215948  0.19574147  1
  C  C52  1  0.03150374  0.21211635  0.19620179  1
  C  C53  1  0.18535045  0.97227515  0.19508033  1
  C  C54  1  0.87086317  0.35716779  0.63558158  1
  C  C55  1  0.49083504  0.11933485  0.63616696  1
  C  C56  1  0.62437878  0.49470630  0.63867612  1
  C  C57  1  0.86240108  0.51114777  0.13446357  1
  C  C58  1  0.64276605  0.13025614  0.13460190  1
  C  C59  1  0.48556043  0.35452163  0.13702836  1
  C  C60  1  0.46480565  0.30623750  0.02562290  1
  C  C61  1  0.84161679  0.53907270  0.02477612  1
  C  C62  1  0.70009416  0.14803303  0.02500186  1
  C  C63  1  0.46206513  0.15793473  0.52725330  1
  C  C64  1  0.71300400  0.53400976  0.52272969  1
  C  C65  1  0.83925844  0.29000996  0.52624333  1
  C  C66  1  0.54819365  0.70079930  0.97068268  1
  C  C67  1  0.17534029  0.45259125  0.97402197  1
  C  C68  1  0.29849352  0.83614197  0.97533763  1
  C  C69  1  0.54780979  0.86677534  0.47222244  1
  C  C70  1  0.31230617  0.45078818  0.47160822  1
  C  C71  1  0.13556249  0.68421205  0.47435222  1
  C  C72  1  0.11867824  0.63555509  0.36539235  1
  C  C73  1  0.52300869  0.89565367  0.36422961  1
  C  C74  1  0.36594678  0.47545835  0.36286508  1
  C  C75  1  0.12374300  0.50993764  0.85784127  1
  C  C76  1  0.39282508  0.88315662  0.85818994  1
  C  C77  1  0.50365011  0.62308824  0.86219490  1
  C  C78  1  0.00918910  0.81484990  0.41283584  1
  C  C79  1  0.80907182  0.99616687  0.41203457  1
  C  C80  1  0.17906911  0.18924428  0.41102029  1
  C  C81  1  0.99901341  0.17650183  0.90758274  1
  C  C82  1  0.16493451  0.98226591  0.90826879  1
  C  C83  1  0.79925030  0.81782800  0.90727730  1
  C  C84  1  0.98479565  0.18070773  0.58749497  1
  C  C85  1  0.20718498  0.03661600  0.58876900  1
  C  C86  1  0.84873123  0.81583369  0.58569637  1
  C  C87  1  0.96868885  0.79708357  0.08604721  1
  C  C88  1  0.82966050  0.02794197  0.08743178  1
  C  C89  1  0.20311441  0.17453655  0.08579778  1
  C  C90  1  0.67358036  0.14815554  0.74653790  1
  C  C91  1  0.47317712  0.32073916  0.74758448  1
  C  C92  1  0.85171505  0.52364496  0.74611893  1
  C  C93  1  0.68103625  0.52515262  0.24426635  1
  C  C94  1  0.84280751  0.31303113  0.24417530  1
  C  C95  1  0.47026628  0.16217989  0.24388486  1
  C  C96  1  0.63803736  0.50288190  0.92232119  1
  C  C97  1  0.84636701  0.36787681  0.92696193  1
  C  C98  1  0.51371022  0.16368667  0.92675896  1
  C  C99  1  0.64535969  0.15560527  0.42535724  1
  C  C100  1  0.50165024  0.35090250  0.42229461  1
  C  C101  1  0.85374549  0.48896498  0.42150817  1
  C  C102  1  0.37012057  0.49680738  0.07796389  1
  C  C103  1  0.12756771  0.63605849  0.07838601  1
  C  C104  1  0.50911546  0.86438557  0.07707681  1
  C  C105  1  0.34623141  0.86279106  0.57382731  1
  C  C106  1  0.48647207  0.63846393  0.57612012  1
  C  C107  1  0.12638416  0.49550405  0.57414109  1
  C  C108  1  0.31240447  0.84148373  0.25581612  1
  C  C109  1  0.52374022  0.68208170  0.25607961  1
  C  C110  1  0.16384466  0.47108506  0.25681317  1
  C  C111  1  0.31428071  0.48583978  0.75709383  1
  C  C112  1  0.17580787  0.69500575  0.75480790  1
  C  C113  1  0.51458072  0.82140569  0.75640269  1
