# generated using pymatgen
data_Cu3NiC14
_symmetry_space_group_name_H-M   'P 1'
_cell_length_a   3.83223264
_cell_length_b   3.83223236
_cell_length_c   17.48954597
_cell_angle_alpha   96.21979858
_cell_angle_beta   96.21980091
_cell_angle_gamma   89.91485870
_symmetry_Int_Tables_number   1
_chemical_formula_structural   Cu3NiC14
_chemical_formula_sum   'Cu3 Ni1 C14'
_cell_volume   253.82294560
_cell_formula_units_Z   1
loop_
 _symmetry_equiv_pos_site_id
 _symmetry_equiv_pos_as_xyz
  1  'x, y, z'
loop_
 _atom_site_type_symbol
 _atom_site_label
 _atom_site_symmetry_multiplicity
 _atom_site_fract_x
 _atom_site_fract_y
 _atom_site_fract_z
 _atom_site_occupancy
  C  C0  1  0.70653982  0.70653982  0.40311285  1
  C  C1  1  0.27092277  0.27092277  0.52565508  1
  C  C2  1  0.58654001  0.58654001  0.17530008  1
  C  C3  1  0.49721509  0.49721509  0.93400528  1
  Ni  Ni4  1  0.35359976  0.35359976  0.72540515  1
  Cu  Cu5  1  0.81207185  0.81207185  0.63977302  1
  Cu  Cu6  1  0.14283391  0.14283391  0.29117009  1
  Cu  Cu7  1  0.03080063  0.03080063  0.04013432  1
  C  C8  1  0.82783408  0.32808761  0.67273582  1
  C  C9  1  0.32808761  0.82783408  0.67273582  1
  C  C10  1  0.12987275  0.62885361  0.26369895  1
  C  C11  1  0.62885361  0.12987275  0.26369895  1
  C  C12  1  0.75927060  0.75927060  0.53789696  1
  C  C13  1  0.19137427  0.19137427  0.39376956  1
  C  C14  1  0.03286793  0.52259396  0.03278231  1
  C  C15  1  0.07042845  0.07042845  0.15176152  1
  C  C16  1  0.94162589  0.94162589  0.92215294  1
  C  C17  1  0.52259396  0.03286793  0.03278231  1
