# generated using pymatgen
data_CuNiC8
_symmetry_space_group_name_H-M   'P 1'
_cell_length_a   3.79550889
_cell_length_b   5.78876888
_cell_length_c   7.27251743
_cell_angle_alpha   90.00000000
_cell_angle_beta   90.00000000
_cell_angle_gamma   90.00000000
_symmetry_Int_Tables_number   1
_chemical_formula_structural   CuNiC8
_chemical_formula_sum   'Cu1 Ni1 C8'
_cell_volume   159.78683490
_cell_formula_units_Z   1
loop_
 _symmetry_equiv_pos_site_id
 _symmetry_equiv_pos_as_xyz
  1  'x, y, z'
loop_
 _atom_site_type_symbol
 _atom_site_label
 _atom_site_symmetry_multiplicity
 _atom_site_fract_x
 _atom_site_fract_y
 _atom_site_fract_z
 _atom_site_occupancy
  Ni  Ni0  1  -0.00000000  0.00000000  -0.00000000  1
  Cu  Cu1  1  -0.00000000  0.00000000  0.50000000  1
  C  C2  1  -0.00000000  0.50000000  -0.00000000  1
  C  C3  1  0.50000000  0.50000000  0.29724714  1
  C  C4  1  0.50000000  0.50000000  0.70275286  1
  C  C5  1  0.50000000  0.00000000  0.72362200  1
  C  C6  1  0.50000000  0.00000000  0.27637800  1
  C  C7  1  0.00000000  0.50000000  0.72098639  1
  C  C8  1  0.00000000  0.50000000  0.27901361  1
  C  C9  1  0.50000000  0.50000000  -0.00000000  1
