# generated using pymatgen
data_Cu(NiC8)2
_symmetry_space_group_name_H-M   'P 1'
_cell_length_a   9.02804610
_cell_length_b   9.06944209
_cell_length_c   22.70030720
_cell_angle_alpha   90.94988071
_cell_angle_beta   90.00000000
_cell_angle_gamma   119.84912745
_symmetry_Int_Tables_number   1
_chemical_formula_structural   Cu(NiC8)2
_chemical_formula_sum   'Cu6 Ni12 C96'
_cell_volume   1611.81655571
_cell_formula_units_Z   6
loop_
 _symmetry_equiv_pos_site_id
 _symmetry_equiv_pos_as_xyz
  1  'x, y, z'
loop_
 _atom_site_type_symbol
 _atom_site_label
 _atom_site_symmetry_multiplicity
 _atom_site_fract_x
 _atom_site_fract_y
 _atom_site_fract_z
 _atom_site_occupancy
  Ni  Ni0  1  0.99064569  0.63300587  0.24533688  1
  Ni  Ni1  1  0.64236018  0.63300587  0.74533688  1
  Ni  Ni2  1  0.65731269  0.96633887  0.57866988  1
  Ni  Ni3  1  0.30902718  0.96633887  0.07866988  1
  Ni  Ni4  1  0.32397869  0.29967287  0.91200388  1
  Ni  Ni5  1  0.97569318  0.29967287  0.41200388  1
  Ni  Ni6  1  0.00759019  0.97765220  0.49845523  1
  Ni  Ni7  1  0.97006200  0.97765220  0.99845523  1
  Ni  Ni8  1  0.67425719  0.31098520  0.83178823  1
  Ni  Ni9  1  0.63672900  0.31098520  0.33178823  1
  Ni  Ni10  1  0.34092319  0.64431920  0.16512223  1
  Ni  Ni11  1  0.30339500  0.64431920  0.66512223  1
  Cu  Cu12  1  0.99656070  0.99622167  0.35240970  1
  Cu  Cu13  1  0.99966097  0.99622167  0.85240970  1
  Cu  Cu14  1  0.66322770  0.32955467  0.68574270  1
  Cu  Cu15  1  0.66632797  0.32955467  0.18574270  1
  Cu  Cu16  1  0.32989370  0.66288867  0.01907670  1
  Cu  Cu17  1  0.33299397  0.66288867  0.51907670  1
  C  C18  1  0.99584849  0.01320147  0.64979108  1
  C  C19  1  0.01735298  0.01320147  0.14979108  1
  C  C20  1  0.66251549  0.34653447  0.98312408  1
  C  C21  1  0.68401998  0.34653447  0.48312408  1
  C  C22  1  0.32918149  0.67986847  0.31645808  1
  C  C23  1  0.35068598  0.67986847  0.81645808  1
  C  C24  1  0.29246033  0.99125414  0.25115020  1
  C  C25  1  0.01819626  0.30515763  0.25333167  1
  C  C26  1  0.28696137  0.30515763  0.75333167  1
  C  C27  1  0.69879381  0.99125414  0.75115020  1
  C  C28  1  0.95912733  0.32458714  0.58448320  1
  C  C29  1  0.68486326  0.63849063  0.58666467  1
  C  C30  1  0.95362837  0.63849063  0.08666467  1
  C  C31  1  0.36546081  0.32458714  0.08448320  1
  C  C32  1  0.62579333  0.65792114  0.91781720  1
  C  C33  1  0.35152926  0.97182463  0.91999867  1
  C  C34  1  0.62029437  0.97182463  0.41999867  1
  C  C35  1  0.03212681  0.65792114  0.41781720  1
  C  C36  1  0.69863496  0.71459172  0.24846030  1
  C  C37  1  0.01595676  0.71459172  0.74846030  1
  C  C38  1  0.36530196  0.04792472  0.58179330  1
  C  C39  1  0.68262376  0.04792472  0.08179330  1
  C  C40  1  0.03196796  0.38125872  0.91512730  1
  C  C41  1  0.34928976  0.38125872  0.41512730  1
  C  C42  1  0.20539646  0.00796129  0.30423410  1
  C  C43  1  0.79704768  0.78648075  0.30249653  1
  C  C44  1  0.99011421  0.20954000  0.30956704  1
  C  C45  1  0.21942579  0.20954000  0.80956704  1
  C  C46  1  0.98943308  0.78648075  0.80249653  1
  C  C47  1  0.80256482  0.00796129  0.80423410  1
  C  C48  1  0.79227444  0.96628073  0.69342333  1
  C  C49  1  0.16029759  0.19255210  0.69887656  1
  C  C50  1  0.03138252  0.82203917  0.69639237  1
  C  C51  1  0.79065665  0.82203917  0.19639237  1
  C  C52  1  0.03225451  0.19255210  0.19887656  1
  C  C53  1  0.17400629  0.96628073  0.19342333  1
  C  C54  1  0.87206346  0.34129429  0.63756710  1
  C  C55  1  0.46371468  0.11981375  0.63582953  1
  C  C56  1  0.65678121  0.54287300  0.64290004  1
  C  C57  1  0.88609279  0.54287300  0.14290004  1
  C  C58  1  0.65610008  0.11981375  0.13582953  1
  C  C59  1  0.46923182  0.34129429  0.13756710  1
  C  C60  1  0.45894144  0.29961373  0.02675633  1
  C  C61  1  0.82696459  0.52588510  0.03220956  1
  C  C62  1  0.69804952  0.15537217  0.02972537  1
  C  C63  1  0.45732365  0.15537217  0.52972537  1
  C  C64  1  0.69892151  0.52588510  0.53220956  1
  C  C65  1  0.84067329  0.29961373  0.52675633  1
  C  C66  1  0.53872946  0.67462829  0.97090110  1
  C  C67  1  0.13038068  0.45314775  0.96916353  1
  C  C68  1  0.32344721  0.87620700  0.97623404  1
  C  C69  1  0.55275879  0.87620700  0.47623404  1
  C  C70  1  0.32276608  0.45314775  0.46916353  1
  C  C71  1  0.13589782  0.67462829  0.47090110  1
  C  C72  1  0.12560744  0.63294773  0.36009033  1
  C  C73  1  0.49363059  0.85921910  0.36554356  1
  C  C74  1  0.36471552  0.48870617  0.36305937  1
  C  C75  1  0.12398965  0.48870617  0.86305937  1
  C  C76  1  0.36558751  0.85921910  0.86554356  1
  C  C77  1  0.50733929  0.63294773  0.86009033  1
  C  C78  1  0.99533570  0.80195633  0.41165620  1
  C  C79  1  0.80289707  0.00919637  0.41022487  1
  C  C80  1  0.19707449  0.20907473  0.40891244  1
  C  C81  1  0.01200024  0.20907473  0.90891244  1
  C  C82  1  0.20629930  0.00919637  0.91022487  1
  C  C83  1  0.80662063  0.80195633  0.91165620  1
  C  C84  1  0.95834143  0.14682877  0.58920014  1
  C  C85  1  0.19310231  0.03467482  0.58612381  1
  C  C86  1  0.85542498  0.81703023  0.58995753  1
  C  C87  1  0.96160526  0.81703023  0.08995753  1
  C  C88  1  0.84157251  0.03467482  0.08612381  1
  C  C89  1  0.18848733  0.14682877  0.08920014  1
  C  C90  1  0.66200270  0.13528933  0.74498920  1
  C  C91  1  0.46956407  0.34252937  0.74355787  1
  C  C92  1  0.86374149  0.54240773  0.74224544  1
  C  C93  1  0.67866724  0.54240773  0.24224544  1
  C  C94  1  0.87296630  0.34252937  0.24355787  1
  C  C95  1  0.47328763  0.13528933  0.24498920  1
  C  C96  1  0.62500843  0.48016177  0.92253314  1
  C  C97  1  0.85976931  0.36800782  0.91945681  1
  C  C98  1  0.52209198  0.15036323  0.92329053  1
  C  C99  1  0.62827226  0.15036323  0.42329053  1
  C  C100  1  0.50823951  0.36800782  0.41945681  1
  C  C101  1  0.85515433  0.48016177  0.42253314  1
  C  C102  1  0.32866870  0.46862333  0.07832320  1
  C  C103  1  0.13623007  0.67586337  0.07689187  1
  C  C104  1  0.53040749  0.87574173  0.07557944  1
  C  C105  1  0.34533324  0.87574173  0.57557944  1
  C  C106  1  0.53963230  0.67586337  0.57689187  1
  C  C107  1  0.13995363  0.46862333  0.57832320  1
  C  C108  1  0.29167443  0.81349577  0.25586714  1
  C  C109  1  0.52643531  0.70134182  0.25279081  1
  C  C110  1  0.18875798  0.48369723  0.25662453  1
  C  C111  1  0.29493826  0.48369723  0.75662453  1
  C  C112  1  0.17490551  0.70134182  0.75279081  1
  C  C113  1  0.52182033  0.81349577  0.75586714  1
