# generated using pymatgen
data_CuNi3
_symmetry_space_group_name_H-M   'P 1'
_cell_length_a   4.31041800
_cell_length_b   5.48658972
_cell_length_c   5.48658972
_cell_angle_alpha   119.99999666
_cell_angle_beta   90.00000000
_cell_angle_gamma   90.00000000
_symmetry_Int_Tables_number   1
_chemical_formula_structural   CuNi3
_chemical_formula_sum   'Cu2 Ni6'
_cell_volume   112.37119653
_cell_formula_units_Z   2
loop_
 _symmetry_equiv_pos_site_id
 _symmetry_equiv_pos_as_xyz
  1  'x, y, z'
loop_
 _atom_site_type_symbol
 _atom_site_label
 _atom_site_symmetry_multiplicity
 _atom_site_fract_x
 _atom_site_fract_y
 _atom_site_fract_z
 _atom_site_occupancy
  Ni  Ni0  1  0.75000000  0.84923100  0.15076900  1
  Ni  Ni1  1  0.75000000  0.30153700  0.15076900  1
  Ni  Ni2  1  0.75000000  0.84923100  0.69846300  1
  Ni  Ni3  1  0.25000000  0.15076900  0.84923100  1
  Ni  Ni4  1  0.25000000  0.69846300  0.84923100  1
  Ni  Ni5  1  0.25000000  0.15076900  0.30153700  1
  Cu  Cu6  1  0.75000000  0.33333300  0.66666700  1
  Cu  Cu7  1  0.25000000  0.66666700  0.33333300  1
