# generated using pymatgen
data_CuNi2C15
_symmetry_space_group_name_H-M   'P 1'
_cell_length_a   8.85947732
_cell_length_b   8.86667535
_cell_length_c   23.23102913
_cell_angle_alpha   89.69945482
_cell_angle_beta   90.12494467
_cell_angle_gamma   120.00514022
_symmetry_Int_Tables_number   1
_chemical_formula_structural   CuNi2C15
_chemical_formula_sum   'Cu6 Ni12 C90'
_cell_volume   1580.29970928
_cell_formula_units_Z   6
loop_
 _symmetry_equiv_pos_site_id
 _symmetry_equiv_pos_as_xyz
  1  'x, y, z'
loop_
 _atom_site_type_symbol
 _atom_site_label
 _atom_site_symmetry_multiplicity
 _atom_site_fract_x
 _atom_site_fract_y
 _atom_site_fract_z
 _atom_site_occupancy
  C  C0  1  0.00082134  0.98990075  0.50493343  1
  C  C1  1  0.01020506  0.99855049  0.00119299  1
  C  C2  1  0.66065581  0.32596816  0.83073057  1
  C  C3  1  0.66730151  0.33331409  0.34063304  1
  C  C4  1  0.32632450  0.65823015  0.16850290  1
  C  C5  1  0.34987363  0.67172293  0.66397247  1
  C  C6  1  0.99946612  0.99964015  0.64716866  1
  C  C7  1  0.00490346  0.99954668  0.14255478  1
  C  C8  1  0.33362588  0.66937951  0.32073283  1
  C  C9  1  0.00195923  0.00066046  0.35677949  1
  C  C10  1  0.00049852  0.00730064  0.85046977  1
  C  C11  1  0.64752832  0.32037335  0.68377315  1
  C  C12  1  0.66946673  0.34290020  0.18279837  1
  C  C13  1  0.66581223  0.33743299  0.97689047  1
  C  C14  1  0.66127660  0.33335825  0.48153248  1
  C  C15  1  0.32868639  0.66017655  0.01618515  1
  C  C16  1  0.34152114  0.67109232  0.51519138  1
  C  C17  1  0.33774200  0.66772762  0.81783334  1
  Ni  Ni18  1  0.29857204  0.30091831  0.75209018  1
  Ni  Ni19  1  0.69979175  0.00197956  0.75132238  1
  Ni  Ni20  1  0.37706926  0.03262703  0.58030490  1
  Ni  Ni21  1  0.65741223  0.61786149  0.58157780  1
  Ni  Ni22  1  0.96041167  0.61584357  0.07934012  1
  Ni  Ni23  1  0.38425558  0.34443803  0.07938622  1
  Ni  Ni24  1  0.62971426  0.67240149  0.91703266  1
  Ni  Ni25  1  0.03974331  0.37271626  0.91631903  1
  Ni  Ni26  1  0.33028686  0.95717101  0.91695322  1
  Ni  Ni27  1  0.63557549  0.97135192  0.41710426  1
  Ni  Ni28  1  0.33309895  0.36823839  0.41745091  1
  Ni  Ni29  1  0.03305789  0.66372691  0.41826634  1
  Cu  Cu30  1  0.30404266  0.01092713  0.24893975  1
  Cu  Cu31  1  0.70881638  0.70114801  0.24939196  1
  Cu  Cu32  1  0.98928685  0.29118905  0.24845561  1
  Cu  Cu33  1  0.99842854  0.69797724  0.75266490  1
  Cu  Cu34  1  0.95969751  0.34455180  0.58207272  1
  Cu  Cu35  1  0.65520517  0.04074530  0.08045133  1
  C  C36  1  0.22248470  0.03466821  0.30266302  1
  C  C37  1  0.81422076  0.78374471  0.30293351  1
  C  C38  1  0.96621696  0.18610931  0.30238607  1
  C  C39  1  0.21857259  0.18475910  0.80752979  1
  C  C40  1  0.96885778  0.77811744  0.80547503  1
  C  C41  1  0.81146779  0.03096344  0.80728669  1
  C  C42  1  0.77202599  0.96688616  0.69833312  1
  C  C43  1  0.19577990  0.22643582  0.69828337  1
  C  C44  1  0.02985884  0.80103394  0.70102748  1
  C  C45  1  0.79304234  0.79835714  0.19750090  1
  C  C46  1  0.00328686  0.20630598  0.19710099  1
  C  C47  1  0.20452131  0.99610572  0.19754444  1
  C  C48  1  0.87888754  0.36773358  0.63581285  1
  C  C49  1  0.48641494  0.10877959  0.63717351  1
  C  C50  1  0.63352601  0.51034478  0.63867085  1
  C  C51  1  0.88296927  0.50658304  0.13641425  1
  C  C52  1  0.63018648  0.11861920  0.13441227  1
  C  C53  1  0.48982658  0.36923268  0.13664531  1
  C  C54  1  0.47352755  0.31825128  0.02666725  1
  C  C55  1  0.85026515  0.52094612  0.02632693  1
  C  C56  1  0.67667662  0.14663976  0.02851974  1
  C  C57  1  0.47296065  0.14438367  0.52758901  1
  C  C58  1  0.68133722  0.52863337  0.52865930  1
  C  C59  1  0.85498347  0.32495326  0.53003292  1
  C  C60  1  0.54942320  0.70406508  0.97170734  1
  C  C61  1  0.15041668  0.44969631  0.97134215  1
  C  C62  1  0.30032798  0.84650196  0.97225393  1
  C  C63  1  0.55421132  0.85409212  0.47121577  1
  C  C64  1  0.30076683  0.45164254  0.47153063  1
  C  C65  1  0.15055842  0.69537788  0.47205910  1
  C  C66  1  0.09916544  0.63301933  0.36284759  1
  C  C67  1  0.53368672  0.90461263  0.36251752  1
  C  C68  1  0.36376335  0.46708279  0.36229114  1
  C  C69  1  0.12174969  0.48938448  0.86315655  1
  C  C70  1  0.36279149  0.87593154  0.86355170  1
  C  C71  1  0.51508124  0.63769100  0.86365414  1
  C  C72  1  0.01549189  0.83211487  0.41370958  1
  C  C73  1  0.81968871  0.98663081  0.41221146  1
  C  C74  1  0.16555666  0.18253392  0.41351650  1
  C  C75  1  0.02178644  0.19059288  0.91034258  1
  C  C76  1  0.16602800  0.97559677  0.90985349  1
  C  C77  1  0.81303742  0.83475907  0.90963436  1
  C  C78  1  0.97894571  0.19137141  0.58503676  1
  C  C79  1  0.20048144  0.01786130  0.58304892  1
  C  C80  1  0.81341461  0.79848300  0.58404244  1
  C  C81  1  0.97512309  0.79257752  0.08118636  1
  C  C82  1  0.80784972  0.02062207  0.08390931  1
  C  C83  1  0.20244636  0.18955363  0.08134590  1
  C  C84  1  0.68619824  0.17247588  0.74610494  1
  C  C85  1  0.48695534  0.32473109  0.74827851  1
  C  C86  1  0.84186993  0.52071571  0.74756550  1
  C  C87  1  0.69851621  0.52324586  0.24753055  1
  C  C88  1  0.82097114  0.30057070  0.24557999  1
  C  C89  1  0.48222905  0.17732956  0.24553284  1
  C  C90  1  0.64839955  0.50768106  0.92192216  1
  C  C91  1  0.85510466  0.35110247  0.92215805  1
  C  C92  1  0.49593671  0.14047408  0.92293223  1
  C  C93  1  0.66635549  0.15762868  0.42670336  1
  C  C94  1  0.49103650  0.33983224  0.42531376  1
  C  C95  1  0.84757965  0.50591861  0.42738430  1
  C  C96  1  0.38083692  0.51913324  0.07546575  1
  C  C97  1  0.14420663  0.63102623  0.07612276  1
  C  C98  1  0.49276617  0.86732694  0.07652849  1
  C  C99  1  0.36476157  0.85065881  0.57595068  1
  C  C100  1  0.48210632  0.62089108  0.57673028  1
  C  C101  1  0.13293528  0.50679303  0.57756980  1
  C  C102  1  0.32953416  0.86160490  0.25304801  1
  C  C103  1  0.53338825  0.67423671  0.25331109  1
  C  C104  1  0.13783610  0.46678688  0.25253753  1
  C  C105  1  0.31807731  0.48422514  0.76149847  1
  C  C106  1  0.15496829  0.67784716  0.76132210  1
  C  C107  1  0.51160597  0.84429399  0.76095547  1
