# generated using pymatgen
data_Cu3NiC9
_symmetry_space_group_name_H-M   'P 1'
_cell_length_a   3.33582200
_cell_length_b   3.33601424
_cell_length_c   45.33465800
_cell_angle_alpha   90.00012208
_cell_angle_beta   90.00000000
_cell_angle_gamma   119.99811356
_symmetry_Int_Tables_number   1
_chemical_formula_structural   Cu3NiC9
_chemical_formula_sum   'Cu3 Ni1 C9'
_cell_volume   436.91805899
_cell_formula_units_Z   1
loop_
 _symmetry_equiv_pos_site_id
 _symmetry_equiv_pos_as_xyz
  1  'x, y, z'
loop_
 _atom_site_type_symbol
 _atom_site_label
 _atom_site_symmetry_multiplicity
 _atom_site_fract_x
 _atom_site_fract_y
 _atom_site_fract_z
 _atom_site_occupancy
  C  C0  1  0.00001900  0.00003900  0.55870000  1
  C  C1  1  0.66666500  0.33333100  0.05157600  1
  C  C2  1  0.66666500  0.33332900  0.13540300  1
  Ni  Ni3  1  0.33334000  0.66668100  0.09348900  1
  Cu  Cu4  1  0.33331600  0.66663200  0.46282300  1
  Cu  Cu5  1  0.66667300  0.33334500  0.28207600  1
  Cu  Cu6  1  0.66667100  0.33334200  0.66459600  1
  C  C7  1  0.33334000  0.66668000  0.31908600  1
  C  C8  1  0.33334400  0.66668800  0.70155500  1
  C  C9  1  0.33334800  0.66669600  0.24506300  1
  C  C10  1  0.33334100  0.66668200  0.62730700  1
  C  C11  1  0.66664600  0.33329100  0.42937800  1
  C  C12  1  0.66663100  0.33326200  0.49672600  1
