# generated using pymatgen
data_Cu2Ni
_symmetry_space_group_name_H-M   'P 1'
_cell_length_a   4.78309098
_cell_length_b   4.78309098
_cell_length_c   7.77016900
_cell_angle_alpha   90.00000000
_cell_angle_beta   90.00000000
_cell_angle_gamma   119.99998586
_symmetry_Int_Tables_number   1
_chemical_formula_structural   Cu2Ni
_chemical_formula_sum   'Cu8 Ni4'
_cell_volume   153.94955623
_cell_formula_units_Z   4
loop_
 _symmetry_equiv_pos_site_id
 _symmetry_equiv_pos_as_xyz
  1  'x, y, z'
loop_
 _atom_site_type_symbol
 _atom_site_label
 _atom_site_symmetry_multiplicity
 _atom_site_fract_x
 _atom_site_fract_y
 _atom_site_fract_z
 _atom_site_occupancy
  Ni  Ni0  1  0.33333300  0.66666700  0.56238500  1
  Ni  Ni1  1  0.66666700  0.33333300  0.06238500  1
  Ni  Ni2  1  0.66666700  0.33333300  0.43761500  1
  Ni  Ni3  1  0.33333300  0.66666700  0.93761500  1
  Cu  Cu4  1  0.16940200  0.33880400  0.25000000  1
  Cu  Cu5  1  0.83059800  0.66119600  0.75000000  1
  Cu  Cu6  1  0.83059800  0.16940200  0.75000000  1
  Cu  Cu7  1  0.66119600  0.83059800  0.25000000  1
  Cu  Cu8  1  0.16940200  0.83059800  0.25000000  1
  Cu  Cu9  1  0.33880400  0.16940200  0.75000000  1
  Cu  Cu10  1  0.00000000  0.00000000  0.50000000  1
  Cu  Cu11  1  0.00000000  0.00000000  0.00000000  1
