# generated using pymatgen
data_Cu2Ni4C7
_symmetry_space_group_name_H-M   'P 1'
_cell_length_a   6.87715298
_cell_length_b   6.87674130
_cell_length_c   10.05636761
_cell_angle_alpha   54.51768874
_cell_angle_beta   125.46483712
_cell_angle_gamma   130.52156476
_symmetry_Int_Tables_number   1
_chemical_formula_structural   Cu2Ni4C7
_chemical_formula_sum   'Cu4 Ni8 C14'
_cell_volume   278.09620154
_cell_formula_units_Z   2
loop_
 _symmetry_equiv_pos_site_id
 _symmetry_equiv_pos_as_xyz
  1  'x, y, z'
loop_
 _atom_site_type_symbol
 _atom_site_label
 _atom_site_symmetry_multiplicity
 _atom_site_fract_x
 _atom_site_fract_y
 _atom_site_fract_z
 _atom_site_occupancy
  C  C0  1  0.82405600  0.82349100  0.75000300  1
  C  C1  1  0.17623300  0.17621700  0.25023800  1
  Ni  Ni2  1  0.69695900  0.01975600  0.85211500  1
  Ni  Ni3  1  0.01938800  0.69659900  0.64764100  1
  Ni  Ni4  1  0.30293500  0.98038700  0.14772700  1
  Ni  Ni5  1  0.98041400  0.30335200  0.35221400  1
  Ni  Ni6  1  0.64370500  0.17306700  0.64708000  1
  Ni  Ni7  1  0.17337700  0.64352000  0.85265200  1
  Ni  Ni8  1  0.35624300  0.82670900  0.35277100  1
  Ni  Ni9  1  0.82669400  0.35631200  0.14722400  1
  Cu  Cu10  1  0.37505700  0.27533100  0.85099200  1
  Cu  Cu11  1  0.27548700  0.37494400  0.64895800  1
  Cu  Cu12  1  0.62496800  0.72482900  0.14904800  1
  Cu  Cu13  1  0.72459500  0.62527000  0.35113000  1
  C  C14  1  0.60785400  0.43442000  0.92546400  1
  C  C15  1  0.43448600  0.60791700  0.57444000  1
  C  C16  1  0.39223500  0.56567000  0.07458700  1
  C  C17  1  0.56563800  0.39218600  0.42557900  1
  C  C18  1  0.21554400  0.04243800  0.92602600  1
  C  C19  1  0.04255400  0.21551200  0.57395600  1
  C  C20  1  0.78442000  0.95782500  0.07400500  1
  C  C21  1  0.95745300  0.78463000  0.42624400  1
  C  C22  1  0.00280200  0.64017200  0.75799600  1
  C  C23  1  0.64076400  0.00269100  0.74203200  1
  C  C24  1  0.99724900  0.35972200  0.24195900  1
  C  C25  1  0.35888800  0.99703400  0.25792000  1
