# generated using pymatgen
data_CuNiC10
_symmetry_space_group_name_H-M   'P 1'
_cell_length_a   5.41248900
_cell_length_b   5.41248927
_cell_length_c   7.21841500
_cell_angle_alpha   90.00000000
_cell_angle_beta   90.00000000
_cell_angle_gamma   119.99999385
_symmetry_Int_Tables_number   1
_chemical_formula_structural   CuNiC10
_chemical_formula_sum   'Cu1 Ni1 C10'
_cell_volume   183.13298780
_cell_formula_units_Z   1
loop_
 _symmetry_equiv_pos_site_id
 _symmetry_equiv_pos_as_xyz
  1  'x, y, z'
loop_
 _atom_site_type_symbol
 _atom_site_label
 _atom_site_symmetry_multiplicity
 _atom_site_fract_x
 _atom_site_fract_y
 _atom_site_fract_z
 _atom_site_occupancy
  Ni  Ni0  1  0.66666700  0.33333300  0.21460400  1
  C  C1  1  0.33333300  0.66666700  0.25346800  1
  C  C2  1  0.66666700  0.33333300  0.73525400  1
  Cu  Cu3  1  0.00000000  0.00000000  0.00138600  1
  C  C4  1  0.66666700  0.33333300  0.48767900  1
  C  C5  1  0.33333300  0.66666700  0.49226300  1
  C  C6  1  0.72568400  0.06605900  0.82804200  1
  C  C7  1  0.02824500  0.33772300  0.15707400  1
  C  C8  1  0.66227700  0.69052300  0.15707400  1
  C  C9  1  0.30947700  0.97175500  0.15707400  1
  C  C10  1  0.93394100  0.65962400  0.82804200  1
  C  C11  1  0.34037600  0.27431600  0.82804200  1
