# generated using pymatgen
data_Cu6Ni4C9
_symmetry_space_group_name_H-M   'P 1'
_cell_length_a   13.58181600
_cell_length_b   13.58181600
_cell_length_c   13.58181600
_cell_angle_alpha   90.00000000
_cell_angle_beta   90.00000000
_cell_angle_gamma   90.00000000
_symmetry_Int_Tables_number   1
_chemical_formula_structural   Cu6Ni4C9
_chemical_formula_sum   'Cu24 Ni16 C36'
_cell_volume   2505.37954691
_cell_formula_units_Z   4
loop_
 _symmetry_equiv_pos_site_id
 _symmetry_equiv_pos_as_xyz
  1  'x, y, z'
loop_
 _atom_site_type_symbol
 _atom_site_label
 _atom_site_symmetry_multiplicity
 _atom_site_fract_x
 _atom_site_fract_y
 _atom_site_fract_z
 _atom_site_occupancy
  C  C0  1  0.22063000  0.22063000  0.22063000  1
  C  C1  1  0.27937000  0.77937000  0.72063000  1
  C  C2  1  0.72063000  0.27937000  0.77937000  1
  C  C3  1  0.77937000  0.72063000  0.27937000  1
  C  C4  1  0.77937000  0.77937000  0.77937000  1
  C  C5  1  0.72063000  0.22063000  0.27937000  1
  C  C6  1  0.27937000  0.72063000  0.22063000  1
  C  C7  1  0.22063000  0.27937000  0.72063000  1
  C  C8  1  0.21054200  0.41901600  0.44739200  1
  C  C9  1  0.44739200  0.21054200  0.41901600  1
  C  C10  1  0.41901600  0.44739200  0.21054200  1
  C  C11  1  0.08098400  0.55260800  0.71054200  1
  C  C12  1  0.94739200  0.28945800  0.58098400  1
  C  C13  1  0.58098400  0.94739200  0.28945800  1
  C  C14  1  0.05260800  0.78945800  0.91901600  1
  C  C15  1  0.55260800  0.71054200  0.08098400  1
  C  C16  1  0.91901600  0.05260800  0.78945800  1
  C  C17  1  0.71054200  0.08098400  0.55260800  1
  C  C18  1  0.78945800  0.91901600  0.05260800  1
  C  C19  1  0.28945800  0.58098400  0.94739200  1
  C  C20  1  0.78945800  0.58098400  0.55260800  1
  C  C21  1  0.55260800  0.78945800  0.58098400  1
  C  C22  1  0.58098400  0.55260800  0.78945800  1
  C  C23  1  0.91901600  0.44739200  0.28945800  1
  C  C24  1  0.05260800  0.71054200  0.41901600  1
  C  C25  1  0.41901600  0.05260800  0.71054200  1
  C  C26  1  0.94739200  0.21054200  0.08098400  1
  C  C27  1  0.44739200  0.28945800  0.91901600  1
  C  C28  1  0.08098400  0.94739200  0.21054200  1
  C  C29  1  0.28945800  0.91901600  0.44739200  1
  C  C30  1  0.21054200  0.08098400  0.94739200  1
  C  C31  1  0.71054200  0.41901600  0.05260800  1
  C  C32  1  0.50000000  0.50000000  0.50000000  1
  C  C33  1  0.00000000  0.50000000  0.00000000  1
  C  C34  1  0.00000000  0.00000000  0.50000000  1
  C  C35  1  0.50000000  0.00000000  0.00000000  1
  Ni  Ni36  1  0.05235000  0.05235000  0.05235000  1
  Ni  Ni37  1  0.44765000  0.94765000  0.55235000  1
  Ni  Ni38  1  0.55235000  0.44765000  0.94765000  1
  Ni  Ni39  1  0.94765000  0.55235000  0.44765000  1
  Ni  Ni40  1  0.94765000  0.94765000  0.94765000  1
  Ni  Ni41  1  0.55235000  0.05235000  0.44765000  1
  Ni  Ni42  1  0.44765000  0.55235000  0.05235000  1
  Ni  Ni43  1  0.05235000  0.44765000  0.55235000  1
  Ni  Ni44  1  0.39037200  0.39037200  0.39037200  1
  Ni  Ni45  1  0.10962800  0.60962800  0.89037200  1
  Ni  Ni46  1  0.89037200  0.10962800  0.60962800  1
  Ni  Ni47  1  0.60962800  0.89037200  0.10962800  1
  Ni  Ni48  1  0.60962800  0.60962800  0.60962800  1
  Ni  Ni49  1  0.89037200  0.39037200  0.10962800  1
  Ni  Ni50  1  0.10962800  0.89037200  0.39037200  1
  Ni  Ni51  1  0.39037200  0.10962800  0.89037200  1
  Cu  Cu52  1  0.16400900  0.55742500  0.25382700  1
  Cu  Cu53  1  0.25382700  0.16400900  0.55742500  1
  Cu  Cu54  1  0.55742500  0.25382700  0.16400900  1
  Cu  Cu55  1  0.94257500  0.74617300  0.66400900  1
  Cu  Cu56  1  0.75382700  0.33599100  0.44257500  1
  Cu  Cu57  1  0.44257500  0.75382700  0.33599100  1
  Cu  Cu58  1  0.24617300  0.83599100  0.05742500  1
  Cu  Cu59  1  0.74617300  0.66400900  0.94257500  1
  Cu  Cu60  1  0.05742500  0.24617300  0.83599100  1
  Cu  Cu61  1  0.66400900  0.94257500  0.74617300  1
  Cu  Cu62  1  0.83599100  0.05742500  0.24617300  1
  Cu  Cu63  1  0.33599100  0.44257500  0.75382700  1
  Cu  Cu64  1  0.83599100  0.44257500  0.74617300  1
  Cu  Cu65  1  0.74617300  0.83599100  0.44257500  1
  Cu  Cu66  1  0.44257500  0.74617300  0.83599100  1
  Cu  Cu67  1  0.05742500  0.25382700  0.33599100  1
  Cu  Cu68  1  0.24617300  0.66400900  0.55742500  1
  Cu  Cu69  1  0.55742500  0.24617300  0.66400900  1
  Cu  Cu70  1  0.75382700  0.16400900  0.94257500  1
  Cu  Cu71  1  0.25382700  0.33599100  0.05742500  1
  Cu  Cu72  1  0.94257500  0.75382700  0.16400900  1
  Cu  Cu73  1  0.33599100  0.05742500  0.25382700  1
  Cu  Cu74  1  0.16400900  0.94257500  0.75382700  1
  Cu  Cu75  1  0.66400900  0.55742500  0.24617300  1
