# generated using pymatgen
data_Cu2NiC16
_symmetry_space_group_name_H-M   'P 1'
_cell_length_a   5.68084564
_cell_length_b   5.58095349
_cell_length_c   7.97262307
_cell_angle_alpha   90.45574939
_cell_angle_beta   89.83502040
_cell_angle_gamma   94.34229389
_symmetry_Int_Tables_number   1
_chemical_formula_structural   Cu2NiC16
_chemical_formula_sum   'Cu2 Ni1 C16'
_cell_volume   252.03411100
_cell_formula_units_Z   1
loop_
 _symmetry_equiv_pos_site_id
 _symmetry_equiv_pos_as_xyz
  1  'x, y, z'
loop_
 _atom_site_type_symbol
 _atom_site_label
 _atom_site_symmetry_multiplicity
 _atom_site_fract_x
 _atom_site_fract_y
 _atom_site_fract_z
 _atom_site_occupancy
  C  C0  1  0.05733400  0.00318200  0.24347700  1
  C  C1  1  0.44215600  0.48423800  0.75035600  1
  Ni  Ni2  1  0.95768400  0.98804000  0.72486600  1
  Cu  Cu3  1  0.51974800  0.98708700  0.00827700  1
  Cu  Cu4  1  0.98539500  0.50848400  0.48707000  1
  C  C5  1  0.51535000  0.98919400  0.50342800  1
  C  C6  1  0.97721600  0.50768400  0.99531800  1
  C  C7  1  0.00094100  0.61963700  0.75962000  1
  C  C8  1  0.14333300  0.22153500  0.92580800  1
  C  C9  1  0.22853500  0.15912500  0.56493700  1
  C  C10  1  0.27236200  0.70566100  0.03021400  1
  C  C11  1  0.31489600  0.69478900  0.48154600  1
  C  C12  1  0.47926800  0.06661300  0.27185400  1
  C  C13  1  0.57000000  0.91128200  0.74195500  1
  C  C14  1  0.71314000  0.28013900  0.56112300  1
  C  C15  1  0.68577000  0.31485300  0.95459000  1
  C  C16  1  0.81339300  0.83901600  0.46992400  1
  C  C17  1  0.81102500  0.78837500  0.04753000  1
  C  C18  1  0.98864500  0.41027100  0.22848100  1
