# generated using pymatgen
data_CuNiC4
_symmetry_space_group_name_H-M   'P 1'
_cell_length_a   5.28669200
_cell_length_b   6.26021600
_cell_length_c   6.69368385
_cell_angle_alpha   117.87998933
_cell_angle_beta   113.25983292
_cell_angle_gamma   90.00000000
_symmetry_Int_Tables_number   1
_chemical_formula_structural   CuNiC4
_chemical_formula_sum   'Cu1 Ni1 C4'
_cell_volume   175.19094309
_cell_formula_units_Z   1
loop_
 _symmetry_equiv_pos_site_id
 _symmetry_equiv_pos_as_xyz
  1  'x, y, z'
loop_
 _atom_site_type_symbol
 _atom_site_label
 _atom_site_symmetry_multiplicity
 _atom_site_fract_x
 _atom_site_fract_y
 _atom_site_fract_z
 _atom_site_occupancy
  Ni  Ni0  1  0.50000000  0.00000000  0.00000000  1
  Cu  Cu1  1  0.00000000  0.00000000  0.00000000  1
  C  C2  1  0.63359000  0.73078600  0.79974700  1
  C  C3  1  0.83384300  0.26921400  0.20025300  1
  C  C4  1  0.36641000  0.93103900  0.20025300  1
  C  C5  1  0.16615700  0.06896100  0.79974700  1
