# generated using pymatgen
data_Cu2NiC10
_symmetry_space_group_name_H-M   'P 1'
_cell_length_a   6.93019680
_cell_length_b   5.66529179
_cell_length_c   6.32208022
_cell_angle_alpha   108.23538526
_cell_angle_beta   105.67861226
_cell_angle_gamma   117.26938181
_symmetry_Int_Tables_number   1
_chemical_formula_structural   Cu2NiC10
_chemical_formula_sum   'Cu2 Ni1 C10'
_cell_volume   182.67596499
_cell_formula_units_Z   1
loop_
 _symmetry_equiv_pos_site_id
 _symmetry_equiv_pos_as_xyz
  1  'x, y, z'
loop_
 _atom_site_type_symbol
 _atom_site_label
 _atom_site_symmetry_multiplicity
 _atom_site_fract_x
 _atom_site_fract_y
 _atom_site_fract_z
 _atom_site_occupancy
  C  C0  1  0.90478357  0.98173401  0.97807074  1
  C  C1  1  0.84219057  0.29540736  0.53704192  1
  Ni  Ni2  1  0.33672731  0.83898046  0.04496252  1
  Cu  Cu3  1  0.44712898  0.37132616  0.95896111  1
  Cu  Cu4  1  0.31149188  0.87394329  0.52934583  1
  C  C5  1  0.59313585  0.31313624  0.21355165  1
  C  C6  1  0.63976109  0.84537227  0.13599120  1
  C  C7  1  0.08996850  0.41026301  0.36209471  1
  C  C8  1  0.62845524  0.41940208  0.75189421  1
  C  C9  1  0.14558788  0.37127604  0.87871114  1
  C  C10  1  0.16810472  0.89733842  0.24243024  1
  C  C11  1  0.61646964  0.90828247  0.62702913  1
  C  C12  1  0.14077776  0.85374618  0.76074861  1
