# generated using pymatgen
data_Cu11NiC58
_symmetry_space_group_name_H-M   'P 1'
_cell_length_a   17.49471089
_cell_length_b   8.74329212
_cell_length_c   22.61968571
_cell_angle_alpha   90.17527101
_cell_angle_beta   89.87317590
_cell_angle_gamma   119.98222859
_symmetry_Int_Tables_number   1
_chemical_formula_structural   Cu11NiC58
_chemical_formula_sum   'Cu33 Ni3 C174'
_cell_volume   2996.91574207
_cell_formula_units_Z   3
loop_
 _symmetry_equiv_pos_site_id
 _symmetry_equiv_pos_as_xyz
  1  'x, y, z'
loop_
 _atom_site_type_symbol
 _atom_site_label
 _atom_site_symmetry_multiplicity
 _atom_site_fract_x
 _atom_site_fract_y
 _atom_site_fract_z
 _atom_site_occupancy
  C  C0  1  0.00111217  0.99136331  0.49132733  1
  C  C1  1  0.49332690  0.00256629  0.99931640  1
  C  C2  1  0.33341328  0.33276924  0.83878802  1
  C  C3  1  0.84161440  0.34717887  0.82911678  1
  C  C4  1  0.33455077  0.33717786  0.33361023  1
  C  C5  1  0.83620399  0.33852339  0.33902335  1
  C  C6  1  0.00137192  0.99240768  0.64588120  1
  C  C7  1  0.49969806  -0.00004770  0.64078921  1
  C  C8  1  0.00320463  0.00159195  0.14387968  1
  C  C9  1  0.66086304  0.65065637  0.02225349  1
  C  C10  1  0.16431211  0.66556325  0.31581795  1
  C  C11  1  0.66489730  0.66527973  0.31310335  1
  C  C12  1  0.16215758  0.66739125  0.81147585  1
  C  C13  1  0.66295185  0.65884609  0.81082935  1
  C  C14  1  0.00045841  0.99036101  0.35572732  1
  C  C15  1  0.49839940  0.99750401  0.35248336  1
  C  C16  1  0.00188636  0.99433144  0.85288474  1
  C  C17  1  0.49584722  0.00436992  0.85614113  1
  C  C18  1  0.49234440  0.99723831  0.15085988  1
  C  C19  1  0.33116149  0.33108044  0.68112286  1
  C  C20  1  0.84172695  0.34678442  0.68267544  1
  C  C21  1  0.33695920  0.33311961  0.18096623  1
  C  C22  1  0.83030134  0.33092827  0.18407850  1
  C  C23  1  0.33529804  0.32313722  0.98009486  1
  C  C24  1  0.83942219  0.34114763  0.98224141  1
  C  C25  1  0.33151057  0.32921793  0.48095641  1
  C  C26  1  0.84423042  0.34900242  0.47872561  1
  C  C27  1  0.17261968  0.67789461  0.02118710  1
  C  C28  1  0.15939344  0.66622833  0.51822376  1
  C  C29  1  0.66782148  0.66713015  0.51976675  1
  Ni  Ni30  1  0.99230454  0.70115281  0.75341199  1
  Ni  Ni31  1  0.51466440  0.36358058  0.91593913  1
  Ni  Ni32  1  0.01561390  0.66613944  0.42064333  1
  Cu  Cu33  1  0.14709903  0.00384750  0.25061847  1
  Cu  Cu34  1  0.64654231  0.00472625  0.25057449  1
  Cu  Cu35  1  0.35441199  0.70401977  0.25086255  1
  Cu  Cu36  1  0.85525107  0.70861646  0.25026401  1
  Cu  Cu37  1  0.99877895  0.28658445  0.25126588  1
  Cu  Cu38  1  0.49810233  0.28927204  0.25114460  1
  Cu  Cu39  1  0.14752152  0.29076421  0.75109405  1
  Cu  Cu40  1  0.64405812  0.28268917  0.75064326  1
  Cu  Cu41  1  0.49813015  0.71161565  0.75102429  1
  Cu  Cu42  1  0.35607114  0.00330820  0.75030488  1
  Cu  Cu43  1  0.85555796  0.00259232  0.75181664  1
  Cu  Cu44  1  0.47949354  0.34117858  0.58351224  1
  Cu  Cu45  1  0.98058572  0.33363646  0.58363389  1
  Cu  Cu46  1  0.19050584  0.04259042  0.58352937  1
  Cu  Cu47  1  0.69277760  0.04460414  0.58360052  1
  Cu  Cu48  1  0.32892856  0.61800736  0.58308633  1
  Cu  Cu49  1  0.82937660  0.62206012  0.58337089  1
  Cu  Cu50  1  0.47747949  0.63040575  0.08280864  1
  Cu  Cu51  1  0.97921124  0.61888555  0.08421539  1
  Cu  Cu52  1  0.33383051  0.04017377  0.08345840  1
  Cu  Cu53  1  0.83319559  0.04309646  0.08333578  1
  Cu  Cu54  1  0.19143402  0.34191316  0.08324671  1
  Cu  Cu55  1  0.68763650  0.32585923  0.08265391  1
  Cu  Cu56  1  0.31098028  0.66417289  0.91678420  1
  Cu  Cu57  1  0.81098980  0.66778754  0.91706775  1
  Cu  Cu58  1  0.02087860  0.37249544  0.91780886  1
  Cu  Cu59  1  0.16496483  0.95695509  0.91816351  1
  Cu  Cu60  1  0.66864175  0.95585484  0.91715535  1
  Cu  Cu61  1  0.31443638  0.95991914  0.41787702  1
  Cu  Cu62  1  0.81043685  0.95590291  0.41765442  1
  Cu  Cu63  1  0.16819081  0.37616448  0.41784941  1
  Cu  Cu64  1  0.66398210  0.37203631  0.41729176  1
  Cu  Cu65  1  0.52064234  0.66795735  0.41810459  1
  C  C66  1  0.10558746  0.03160217  0.30171297  1
  C  C67  1  0.60731893  0.03031065  0.30397012  1
  C  C68  1  0.40845740  0.78436866  0.30370803  1
  C  C69  1  0.90822462  0.79013061  0.30225091  1
  C  C70  1  0.48599163  0.18557187  0.30415515  1
  C  C71  1  0.98600304  0.17913211  0.30304980  1
  C  C72  1  0.10802032  0.18753229  0.80380609  1
  C  C73  1  0.60353600  0.18013531  0.80334452  1
  C  C74  1  0.48762033  0.79296914  0.80395978  1
  C  C75  1  0.98178561  0.79408670  0.80971640  1
  C  C76  1  0.40980917  0.03205590  0.80250836  1
  C  C77  1  0.90797822  0.03185736  0.80447004  1
  C  C78  1  0.39895536  0.97360140  0.69651289  1
  C  C79  1  0.89700015  0.97153002  0.69773465  1
  C  C80  1  0.09024114  0.21039864  0.69700576  1
  C  C81  1  0.58614944  0.20393890  0.69708637  1
  C  C82  1  0.01346365  0.83483193  0.69408144  1
  C  C83  1  0.51364886  0.82445289  0.69720818  1
  C  C84  1  0.39013148  0.81092647  0.19726530  1
  C  C85  1  0.89732283  0.82264179  0.19615076  1
  C  C86  1  0.01133232  0.19703921  0.19657842  1
  C  C87  1  0.51968996  0.22492053  0.19753894  1
  C  C88  1  0.08780190  0.97344369  0.19638521  1
  C  C89  1  0.59398527  0.96642904  0.19685973  1
  C  C90  1  0.44031174  0.36295676  0.63778232  1
  C  C91  1  0.94053185  0.35681277  0.63704879  1
  C  C92  1  0.23920955  0.12380271  0.63788979  1
  C  C93  1  0.74162224  0.12364929  0.63786761  1
  C  C94  1  0.31949773  0.52058323  0.63753169  1
  C  C95  1  0.81781726  0.52207847  0.63724276  1
  C  C96  1  0.44658701  0.52428275  0.13637436  1
  C  C97  1  0.93823009  0.51504407  0.13739223  1
  C  C98  1  0.32014185  0.11921770  0.13757193  1
  C  C99  1  0.81623283  0.11434418  0.13669233  1
  C  C100  1  0.24090174  0.36219970  0.13733988  1
  C  C101  1  0.74125725  0.36666609  0.13595531  1
  C  C102  1  0.22257828  0.29378170  0.03064054  1
  C  C103  1  0.72820163  0.30405021  0.02872402  1
  C  C104  1  0.42569639  0.54977355  0.02975868  1
  C  C105  1  0.92342978  0.55693938  0.03132179  1
  C  C106  1  0.34996749  0.15115355  0.03035679  1
  C  C107  1  0.85308792  0.15074179  0.03046099  1
  C  C108  1  0.22463691  0.15377014  0.53079929  1
  C  C109  1  0.72379908  0.15444931  0.53100039  1
  C  C110  1  0.35424675  0.55373548  0.53116356  1
  C  C111  1  0.85245530  0.55704446  0.53070659  1
  C  C112  1  0.42362896  0.29317409  0.53114604  1
  C  C113  1  0.92406165  0.28734743  0.53106387  1
  C  C114  1  0.27187227  0.69434557  0.96959123  1
  C  C115  1  0.76430238  0.68706827  0.97046293  1
  C  C116  1  0.07395354  0.45635585  0.96992064  1
  C  C117  1  0.58300156  0.47946764  0.97227982  1
  C  C118  1  0.15249537  0.84732849  0.96950259  1
  C  C119  1  0.65953313  0.84502681  0.97044707  1
  C  C120  1  0.27547486  0.85367066  0.47009270  1
  C  C121  1  0.77045734  0.84626832  0.46967871  1
  C  C122  1  0.15774475  0.45718276  0.47097654  1
  C  C123  1  0.65154680  0.45646894  0.46912878  1
  C  C124  1  0.08007297  0.70280204  0.47456728  1
  C  C125  1  0.57462446  0.69243876  0.46982367  1
  C  C126  1  0.07234624  0.64350626  0.35978960  1
  C  C127  1  0.56862910  0.64274622  0.36288313  1
  C  C128  1  0.25387208  0.86380191  0.36235313  1
  C  C129  1  0.75315000  0.85784283  0.36249297  1
  C  C130  1  0.18130706  0.49291873  0.36221253  1
  C  C131  1  0.67682589  0.49557621  0.36245258  1
  C  C132  1  0.06787561  0.49315983  0.86272437  1
  C  C133  1  0.57441835  0.50270961  0.85982736  1
  C  C134  1  0.17794591  0.86050954  0.86314048  1
  C  C135  1  0.68121920  0.86764171  0.86238991  1
  C  C136  1  0.25544098  0.64642292  0.86208473  1
  C  C137  1  0.75287072  0.64411249  0.86318046  1
  C  C138  1  0.01073143  0.84308814  0.41179109  1
  C  C139  1  0.51378614  0.82389772  0.40681325  1
  C  C140  1  0.40003053  0.97712401  0.40598107  1
  C  C141  1  0.89750385  0.97614198  0.40844777  1
  C  C142  1  0.08831649  0.20682369  0.40797554  1
  C  C143  1  0.58522961  0.20343627  0.40583253  1
  C  C144  1  0.01234442  0.20172513  0.90589949  1
  C  C145  1  0.51928682  0.18692571  0.91472154  1
  C  C146  1  0.08771409  0.97397980  0.90931349  1
  C  C147  1  0.58767277  0.96162358  0.91195796  1
  C  C148  1  0.39948260  0.82044651  0.90945681  1
  C  C149  1  0.89436334  0.82709995  0.91273341  1
  C  C150  1  0.48813779  0.17163850  0.59556308  1
  C  C151  1  0.98901703  0.16650261  0.59431026  1
  C  C152  1  0.09757558  0.02991533  0.59145365  1
  C  C153  1  0.59727647  0.02402353  0.59666319  1
  C  C154  1  0.41439014  0.80544138  0.59562211  1
  C  C155  1  0.91377898  0.81186608  0.59282603  1
  C  C156  1  0.49481628  0.81176100  0.08909688  1
  C  C157  1  0.98762793  0.80460266  0.09653502  1
  C  C158  1  0.41484546  0.02322945  0.08881792  1
  C  C159  1  0.91268035  0.01877229  0.09480382  1
  C  C160  1  0.09677025  0.16996110  0.09635001  1
  C  C161  1  0.59777497  0.17847814  0.08849090  1
  C  C162  1  0.34339912  0.15485578  0.74149734  1
  C  C163  1  0.83784470  0.14623831  0.74221001  1
  C  C164  1  0.23582881  0.31516735  0.74195574  1
  C  C165  1  0.73197376  0.31031564  0.74161407  1
  C  C166  1  0.42412444  0.53327796  0.74253851  1
  C  C167  1  0.91256459  0.50566701  0.74499058  1
  C  C168  1  0.34173375  0.52432652  0.24389138  1
  C  C169  1  0.84248689  0.53167607  0.24131654  1
  C  C170  1  0.42300271  0.31963154  0.24504196  1
  C  C171  1  0.92329762  0.31183517  0.24155697  1
  C  C172  1  0.23429698  0.15574159  0.24106721  1
  C  C173  1  0.73755580  0.15544245  0.24438039  1
  C  C174  1  0.31443917  0.50019216  0.91942683  1
  C  C175  1  0.81418582  0.50370855  0.92107980  1
  C  C176  1  0.42552279  0.36831049  0.91772756  1
  C  C177  1  0.93354816  0.36359722  0.91939334  1
  C  C178  1  0.24685174  0.12847916  0.91813210  1
  C  C179  1  0.74844021  0.12877608  0.92183380  1
  C  C180  1  0.31808416  0.13285225  0.41864607  1
  C  C181  1  0.81061755  0.12299185  0.41850559  1
  C  C182  1  0.24945437  0.36352484  0.41835084  1
  C  C183  1  0.74485757  0.36275050  0.41824305  1
  C  C184  1  0.43453500  0.50336739  0.41922005  1
  C  C185  1  0.92276028  0.48325574  0.41552208  1
  C  C186  1  0.17183480  0.48318046  0.07612681  1
  C  C187  1  0.68121725  0.49687584  0.07379819  1
  C  C188  1  0.06773377  0.65051896  0.07636365  1
  C  C189  1  0.57128923  0.64979981  0.07240499  1
  C  C190  1  0.25485312  0.86479082  0.07704186  1
  C  C191  1  0.75687818  0.86242813  0.07284831  1
  C  C192  1  0.17697655  0.86593002  0.57898507  1
  C  C193  1  0.67343109  0.86357459  0.57647153  1
  C  C194  1  0.25694566  0.65229312  0.57523713  1
  C  C195  1  0.75576303  0.65339595  0.57634220  1
  C  C196  1  0.06961352  0.48108991  0.57753834  1
  C  C197  1  0.56880948  0.48582854  0.57631294  1
  C  C198  1  0.15270064  0.83825430  0.25522802  1
  C  C199  1  0.65604591  0.83953536  0.26179954  1
  C  C200  1  0.26442421  0.68764426  0.26085143  1
  C  C201  1  0.76602465  0.69509433  0.25674187  1
  C  C202  1  0.08268496  0.46166204  0.25550664  1
  C  C203  1  0.58077768  0.47384817  0.26169589  1
  C  C204  1  0.15513385  0.46988436  0.75828799  1
  C  C205  1  0.65205897  0.46592398  0.75725958  1
  C  C206  1  0.08662457  0.69316361  0.76107910  1
  C  C207  1  0.58302720  0.70151064  0.75717482  1
  C  C208  1  0.26836793  0.83721125  0.75701214  1
  C  C209  1  0.76662460  0.83321974  0.75956675  1
