# generated using pymatgen
data_Cu3(NiC15)2
_symmetry_space_group_name_H-M   'P 1'
_cell_length_a   8.73019838
_cell_length_b   8.74961401
_cell_length_c   22.70764218
_cell_angle_alpha   90.10377808
_cell_angle_beta   89.50933251
_cell_angle_gamma   120.05385195
_symmetry_Int_Tables_number   1
_chemical_formula_structural   Cu3(NiC15)2
_chemical_formula_sum   'Cu9 Ni6 C90'
_cell_volume   1501.28121780
_cell_formula_units_Z   3
loop_
 _symmetry_equiv_pos_site_id
 _symmetry_equiv_pos_as_xyz
  1  'x, y, z'
loop_
 _atom_site_type_symbol
 _atom_site_label
 _atom_site_symmetry_multiplicity
 _atom_site_fract_x
 _atom_site_fract_y
 _atom_site_fract_z
 _atom_site_occupancy
  C  C0  1  0.67668187  0.33492070  0.83417531  1
  C  C1  1  0.66337472  0.33929327  0.33040163  1
  C  C2  1  0.34466278  0.67401615  0.17235286  1
  C  C3  1  0.00677776  0.99272234  0.35456841  1
  C  C4  1  0.99245690  0.00167549  0.85479644  1
  C  C5  1  0.99404261  0.99174285  0.64802513  1
  C  C6  1  0.99840934  0.99865360  0.14452935  1
  C  C7  1  0.33449770  0.66149812  0.02354023  1
  C  C8  1  0.32761026  0.66266025  0.52089852  1
  Ni  Ni9  1  0.67506835  0.33287738  0.68917883  1
  Ni  Ni10  1  0.64496675  0.32509724  0.18681867  1
  Ni  Ni11  1  0.67148271  0.32445492  0.98414495  1
  Ni  Ni12  1  0.66498289  0.34190843  0.47611845  1
  Ni  Ni13  1  0.33385575  0.66340031  0.31440210  1
  Ni  Ni14  1  0.32021758  0.66838280  0.81140648  1
  Cu  Cu15  1  0.30132848  0.99558644  0.24952279  1
  Cu  Cu16  1  0.69774793  0.69655514  0.25009055  1
  Cu  Cu17  1  -0.00140868  0.69848768  0.75080476  1
  Cu  Cu18  1  0.69261530  0.99576311  0.75103469  1
  Cu  Cu19  1  0.66622761  0.05614372  0.08477587  1
  Cu  Cu20  1  0.39099642  0.33170149  0.08258642  1
  Cu  Cu21  1  0.03811412  0.38669386  0.91509409  1
  Cu  Cu22  1  0.34182244  0.38233258  0.41473255  1
  Cu  Cu23  1  0.03947090  0.65320760  0.41526503  1
  C  C24  1  0.99830531  0.29956756  0.25016274  1
  C  C25  1  0.30105233  0.30006608  0.74959153  1
  C  C26  1  0.94235811  0.33005547  0.58289482  1
  C  C27  1  0.39172509  0.05897080  0.58352009  1
  C  C28  1  0.66572431  0.61001876  0.58403676  1
  C  C29  1  0.94354850  0.61113138  0.08387678  1
  C  C30  1  0.61658812  0.65345459  0.91471666  1
  C  C31  1  0.34260961  0.96249344  0.91538703  1
  C  C32  1  0.62112066  0.96421075  0.41635853  1
  C  C33  1  0.21396828  0.02914825  0.30466464  1
  C  C34  1  0.81516357  0.78830293  0.30474979  1
  C  C35  1  0.96997131  0.18801477  0.30313979  1
  C  C36  1  0.21862405  0.18351343  0.80193915  1
  C  C37  1  0.96521900  0.78876052  0.80431859  1
  C  C38  1  0.82065116  0.03616484  0.80378489  1
  C  C39  1  0.78663539  0.97019709  0.69554866  1
  C  C40  1  0.18748560  0.21541342  0.69682133  1
  C  C41  1  0.02841252  0.81786904  0.69525167  1
  C  C42  1  0.78614820  0.81608349  0.19528642  1
  C  C43  1  0.02855292  0.21634877  0.19708460  1
  C  C44  1  0.18432488  0.96928342  0.19530836  1
  C  C45  1  0.86669273  0.36195402  0.63684168  1
  C  C46  1  0.49728802  0.13679879  0.63706011  1
  C  C47  1  0.63656735  0.50297703  0.63733593  1
  C  C48  1  0.86873657  0.50458869  0.13720312  1
  C  C49  1  0.63575483  0.13764201  0.13981279  1
  C  C50  1  0.50174343  0.37237526  0.13778936  1
  C  C51  1  0.47298380  0.30975385  0.02523433  1
  C  C52  1  0.84543235  0.53794792  0.02924296  1
  C  C53  1  0.69877544  0.15928449  0.02706568  1
  C  C54  1  0.47020761  0.16466141  0.52969039  1
  C  C55  1  0.69779956  0.53508316  0.53024082  1
  C  C56  1  0.83676283  0.30269855  0.52995621  1
  C  C57  1  0.54058853  0.68803978  0.96860884  1
  C  C58  1  0.15269470  0.46854533  0.97037670  1
  C  C59  1  0.31283198  0.85413348  0.96874945  1
  C  C60  1  0.54133791  0.85399953  0.47040356  1
  C  C61  1  0.31520398  0.46719101  0.47189079  1
  C  C62  1  0.15289521  0.68738344  0.47176003  1
  C  C63  1  0.12832425  0.62679970  0.36104264  1
  C  C64  1  0.51011446  0.88386288  0.36402130  1
  C  C65  1  0.37627225  0.50182368  0.36131774  1
  C  C66  1  0.12815763  0.50036505  0.86000442  1
  C  C67  1  0.37328819  0.88153240  0.86249799  1
  C  C68  1  0.50881979  0.63053305  0.86237048  1
  C  C69  1  0.01794151  0.81722234  0.40984402  1
  C  C70  1  0.79691644  0.98204815  0.40975322  1
  C  C71  1  0.17419860  0.20123401  0.40808616  1
  C  C72  1  0.02191608  0.20269427  0.90667098  1
  C  C73  1  0.18147916  0.97761680  0.90784080  1
  C  C74  1  0.79499505  0.81524294  0.90913385  1
  C  C75  1  0.96648143  0.17483798  0.59044227  1
  C  C76  1  0.21206691  0.03796685  0.59076636  1
  C  C77  1  0.82556801  0.78972840  0.59013447  1
  C  C78  1  0.96677599  0.79008721  0.08890791  1
  C  C79  1  0.82794553  0.03073607  0.09211679  1
  C  C80  1  0.20451817  0.16950754  0.09028789  1
  C  C81  1  0.67776549  0.16332983  0.74220422  1
  C  C82  1  0.47590779  0.31428581  0.74154259  1
  C  C83  1  0.82824856  0.51714572  0.74209379  1
  C  C84  1  0.68818374  0.51664931  0.24290959  1
  C  C85  1  0.84009936  0.31670610  0.24315915  1
  C  C86  1  0.48462520  0.16344159  0.24489553  1
  C  C87  1  0.63787485  0.49802606  0.92217144  1
  C  C88  1  0.85179337  0.36441893  0.92294469  1
  C  C89  1  0.49947153  0.14125456  0.92135772  1
  C  C90  1  0.63833268  0.14011394  0.42467117  1
  C  C91  1  0.50511769  0.35864446  0.42337111  1
  C  C92  1  0.85511432  0.48708423  0.42407900  1
  C  C93  1  0.36536826  0.49742540  0.07740774  1
  C  C94  1  0.12747692  0.63585554  0.07857616  1
  C  C95  1  0.49838746  0.86779761  0.07804853  1
  C  C96  1  0.37043770  0.88028613  0.57696651  1
  C  C97  1  0.51070971  0.63421755  0.57764773  1
  C  C98  1  0.12194461  0.48930776  0.57750041  1
  C  C99  1  0.31382976  0.82717338  0.25831928  1
  C  C100  1  0.51414573  0.68127836  0.25763606  1
  C  C101  1  0.16088628  0.47432310  0.25570560  1
  C  C102  1  0.31607090  0.47333710  0.75803490  1
  C  C103  1  0.16312899  0.68439676  0.75773244  1
  C  C104  1  0.51747838  0.82909242  0.76214869  1
