# generated using pymatgen
data_CuNiC4
_symmetry_space_group_name_H-M   'P 1'
_cell_length_a   6.35122600
_cell_length_b   6.43278700
_cell_length_c   15.71381500
_cell_angle_alpha   90.00000000
_cell_angle_beta   90.00000000
_cell_angle_gamma   90.00000000
_symmetry_Int_Tables_number   1
_chemical_formula_structural   CuNiC4
_chemical_formula_sum   'Cu4 Ni4 C16'
_cell_volume   642.00494634
_cell_formula_units_Z   4
loop_
 _symmetry_equiv_pos_site_id
 _symmetry_equiv_pos_as_xyz
  1  'x, y, z'
loop_
 _atom_site_type_symbol
 _atom_site_label
 _atom_site_symmetry_multiplicity
 _atom_site_fract_x
 _atom_site_fract_y
 _atom_site_fract_z
 _atom_site_occupancy
  Ni  Ni0  1  0.00000000  0.25000000  0.32025100  1
  Ni  Ni1  1  0.50000000  0.75000000  0.17974900  1
  Ni  Ni2  1  0.00000000  0.75000000  0.67974900  1
  Ni  Ni3  1  0.50000000  0.25000000  0.82025100  1
  Cu  Cu4  1  0.00000000  0.25000000  0.07028500  1
  Cu  Cu5  1  0.50000000  0.25000000  0.57028500  1
  Cu  Cu6  1  0.00000000  0.75000000  0.92971500  1
  Cu  Cu7  1  0.50000000  0.75000000  0.42971500  1
  C  C8  1  0.26895300  0.60622600  0.32297600  1
  C  C9  1  0.77862500  0.42838900  0.95084300  1
  C  C10  1  0.27862500  0.57161100  0.54915700  1
  C  C11  1  0.72137500  0.92838900  0.54915700  1
  C  C12  1  0.76895300  0.39377400  0.17702400  1
  C  C13  1  0.23104700  0.60622600  0.82297600  1
  C  C14  1  0.73104700  0.89377400  0.32297600  1
  C  C15  1  0.23104700  0.10622600  0.17702400  1
  C  C16  1  0.26895300  0.10622600  0.67702400  1
  C  C17  1  0.73104700  0.39377400  0.67702400  1
  C  C18  1  0.22137500  0.57161100  0.04915700  1
  C  C19  1  0.76895300  0.89377400  0.82297600  1
  C  C20  1  0.77862500  0.92838900  0.04915700  1
  C  C21  1  0.27862500  0.07161100  0.45084300  1
  C  C22  1  0.72137500  0.42838900  0.45084300  1
  C  C23  1  0.22137500  0.07161100  0.95084300  1
