# generated using pymatgen
data_Cu3Ni6C23
_symmetry_space_group_name_H-M   'P 1'
_cell_length_a   9.66530816
_cell_length_b   9.66530816
_cell_length_c   9.66530834
_cell_angle_alpha   66.38609653
_cell_angle_beta   66.38609653
_cell_angle_gamma   66.38609681
_symmetry_Int_Tables_number   1
_chemical_formula_structural   Cu3Ni6C23
_chemical_formula_sum   'Cu6 Ni12 C46'
_cell_volume   726.37128021
_cell_formula_units_Z   2
loop_
 _symmetry_equiv_pos_site_id
 _symmetry_equiv_pos_as_xyz
  1  'x, y, z'
loop_
 _atom_site_type_symbol
 _atom_site_label
 _atom_site_symmetry_multiplicity
 _atom_site_fract_x
 _atom_site_fract_y
 _atom_site_fract_z
 _atom_site_occupancy
  C  C0  1  0.50000000  0.50000000  0.50000000  1
  C  C1  1  0.06505600  0.61187700  0.80124800  1
  C  C2  1  0.00079900  0.63946900  0.44049300  1
  C  C3  1  0.63946900  0.44049300  0.00079900  1
  C  C4  1  0.44049300  0.00079900  0.63946900  1
  C  C5  1  0.99920100  0.36053100  0.55950700  1
  C  C6  1  0.36053100  0.55950700  0.99920100  1
  C  C7  1  0.55950700  0.99920100  0.36053100  1
  C  C8  1  0.04616100  0.72922000  0.22897200  1
  C  C9  1  0.72922000  0.22897200  0.04616100  1
  C  C10  1  0.71899900  0.92822600  0.04040700  1
  C  C11  1  0.04040700  0.71899900  0.92822600  1
  C  C12  1  0.92822600  0.04040700  0.71899900  1
  C  C13  1  0.28100100  0.07177400  0.95959300  1
  C  C14  1  0.95959300  0.28100100  0.07177400  1
  C  C15  1  0.07177400  0.95959300  0.28100100  1
  C  C16  1  0.61187700  0.80124800  0.06505600  1
  C  C17  1  0.03045900  0.85387700  0.48943400  1
  C  C18  1  0.80124800  0.06505600  0.61187700  1
  C  C19  1  0.38812300  0.19875200  0.93494400  1
  C  C20  1  0.93494400  0.38812300  0.19875200  1
  C  C21  1  0.19875200  0.93494400  0.38812300  1
  C  C22  1  0.51056600  0.96954100  0.14612300  1
  C  C23  1  0.14612300  0.51056600  0.96954100  1
  C  C24  1  0.96954100  0.14612300  0.51056600  1
  C  C25  1  0.48943400  0.03045900  0.85387700  1
  C  C26  1  0.85387700  0.48943400  0.03045900  1
  C  C27  1  0.85347000  0.47597900  0.69347500  1
  C  C28  1  0.95383900  0.27078000  0.77102800  1
  C  C29  1  0.27078000  0.77102800  0.95383900  1
  C  C30  1  0.77102800  0.95383900  0.27078000  1
  C  C31  1  0.14653000  0.52402100  0.30652500  1
  C  C32  1  0.52402100  0.30652500  0.14653000  1
  C  C33  1  0.30652500  0.14653000  0.52402100  1
  C  C34  1  0.69347500  0.85347000  0.47597900  1
  C  C35  1  0.47597900  0.69347500  0.85347000  1
  C  C36  1  0.22897200  0.04616100  0.72922000  1
  Ni  Ni37  1  0.09259400  0.64111300  0.32714100  1
  Ni  Ni38  1  0.64111300  0.32714100  0.09259400  1
  Ni  Ni39  1  0.32714100  0.09259400  0.64111300  1
  Ni  Ni40  1  0.90740600  0.35888700  0.67285900  1
  Ni  Ni41  1  0.35888700  0.67285900  0.90740600  1
  Ni  Ni42  1  0.67285900  0.90740600  0.35888700  1
  Ni  Ni43  1  0.62115500  0.87711300  0.11839500  1
  Ni  Ni44  1  0.12288700  0.88160500  0.37884500  1
  Ni  Ni45  1  0.11839500  0.62115500  0.87711300  1
  Ni  Ni46  1  0.37884500  0.12288700  0.88160500  1
  Ni  Ni47  1  0.87711300  0.11839500  0.62115500  1
  Ni  Ni48  1  0.88160500  0.37884500  0.12288700  1
  Cu  Cu49  1  0.32708900  0.24349300  0.70309000  1
  Cu  Cu50  1  0.24349300  0.70309000  0.32708900  1
  Cu  Cu51  1  0.70309000  0.32708900  0.24349300  1
  Cu  Cu52  1  0.75650700  0.29691000  0.67291100  1
  Cu  Cu53  1  0.67291100  0.75650700  0.29691000  1
  Cu  Cu54  1  0.29691000  0.67291100  0.75650700  1
  C  C55  1  0.25360100  0.25360100  0.25360100  1
  C  C56  1  0.74639900  0.74639900  0.74639900  1
  C  C57  1  0.00000000  0.00000000  0.00000000  1
  C  C58  1  0.52158500  0.70908700  0.41280200  1
  C  C59  1  0.47841500  0.29091300  0.58719800  1
  C  C60  1  0.58719800  0.47841500  0.29091300  1
  C  C61  1  0.70908700  0.41280200  0.52158500  1
  C  C62  1  0.41280200  0.52158500  0.70908700  1
  C  C63  1  0.29091300  0.58719800  0.47841500  1
