# generated using pymatgen
data_Cu4NiC6
_symmetry_space_group_name_H-M   'P 1'
_cell_length_a   5.17815700
_cell_length_b   5.43094400
_cell_length_c   17.51864700
_cell_angle_alpha   90.00000000
_cell_angle_beta   90.00000000
_cell_angle_gamma   90.00000000
_symmetry_Int_Tables_number   1
_chemical_formula_structural   Cu4NiC6
_chemical_formula_sum   'Cu16 Ni4 C24'
_cell_volume   492.66430825
_cell_formula_units_Z   4
loop_
 _symmetry_equiv_pos_site_id
 _symmetry_equiv_pos_as_xyz
  1  'x, y, z'
loop_
 _atom_site_type_symbol
 _atom_site_label
 _atom_site_symmetry_multiplicity
 _atom_site_fract_x
 _atom_site_fract_y
 _atom_site_fract_z
 _atom_site_occupancy
  C  C0  1  0.85459600  0.18681200  0.50098100  1
  C  C1  1  0.35459600  0.68681200  0.99901900  1
  C  C2  1  0.85459600  0.31318800  0.00098100  1
  C  C3  1  0.35459600  0.81318800  0.49901900  1
  C  C4  1  0.81833000  0.72085200  0.77667500  1
  C  C5  1  0.31833000  0.27914800  0.22332500  1
  C  C6  1  0.81833000  0.77914800  0.27667500  1
  C  C7  1  0.31833000  0.22085200  0.72332500  1
  C  C8  1  0.81198500  0.51218900  0.85033700  1
  C  C9  1  0.31198500  0.48781100  0.14966300  1
  C  C10  1  0.81198500  0.98781100  0.35033700  1
  C  C11  1  0.31198500  0.01218900  0.64966300  1
  C  C12  1  0.99965300  0.76871000  0.85750300  1
  C  C13  1  0.17444500  0.28868300  0.63912000  1
  C  C14  1  0.99965300  0.73129000  0.35750300  1
  C  C15  1  0.49965300  0.23129000  0.14249700  1
  C  C16  1  0.67444500  0.78868300  0.86088000  1
  C  C17  1  0.17444500  0.21131700  0.13912000  1
  C  C18  1  0.67444500  0.71131700  0.36088000  1
  C  C19  1  0.49965300  0.26871000  0.64249700  1
  C  C20  1  0.86175600  0.69569300  0.60163300  1
  C  C21  1  0.36175600  0.30430700  0.39836700  1
  C  C22  1  0.86175600  0.80430700  0.10163300  1
  C  C23  1  0.36175600  0.19569300  0.89836700  1
  Ni  Ni24  1  0.32779300  0.19740700  0.66390000  1
  Ni  Ni25  1  0.82779300  0.69740700  0.83610000  1
  Ni  Ni26  1  0.82779300  0.80259300  0.33610000  1
  Ni  Ni27  1  0.32779300  0.30259300  0.16390000  1
  Cu  Cu28  1  0.25088700  0.19598500  0.31623600  1
  Cu  Cu29  1  0.30295000  0.89103900  0.90566900  1
  Cu  Cu30  1  0.80295000  0.10896100  0.09433100  1
  Cu  Cu31  1  0.30295000  0.60896100  0.40566900  1
  Cu  Cu32  1  0.75088700  0.80401500  0.68376400  1
  Cu  Cu33  1  0.80295000  0.39103900  0.59433100  1
  Cu  Cu34  1  0.75088700  0.69598500  0.18376400  1
  Cu  Cu35  1  0.25088700  0.30401500  0.81623600  1
  Cu  Cu36  1  0.68294200  0.23351100  0.90406100  1
  Cu  Cu37  1  0.22466300  0.15264100  0.47185700  1
  Cu  Cu38  1  0.72466300  0.84735900  0.52814300  1
  Cu  Cu39  1  0.22466300  0.34735900  0.97185700  1
  Cu  Cu40  1  0.18294200  0.73351100  0.59593900  1
  Cu  Cu41  1  0.68294200  0.26648900  0.40406100  1
  Cu  Cu42  1  0.18294200  0.76648900  0.09593900  1
  Cu  Cu43  1  0.72466300  0.65264100  0.02814300  1
