# generated using pymatgen
data_Cu3NiC3
_symmetry_space_group_name_H-M   'P 1'
_cell_length_a   10.53869600
_cell_length_b   10.53869600
_cell_length_c   10.53869600
_cell_angle_alpha   90.00000000
_cell_angle_beta   90.00000000
_cell_angle_gamma   90.00000000
_symmetry_Int_Tables_number   1
_chemical_formula_structural   Cu3NiC3
_chemical_formula_sum   'Cu12 Ni4 C12'
_cell_volume   1170.47092743
_cell_formula_units_Z   4
loop_
 _symmetry_equiv_pos_site_id
 _symmetry_equiv_pos_as_xyz
  1  'x, y, z'
loop_
 _atom_site_type_symbol
 _atom_site_label
 _atom_site_symmetry_multiplicity
 _atom_site_fract_x
 _atom_site_fract_y
 _atom_site_fract_z
 _atom_site_occupancy
  C  C0  1  0.57495000  0.57495000  0.57495000  1
  C  C1  1  0.92505000  0.42505000  0.07495000  1
  C  C2  1  0.07495000  0.92505000  0.42505000  1
  C  C3  1  0.42505000  0.07495000  0.92505000  1
  C  C4  1  0.32595900  0.32595900  0.32595900  1
  C  C5  1  0.17404100  0.67404100  0.82595900  1
  C  C6  1  0.82595900  0.17404100  0.67404100  1
  C  C7  1  0.67404100  0.82595900  0.17404100  1
  C  C8  1  0.81733600  0.81733600  0.81733600  1
  C  C9  1  0.68266400  0.18266400  0.31733600  1
  C  C10  1  0.31733600  0.68266400  0.18266400  1
  C  C11  1  0.18266400  0.31733600  0.68266400  1
  Ni  Ni12  1  0.96499800  0.53500200  0.46499800  1
  Ni  Ni13  1  0.46499800  0.96499800  0.53500200  1
  Ni  Ni14  1  0.03500200  0.03500200  0.03500200  1
  Ni  Ni15  1  0.53500200  0.46499800  0.96499800  1
  Cu  Cu16  1  0.77287600  0.11728100  0.99999000  1
  Cu  Cu17  1  0.72712400  0.88271900  0.49999000  1
  Cu  Cu18  1  0.27287600  0.38271900  0.00001000  1
  Cu  Cu19  1  0.11728100  0.99999000  0.77287600  1
  Cu  Cu20  1  0.22712400  0.61728100  0.50001000  1
  Cu  Cu21  1  0.50001000  0.22712400  0.61728100  1
  Cu  Cu22  1  0.61728100  0.50001000  0.22712400  1
  Cu  Cu23  1  0.88271900  0.49999000  0.72712400  1
  Cu  Cu24  1  0.00001000  0.27287600  0.38271900  1
  Cu  Cu25  1  0.38271900  0.00001000  0.27287600  1
  Cu  Cu26  1  0.99999000  0.77287600  0.11728100  1
  Cu  Cu27  1  0.49999000  0.72712400  0.88271900  1
