# generated using pymatgen
data_Cu5Ni9C97
_symmetry_space_group_name_H-M   'P 1'
_cell_length_a   8.98722134
_cell_length_b   8.97510394
_cell_length_c   22.96177239
_cell_angle_alpha   89.99703163
_cell_angle_beta   90.02643952
_cell_angle_gamma   119.85295356
_symmetry_Int_Tables_number   1
_chemical_formula_structural   Cu5Ni9C97
_chemical_formula_sum   'Cu5 Ni9 C97'
_cell_volume   1606.35864200
_cell_formula_units_Z   1
loop_
 _symmetry_equiv_pos_site_id
 _symmetry_equiv_pos_as_xyz
  1  'x, y, z'
loop_
 _atom_site_type_symbol
 _atom_site_label
 _atom_site_symmetry_multiplicity
 _atom_site_fract_x
 _atom_site_fract_y
 _atom_site_fract_z
 _atom_site_occupancy
  Ni  Ni0  1  0.98274363  0.63549102  0.24502102  1
  Ni  Ni1  1  0.65084168  0.68093813  0.07842508  1
  Ni  Ni2  1  0.31818324  0.30322010  0.91227351  1
  Ni  Ni3  1  0.00022211  0.99954130  0.49713621  1
  Ni  Ni4  1  0.99665617  0.99517348  0.99005075  1
  Ni  Ni5  1  0.67835500  0.33507962  0.82137818  1
  Ni  Ni6  1  0.65163245  0.31925001  0.32481505  1
  Ni  Ni7  1  0.33005421  0.66749281  0.15558907  1
  Ni  Ni8  1  0.33370281  0.66655704  0.67273519  1
  Cu  Cu9  1  0.99922502  0.00195746  0.36089669  1
  Cu  Cu10  1  0.99238133  0.99121363  0.85141749  1
  Cu  Cu11  1  0.66557244  0.33319728  0.68021251  1
  Cu  Cu12  1  0.65957703  0.32256278  0.18600940  1
  Cu  Cu13  1  0.32592816  0.67103264  0.01855056  1
  C  C14  1  0.99973847  0.00006270  0.65153453  1
  C  C15  1  0.00528387  0.00786474  0.14726303  1
  C  C16  1  0.67087095  0.33023527  0.98045530  1
  C  C17  1  0.66752869  0.33411383  0.48113590  1
  C  C18  1  0.33272350  0.66672981  0.52023795  1
  C  C19  1  0.33858362  0.66672900  0.31185197  1
  C  C20  1  0.33293876  0.66934649  0.81441561  1
  C  C21  1  0.28674468  0.99259999  0.25342029  1
  C  C22  1  0.70816836  0.71658908  0.25123504  1
  C  C23  1  0.00967274  0.29642514  0.25285952  1
  C  C24  1  0.29266527  0.30171220  0.75312867  1
  C  C25  1  0.00892463  0.70557509  0.75074195  1
  C  C26  1  0.69749915  0.99124358  0.75115409  1
  C  C27  1  0.96270147  0.32934665  0.58155484  1
  C  C28  1  0.36655491  0.03820612  0.58137997  1
  C  C29  1  0.67095421  0.63430747  0.58148898  1
  C  C30  1  0.95700619  0.63288536  0.08720099  1
  C  C31  1  0.67805573  0.04222136  0.08420103  1
  C  C32  1  0.36963262  0.32425013  0.08305241  1
  C  C33  1  0.62358378  0.65745536  0.92033062  1
  C  C34  1  0.03639629  0.37923716  0.91706901  1
  C  C35  1  0.34480700  0.96898993  0.91718454  1
  C  C36  1  0.61026232  0.95671642  0.41907581  1
  C  C37  1  0.34665735  0.38911914  0.41916242  1
  C  C38  1  0.04280913  0.65332160  0.41815784  1
  C  C39  1  0.20078462  0.00715333  0.30706760  1
  C  C40  1  0.81678333  0.79800749  0.30378186  1
  C  C41  1  0.98437399  0.19289122  0.30647792  1
  C  C42  1  0.21702862  0.20800743  0.80923362  1
  C  C43  1  0.99028745  0.78679761  0.80484119  1
  C  C44  1  0.79949005  0.01274359  0.80498706  1
  C  C45  1  0.80253597  0.96969801  0.69500045  1
  C  C46  1  0.16402244  0.19297055  0.69798951  1
  C  C47  1  0.02882024  0.83125714  0.69474536  1
  C  C48  1  0.79627922  0.83042897  0.19416478  1
  C  C49  1  0.03079399  0.20122930  0.19678296  1
  C  C50  1  0.16669458  0.96614071  0.19736230  1
  C  C51  1  0.90808205  0.38069168  0.63548257  1
  C  C52  1  0.47146140  0.09176224  0.63548515  1
  C  C53  1  0.61994781  0.52880097  0.63552983  1
  C  C54  1  0.87977051  0.54154073  0.14377492  1
  C  C55  1  0.65212516  0.11738603  0.13863393  1
  C  C56  1  0.47880602  0.35510544  0.13573472  1
  C  C57  1  0.46161007  0.29900882  0.02672295  1
  C  C58  1  0.83133823  0.52994497  0.03327054  1
  C  C59  1  0.69643522  0.16076867  0.02921645  1
  C  C60  1  0.46916672  0.16355293  0.52842865  1
  C  C61  1  0.69436893  0.53174684  0.52845878  1
  C  C62  1  0.83729223  0.30535493  0.52843913  1
  C  C63  1  0.54601096  0.67139030  0.97682580  1
  C  C64  1  0.14339484  0.45450587  0.97037861  1
  C  C65  1  0.31831094  0.86848648  0.97151306  1
  C  C66  1  0.50520547  0.84592178  0.47109007  1
  C  C67  1  0.34118637  0.49420938  0.47127602  1
  C  C68  1  0.15539652  0.65879778  0.46990432  1
  C  C69  1  0.12974929  0.63233829  0.36143577  1
  C  C70  1  0.49962027  0.86581911  0.36302769  1
  C  C71  1  0.36691242  0.50042188  0.36322108  1
  C  C72  1  0.13305995  0.50042579  0.86190506  1
  C  C73  1  0.36311839  0.86872916  0.86215716  1
  C  C74  1  0.49712141  0.63321109  0.86641879  1
  C  C75  1  0.02443369  0.81010629  0.42074503  1
  C  C76  1  0.78409661  0.97300409  0.42075972  1
  C  C77  1  0.19012232  0.21500719  0.42063823  1
  C  C78  1  0.00879814  0.20007295  0.90887362  1
  C  C79  1  0.20614655  0.01662708  0.91005241  1
  C  C80  1  0.80403200  0.80176498  0.91341157  1
  C  C81  1  0.97835238  0.16464186  0.58721803  1
  C  C82  1  0.18692230  0.02364567  0.58684090  1
  C  C83  1  0.83563308  0.81370690  0.58697763  1
  C  C84  1  0.95561534  0.81129918  0.08957249  1
  C  C85  1  0.85462029  0.04001290  0.08957724  1
  C  C86  1  0.19074532  0.15246528  0.09121192  1
  C  C87  1  0.66343323  0.13595212  0.74062246  1
  C  C88  1  0.46971496  0.33173547  0.74173367  1
  C  C89  1  0.86404445  0.52704800  0.74076480  1
  C  C90  1  0.67744390  0.53537731  0.24420763  1
  C  C91  1  0.87290885  0.34622235  0.24505060  1
  C  C92  1  0.46875127  0.13370047  0.24723015  1
  C  C93  1  0.62304289  0.47796612  0.92325161  1
  C  C94  1  0.85797075  0.37351924  0.92429526  1
  C  C95  1  0.52167919  0.14772840  0.92304356  1
  C  C96  1  0.61844435  0.13537804  0.42608843  1
  C  C97  1  0.51704972  0.38096206  0.42606283  1
  C  C98  1  0.86442531  0.48339677  0.42659688  1
  C  C99  1  0.34084668  0.47566223  0.07592542  1
  C  C100  1  0.13721534  0.66859094  0.08040745  1
  C  C101  1  0.53954793  0.85702852  0.07712141  1
  C  C102  1  0.33320723  0.85291904  0.56523204  1
  C  C103  1  0.51887608  0.66701069  0.56533792  1
  C  C104  1  0.14710742  0.48107269  0.56531434  1
  C  C105  1  0.28692513  0.81196704  0.25730898  1
  C  C106  1  0.52627149  0.70661321  0.25854870  1
  C  C107  1  0.18631107  0.47751173  0.25813198  1
  C  C108  1  0.29346318  0.47914982  0.75603762  1
  C  C109  1  0.18666324  0.70693974  0.75511400  1
  C  C110  1  0.52191364  0.81365625  0.75612478  1
