# generated using pymatgen
data_Cu6Ni8C3
_symmetry_space_group_name_H-M   'P 1'
_cell_length_a   7.73034400
_cell_length_b   11.54809799
_cell_length_c   13.04010252
_cell_angle_alpha   71.44410519
_cell_angle_beta   79.71795735
_cell_angle_gamma   82.75816765
_symmetry_Int_Tables_number   1
_chemical_formula_structural   Cu6Ni8C3
_chemical_formula_sum   'Cu12 Ni16 C6'
_cell_volume   1082.86330082
_cell_formula_units_Z   2
loop_
 _symmetry_equiv_pos_site_id
 _symmetry_equiv_pos_as_xyz
  1  'x, y, z'
loop_
 _atom_site_type_symbol
 _atom_site_label
 _atom_site_symmetry_multiplicity
 _atom_site_fract_x
 _atom_site_fract_y
 _atom_site_fract_z
 _atom_site_occupancy
  C  C0  1  0.39935300  0.50025600  0.24552400  1
  C  C1  1  0.60064700  0.49974400  0.75447600  1
  C  C2  1  0.99760000  0.00231400  0.12362100  1
  C  C3  1  0.00240000  0.99768600  0.87637900  1
  C  C4  1  0.99858300  0.00155200  0.37488700  1
  C  C5  1  0.00141700  0.99844800  0.62511300  1
  Ni  Ni6  1  0.78649300  0.88749500  0.31153400  1
  Ni  Ni7  1  0.21350700  0.11250500  0.68846600  1
  Ni  Ni8  1  0.24039000  0.89606600  0.24599300  1
  Ni  Ni9  1  0.75961000  0.10393400  0.75400700  1
  Ni  Ni10  1  0.21212200  0.11620600  0.20310600  1
  Ni  Ni11  1  0.78787800  0.88379400  0.79689400  1
  Ni  Ni12  1  0.99809800  0.80474000  0.05805700  1
  Ni  Ni13  1  0.00190200  0.19526000  0.94194300  1
  Ni  Ni14  1  0.74158200  0.94246500  0.04282300  1
  Ni  Ni15  1  0.25841800  0.05753500  0.95717700  1
  Ni  Ni16  1  0.27341600  0.95372100  0.48270400  1
  Ni  Ni17  1  0.72658400  0.04627900  0.51729600  1
  Ni  Ni18  1  0.06017700  0.80634700  0.54661700  1
  Ni  Ni19  1  0.25146300  0.89418800  0.76070900  1
  Ni  Ni20  1  0.93982300  0.19365300  0.45338300  1
  Ni  Ni21  1  0.74853700  0.10581200  0.23929100  1
  Cu  Cu22  1  0.80848700  0.57705600  0.84498300  1
  Cu  Cu23  1  0.19151300  0.42294400  0.15501700  1
  Cu  Cu24  1  0.33252000  0.59743000  0.84573100  1
  Cu  Cu25  1  0.63906100  0.69562500  0.59466100  1
  Cu  Cu26  1  0.59677000  0.57721400  0.33777000  1
  Cu  Cu27  1  0.40323000  0.42278600  0.66223000  1
  Cu  Cu28  1  0.13527400  0.60622100  0.33769200  1
  Cu  Cu29  1  0.86472600  0.39377900  0.66230800  1
  Cu  Cu30  1  0.41991300  0.69192500  0.07992400  1
  Cu  Cu31  1  0.58008700  0.30807500  0.92007600  1
  Cu  Cu32  1  0.36093900  0.30437500  0.40533900  1
  Cu  Cu33  1  0.66748000  0.40257000  0.15426900  1
