# generated using pymatgen
data_Cu2NiC16
_symmetry_space_group_name_H-M   'P 1'
_cell_length_a   6.42601953
_cell_length_b   6.25768095
_cell_length_c   14.04206000
_cell_angle_alpha   90.00000000
_cell_angle_beta   90.00000000
_cell_angle_gamma   86.17748337
_symmetry_Int_Tables_number   1
_chemical_formula_structural   Cu2NiC16
_chemical_formula_sum   'Cu2 Ni1 C16'
_cell_volume   563.40286514
_cell_formula_units_Z   1
loop_
 _symmetry_equiv_pos_site_id
 _symmetry_equiv_pos_as_xyz
  1  'x, y, z'
loop_
 _atom_site_type_symbol
 _atom_site_label
 _atom_site_symmetry_multiplicity
 _atom_site_fract_x
 _atom_site_fract_y
 _atom_site_fract_z
 _atom_site_occupancy
  C  C0  1  0.76143800  0.76365300  0.00000000  1
  C  C1  1  0.25864100  0.85163600  0.50000000  1
  C  C2  1  0.67731500  0.18920700  0.50000000  1
  C  C3  1  0.24081900  0.23827500  0.00000000  1
  Ni  Ni4  1  0.11846000  0.39067100  0.50000000  1
  Cu  Cu5  1  0.50510800  0.50051800  0.75548300  1
  Cu  Cu6  1  0.50510800  0.50051800  0.24451700  1
  C  C7  1  0.99479000  0.50723900  0.75275000  1
  C  C8  1  0.51426700  0.99346700  0.75814700  1
  C  C9  1  0.99479000  0.50723900  0.24725000  1
  C  C10  1  0.51426700  0.99346700  0.24185300  1
  C  C11  1  0.69948400  0.69613500  0.65149900  1
  C  C12  1  0.29550300  0.29035800  0.66179600  1
  C  C13  1  0.69948400  0.69613500  0.34850100  1
  C  C14  1  0.72376800  0.28412500  0.15085000  1
  C  C15  1  0.28561700  0.71976900  0.84728700  1
  C  C16  1  0.29550300  0.29035800  0.33820400  1
  C  C17  1  0.28561700  0.71976900  0.15271300  1
  C  C18  1  0.72376800  0.28412500  0.84915000  1
