# generated using pymatgen
data_Cu6NiC12
_symmetry_space_group_name_H-M   'P 1'
_cell_length_a   2.94413600
_cell_length_b   9.46179777
_cell_length_c   9.56585220
_cell_angle_alpha   91.60074011
_cell_angle_beta   90.00000000
_cell_angle_gamma   90.00000000
_symmetry_Int_Tables_number   1
_chemical_formula_structural   Cu6NiC12
_chemical_formula_sum   'Cu6 Ni1 C12'
_cell_volume   266.37022705
_cell_formula_units_Z   1
loop_
 _symmetry_equiv_pos_site_id
 _symmetry_equiv_pos_as_xyz
  1  'x, y, z'
loop_
 _atom_site_type_symbol
 _atom_site_label
 _atom_site_symmetry_multiplicity
 _atom_site_fract_x
 _atom_site_fract_y
 _atom_site_fract_z
 _atom_site_occupancy
  Ni  Ni0  1  0.50000000  0.50000000  0.50000000  1
  Cu  Cu1  1  0.50000000  0.00000000  0.50000000  1
  Cu  Cu2  1  0.00000000  0.98773600  0.23385700  1
  Cu  Cu3  1  0.00000000  0.01226400  0.76614300  1
  Cu  Cu4  1  0.00000000  0.50000000  0.00000000  1
  Cu  Cu5  1  0.50000000  0.23340500  0.02001000  1
  Cu  Cu6  1  0.50000000  0.76659500  0.97999000  1
  C  C7  1  0.50000000  0.90635500  0.83810200  1
  C  C8  1  0.50000000  0.09364500  0.16189800  1
  C  C9  1  0.00000000  0.89944400  0.58583600  1
  C  C10  1  0.00000000  0.10055600  0.41416400  1
  C  C11  1  0.50000000  0.89003400  0.32739400  1
  C  C12  1  0.50000000  0.10996600  0.67260600  1
  C  C13  1  0.00000000  0.85035900  0.08114000  1
  C  C14  1  0.00000000  0.14964100  0.91886000  1
  C  C15  1  0.50000000  0.59674600  0.09546400  1
  C  C16  1  0.50000000  0.40325400  0.90453600  1
  C  C17  1  0.00000000  0.33593100  0.11460500  1
  C  C18  1  0.00000000  0.66406900  0.88539500  1
