# generated using pymatgen
data_Cu2Ni8C15
_symmetry_space_group_name_H-M   'P 1'
_cell_length_a   8.37235100
_cell_length_b   5.57486500
_cell_length_c   11.17139850
_cell_angle_alpha   80.60151491
_cell_angle_beta   90.00000000
_cell_angle_gamma   90.00000000
_symmetry_Int_Tables_number   1
_chemical_formula_structural   Cu2Ni8C15
_chemical_formula_sum   'Cu4 Ni16 C30'
_cell_volume   514.42265160
_cell_formula_units_Z   2
loop_
 _symmetry_equiv_pos_site_id
 _symmetry_equiv_pos_as_xyz
  1  'x, y, z'
loop_
 _atom_site_type_symbol
 _atom_site_label
 _atom_site_symmetry_multiplicity
 _atom_site_fract_x
 _atom_site_fract_y
 _atom_site_fract_z
 _atom_site_occupancy
  C  C0  1  0.92735400  0.88106600  0.36186000  1
  C  C1  1  0.07264600  0.11893400  0.63814000  1
  C  C2  1  0.57264600  0.88106600  0.86186000  1
  C  C3  1  0.42735400  0.11893400  0.13814000  1
  C  C4  1  0.50000000  0.00000000  0.50000000  1
  C  C5  1  0.00000000  0.00000000  0.00000000  1
  Ni  Ni6  1  0.27256800  0.75513100  0.01222900  1
  Ni  Ni7  1  0.77256800  0.24486900  0.48777100  1
  Ni  Ni8  1  0.72743200  0.24486900  0.98777100  1
  Ni  Ni9  1  0.22743200  0.75513100  0.51222900  1
  Ni  Ni10  1  0.19547400  0.67146900  0.13869600  1
  Ni  Ni11  1  0.69547400  0.32853100  0.36130400  1
  Ni  Ni12  1  0.80452600  0.32853100  0.86130400  1
  Ni  Ni13  1  0.30452600  0.67146900  0.63869600  1
  Ni  Ni14  1  0.86393700  0.22886600  0.15470900  1
  Ni  Ni15  1  0.36393700  0.77113400  0.34529100  1
  Ni  Ni16  1  0.05346700  0.23676900  0.18204500  1
  Ni  Ni17  1  0.55346700  0.76323100  0.31795500  1
  Ni  Ni18  1  0.94653300  0.76323100  0.81795500  1
  Ni  Ni19  1  0.44653300  0.23676900  0.68204500  1
  Ni  Ni20  1  0.13606300  0.77113400  0.84529100  1
  Ni  Ni21  1  0.63606300  0.22886600  0.65470900  1
  Cu  Cu22  1  0.21186500  0.37790900  0.36373600  1
  Cu  Cu23  1  0.71186500  0.62209100  0.13626400  1
  Cu  Cu24  1  0.78813500  0.62209100  0.63626400  1
  Cu  Cu25  1  0.28813500  0.37790900  0.86373600  1
  C  C26  1  0.91520100  0.78269800  0.57749800  1
  C  C27  1  0.08479900  0.21730200  0.42250200  1
  C  C28  1  0.13019400  0.31717500  0.92200900  1
  C  C29  1  0.58479900  0.78269800  0.07749800  1
  C  C30  1  0.86980600  0.68282500  0.07799100  1
  C  C31  1  0.36980600  0.31717500  0.42200900  1
  C  C32  1  0.32330700  0.63986800  0.87298300  1
  C  C33  1  0.82330700  0.36013200  0.62701700  1
  C  C34  1  0.67669300  0.36013200  0.12701700  1
  C  C35  1  0.17669300  0.63986800  0.37298300  1
  C  C36  1  0.03638000  0.87076500  0.83615900  1
  C  C37  1  0.53638000  0.12923500  0.66384100  1
  C  C38  1  0.96362000  0.12923500  0.16384100  1
  C  C39  1  0.46362000  0.87076500  0.33615900  1
  C  C40  1  0.28549500  0.81928300  0.57781700  1
  C  C41  1  0.78549500  0.18071700  0.92218300  1
  C  C42  1  0.71450500  0.18071700  0.42218300  1
  C  C43  1  0.21450500  0.81928300  0.07781700  1
  C  C44  1  0.22083500  0.36046900  0.23046000  1
  C  C45  1  0.72083500  0.63953100  0.26954000  1
  C  C46  1  0.77916500  0.63953100  0.76954000  1
  C  C47  1  0.27916500  0.36046900  0.73046000  1
  C  C48  1  0.63019400  0.68282500  0.57799100  1
  C  C49  1  0.41520100  0.21730200  0.92250200  1
