# generated using pymatgen
data_Cu3Ni9C70
_symmetry_space_group_name_H-M   'P 1'
_cell_length_a   18.36220700
_cell_length_b   9.18424420
_cell_length_c   22.63609891
_cell_angle_alpha   90.03133516
_cell_angle_beta   90.10723812
_cell_angle_gamma   120.01421047
_symmetry_Int_Tables_number   1
_chemical_formula_structural   Cu3Ni9C70
_chemical_formula_sum   'Cu9 Ni27 C210'
_cell_volume   3305.49810243
_cell_formula_units_Z   3
loop_
 _symmetry_equiv_pos_site_id
 _symmetry_equiv_pos_as_xyz
  1  'x, y, z'
loop_
 _atom_site_type_symbol
 _atom_site_label
 _atom_site_symmetry_multiplicity
 _atom_site_fract_x
 _atom_site_fract_y
 _atom_site_fract_z
 _atom_site_occupancy
  C  C0  1  0.81885589  0.00798712  0.25563269  1
  C  C1  1  0.17404316  0.35213620  0.25465927  1
  C  C2  1  0.69210754  0.37057187  0.25428645  1
  C  C3  1  0.99663930  0.62976577  0.24581889  1
  C  C4  1  0.50218726  0.64834271  0.25071433  1
  C  C5  1  0.31820531  0.62864216  0.75216797  1
  C  C6  1  0.00047620  0.35402280  0.74325742  1
  C  C7  1  0.49834164  0.36570257  0.74257742  1
  C  C8  1  0.19024516  0.01317068  0.74985872  1
  C  C9  1  0.67932105  0.99971514  0.74922641  1
  C  C10  1  0.14715870  0.32209527  0.58199797  1
  C  C11  1  0.65254125  0.33179175  0.58184603  1
  C  C12  1  0.33503747  0.98973420  0.58673789  1
  C  C13  1  0.83321495  0.97211547  0.58184081  1
  C  C14  1  0.14405492  0.96733344  0.08037132  1
  C  C15  1  0.65095927  0.97593196  0.07951019  1
  C  C16  1  0.33332275  0.68313238  0.08143544  1
  C  C17  1  0.83510773  0.68098248  0.08705321  1
  C  C18  1  0.48120448  0.67975944  0.91505889  1
  C  C19  1  0.98071098  0.67753980  0.92314010  1
  C  C20  1  0.34529002  0.02339469  0.90673936  1
  C  C21  1  0.84431061  0.02175357  0.90964474  1
  C  C22  1  0.17178976  0.29483664  0.90949324  1
  C  C23  1  0.66925921  0.29102858  0.91007321  1
  C  C24  1  0.48376490  0.28982924  0.42689416  1
  C  C25  1  0.97843766  0.28041574  0.42030929  1
  C  C26  1  0.16813993  0.04747922  0.41347421  1
  C  C27  1  0.67519403  0.05146979  0.41603465  1
  C  C28  1  0.34526494  0.66734146  0.41320302  1
  C  C29  1  0.84504969  0.66491150  0.41885307  1
  C  C30  1  0.99770008  0.99550931  0.50029482  1
  C  C31  1  0.50614608  0.01478751  0.50170577  1
  C  C32  1  0.00313122  0.99425772  0.99979663  1
  C  C33  1  0.50482164  0.99923322  0.99560833  1
  C  C34  1  0.32917376  0.33482967  0.82647432  1
  C  C35  1  0.82215583  0.32908988  0.83077203  1
  C  C36  1  0.32217014  0.31215144  0.33664393  1
  C  C37  1  0.82845692  0.32223200  0.33239418  1
  C  C38  1  0.15586027  0.64986964  0.16887774  1
  C  C39  1  0.66405414  0.65832320  0.16956161  1
  C  C40  1  0.16156401  0.66750276  0.66781708  1
  C  C41  1  0.66314741  0.66324561  0.66445260  1
  C  C42  1  0.99764756  0.00392594  0.64486946  1
  C  C43  1  0.50482994  0.00644477  0.65106493  1
  C  C44  1  0.00394589  0.00345776  0.15114448  1
  C  C45  1  0.50213029  0.99152243  0.14780121  1
  C  C46  1  0.82916119  0.32754298  0.68185005  1
  C  C47  1  0.33084962  0.34199401  0.18551920  1
  C  C48  1  0.16432664  0.66542250  0.01931665  1
  C  C49  1  0.66649060  0.66643410  0.01987654  1
  C  C50  1  0.16586225  0.66625552  0.51980198  1
  C  C51  1  0.66969379  0.66213730  0.52197504  1
  C  C52  1  0.17453741  0.67301967  0.31053547  1
  C  C53  1  0.67541191  0.67822319  0.80942488  1
  C  C54  1  0.99956725  0.00959450  0.34974025  1
  C  C55  1  0.50182324  0.00088519  0.35181573  1
  C  C56  1  0.00104373  0.00097406  0.85000180  1
  C  C57  1  0.50019874  0.99074624  0.84867910  1
  C  C58  1  0.33575804  0.32351541  0.68617765  1
  C  C59  1  0.83575775  0.34785487  0.18683344  1
  C  C60  1  0.32812381  0.34150918  0.98144284  1
  C  C61  1  0.82666864  0.34117352  0.98332752  1
  C  C62  1  0.32755438  0.31346479  0.48348163  1
  C  C63  1  0.82897429  0.32769938  0.48501624  1
  C  C64  1  0.67775531  0.67975174  0.31548350  1
  C  C65  1  0.17668716  0.67533933  0.81390087  1
  Ni  Ni66  1  0.14899544  0.00078550  0.25165453  1
  Ni  Ni67  1  0.64801657  0.99657150  0.25142797  1
  Ni  Ni68  1  0.35510344  0.70908122  0.25017563  1
  Ni  Ni69  1  0.85378491  0.70927153  0.25056866  1
  Ni  Ni70  1  0.99880446  0.29515080  0.25143473  1
  Ni  Ni71  1  0.14642658  0.29607069  0.75075490  1
  Ni  Ni72  1  0.64932989  0.29639147  0.75279806  1
  Ni  Ni73  1  0.49893883  0.70281471  0.75187607  1
  Ni  Ni74  1  0.35373330  0.99886462  0.75095107  1
  Ni  Ni75  1  0.85608053  0.00851310  0.75123128  1
  Ni  Ni76  1  0.48056114  0.33195185  0.58329630  1
  Ni  Ni77  1  0.98139713  0.34002006  0.58352724  1
  Ni  Ni78  1  0.18467144  0.03467625  0.58462313  1
  Ni  Ni79  1  0.68209766  0.03254966  0.58177170  1
  Ni  Ni80  1  0.83638303  0.62705364  0.58010919  1
  Ni  Ni81  1  0.48171305  0.62462651  0.08329814  1
  Ni  Ni82  1  0.98122062  0.62915987  0.08338767  1
  Ni  Ni83  1  0.18249692  0.33303203  0.08205895  1
  Ni  Ni84  1  0.68312970  0.33340659  0.08465375  1
  Ni  Ni85  1  0.31572942  0.67105453  0.91813472  1
  Ni  Ni86  1  0.81394386  0.66817432  0.91765320  1
  Ni  Ni87  1  0.16741394  0.96231584  0.91563368  1
  Ni  Ni88  1  0.66787906  0.96308516  0.91742099  1
  Ni  Ni89  1  0.31421128  0.96044176  0.41743722  1
  Ni  Ni90  1  0.81636191  0.96513893  0.41740267  1
  Ni  Ni91  1  0.16773678  0.37244097  0.41681385  1
  Ni  Ni92  1  0.66675962  0.37125113  0.41426292  1
  Cu  Cu93  1  0.49719520  0.28860859  0.24958984  1
  Cu  Cu94  1  0.99818672  0.70524932  0.75081070  1
  Cu  Cu95  1  0.33410528  0.62794040  0.58232449  1
  Cu  Cu96  1  0.33439262  0.04356602  0.08218018  1
  Cu  Cu97  1  0.83439461  0.04048690  0.08224127  1
  Cu  Cu98  1  0.02070245  0.37543253  0.91622829  1
  Cu  Cu99  1  0.52167210  0.37750134  0.91683068  1
  Cu  Cu100  1  0.02279953  0.66613840  0.41518291  1
  Cu  Cu101  1  0.52114459  0.66608585  0.41590852  1
  C  C102  1  0.10971532  0.04186783  0.30917383  1
  C  C103  1  0.60309768  0.02876370  0.30826154  1
  C  C104  1  0.41314865  0.79194802  0.30807390  1
  C  C105  1  0.91251104  0.79801989  0.30814737  1
  C  C106  1  0.48606394  0.19258561  0.30467624  1
  C  C107  1  0.98414756  0.18412626  0.31093391  1
  C  C108  1  0.10423374  0.17953053  0.81006224  1
  C  C109  1  0.60719433  0.17914255  0.81091536  1
  C  C110  1  0.48355233  0.78187851  0.81231347  1
  C  C111  1  0.98807733  0.78042444  0.80614386  1
  C  C112  1  0.41008347  0.02443777  0.81004807  1
  C  C113  1  0.91189601  0.03315402  0.81063852  1
  C  C114  1  0.39904214  0.97161888  0.69279709  1
  C  C115  1  0.90077214  0.98372361  0.69324469  1
  C  C116  1  0.08586071  0.19720079  0.69393480  1
  C  C117  1  0.58961640  0.20699826  0.69412668  1
  C  C118  1  0.00960609  0.81450791  0.69968647  1
  C  C119  1  0.51709573  0.83473555  0.69769840  1
  C  C120  1  0.39826753  0.81986352  0.19078526  1
  C  C121  1  0.89870173  0.82564904  0.19146831  1
  C  C122  1  0.01786876  0.20145526  0.19658542  1
  C  C123  1  0.50722850  0.20000347  0.19823624  1
  C  C124  1  0.09025127  0.97289165  0.19244662  1
  C  C125  1  0.58671421  0.97233974  0.19311387  1
  C  C126  1  0.43716301  0.35393957  0.64234191  1
  C  C127  1  0.93682897  0.35993435  0.64319938  1
  C  C128  1  0.24504294  0.12152345  0.64159252  1
  C  C129  1  0.74300145  0.12296210  0.64027228  1
  C  C130  1  0.32127137  0.52487733  0.63499751  1
  C  C131  1  0.81964967  0.49966371  0.63548692  1
  C  C132  1  0.43596024  0.51150123  0.14213400  1
  C  C133  1  0.93824346  0.52071562  0.14226491  1
  C  C134  1  0.32285709  0.12850531  0.13381496  1
  C  C135  1  0.82144912  0.11760669  0.13488215  1
  C  C136  1  0.24513366  0.36142670  0.13930354  1
  C  C137  1  0.74264719  0.36322452  0.14156693  1
  C  C138  1  0.22637628  0.30094607  0.02471380  1
  C  C139  1  0.72336495  0.29486854  0.02577473  1
  C  C140  1  0.42325928  0.53693743  0.02577449  1
  C  C141  1  0.92394738  0.53906626  0.02447581  1
  C  C142  1  0.34534696  0.13865756  0.02750456  1
  C  C143  1  0.84340256  0.13747976  0.02791995  1
  C  C144  1  0.22546089  0.15196610  0.52541410  1
  C  C145  1  0.72455781  0.15267388  0.52442951  1
  C  C146  1  0.34328231  0.54902362  0.52792972  1
  C  C147  1  0.84806231  0.54856388  0.51937792  1
  C  C148  1  0.42193031  0.30378675  0.52466938  1
  C  C149  1  0.92413581  0.30897031  0.52533240  1
  C  C150  1  0.26551406  0.68831714  0.97613578  1
  C  C151  1  0.76818026  0.69195676  0.97680834  1
  C  C152  1  0.07528482  0.46304675  0.96869245  1
  C  C153  1  0.57582197  0.46597464  0.96924924  1
  C  C154  1  0.15424870  0.84207428  0.97420144  1
  C  C155  1  0.65534338  0.84464000  0.97599420  1
  C  C156  1  0.26822555  0.84420117  0.47600022  1
  C  C157  1  0.76482361  0.84300297  0.47356064  1
  C  C158  1  0.15598517  0.46843574  0.47463261  1
  C  C159  1  0.65188387  0.46377030  0.47173408  1
  C  C160  1  0.07651614  0.68632108  0.46786652  1
  C  C161  1  0.57503265  0.68758271  0.46738183  1
  C  C162  1  0.06332697  0.64655808  0.36150390  1
  C  C163  1  0.55713936  0.64106132  0.36102898  1
  C  C164  1  0.25092660  0.86458368  0.36187338  1
  C  C165  1  0.75821638  0.88127601  0.35791416  1
  C  C166  1  0.17800442  0.48966352  0.35874297  1
  C  C167  1  0.67488498  0.48261010  0.35550862  1
  C  C168  1  0.05769420  0.47538904  0.86271117  1
  C  C169  1  0.55933996  0.47841672  0.86314736  1
  C  C170  1  0.17753302  0.86814500  0.85786171  1
  C  C171  1  0.67782588  0.86447789  0.86031866  1
  C  C172  1  0.25635426  0.63650021  0.86001459  1
  C  C173  1  0.74994781  0.63650917  0.86284328  1
  C  C174  1  0.01650263  0.82025661  0.41318736  1
  C  C175  1  0.51395546  0.82119035  0.41329829  1
  C  C176  1  0.40629177  0.97425275  0.41172619  1
  C  C177  1  0.90748610  0.97184183  0.41542335  1
  C  C178  1  0.08520812  0.18449744  0.41490877  1
  C  C179  1  0.58184579  0.18186491  0.41252355  1
  C  C180  1  0.01524766  0.20846997  0.91446294  1
  C  C181  1  0.51568856  0.21110663  0.91483539  1
  C  C182  1  0.08334063  0.98280593  0.91403156  1
  C  C183  1  0.58512843  0.98580039  0.91547756  1
  C  C184  1  0.40705714  0.84384818  0.91678260  1
  C  C185  1  0.90645144  0.83796129  0.91261113  1
  C  C186  1  0.48710536  0.15724855  0.58773603  1
  C  C187  1  0.99081709  0.16903347  0.58872304  1
  C  C188  1  0.09251059  0.01851191  0.59165646  1
  C  C189  1  0.59062217  0.02037723  0.58912986  1
  C  C190  1  0.40673168  0.80042757  0.58697124  1
  C  C191  1  0.91411939  0.81830870  0.58966909  1
  C  C192  1  0.48709225  0.81241268  0.08831460  1
  C  C193  1  0.98869243  0.81795698  0.08674475  1
  C  C194  1  0.40678730  0.01624267  0.08931603  1
  C  C195  1  0.90705522  0.01304770  0.08666921  1
  C  C196  1  0.09121693  0.16389142  0.08861400  1
  C  C197  1  0.58876542  0.16555357  0.09102068  1
  C  C198  1  0.34336090  0.16563209  0.74750380  1
  C  C199  1  0.84783046  0.17910959  0.74650294  1
  C  C200  1  0.24083781  0.32308020  0.74425299  1
  C  C201  1  0.74139019  0.31062846  0.74453458  1
  C  C202  1  0.41536418  0.51997914  0.74369680  1
  C  C203  1  0.92378839  0.53495431  0.74518832  1
  C  C204  1  0.34760874  0.52024454  0.24431777  1
  C  C205  1  0.84317145  0.52148114  0.24642212  1
  C  C206  1  0.42190886  0.30843291  0.24292705  1
  C  C207  1  0.91527336  0.31038744  0.24298887  1
  C  C208  1  0.24276232  0.16807492  0.24118652  1
  C  C209  1  0.74124906  0.15838052  0.24350660  1
  C  C210  1  0.32693706  0.50408235  0.92180381  1
  C  C211  1  0.82427909  0.50029813  0.92070658  1
  C  C212  1  0.43681947  0.35666643  0.92367226  1
  C  C213  1  0.93556553  0.35264106  0.92393383  1
  C  C214  1  0.25462735  0.14540067  0.92139382  1
  C  C215  1  0.75565700  0.14554099  0.92125544  1
  C  C216  1  0.32437677  0.14866535  0.41993011  1
  C  C217  1  0.82796776  0.15365248  0.42119229  1
  C  C218  1  0.25567692  0.36595657  0.42034795  1
  C  C219  1  0.75229490  0.35779709  0.41786372  1
  C  C220  1  0.43529755  0.51767858  0.42246796  1
  C  C221  1  0.93936272  0.51482737  0.41970027  1
  C  C222  1  0.18022361  0.50904481  0.07808498  1
  C  C223  1  0.67836821  0.50698378  0.07721353  1
  C  C224  1  0.07907389  0.66459291  0.07802919  1
  C  C225  1  0.57900481  0.66371593  0.07954782  1
  C  C226  1  0.25579472  0.87308423  0.07914813  1
  C  C227  1  0.75580123  0.86795534  0.07805783  1
  C  C228  1  0.17983661  0.85144797  0.57677112  1
  C  C229  1  0.67732440  0.85107043  0.57655052  1
  C  C230  1  0.25546817  0.64270566  0.57800880  1
  C  C231  1  0.74979050  0.64253821  0.57786810  1
  C  C232  1  0.07893753  0.49881564  0.57921584  1
  C  C233  1  0.57632113  0.49101606  0.57696807  1
  C  C234  1  0.15105366  0.82556503  0.25592449  1
  C  C235  1  0.64856537  0.81887684  0.25374371  1
  C  C236  1  0.25882210  0.67403500  0.25350829  1
  C  C237  1  0.75939556  0.68934224  0.25230577  1
  C  C238  1  0.08276653  0.48357751  0.25635218  1
  C  C239  1  0.57290968  0.45796082  0.25224978  1
  C  C240  1  0.14857241  0.47743442  0.75461646  1
  C  C241  1  0.65132160  0.47596533  0.75749440  1
  C  C242  1  0.07486822  0.68859200  0.75415697  1
  C  C243  1  0.58287082  0.68251497  0.75718442  1
  C  C244  1  0.25917577  0.82980395  0.75258496  1
  C  C245  1  0.75986815  0.84626850  0.75449592  1
