# generated using pymatgen
data_Cu4Ni9C65
_symmetry_space_group_name_H-M   'P 1'
_cell_length_a   17.66457796
_cell_length_b   8.83380190
_cell_length_c   22.22499881
_cell_angle_alpha   90.07577247
_cell_angle_beta   90.28964782
_cell_angle_gamma   119.83963078
_symmetry_Int_Tables_number   1
_chemical_formula_structural   Cu4Ni9C65
_chemical_formula_sum   'Cu12 Ni27 C195'
_cell_volume   3008.24391804
_cell_formula_units_Z   3
loop_
 _symmetry_equiv_pos_site_id
 _symmetry_equiv_pos_as_xyz
  1  'x, y, z'
loop_
 _atom_site_type_symbol
 _atom_site_label
 _atom_site_symmetry_multiplicity
 _atom_site_fract_x
 _atom_site_fract_y
 _atom_site_fract_z
 _atom_site_occupancy
  C  C0  1  0.32011833  0.00122930  0.24919856  1
  C  C1  1  0.82155656  0.00329480  0.24814382  1
  C  C2  1  0.18275209  0.98897182  0.74809852  1
  C  C3  1  0.68350106  0.99498399  0.74639956  1
  C  C4  1  0.01492450  0.69548863  0.57868469  1
  C  C5  1  0.51395877  0.70324235  0.57896771  1
  C  C6  1  0.01313852  0.33315921  0.07891554  1
  C  C7  1  0.51850652  0.32918136  0.07807901  1
  C  C8  1  0.48363044  0.66646431  0.91291731  1
  C  C9  1  0.35029984  0.03670211  0.91482742  1
  C  C10  1  0.85294830  0.03935300  0.91212810  1
  C  C11  1  0.16290318  0.30192736  0.91801881  1
  C  C12  1  0.48427184  0.30314547  0.41356795  1
  C  C13  1  0.98574044  0.30867370  0.41216123  1
  C  C14  1  0.16569793  0.03518847  0.41669062  1
  C  C15  1  0.66788075  0.03082262  0.42050779  1
  C  C16  1  0.34651052  0.66158355  0.41585235  1
  C  C17  1  0.85088042  0.66803836  0.41481975  1
  C  C18  1  0.00099833  0.00640799  0.50276922  1
  C  C19  1  0.50028647  0.00181907  0.50153798  1
  C  C20  1  0.00358877  0.98540816  0.00241879  1
  C  C21  1  0.50748937  0.01232827  0.99787623  1
  C  C22  1  0.34077231  0.33968674  0.83284263  1
  C  C23  1  0.84433030  0.35425621  0.83626026  1
  C  C24  1  0.33728397  0.35292912  0.33218101  1
  C  C25  1  0.83936876  0.35620371  0.32949239  1
  C  C26  1  0.17022887  0.65852276  0.16272527  1
  C  C27  1  0.67435800  0.65481887  0.16418840  1
  C  C28  1  0.17854864  0.67079516  0.66715551  1
  C  C29  1  0.67767614  0.66991212  0.66878258  1
  Ni  Ni30  1  0.35237613  0.70268100  0.24883146  1
  Ni  Ni31  1  0.86277792  0.71279359  0.24700372  1
  Ni  Ni32  1  0.99805443  0.29225622  0.24784550  1
  Ni  Ni33  1  0.50177870  0.30475603  0.24800806  1
  Ni  Ni34  1  0.00060247  0.70737772  0.75509358  1
  Ni  Ni35  1  0.50031990  0.70815745  0.75471290  1
  Ni  Ni36  1  0.35215476  0.99096258  0.75547141  1
  Ni  Ni37  1  0.85837792  0.98983070  0.75323974  1
  Ni  Ni38  1  0.18155905  0.03038992  0.58653944  1
  Ni  Ni39  1  0.68567298  0.04060925  0.58653792  1
  Ni  Ni40  1  0.32590000  0.62395931  0.58264001  1
  Ni  Ni41  1  0.83232799  0.62651986  0.58681130  1
  Ni  Ni42  1  0.32603993  0.02616587  0.08121328  1
  Ni  Ni43  1  0.82717632  0.03724305  0.08418984  1
  Ni  Ni44  1  0.18038911  0.33062032  0.08194490  1
  Ni  Ni45  1  0.69686659  0.34025632  0.08084374  1
  Ni  Ni46  1  0.30818815  0.66915037  0.91370582  1
  Ni  Ni47  1  0.02208841  0.38732068  0.91670989  1
  Ni  Ni48  1  0.53151419  0.38390988  0.91601901  1
  Ni  Ni49  1  0.15791357  0.94117074  0.91657690  1
  Ni  Ni50  1  0.66673886  0.95624219  0.91818880  1
  Ni  Ni51  1  0.30826729  0.95274675  0.41655082  1
  Ni  Ni52  1  0.81531777  0.96137251  0.41294767  1
  Ni  Ni53  1  0.16217906  0.37747885  0.41686818  1
  Ni  Ni54  1  0.66676763  0.37679347  0.41721337  1
  Ni  Ni55  1  0.02504967  0.67324784  0.41755578  1
  Ni  Ni56  1  0.52182136  0.66407815  0.41748242  1
  C  C57  1  0.49506648  0.99593318  0.35224744  1
  C  C58  1  0.49482234  0.98611202  0.64992074  1
  C  C59  1  0.49949897  0.01075798  0.14455400  1
  C  C60  1  0.33134150  0.33254300  0.68928977  1
  C  C61  1  0.83676560  0.33319814  0.69031404  1
  C  C62  1  0.32742904  0.33016514  0.18485585  1
  C  C63  1  0.32694146  0.32364529  0.97826458  1
  C  C64  1  0.32643305  0.32962528  0.48266493  1
  C  C65  1  0.83254764  0.33625813  0.48304956  1
  C  C66  1  0.67499230  0.67820564  0.51960751  1
  C  C67  1  0.16486518  0.65647522  0.31165439  1
  C  C68  1  0.66953747  0.66008948  0.31196909  1
  Cu  Cu69  1  0.99362141  0.99723117  0.35305877  1
  Cu  Cu70  1  -0.00047420  -0.00120607  0.85384717  1
  Cu  Cu71  1  0.49455843  0.99344963  0.85790527  1
  Cu  Cu72  1  0.99356389  0.96425481  0.65048191  1
  Cu  Cu73  1  0.99277410  0.01761332  0.14531291  1
  Cu  Cu74  1  0.83651012  0.34539526  0.18414363  1
  Cu  Cu75  1  0.82992717  0.30776401  0.98146465  1
  Cu  Cu76  1  0.17354960  0.66946871  0.01554108  1
  Cu  Cu77  1  0.67201683  0.66717805  0.01857755  1
  Cu  Cu78  1  0.17252415  0.67667166  0.51752634  1
  Cu  Cu79  1  0.16424345  0.67473800  0.81701570  1
  Cu  Cu80  1  0.66627557  0.68656635  0.81456296  1
  C  C81  1  0.13815117  0.99869337  0.24972979  1
  C  C82  1  0.64871294  0.00647187  0.24840238  1
  C  C83  1  0.13865682  0.28776127  0.75082802  1
  C  C84  1  0.64272970  0.29382277  0.75418781  1
  C  C85  1  0.48079519  0.33155951  0.58425481  1
  C  C86  1  0.98362618  0.32748859  0.58422025  1
  C  C87  1  0.48340209  0.62953108  0.08173562  1
  C  C88  1  0.97558119  0.62353453  0.08275960  1
  C  C89  1  0.81106295  0.66353084  0.91625670  1
  C  C90  1  0.10094924  0.02016116  0.30724284  1
  C  C91  1  0.60904033  0.02330354  0.30499831  1
  C  C92  1  0.40566581  0.77856264  0.31250857  1
  C  C93  1  0.91758772  0.79605165  0.31071986  1
  C  C94  1  0.48499336  0.18413950  0.30827762  1
  C  C95  1  0.97954524  0.16337860  0.30699963  1
  C  C96  1  0.10243259  0.18491336  0.80804883  1
  C  C97  1  0.60011683  0.17725563  0.80604479  1
  C  C98  1  0.48903293  0.80842193  0.81310411  1
  C  C99  1  0.98764022  0.81446840  0.81026615  1
  C  C100  1  0.41558586  0.03073064  0.81469223  1
  C  C101  1  0.91507333  0.02580117  0.81585114  1
  C  C102  1  0.39511468  0.97097965  0.69373582  1
  C  C103  1  0.90757706  0.97024039  0.69386019  1
  C  C104  1  0.08681825  0.19776402  0.69685791  1
  C  C105  1  0.59351914  0.22182339  0.69674335  1
  C  C106  1  0.02183748  0.82466661  0.69266178  1
  C  C107  1  0.52528300  0.82530517  0.69331858  1
  C  C108  1  0.40301303  0.83269931  0.19303430  1
  C  C109  1  0.91028088  0.84621183  0.19039314  1
  C  C110  1  0.01414247  0.20858918  0.18675681  1
  C  C111  1  0.51834260  0.22427202  0.18665711  1
  C  C112  1  0.08782811  0.98426625  0.19521436  1
  C  C113  1  0.59403180  0.98047548  0.19476299  1
  C  C114  1  0.43785041  0.35849125  0.63703165  1
  C  C115  1  0.94126097  0.36169505  0.63636288  1
  C  C116  1  0.24268387  0.11437183  0.64621430  1
  C  C117  1  0.74308461  0.12272771  0.64766751  1
  C  C118  1  0.31516243  0.50568100  0.64153864  1
  C  C119  1  0.82177294  0.50624548  0.64397328  1
  C  C120  1  0.44105784  0.51761801  0.13455468  1
  C  C121  1  0.93820621  0.50823827  0.13773920  1
  C  C122  1  0.31490390  0.11418221  0.14331404  1
  C  C123  1  0.81512867  0.13445395  0.14350444  1
  C  C124  1  0.24512809  0.37442356  0.13891451  1
  C  C125  1  0.75501803  0.37126048  0.14186690  1
  C  C126  1  0.21959487  0.29581331  0.02014444  1
  C  C127  1  0.74303165  0.31239323  0.02117251  1
  C  C128  1  0.43132453  0.55614683  0.02547690  1
  C  C129  1  0.92033871  0.54102679  0.02839615  1
  C  C130  1  0.35412728  0.16324201  0.02413955  1
  C  C131  1  0.85592587  0.16569587  0.02432716  1
  C  C132  1  0.22083650  0.14434405  0.52530586  1
  C  C133  1  0.72886030  0.14529432  0.52429222  1
  C  C134  1  0.35495488  0.55127093  0.52372725  1
  C  C135  1  0.85825269  0.55732347  0.52566992  1
  C  C136  1  0.43014074  0.30480170  0.52752632  1
  C  C137  1  0.93078012  0.29787244  0.52776745  1
  C  C138  1  0.26983683  0.71035081  0.97408359  1
  C  C139  1  0.77339603  0.70126416  0.97118135  1
  C  C140  1  0.08489805  0.46503238  0.97669038  1
  C  C141  1  0.58543553  0.46809319  0.97957886  1
  C  C142  1  0.14383021  0.81984717  0.97487614  1
  C  C143  1  0.64764828  0.81760186  0.97322413  1
  C  C144  1  0.26507848  0.82312318  0.47335018  1
  C  C145  1  0.77779649  0.83310897  0.47025044  1
  C  C146  1  0.13922681  0.46546687  0.47387083  1
  C  C147  1  0.64028830  0.45366213  0.47469530  1
  C  C148  1  0.08525306  0.70861623  0.47850821  1
  C  C149  1  0.57897599  0.70508372  0.47958224  1
  C  C150  1  0.06116905  0.62005632  0.35919736  1
  C  C151  1  0.56528055  0.62318825  0.36044039  1
  C  C152  1  0.25108568  0.88667571  0.35427665  1
  C  C153  1  0.75306995  0.89127913  0.35319235  1
  C  C154  1  0.19436666  0.50289857  0.35843446  1
  C  C155  1  0.69586766  0.50191683  0.35857323  1
  C  C156  1  0.06557731  0.50306840  0.85682837  1
  C  C157  1  0.57861745  0.52035650  0.86008985  1
  C  C158  1  0.18320276  0.87189772  0.85585766  1
  C  C159  1  0.69346155  0.88526015  0.85687339  1
  C  C160  1  0.24086759  0.62004168  0.85709121  1
  C  C161  1  0.75764183  0.63867300  0.86171247  1
  C  C162  1  0.01633200  0.85008673  0.40952295  1
  C  C163  1  0.51425343  0.84053130  0.41189899  1
  C  C164  1  0.40566473  0.97468549  0.41505088  1
  C  C165  1  0.91132307  0.97647900  0.40798967  1
  C  C166  1  0.07607727  0.18186597  0.40615706  1
  C  C167  1  0.58189170  0.18157995  0.41015660  1
  C  C168  1  0.00962075  0.18414179  0.91006193  1
  C  C169  1  0.51622544  0.18494671  0.90936726  1
  C  C170  1  0.07553210  0.98211181  0.90974731  1
  C  C171  1  0.57798483  0.96977930  0.91029313  1
  C  C172  1  0.40726385  0.84216874  0.91108005  1
  C  C173  1  0.89863773  0.82769528  0.91342765  1
  C  C174  1  0.49098915  0.17711348  0.58953127  1
  C  C175  1  0.99235226  0.17257568  0.59183885  1
  C  C176  1  0.08439422  0.01698793  0.59506418  1
  C  C177  1  0.58928723  0.02736884  0.58884827  1
  C  C178  1  0.41509802  0.81636904  0.58642888  1
  C  C179  1  0.92113885  0.82092662  0.59190900  1
  C  C180  1  0.49583664  0.80664397  0.08734763  1
  C  C181  1  0.98392516  0.79697440  0.08987030  1
  C  C182  1  0.41680839  0.01443724  0.08214404  1
  C  C183  1  0.91653668  0.02004479  0.08864360  1
  C  C184  1  0.08339689  0.14771761  0.09066841  1
  C  C185  1  0.59759704  0.16615982  0.08493839  1
  C  C186  1  0.33671470  0.16194166  0.75110250  1
  C  C187  1  0.84016489  0.15615783  0.74909199  1
  C  C188  1  0.22659941  0.29947244  0.74933422  1
  C  C189  1  0.72962241  0.30202846  0.75120253  1
  C  C190  1  0.41326728  0.51768050  0.74882557  1
  C  C191  1  0.91340240  0.51624814  0.75091949  1
  C  C192  1  0.33997217  0.50895360  0.24533666  1
  C  C193  1  0.85047500  0.51683133  0.24003147  1
  C  C194  1  0.40782258  0.30096581  0.24450116  1
  C  C195  1  0.90578372  0.29938719  0.24056662  1
  C  C196  1  0.22844842  0.15403866  0.24886733  1
  C  C197  1  0.73556441  0.16651439  0.24553586  1
  C  C198  1  0.32278751  0.49938490  0.91919222  1
  C  C199  1  0.82205693  0.51009020  0.92223458  1
  C  C200  1  0.43274773  0.36524137  0.91984929  1
  C  C201  1  0.92190120  0.36028038  0.92623309  1
  C  C202  1  0.24692405  0.13842523  0.91800108  1
  C  C203  1  0.75649770  0.14819866  0.92444382  1
  C  C204  1  0.32253590  0.14892430  0.42406947  1
  C  C205  1  0.82965301  0.15660013  0.42206832  1
  C  C206  1  0.24638027  0.34816925  0.42196353  1
  C  C207  1  0.75244932  0.35314006  0.42188342  1
  C  C208  1  0.42461450  0.49091050  0.42199829  1
  C  C209  1  0.92785973  0.50119745  0.42377378  1
  C  C210  1  0.16623363  0.50132005  0.07475893  1
  C  C211  1  0.68017811  0.51037440  0.07404505  1
  C  C212  1  0.06191810  0.63610995  0.07825152  1
  C  C213  1  0.56905198  0.63612873  0.07839723  1
  C  C214  1  0.23716999  0.83815179  0.07406720  1
  C  C215  1  0.74103815  0.84445431  0.07341832  1
  C  C216  1  0.16766131  0.83155562  0.57827796  1
  C  C217  1  0.66846520  0.84017030  0.58338183  1
  C  C218  1  0.23699717  0.63397785  0.57430093  1
  C  C219  1  0.74431549  0.63791411  0.58272949  1
  C  C220  1  0.06776844  0.49118490  0.57938354  1
  C  C221  1  0.56605123  0.49317869  0.58182403  1
  C  C222  1  0.14861064  0.84163964  0.25091662  1
  C  C223  1  0.65994212  0.85077954  0.24972397  1
  C  C224  1  0.26031474  0.70706101  0.24959324  1
  C  C225  1  0.76823191  0.70841580  0.25029883  1
  C  C226  1  0.08251207  0.48503149  0.25025855  1
  C  C227  1  0.58599588  0.49919374  0.24969764  1
  C  C228  1  0.14805572  0.46226190  0.75375290  1
  C  C229  1  0.65524355  0.47120311  0.75979396  1
  C  C230  1  0.08971055  0.69178891  0.75877379  1
  C  C231  1  0.59083321  0.69375913  0.75927633  1
  C  C232  1  0.25451741  0.81467581  0.75996026  1
  C  C233  1  0.75885268  0.81258263  0.75911064  1
