# generated using pymatgen
data_CuNiC11
_symmetry_space_group_name_H-M   'P 1'
_cell_length_a   5.86224617
_cell_length_b   5.75356417
_cell_length_c   5.83275429
_cell_angle_alpha   60.27753716
_cell_angle_beta   120.79499213
_cell_angle_gamma   119.83437904
_symmetry_Int_Tables_number   1
_chemical_formula_structural   CuNiC11
_chemical_formula_sum   'Cu1 Ni1 C11'
_cell_volume   138.71097292
_cell_formula_units_Z   1
loop_
 _symmetry_equiv_pos_site_id
 _symmetry_equiv_pos_as_xyz
  1  'x, y, z'
loop_
 _atom_site_type_symbol
 _atom_site_label
 _atom_site_symmetry_multiplicity
 _atom_site_fract_x
 _atom_site_fract_y
 _atom_site_fract_z
 _atom_site_occupancy
  Ni  Ni0  1  0.00000000  0.00000000  0.50000000  1
  Cu  Cu1  1  0.50000000  0.50000000  0.50000000  1
  C  C2  1  0.50000000  0.50000000  0.00000000  1
  C  C3  1  0.50000000  0.00000000  0.00000000  1
  C  C4  1  0.00000000  0.50000000  0.00000000  1
  C  C5  1  0.75354200  0.71981100  0.75289100  1
  C  C6  1  0.73522600  0.26327400  0.77302200  1
  C  C7  1  0.24376500  0.74034800  0.78829900  1
  C  C8  1  0.29151200  0.26261600  0.75479300  1
  C  C9  1  0.70848800  0.73738400  0.24520700  1
  C  C10  1  0.75623500  0.25965200  0.21170100  1
  C  C11  1  0.26477400  0.73672600  0.22697800  1
  C  C12  1  0.24645800  0.28018900  0.24710900  1
