# generated using pymatgen
data_Cu2NiC6
_symmetry_space_group_name_H-M   'P 1'
_cell_length_a   3.69021662
_cell_length_b   4.03122358
_cell_length_c   12.42317990
_cell_angle_alpha   80.61922083
_cell_angle_beta   89.97698136
_cell_angle_gamma   89.73693189
_symmetry_Int_Tables_number   1
_chemical_formula_structural   Cu2NiC6
_chemical_formula_sum   'Cu2 Ni1 C6'
_cell_volume   182.33492656
_cell_formula_units_Z   1
loop_
 _symmetry_equiv_pos_site_id
 _symmetry_equiv_pos_as_xyz
  1  'x, y, z'
loop_
 _atom_site_type_symbol
 _atom_site_label
 _atom_site_symmetry_multiplicity
 _atom_site_fract_x
 _atom_site_fract_y
 _atom_site_fract_z
 _atom_site_occupancy
  Ni  Ni0  1  0.24994992  0.52551264  0.94781785  1
  Cu  Cu1  1  0.00034321  0.50138234  0.49832925  1
  Cu  Cu2  1  0.50006876  0.00116572  0.49849677  1
  C  C3  1  0.25080143  0.66153990  0.67483833  1
  C  C4  1  0.74880398  0.33982798  0.32397743  1
  C  C5  1  0.74988677  0.86587047  0.91800322  1
  C  C6  1  0.25079551  0.11711530  0.08351880  1
  C  C7  1  0.74980667  0.21451339  0.91790777  1
  C  C8  1  0.24954374  0.79807227  0.08353958  1
