# generated using pymatgen
data_Cu15Ni20C211
_symmetry_space_group_name_H-M   'P 1'
_cell_length_a   18.39818574
_cell_length_b   9.10515971
_cell_length_c   22.00949326
_cell_angle_alpha   90.10010689
_cell_angle_beta   90.42806103
_cell_angle_gamma   119.67686209
_symmetry_Int_Tables_number   1
_chemical_formula_structural   Cu15Ni20C211
_chemical_formula_sum   'Cu15 Ni20 C211'
_cell_volume   3203.22561145
_cell_formula_units_Z   1
loop_
 _symmetry_equiv_pos_site_id
 _symmetry_equiv_pos_as_xyz
  1  'x, y, z'
loop_
 _atom_site_type_symbol
 _atom_site_label
 _atom_site_symmetry_multiplicity
 _atom_site_fract_x
 _atom_site_fract_y
 _atom_site_fract_z
 _atom_site_occupancy
  C  C0  1  0.30875774  0.99578339  0.23533119  1
  C  C1  1  0.80588766  0.99332734  0.23681766  1
  C  C2  1  0.19194570  0.37144532  0.25047919  1
  C  C3  1  0.69180706  0.37110630  0.24138341  1
  C  C4  1  0.99770620  0.62769958  0.24896961  1
  C  C5  1  0.49733167  0.63371990  0.24711467  1
  C  C6  1  0.30455218  0.62036546  0.74176882  1
  C  C7  1  0.81075203  0.62403754  0.73919269  1
  C  C8  1  0.00029327  0.36084120  0.75587439  1
  C  C9  1  0.49608757  0.36501471  0.75349103  1
  C  C10  1  0.18903947  0.01081720  0.75471679  1
  C  C11  1  0.69429256  0.01389446  0.75446407  1
  C  C12  1  0.16387387  0.34691976  0.58675507  1
  C  C13  1  0.66364762  0.35158350  0.58888000  1
  C  C14  1  0.31538695  0.95873900  0.58807681  1
  C  C15  1  0.16032099  0.96969599  0.07265955  1
  C  C16  1  0.66357869  0.97977703  0.08222437  1
  C  C17  1  0.81734548  0.67575857  0.08396971  1
  C  C18  1  0.48093948  0.66473014  0.92120500  1
  C  C19  1  0.99273377  0.67976691  0.92082621  1
  C  C20  1  0.34269343  0.03248702  0.91446446  1
  C  C21  1  0.85687146  0.04714180  0.91741637  1
  C  C22  1  0.16382252  0.28899957  0.90785485  1
  C  C23  1  0.66849667  0.29227072  0.91941449  1
  C  C24  1  0.48173045  0.29658258  0.41694593  1
  C  C25  1  0.98308774  0.29721668  0.41911960  1
  C  C26  1  0.16847116  0.04526411  0.41893385  1
  C  C27  1  0.66540982  0.03814807  0.40829935  1
  C  C28  1  0.35563714  0.66279415  0.41768990  1
  C  C29  1  0.85388106  0.66558823  0.41826086  1
  C  C30  1  0.99616354  0.96715879  0.50308678  1
  C  C31  1  0.49638193  0.96717577  0.49690371  1
  C  C32  1  0.00600333  0.02168131  0.99168312  1
  C  C33  1  0.49109067  0.02193662  0.00064982  1
  C  C34  1  0.31789222  0.30615128  0.83056133  1
  C  C35  1  0.83233944  0.32792247  0.82918534  1
  C  C36  1  0.32909073  0.33514614  0.32690445  1
  C  C37  1  0.82802140  0.33402401  0.32616249  1
  C  C38  1  0.17956633  0.67427580  0.16037747  1
  C  C39  1  0.66734514  0.65763056  0.16158829  1
  C  C40  1  0.16738918  0.67892375  0.66568429  1
  C  C41  1  0.68064160  0.68382227  0.66507268  1
  C  C42  1  0.99670417  0.00024789  0.64780952  1
  C  C43  1  0.49575800  0.00177032  0.65033997  1
  C  C44  1  0.99545176  0.98858143  0.15020958  1
  C  C45  1  0.49656933  0.99012338  0.14647941  1
  Ni  Ni46  1  0.00256955  0.98046192  0.33622917  1
  Ni  Ni47  1  0.49783393  0.97333591  0.33157693  1
  Ni  Ni48  1  0.00560218  0.01710528  0.84534801  1
  Ni  Ni49  1  0.50093176  0.02333868  0.83925599  1
  Ni  Ni50  1  0.31417483  0.31578275  0.68146386  1
  Ni  Ni51  1  0.82677357  0.32865151  0.68395028  1
  Ni  Ni52  1  0.32445279  0.32348020  0.18115129  1
  Ni  Ni53  1  0.81637699  0.31516728  0.17971546  1
  Ni  Ni54  1  0.32037622  0.29043257  0.98734461  1
  Ni  Ni55  1  0.82427776  0.31052625  0.00370526  1
  Ni  Ni56  1  0.32136180  0.33703322  0.50808766  1
  Ni  Ni57  1  0.83783532  0.35123340  0.50052114  1
  Ni  Ni58  1  0.18083732  0.70182336  0.01073621  1
  Ni  Ni59  1  0.66963054  0.66526733  0.02058091  1
  Ni  Ni60  1  0.17124999  0.67443961  0.52047722  1
  Ni  Ni61  1  0.67820055  0.67709138  0.51750287  1
  Ni  Ni62  1  0.17656506  0.68820681  0.30927046  1
  Ni  Ni63  1  0.67507965  0.68401898  0.30992708  1
  Ni  Ni64  1  0.17671619  0.68201895  0.81302825  1
  Ni  Ni65  1  0.67630662  0.66354755  0.81023892  1
  Cu  Cu66  1  0.15082901  0.00257585  0.25494810  1
  Cu  Cu67  1  0.64824606  0.99804768  0.25440916  1
  Cu  Cu68  1  0.35006523  0.69347030  0.25314490  1
  Cu  Cu69  1  0.84947576  0.69280652  0.25611869  1
  Cu  Cu70  1  0.14825055  0.30463067  0.75338883  1
  Cu  Cu71  1  0.65084297  0.29844683  0.75405076  1
  Cu  Cu72  1  0.34920193  0.00949439  0.75448637  1
  Cu  Cu73  1  0.85355068  0.00615340  0.75537330  1
  Cu  Cu74  1  0.17794012  0.02278435  0.58174277  1
  Cu  Cu75  1  0.33675108  0.63482310  0.58201051  1
  Cu  Cu76  1  0.83100127  0.63237479  0.58256518  1
  Cu  Cu77  1  0.33178754  0.03279805  0.08394287  1
  Cu  Cu78  1  0.83550576  0.03721543  0.08258123  1
  Cu  Cu79  1  0.67876923  0.33279212  0.08276059  1
  Cu  Cu80  1  0.16254299  0.96480248  0.91411949  1
  C  C81  1  0.00084374  0.29042845  0.25312554  1
  C  C82  1  0.50170750  0.29083560  0.25321765  1
  C  C83  1  0.99880222  0.70689513  0.75037378  1
  C  C84  1  0.50129301  0.71145062  0.75244164  1
  C  C85  1  0.48439424  0.33327243  0.58363240  1
  C  C86  1  0.98135147  0.32804244  0.58277837  1
  C  C87  1  0.68049437  0.02948583  0.58195740  1
  C  C88  1  0.48040137  0.62883232  0.08271180  1
  C  C89  1  0.98209177  0.62981780  0.08684223  1
  C  C90  1  0.17817178  0.33289649  0.08423084  1
  C  C91  1  0.32021086  0.66669284  0.91644448  1
  C  C92  1  0.81593665  0.65903652  0.91757731  1
  C  C93  1  0.01982812  0.38359808  0.91809250  1
  C  C94  1  0.52260792  0.38088463  0.91439661  1
  C  C95  1  0.66393788  0.95377793  0.91513915  1
  C  C96  1  0.31920940  0.97222969  0.41654005  1
  C  C97  1  0.81698867  0.97410223  0.41733969  1
  C  C98  1  0.16394524  0.37497380  0.41500485  1
  C  C99  1  0.66456338  0.36972220  0.41666567  1
  C  C100  1  0.02026732  0.65950291  0.41507914  1
  C  C101  1  0.52426638  0.66170306  0.41727468  1
  C  C102  1  0.11353070  0.04082083  0.31620202  1
  C  C103  1  0.61011538  0.03489949  0.31563277  1
  C  C104  1  0.39832876  0.76456613  0.31833289  1
  C  C105  1  0.90001680  0.78165607  0.31842800  1
  C  C106  1  0.49023429  0.19308085  0.31008212  1
  C  C107  1  0.99020476  0.19409883  0.30992166  1
  C  C108  1  0.11017340  0.18985043  0.81288358  1
  C  C109  1  0.61128595  0.18181752  0.81372233  1
  C  C110  1  0.49099481  0.78720639  0.80894166  1
  C  C111  1  0.98708331  0.77892311  0.80699310  1
  C  C112  1  0.40190365  0.02590969  0.81572946  1
  C  C113  1  0.90557813  0.02805884  0.81767762  1
  C  C114  1  0.41068030  0.99735324  0.69617050  1
  C  C115  1  0.90936042  0.98529259  0.69892610  1
  C  C116  1  0.08516208  0.19119228  0.69425466  1
  C  C117  1  0.58951644  0.18360915  0.69337849  1
  C  C118  1  0.00457357  0.81687584  0.69750704  1
  C  C119  1  0.50549721  0.82352384  0.69904315  1
  C  C120  1  0.41061395  0.83327084  0.20093009  1
  C  C121  1  0.90845642  0.82685637  0.19839482  1
  C  C122  1  0.00508320  0.18886807  0.20008124  1
  C  C123  1  0.50747209  0.19464598  0.20022534  1
  C  C124  1  0.08589671  0.99233508  0.19725326  1
  C  C125  1  0.58472499  0.98589521  0.19726051  1
  C  C126  1  0.44520725  0.34466175  0.63928413  1
  C  C127  1  0.93889347  0.34309326  0.63605785  1
  C  C128  1  0.24218370  0.10644750  0.63859417  1
  C  C129  1  0.72852952  0.10542912  0.63829206  1
  C  C130  1  0.32723590  0.52018624  0.64021485  1
  C  C131  1  0.81583220  0.50327045  0.63829129  1
  C  C132  1  0.44122665  0.53651891  0.13850330  1
  C  C133  1  0.93922372  0.54121784  0.14210468  1
  C  C134  1  0.31972750  0.12838575  0.14207433  1
  C  C135  1  0.82495415  0.12916857  0.14203834  1
  C  C136  1  0.22639196  0.35552662  0.14100667  1
  C  C137  1  0.73985773  0.37628288  0.14173225  1
  C  C138  1  0.21808294  0.30324633  0.03070793  1
  C  C139  1  0.71712008  0.28585115  0.02285389  1
  C  C140  1  0.43240866  0.54931373  0.02714335  1
  C  C141  1  0.93060330  0.55661019  0.03114150  1
  C  C142  1  0.35122341  0.13400932  0.01987014  1
  C  C143  1  0.85371443  0.14108768  0.01931638  1
  C  C144  1  0.21526201  0.14336812  0.52055321  1
  C  C145  1  0.72291996  0.13472242  0.52742053  1
  C  C146  1  0.35603603  0.56919854  0.51795694  1
  C  C147  1  0.84655033  0.56358619  0.51749888  1
  C  C148  1  0.43165252  0.30414592  0.52850603  1
  C  C149  1  0.93406451  0.30973652  0.52502530  1
  C  C150  1  0.27528937  0.68529749  0.96854228  1
  C  C151  1  0.77298532  0.67544904  0.97183458  1
  C  C152  1  0.07384179  0.47788189  0.97018607  1
  C  C153  1  0.57507166  0.47748199  0.96653961  1
  C  C154  1  0.14803519  0.85579130  0.97638312  1
  C  C155  1  0.66180697  0.86134634  0.97131422  1
  C  C156  1  0.27723468  0.87062245  0.47096637  1
  C  C157  1  0.77325708  0.86377893  0.46914712  1
  C  C158  1  0.16170038  0.46314585  0.47126831  1
  C  C159  1  0.66137945  0.45818553  0.47253888  1
  C  C160  1  0.07136624  0.66383438  0.46727875  1
  C  C161  1  0.57616300  0.67021908  0.47030419  1
  C  C162  1  0.05858575  0.65122474  0.35664630  1
  C  C163  1  0.56457071  0.65546927  0.35937126  1
  C  C164  1  0.26982506  0.89040305  0.36021586  1
  C  C165  1  0.76975410  0.90003313  0.35946823  1
  C  C166  1  0.16573109  0.47098514  0.35969923  1
  C  C167  1  0.67153715  0.46993205  0.36145061  1
  C  C168  1  0.05828385  0.46576253  0.85943242  1
  C  C169  1  0.56174314  0.46656585  0.85603259  1
  C  C170  1  0.17984467  0.87581333  0.85497462  1
  C  C171  1  0.66591229  0.86153034  0.85969241  1
  C  C172  1  0.27350567  0.64372588  0.85841319  1
  C  C173  1  0.76553076  0.63692689  0.86116301  1
  C  C174  1  0.01164170  0.81537933  0.41830837  1
  C  C175  1  0.51527327  0.81694458  0.41943573  1
  C  C176  1  0.40433324  0.98889233  0.41476980  1
  C  C177  1  0.90270857  0.99537890  0.41633955  1
  C  C178  1  0.08685555  0.20443936  0.41599573  1
  C  C179  1  0.58637969  0.20185013  0.41669240  1
  C  C180  1  0.00738483  0.20791500  0.92051643  1
  C  C181  1  0.51396435  0.20756916  0.91715289  1
  C  C182  1  0.07671572  0.98109084  0.91123055  1
  C  C183  1  0.58688512  0.97007406  0.91614734  1
  C  C184  1  0.40525288  0.82203869  0.91568566  1
  C  C185  1  0.89946321  0.81364447  0.91560936  1
  C  C186  1  0.49253385  0.16974149  0.58610294  1
  C  C187  1  0.98686904  0.16606057  0.58509594  1
  C  C188  1  0.08731666  0.02007740  0.59206810  1
  C  C189  1  0.59731686  0.02899443  0.58461991  1
  C  C190  1  0.42018455  0.83364712  0.59068000  1
  C  C191  1  0.91526225  0.82131439  0.59353723  1
  C  C192  1  0.48668085  0.80559274  0.08587941  1
  C  C193  1  0.99116812  0.81138225  0.08894384  1
  C  C194  1  0.41635479  0.01122809  0.09642288  1
  C  C195  1  0.91849612  0.00503899  0.09274160  1
  C  C196  1  0.09393774  0.16600324  0.08930469  1
  C  C197  1  0.58764640  0.15342647  0.09317202  1
  C  C198  1  0.34657651  0.18250308  0.74565167  1
  C  C199  1  0.84698418  0.17714902  0.74438883  1
  C  C200  1  0.24215005  0.33084940  0.74721192  1
  C  C201  1  0.74454191  0.32548000  0.74843840  1
  C  C202  1  0.42957820  0.54169099  0.74482673  1
  C  C203  1  0.92526904  0.53585163  0.74303182  1
  C  C204  1  0.34448918  0.51119121  0.24178931  1
  C  C205  1  0.84713581  0.51484624  0.24708148  1
  C  C206  1  0.42938906  0.31840995  0.24745139  1
  C  C207  1  0.92869083  0.31661333  0.24640914  1
  C  C208  1  0.24396862  0.16274122  0.24811881  1
  C  C209  1  0.74241861  0.15780319  0.24879692  1
  C  C210  1  0.33073429  0.51495902  0.92318751  1
  C  C211  1  0.82592620  0.50617457  0.92137558  1
  C  C212  1  0.43825616  0.36597525  0.91610962  1
  C  C213  1  0.93585588  0.37334040  0.92014997  1
  C  C214  1  0.24678733  0.15681344  0.91816874  1
  C  C215  1  0.74046364  0.12483242  0.91367979  1
  C  C216  1  0.32803047  0.14415543  0.41973022  1
  C  C217  1  0.82347194  0.14473183  0.42349784  1
  C  C218  1  0.24044299  0.35715680  0.41354421  1
  C  C219  1  0.73927902  0.34472637  0.41767744  1
  C  C220  1  0.43995682  0.50820630  0.41827366  1
  C  C221  1  0.93463909  0.50517139  0.41663867  1
  C  C222  1  0.16158352  0.47254529  0.07671177  1
  C  C223  1  0.66466260  0.49344821  0.07631858  1
  C  C224  1  0.06731329  0.65867498  0.08429365  1
  C  C225  1  0.56871702  0.66909720  0.08016434  1
  C  C226  1  0.24853339  0.84458416  0.08109784  1
  C  C227  1  0.75253952  0.84709905  0.07996487  1
  C  C228  1  0.16378901  0.83356255  0.57531523  1
  C  C229  1  0.66311141  0.85454818  0.57616974  1
  C  C230  1  0.25354759  0.65772711  0.57942615  1
  C  C231  1  0.74644012  0.65138012  0.58088654  1
  C  C232  1  0.06850010  0.46657720  0.57992529  1
  C  C233  1  0.57080153  0.47274630  0.57803911  1
  C  C234  1  0.14782165  0.82030267  0.25014437  1
  C  C235  1  0.64710193  0.81683044  0.25055172  1
  C  C236  1  0.25818632  0.68098494  0.24933782  1
  C  C237  1  0.75882782  0.68303219  0.24960058  1
  C  C238  1  0.08024969  0.45238406  0.25126747  1
  C  C239  1  0.58071689  0.45511606  0.25335779  1
  C  C240  1  0.14877469  0.48551347  0.75214798  1
  C  C241  1  0.64795084  0.47478502  0.74898587  1
  C  C242  1  0.07659866  0.69838778  0.74862933  1
  C  C243  1  0.58122215  0.71032200  0.74979649  1
  C  C244  1  0.26172459  0.83555311  0.74553289  1
  C  C245  1  0.76066554  0.83557731  0.75171256  1
