# generated using pymatgen
data_Cu9Ni4C69
_symmetry_space_group_name_H-M   'P 1'
_cell_length_a   18.08985985
_cell_length_b   9.04905611
_cell_length_c   22.33526152
_cell_angle_alpha   90.23627661
_cell_angle_beta   90.37390325
_cell_angle_gamma   120.04231714
_symmetry_Int_Tables_number   1
_chemical_formula_structural   Cu9Ni4C69
_chemical_formula_sum   'Cu27 Ni12 C207'
_cell_volume   3164.82522354
_cell_formula_units_Z   3
loop_
 _symmetry_equiv_pos_site_id
 _symmetry_equiv_pos_as_xyz
  1  'x, y, z'
loop_
 _atom_site_type_symbol
 _atom_site_label
 _atom_site_symmetry_multiplicity
 _atom_site_fract_x
 _atom_site_fract_y
 _atom_site_fract_z
 _atom_site_occupancy
  C  C0  1  0.81777203  0.00690874  0.25407768  1
  C  C1  1  0.17501071  0.35627056  0.25358214  1
  C  C2  1  0.69100393  0.37023898  0.25374352  1
  C  C3  1  0.99577163  0.62888115  0.24632631  1
  C  C4  1  0.50490701  0.64709481  0.25246466  1
  C  C5  1  0.31740269  0.62764704  0.75102812  1
  C  C6  1  0.00256546  0.35939314  0.74643521  1
  C  C7  1  0.49709549  0.36422270  0.74349944  1
  C  C8  1  0.18969294  0.01192729  0.75010576  1
  C  C9  1  0.67965695  0.99747282  0.74952460  1
  C  C10  1  0.14855651  0.32570921  0.58236602  1
  C  C11  1  0.65058144  0.33261792  0.58211295  1
  C  C12  1  0.33472623  0.98327014  0.58596307  1
  C  C13  1  0.83291276  0.96955842  0.58188011  1
  C  C14  1  0.14349989  0.96403400  0.08085773  1
  C  C15  1  0.65184375  0.97465616  0.08036199  1
  C  C16  1  0.33304109  0.68768923  0.08214952  1
  C  C17  1  0.83475431  0.68638909  0.08605724  1
  C  C18  1  0.48229232  0.67950680  0.91448461  1
  C  C19  1  0.98264632  0.67441240  0.92064789  1
  C  C20  1  0.34828629  0.02801848  0.90942034  1
  C  C21  1  0.84687782  0.02671091  0.91168640  1
  C  C22  1  0.16956456  0.29627602  0.90995209  1
  C  C23  1  0.66795463  0.29434875  0.91106178  1
  C  C24  1  0.48497777  0.29556658  0.42407745  1
  C  C25  1  0.97945076  0.28442608  0.41914190  1
  C  C26  1  0.16717947  0.04139663  0.41412497  1
  C  C27  1  0.67410761  0.04852663  0.41579533  1
  C  C28  1  0.34733168  0.66659852  0.41506929  1
  C  C29  1  0.84721976  0.66511791  0.41815051  1
  C  C30  1  0.99833491  0.99587072  0.49868812  1
  C  C31  1  0.50519050  0.01162579  0.49952873  1
  C  C32  1  0.00273118  0.99652216  0.99819823  1
  C  C33  1  0.50418276  0.00097603  0.99472325  1
  C  C34  1  0.33004584  0.33505814  0.82828587  1
  C  C35  1  0.82543085  0.33024616  0.83307952  1
  C  C36  1  0.32583942  0.31865105  0.33783711  1
  C  C37  1  0.82935661  0.32462151  0.33324254  1
  C  C38  1  0.15802308  0.65354665  0.16916462  1
  C  C39  1  0.66443017  0.65880546  0.17038884  1
  C  C40  1  0.16236602  0.66777103  0.66892893  1
  C  C41  1  0.66402638  0.66353732  0.66493010  1
  C  C42  1  0.99857804  0.00551753  0.64374776  1
  C  C43  1  0.50259768  0.00465239  0.64905733  1
  C  C44  1  0.00183932  0.00034154  0.14948195  1
  C  C45  1  0.50379308  0.99047993  0.14749314  1
  C  C46  1  0.82929561  0.32782518  0.68428797  1
  C  C47  1  0.33114077  0.34195982  0.18774576  1
  C  C48  1  0.16316511  0.66486115  0.01839499  1
  C  C49  1  0.66759497  0.66707672  0.01922346  1
  C  C50  1  0.16667815  0.66779118  0.51936574  1
  C  C51  1  0.66789563  0.65987530  0.52089255  1
  C  C52  1  0.17446118  0.67261655  0.31179620  1
  C  C53  1  0.67547060  0.67821202  0.81062102  1
  Ni  Ni54  1  0.99768222  0.01623210  0.34648230  1
  Ni  Ni55  1  0.50357412  0.00372028  0.35128123  1
  Ni  Ni56  1  0.00306974  0.99926322  0.84851226  1
  Ni  Ni57  1  0.49851957  0.98144295  0.84469257  1
  Ni  Ni58  1  0.33590574  0.31776281  0.68988517  1
  Ni  Ni59  1  0.83586825  0.35360443  0.19014474  1
  Ni  Ni60  1  0.32269212  0.34794351  0.98010233  1
  Ni  Ni61  1  0.82194317  0.34697870  0.98303490  1
  Ni  Ni62  1  0.32287438  0.29868979  0.48327015  1
  Ni  Ni63  1  0.82536937  0.31942148  0.48632559  1
  Ni  Ni64  1  0.68753622  0.69092659  0.31731955  1
  Ni  Ni65  1  0.18587649  0.68319082  0.81511451  1
  Cu  Cu66  1  0.14536992  0.99944767  0.25341226  1
  Cu  Cu67  1  0.64858521  0.99524510  0.25397846  1
  Cu  Cu68  1  0.35846661  0.71770397  0.25176795  1
  Cu  Cu69  1  0.85466711  0.71099142  0.25230380  1
  Cu  Cu70  1  0.99570398  0.29311757  0.24992611  1
  Cu  Cu71  1  0.14668100  0.29824473  0.75302420  1
  Cu  Cu72  1  0.64567486  0.28996589  0.75455654  1
  Cu  Cu73  1  0.49587026  0.69886193  0.75021401  1
  Cu  Cu74  1  0.35454762  0.99857402  0.75248875  1
  Cu  Cu75  1  0.85923187  0.00641830  0.75273710  1
  Cu  Cu76  1  0.47421513  0.33557730  0.58338262  1
  Cu  Cu77  1  0.97890303  0.34160980  0.58201948  1
  Cu  Cu78  1  0.18991226  0.04502741  0.58547695  1
  Cu  Cu79  1  0.68297064  0.03566378  0.58068225  1
  Cu  Cu80  1  0.83672383  0.62006114  0.57886012  1
  Cu  Cu81  1  0.47831863  0.61598605  0.08120325  1
  Cu  Cu82  1  0.97480372  0.61319047  0.08338930  1
  Cu  Cu83  1  0.18336816  0.33120284  0.08116719  1
  Cu  Cu84  1  0.68824885  0.33402749  0.08565758  1
  Cu  Cu85  1  0.31698921  0.67228027  0.91696215  1
  Cu  Cu86  1  0.81842380  0.67129734  0.91695281  1
  Cu  Cu87  1  0.16804513  0.96331575  0.91402121  1
  Cu  Cu88  1  0.66851393  0.97089987  0.91830353  1
  Cu  Cu89  1  0.31855282  0.96556499  0.41696540  1
  Cu  Cu90  1  0.81761984  0.96902736  0.41705824  1
  Cu  Cu91  1  0.16817634  0.36571159  0.41738990  1
  Cu  Cu92  1  0.66605872  0.37121836  0.41195493  1
  C  C93  1  0.49894807  0.28910724  0.25110274  1
  C  C94  1  0.00010080  0.70843599  0.75220228  1
  C  C95  1  0.33437975  0.62121004  0.58198190  1
  C  C96  1  0.33507271  0.04765362  0.08130817  1
  C  C97  1  0.83483027  0.04791561  0.08199272  1
  C  C98  1  0.01950289  0.37345967  0.91447673  1
  C  C99  1  0.51875613  0.37319528  0.91682845  1
  C  C100  1  0.02037770  0.66631564  0.41527724  1
  C  C101  1  0.52063251  0.66632587  0.41458732  1
  C  C102  1  0.10247944  0.03856413  0.31065122  1
  C  C103  1  0.60311994  0.03608862  0.30948831  1
  C  C104  1  0.41943938  0.80378155  0.30989513  1
  C  C105  1  0.91707350  0.80049541  0.31012235  1
  C  C106  1  0.48559181  0.18959214  0.30594454  1
  C  C107  1  0.97782328  0.17974548  0.31026435  1
  C  C108  1  0.10461736  0.17224811  0.81132817  1
  C  C109  1  0.60111083  0.16783510  0.81246416  1
  C  C110  1  0.47671641  0.77377566  0.81166452  1
  C  C111  1  0.98725763  0.78253522  0.80804449  1
  C  C112  1  0.41502299  0.03137931  0.81162806  1
  C  C113  1  0.91801871  0.03489937  0.81236842  1
  C  C114  1  0.39489396  0.96220237  0.69253272  1
  C  C115  1  0.90006704  0.97679783  0.69277097  1
  C  C116  1  0.08529756  0.20935785  0.69404396  1
  C  C117  1  0.58807513  0.20720549  0.69334508  1
  C  C118  1  0.01232120  0.81784089  0.70000562  1
  C  C119  1  0.51744395  0.83321540  0.69574482  1
  C  C120  1  0.39790744  0.82402810  0.19039615  1
  C  C121  1  0.89475375  0.82654102  0.19158007  1
  C  C122  1  0.01838599  0.20407228  0.19451394  1
  C  C123  1  0.50997024  0.20187243  0.19804020  1
  C  C124  1  0.08903654  0.96928589  0.19148599  1
  C  C125  1  0.58656715  0.95938029  0.19342706  1
  C  C126  1  0.43305453  0.35991332  0.64426090  1
  C  C127  1  0.93732769  0.36351690  0.64378833  1
  C  C128  1  0.25028675  0.13096073  0.64423923  1
  C  C129  1  0.74335752  0.12124507  0.64104106  1
  C  C130  1  0.31987742  0.51987342  0.63613567  1
  C  C131  1  0.81779285  0.49884266  0.63730082  1
  C  C132  1  0.43574247  0.50804640  0.14210350  1
  C  C133  1  0.93394597  0.50669153  0.14387124  1
  C  C134  1  0.32269799  0.12866151  0.13483025  1
  C  C135  1  0.82016543  0.12070991  0.13618084  1
  C  C136  1  0.24513387  0.36297898  0.14035779  1
  C  C137  1  0.74832395  0.36526089  0.14403621  1
  C  C138  1  0.22498289  0.29066066  0.02322774  1
  C  C139  1  0.72254907  0.28699471  0.02471186  1
  C  C140  1  0.41725787  0.52604209  0.02278508  1
  C  C141  1  0.91786932  0.52567405  0.02220903  1
  C  C142  1  0.34569745  0.14394197  0.02664464  1
  C  C143  1  0.84483509  0.14426560  0.02720114  1
  C  C144  1  0.22402915  0.15830796  0.52418831  1
  C  C145  1  0.72351204  0.15589047  0.52223854  1
  C  C146  1  0.34460935  0.54414667  0.52700058  1
  C  C147  1  0.84862702  0.53488686  0.51838484  1
  C  C148  1  0.41639731  0.30533520  0.52229364  1
  C  C149  1  0.91923020  0.30582882  0.52312949  1
  C  C150  1  0.26987721  0.69865783  0.97595923  1
  C  C151  1  0.77424787  0.70276345  0.97670843  1
  C  C152  1  0.07570997  0.46066940  0.96833880  1
  C  C153  1  0.57576737  0.46244777  0.96992890  1
  C  C154  1  0.14964284  0.84209113  0.97379719  1
  C  C155  1  0.65159738  0.84457734  0.97612753  1
  C  C156  1  0.27387728  0.84493653  0.47585864  1
  C  C157  1  0.76895313  0.84040135  0.47315808  1
  C  C158  1  0.15200107  0.46050266  0.47477321  1
  C  C159  1  0.64530205  0.45355858  0.47082081  1
  C  C160  1  0.07661597  0.69082649  0.46857976  1
  C  C161  1  0.57559941  0.69161371  0.46736536  1
  C  C162  1  0.06205988  0.64297469  0.36167032  1
  C  C163  1  0.55782022  0.63776736  0.35986185  1
  C  C164  1  0.25084548  0.87244551  0.36191918  1
  C  C165  1  0.75544220  0.89287996  0.35736943  1
  C  C166  1  0.18417418  0.48959489  0.35917770  1
  C  C167  1  0.67841973  0.49377327  0.35360514  1
  C  C168  1  0.05798310  0.47901591  0.86132434  1
  C  C169  1  0.55778388  0.47935719  0.86335180  1
  C  C170  1  0.18203401  0.86601179  0.85663634  1
  C  C171  1  0.68383790  0.87671530  0.86076109  1
  C  C172  1  0.25271088  0.62248174  0.85948375  1
  C  C173  1  0.74968230  0.62813108  0.86299842  1
  C  C174  1  0.01427590  0.82220788  0.41313684  1
  C  C175  1  0.51367707  0.82434096  0.41243996  1
  C  C176  1  0.41153806  0.97796527  0.40911926  1
  C  C177  1  0.90983983  0.97446978  0.41129034  1
  C  C178  1  0.08272548  0.17641213  0.41201433  1
  C  C179  1  0.57952318  0.17839242  0.40795660  1
  C  C180  1  0.01438774  0.20451294  0.91344055  1
  C  C181  1  0.51278330  0.20527927  0.91462309  1
  C  C182  1  0.08230214  0.98354770  0.90941664  1
  C  C183  1  0.58309203  0.98930902  0.91294713  1
  C  C184  1  0.40982983  0.84757788  0.91257145  1
  C  C185  1  0.91219600  0.84402773  0.90964851  1
  C  C186  1  0.48173288  0.15846904  0.58672272  1
  C  C187  1  0.98834589  0.16774064  0.58623192  1
  C  C188  1  0.09591868  0.02554622  0.59193272  1
  C  C189  1  0.59049972  0.02519680  0.58659747  1
  C  C190  1  0.40809923  0.79836130  0.58662657  1
  C  C191  1  0.91637710  0.81475250  0.58628932  1
  C  C192  1  0.48418594  0.80712140  0.08563747  1
  C  C193  1  0.98341593  0.80617647  0.08578330  1
  C  C194  1  0.40890742  0.02019984  0.08820862  1
  C  C195  1  0.90831829  0.01739705  0.08646471  1
  C  C196  1  0.09071949  0.15886819  0.08610144  1
  C  C197  1  0.59221554  0.16487745  0.09128392  1
  C  C198  1  0.34448934  0.16868220  0.74985161  1
  C  C199  1  0.85075048  0.17938611  0.74937664  1
  C  C200  1  0.24168087  0.32068276  0.74469642  1
  C  C201  1  0.73919233  0.30395356  0.74855743  1
  C  C202  1  0.41024136  0.51246716  0.74242591  1
  C  C203  1  0.92392860  0.53537967  0.74661135  1
  C  C204  1  0.35100588  0.52620317  0.24721505  1
  C  C205  1  0.84416305  0.52030286  0.24880512  1
  C  C206  1  0.42198801  0.30852085  0.24409731  1
  C  C207  1  0.91022255  0.30796704  0.24177267  1
  C  C208  1  0.24035443  0.17100854  0.24507161  1
  C  C209  1  0.74192879  0.16310893  0.24375504  1
  C  C210  1  0.32690570  0.50037787  0.92037810  1
  C  C211  1  0.82747263  0.49926059  0.92053756  1
  C  C212  1  0.43353067  0.35481012  0.92374666  1
  C  C213  1  0.93380894  0.35181504  0.92234165  1
  C  C214  1  0.25736815  0.15065204  0.92237132  1
  C  C215  1  0.75885080  0.15615844  0.92515548  1
  C  C216  1  0.32750796  0.15558940  0.42002903  1
  C  C217  1  0.82811732  0.16038565  0.42305752  1
  C  C218  1  0.25845339  0.36091001  0.42420456  1
  C  C219  1  0.75325989  0.35890357  0.41777025  1
  C  C220  1  0.43382908  0.51606967  0.42095077  1
  C  C221  1  0.93643512  0.51206301  0.41956307  1
  C  C222  1  0.18241917  0.51066534  0.07708811  1
  C  C223  1  0.68362403  0.51033618  0.07818286  1
  C  C224  1  0.07517962  0.65449365  0.07815947  1
  C  C225  1  0.57746643  0.65762459  0.07840281  1
  C  C226  1  0.25572043  0.87341809  0.07847847  1
  C  C227  1  0.75544428  0.87028048  0.07764266  1
  C  C228  1  0.18516592  0.85910562  0.57781018  1
  C  C229  1  0.67867687  0.85239091  0.57607086  1
  C  C230  1  0.25523244  0.64002364  0.57742614  1
  C  C231  1  0.74947169  0.63774281  0.57657732  1
  C  C232  1  0.07820292  0.50203305  0.57863580  1
  C  C233  1  0.57246852  0.49427582  0.57750888  1
  C  C234  1  0.14895350  0.82357820  0.25678440  1
  C  C235  1  0.65110650  0.81491996  0.25902012  1
  C  C236  1  0.26005116  0.67844298  0.25373981  1
  C  C237  1  0.75811916  0.68895602  0.25412431  1
  C  C238  1  0.08112339  0.48270538  0.25664543  1
  C  C239  1  0.57498405  0.46108172  0.25379148  1
  C  C240  1  0.15051533  0.48603353  0.75984010  1
  C  C241  1  0.64841673  0.47241477  0.75854256  1
  C  C242  1  0.07721646  0.69064576  0.75622899  1
  C  C243  1  0.58103843  0.67997991  0.75775593  1
  C  C244  1  0.25777606  0.82760081  0.75412243  1
  C  C245  1  0.76101678  0.84324296  0.75474425  1
