# generated using pymatgen
data_Cu5NiC35
_symmetry_space_group_name_H-M   'P 1'
_cell_length_a   9.14394678
_cell_length_b   9.14254865
_cell_length_c   22.57827877
_cell_angle_alpha   89.99269709
_cell_angle_beta   89.88898324
_cell_angle_gamma   120.01852352
_symmetry_Int_Tables_number   1
_chemical_formula_structural   Cu5NiC35
_chemical_formula_sum   'Cu15 Ni3 C105'
_cell_volume   1634.33158939
_cell_formula_units_Z   3
loop_
 _symmetry_equiv_pos_site_id
 _symmetry_equiv_pos_as_xyz
  1  'x, y, z'
loop_
 _atom_site_type_symbol
 _atom_site_label
 _atom_site_symmetry_multiplicity
 _atom_site_fract_x
 _atom_site_fract_y
 _atom_site_fract_z
 _atom_site_occupancy
  C  C0  1  0.36461591  0.36610022  0.25105856  1
  C  C1  1  0.99787934  0.63115305  0.24810479  1
  C  C2  1  0.63645670  0.64093762  0.74912649  1
  C  C3  1  0.99416738  0.35966809  0.75300054  1
  C  C4  1  0.37256426  0.00170048  0.74808672  1
  C  C5  1  0.30079307  0.32670339  0.58072644  1
  C  C6  1  0.03599310  0.70315225  0.58229189  1
  C  C7  1  0.66244752  0.96786025  0.58665493  1
  C  C8  1  0.29850500  0.96528624  0.08337396  1
  C  C9  1  0.67204158  0.69769983  0.08188999  1
  C  C10  1  0.03071764  0.33839066  0.08508328  1
  C  C11  1  0.96400643  0.66379507  0.91945681  1
  C  C12  1  0.70251532  0.03357846  0.91406011  1
  C  C13  1  0.96892374  0.30062603  0.41524876  1
  C  C14  1  0.33497697  0.03520121  0.41861009  1
  C  C15  1  0.99457089  0.98910486  0.49934078  1
  C  C16  1  0.01029904  0.00609435  0.99937730  1
  C  C17  1  0.65645856  0.32814375  0.83392826  1
  C  C18  1  0.66668679  0.33340469  0.33316106  1
  C  C19  1  0.33884614  0.67733990  0.16757936  1
  C  C20  1  0.33994525  0.67680536  0.66660220  1
  C  C21  1  0.99232860  0.99347004  0.35055151  1
  C  C22  1  0.99601885  0.99520549  0.15090101  1
  C  C23  1  0.32896190  0.66354920  0.01638750  1
  C  C24  1  0.33759809  0.67152812  0.51537586  1
  C  C25  1  0.34100283  0.67320895  0.31604776  1
  C  C26  1  0.33813286  0.66905767  0.81735628  1
  C  C27  1  0.00445441  0.00682217  0.85058210  1
  C  C28  1  0.99952704  0.99996386  0.65247277  1
  C  C29  1  0.66480623  0.32666280  0.68084600  1
  C  C30  1  0.67057170  0.32827794  0.18340981  1
  C  C31  1  0.66275678  0.33684254  0.98398012  1
  C  C32  1  0.66134002  0.33663491  0.48214735  1
  Ni  Ni33  1  0.69998660  0.00028239  0.75103497  1
  Ni  Ni34  1  0.36318842  0.03015726  0.58227851  1
  Ni  Ni35  1  0.96761999  0.63465535  0.08347048  1
  Cu  Cu36  1  0.29415120  0.00016415  0.25083847  1
  Cu  Cu37  1  0.70263236  0.70368519  0.24926730  1
  Cu  Cu38  1  0.00075125  0.29558034  0.25154251  1
  Cu  Cu39  1  0.29978000  0.30130325  0.74955709  1
  Cu  Cu40  1  0.00068891  0.70017122  0.75124214  1
  Cu  Cu41  1  0.96738850  0.33618765  0.58146311  1
  Cu  Cu42  1  0.66612339  0.63060328  0.58396644  1
  Cu  Cu43  1  0.66616680  0.03427691  0.08143892  1
  Cu  Cu44  1  0.36757812  0.33252580  0.08550155  1
  Cu  Cu45  1  0.62931021  0.66532818  0.91646770  1
  Cu  Cu46  1  0.03718822  0.36984047  0.91718502  1
  Cu  Cu47  1  0.33356674  0.96253527  0.91680174  1
  Cu  Cu48  1  0.63095831  0.96277464  0.41728125  1
  Cu  Cu49  1  0.33223221  0.37084685  0.41496381  1
  Cu  Cu50  1  0.03910067  0.66643276  0.41569506  1
  C  C51  1  0.20686730  0.02392745  0.30611594  1
  C  C52  1  0.82028485  0.79670754  0.30168486  1
  C  C53  1  0.98528232  0.18951529  0.30682844  1
  C  C54  1  0.21974359  0.17822605  0.80182828  1
  C  C55  1  0.97029585  0.78081497  0.80677312  1
  C  C56  1  0.81883391  0.03740285  0.80969781  1
  C  C57  1  0.77649174  0.95983405  0.69122863  1
  C  C58  1  0.19534831  0.23054750  0.69185759  1
  C  C59  1  0.03848335  0.81075459  0.69486260  1
  C  C60  1  0.78184010  0.80231743  0.19130337  1
  C  C61  1  0.02230942  0.21157621  0.19502910  1
  C  C62  1  0.18571626  0.97576168  0.19472150  1
  C  C63  1  0.89541833  0.37443371  0.63808756  1
  C  C64  1  0.47937088  0.10504811  0.64193059  1
  C  C65  1  0.63550162  0.52703216  0.64178510  1
  C  C66  1  0.89060946  0.51317114  0.14234751  1
  C  C67  1  0.61989621  0.10977699  0.13470225  1
  C  C68  1  0.47681610  0.36835827  0.14203498  1
  C  C69  1  0.44332764  0.28677558  0.03211768  1
  C  C70  1  0.84705956  0.55811446  0.02455688  1
  C  C71  1  0.70203188  0.14336094  0.02469962  1
  C  C72  1  0.44267753  0.15040923  0.52344749  1
  C  C73  1  0.70570542  0.54947231  0.53124655  1
  C  C74  1  0.85532217  0.30626207  0.52645693  1
  C  C75  1  0.54193317  0.68436762  0.97224282  1
  C  C76  1  0.13873078  0.45969838  0.97318500  1
  C  C77  1  0.31211809  0.85449771  0.97261915  1
  C  C78  1  0.55179231  0.86428935  0.47523985  1
  C  C79  1  0.31064613  0.45462558  0.47158768  1
  C  C80  1  0.14759646  0.69090253  0.47183510  1
  C  C81  1  0.12676324  0.64277030  0.36047107  1
  C  C82  1  0.51294435  0.87008971  0.36489604  1
  C  C83  1  0.34780458  0.47746706  0.35980460  1
  C  C84  1  0.12444917  0.47589228  0.86128030  1
  C  C85  1  0.35462033  0.87605351  0.86090808  1
  C  C86  1  0.52832904  0.65391337  0.86034227  1
  C  C87  1  0.02744317  0.82986672  0.41059421  1
  C  C88  1  0.81169123  0.98893528  0.41119619  1
  C  C89  1  0.16845832  0.19144567  0.41152313  1
  C  C90  1  0.01339387  0.18894412  0.91663293  1
  C  C91  1  0.16749203  0.97096071  0.91358019  1
  C  C92  1  0.80946114  0.82916333  0.91537189  1
  C  C93  1  0.98142670  0.17377442  0.58673195  1
  C  C94  1  0.17317851  0.01074318  0.58682254  1
  C  C95  1  0.82292682  0.81197680  0.58714995  1
  C  C96  1  0.98917759  0.82513682  0.08971452  1
  C  C97  1  0.82796207  0.02126612  0.09040558  1
  C  C98  1  0.18576344  0.17825547  0.09207453  1
  C  C99  1  0.68375088  0.17260895  0.74822845  1
  C  C100  1  0.48221169  0.32975538  0.74526129  1
  C  C101  1  0.83748069  0.52418887  0.74531222  1
  C  C102  1  0.68639716  0.52381896  0.24803207  1
  C  C103  1  0.84450555  0.32122897  0.25013422  1
  C  C104  1  0.46907223  0.16598141  0.24678354  1
  C  C105  1  0.65289585  0.50804821  0.91723926  1
  C  C106  1  0.85758998  0.35446358  0.91848066  1
  C  C107  1  0.49912157  0.13731382  0.92011993  1
  C  C108  1  0.64780037  0.14298460  0.41841299  1
  C  C109  1  0.48828617  0.34517804  0.41604581  1
  C  C110  1  0.86442246  0.50061001  0.41960778  1
  C  C111  1  0.35357420  0.49385113  0.07644140  1
  C  C112  1  0.15803871  0.65577469  0.07739556  1
  C  C113  1  0.51197697  0.85247008  0.07502574  1
  C  C114  1  0.34414476  0.84083711  0.57651019  1
  C  C115  1  0.50372473  0.64341825  0.57633957  1
  C  C116  1  0.14770498  0.49205270  0.57482871  1
  C  C117  1  0.30586203  0.83670724  0.25596366  1
  C  C118  1  0.52185349  0.67780422  0.25533107  1
  C  C119  1  0.16457936  0.47518268  0.25499361  1
  C  C120  1  0.31148779  0.47549687  0.75806475  1
  C  C121  1  0.15650099  0.67567237  0.75778742  1
  C  C122  1  0.50969324  0.83056079  0.75595569  1
