# generated using pymatgen
data_Cu2NiC12
_symmetry_space_group_name_H-M   'P 1'
_cell_length_a   6.08342039
_cell_length_b   6.18896861
_cell_length_c   6.46450292
_cell_angle_alpha   89.88343853
_cell_angle_beta   119.46822020
_cell_angle_gamma   120.59561573
_symmetry_Int_Tables_number   1
_chemical_formula_structural   Cu2NiC12
_chemical_formula_sum   'Cu2 Ni1 C12'
_cell_volume   172.09401205
_cell_formula_units_Z   1
loop_
 _symmetry_equiv_pos_site_id
 _symmetry_equiv_pos_as_xyz
  1  'x, y, z'
loop_
 _atom_site_type_symbol
 _atom_site_label
 _atom_site_symmetry_multiplicity
 _atom_site_fract_x
 _atom_site_fract_y
 _atom_site_fract_z
 _atom_site_occupancy
  Ni  Ni0  1  0.00457000  0.99606300  0.49992700  1
  C  C1  1  0.50366000  0.99834400  0.49908100  1
  C  C2  1  0.50404900  0.49850200  0.50076300  1
  C  C3  1  0.00278100  0.50100500  0.00008100  1
  C  C4  1  0.00371900  0.49789600  0.49964800  1
  Cu  Cu5  1  0.29041900  0.14596000  0.96043900  1
  Cu  Cu6  1  0.71296600  0.86016800  0.03898100  1
  C  C7  1  0.04055700  0.77511600  0.27650300  1
  C  C8  1  0.48559300  0.73928900  0.68043000  1
  C  C9  1  0.52140500  0.75864200  0.24056100  1
  C  C10  1  0.96722000  0.73758300  0.72307200  1
  C  C11  1  0.48579900  0.23896300  0.76055100  1
  C  C12  1  0.52219300  0.25876900  0.31967300  1
  C  C13  1  0.04043300  0.26006800  0.27722800  1
  C  C14  1  0.96671500  0.22321700  0.72306000  1
