# generated using pymatgen
data_Cu(NiC4)2
_symmetry_space_group_name_H-M   'P 1'
_cell_length_a   6.82144866
_cell_length_b   6.02041162
_cell_length_c   6.82145372
_cell_angle_alpha   63.80449351
_cell_angle_beta   49.48552086
_cell_angle_gamma   63.80398542
_symmetry_Int_Tables_number   1
_chemical_formula_structural   Cu(NiC4)2
_chemical_formula_sum   'Cu1 Ni2 C8'
_cell_volume   186.12527969
_cell_formula_units_Z   1
loop_
 _symmetry_equiv_pos_site_id
 _symmetry_equiv_pos_as_xyz
  1  'x, y, z'
loop_
 _atom_site_type_symbol
 _atom_site_label
 _atom_site_symmetry_multiplicity
 _atom_site_fract_x
 _atom_site_fract_y
 _atom_site_fract_z
 _atom_site_occupancy
  Ni  Ni0  1  0.32495859  0.17505932  0.32496056  1
  Ni  Ni1  1  0.68667737  0.81331284  0.68667583  1
  Cu  Cu2  1  0.40849650  0.59151408  0.40849702  1
  C  C3  1  0.02188353  0.47808371  0.02188338  1
  C  C4  1  0.01790072  0.98208590  0.01789596  1
  C  C5  1  0.20735248  0.79269498  0.20736009  1
  C  C6  1  0.24143507  0.27341169  0.76509718  1
  C  C7  1  0.76509114  0.27341781  0.24142872  1
  C  C8  1  0.24144450  0.72001149  0.76512910  1
  C  C9  1  0.76512178  0.72002102  0.24144062  1
  C  C10  1  0.81963830  0.18038715  0.81963053  1
