# generated using pymatgen
data_Cu5(Ni4C7)2
_symmetry_space_group_name_H-M   'P 1'
_cell_length_a   9.75424503
_cell_length_b   9.75424503
_cell_length_c   14.84805472
_cell_angle_alpha   70.86990978
_cell_angle_beta   70.86990978
_cell_angle_gamma   60.02926901
_symmetry_Int_Tables_number   1
_chemical_formula_structural   Cu5(Ni4C7)2
_chemical_formula_sum   'Cu10 Ni16 C28'
_cell_volume   1132.78037091
_cell_formula_units_Z   2
loop_
 _symmetry_equiv_pos_site_id
 _symmetry_equiv_pos_as_xyz
  1  'x, y, z'
loop_
 _atom_site_type_symbol
 _atom_site_label
 _atom_site_symmetry_multiplicity
 _atom_site_fract_x
 _atom_site_fract_y
 _atom_site_fract_z
 _atom_site_occupancy
  Ni  Ni0  1  0.82299300  0.15921300  0.39656400  1
  Ni  Ni1  1  0.84078700  0.17700700  0.10343600  1
  Ni  Ni2  1  0.17700700  0.84078700  0.60343600  1
  Ni  Ni3  1  0.15921300  0.82299300  0.89656400  1
  Ni  Ni4  1  0.37896800  0.34094500  0.10287500  1
  Ni  Ni5  1  0.65905500  0.62103200  0.39712500  1
  Ni  Ni6  1  0.62103200  0.65905500  0.89712500  1
  Ni  Ni7  1  0.34094500  0.37896800  0.60287500  1
  Ni  Ni8  1  0.55396200  0.05444600  0.33743400  1
  Ni  Ni9  1  0.94555400  0.44603800  0.16256600  1
  Ni  Ni10  1  0.44603800  0.94555400  0.66256600  1
  Ni  Ni11  1  0.05444600  0.55396200  0.83743400  1
  Ni  Ni12  1  0.67666600  0.87965900  0.10289600  1
  Ni  Ni13  1  0.12034100  0.32333400  0.39710400  1
  Ni  Ni14  1  0.32333400  0.12034100  0.89710400  1
  Ni  Ni15  1  0.87965900  0.67666600  0.60289600  1
  Cu  Cu16  1  0.52022800  0.47977200  0.25000000  1
  Cu  Cu17  1  0.47977200  0.52022800  0.75000000  1
  Cu  Cu18  1  0.29661000  0.79655000  0.10962600  1
  Cu  Cu19  1  0.20345000  0.70339000  0.39037400  1
  Cu  Cu20  1  0.70339000  0.20345000  0.89037400  1
  Cu  Cu21  1  0.79655000  0.29661000  0.60962600  1
  Cu  Cu22  1  0.24998400  0.02040800  0.24982000  1
  Cu  Cu23  1  0.97959200  0.75001600  0.25017900  1
  Cu  Cu24  1  0.75001600  0.97959200  0.75017900  1
  Cu  Cu25  1  0.02040800  0.24998400  0.74982100  1
  C  C26  1  0.21302100  0.97994000  0.15169100  1
  C  C27  1  0.02006000  0.78697900  0.34830900  1
  C  C28  1  0.78697900  0.02006000  0.84830900  1
  C  C29  1  0.97994000  0.21302100  0.65169100  1
  C  C30  1  0.55253600  0.31161900  0.21161700  1
  C  C31  1  0.68838100  0.44746400  0.28838300  1
  C  C32  1  0.44746400  0.68838100  0.78838300  1
  C  C33  1  0.31161900  0.55253600  0.71161700  1
  C  C34  1  0.42399600  0.05300800  0.21145300  1
  C  C35  1  0.94699200  0.57600400  0.28854700  1
  C  C36  1  0.57600400  0.94699200  0.78854700  1
  C  C37  1  0.05300800  0.42399600  0.71145300  1
  C  C38  1  0.81150600  0.92416600  0.21178300  1
  C  C39  1  0.07583400  0.18849400  0.28821700  1
  C  C40  1  0.18849400  0.07583400  0.78821700  1
  C  C41  1  0.92416600  0.81150600  0.71178300  1
  C  C42  1  0.47985200  0.65516800  0.15193900  1
  C  C43  1  0.34483200  0.52014800  0.34806100  1
  C  C44  1  0.52014800  0.34483200  0.84806100  1
  C  C45  1  0.65516800  0.47985200  0.65193900  1
  C  C46  1  0.66104200  0.16149100  0.01715100  1
  C  C47  1  0.83850900  0.33895800  0.48284900  1
  C  C48  1  0.33895800  0.83850900  0.98284900  1
  C  C49  1  0.16149100  0.66104200  0.51715100  1
  C  C50  1  0.28731100  0.84500600  0.34788600  1
  C  C51  1  0.15499400  0.71268900  0.15211400  1
  C  C52  1  0.84500600  0.28731100  0.84788600  1
  C  C53  1  0.71268900  0.15499400  0.65211400  1
