# generated using pymatgen
data_Cu8Ni2C71
_symmetry_space_group_name_H-M   'P 1'
_cell_length_a   9.35825446
_cell_length_b   9.35697244
_cell_length_c   10.20020838
_cell_angle_alpha   89.97240770
_cell_angle_beta   90.00064958
_cell_angle_gamma   120.04040422
_symmetry_Int_Tables_number   1
_chemical_formula_structural   Cu8Ni2C71
_chemical_formula_sum   'Cu8 Ni2 C71'
_cell_volume   773.20178496
_cell_formula_units_Z   1
loop_
 _symmetry_equiv_pos_site_id
 _symmetry_equiv_pos_as_xyz
  1  'x, y, z'
loop_
 _atom_site_type_symbol
 _atom_site_label
 _atom_site_symmetry_multiplicity
 _atom_site_fract_x
 _atom_site_fract_y
 _atom_site_fract_z
 _atom_site_occupancy
  Ni  Ni0  1  0.88960100  0.99808000  0.66642900  1
  Ni  Ni1  1  0.55415300  0.33290900  0.00188700  1
  Cu  Cu2  1  0.88954300  0.99944800  0.33233700  1
  Cu  Cu3  1  0.55225400  0.99768400  0.66620100  1
  Cu  Cu4  1  0.89096500  0.33680700  0.66590800  1
  Cu  Cu5  1  0.55520800  0.33467400  0.66589800  1
  Cu  Cu6  1  0.22372500  0.33525500  0.66560700  1
  Cu  Cu7  1  0.88998300  0.00024000  0.00139400  1
  Cu  Cu8  1  0.89143200  0.66674700  0.00145500  1
  Cu  Cu9  1  0.55296400  0.99819800  0.33269300  1
  C  C10  1  0.55099800  0.99665900  0.00150900  1
  C  C11  1  0.22451400  0.33695200  0.33300100  1
  C  C12  1  0.55317400  0.66556800  0.66557100  1
  C  C13  1  0.22208000  0.99827800  0.33349800  1
  C  C14  1  0.22302800  0.33690300  0.00163400  1
  C  C15  1  0.89239600  0.33628900  0.00144100  1
  C  C16  1  0.55139000  0.66566000  0.00050900  1
  C  C17  1  0.89058400  0.66571200  0.33216100  1
  C  C18  1  0.55436300  0.33476700  0.33216700  1
  C  C19  1  0.89138100  0.33703500  0.33276300  1
  C  C20  1  0.22199200  0.66805900  0.66533900  1
  C  C21  1  0.22095400  0.99653900  0.66485900  1
  C  C22  1  0.22397000  0.66687900  0.00025500  1
  C  C23  1  0.89215000  0.66801000  0.66616300  1
  C  C24  1  0.55250700  0.66396900  0.33382600  1
  C  C25  1  0.22139100  0.66551200  0.33396600  1
  C  C26  1  0.22341500  0.99790000  0.00153800  1
  C  C27  1  0.00069100  0.55662200  0.49678500  1
  C  C28  1  0.00189200  0.88845000  0.16873300  1
  C  C29  1  0.33331100  0.22085600  0.49540000  1
  C  C30  1  0.00070500  0.22425800  0.49536900  1
  C  C31  1  0.66429900  0.88708400  0.16507100  1
  C  C32  1  0.33239000  0.88831700  0.16613100  1
  C  C33  1  0.66769600  0.22417700  0.16918900  1
  C  C34  1  0.66526100  0.55363200  0.16954100  1
  C  C35  1  0.33267900  0.55447400  0.16686300  1
  C  C36  1  0.99952400  0.55345600  0.17010400  1
  C  C37  1  0.33443900  0.22354800  0.16980700  1
  C  C38  1  0.00139100  0.22578800  0.16847800  1
  C  C39  1  0.66757300  0.22514500  0.49266900  1
  C  C40  1  0.77608600  0.77633700  0.83347000  1
  C  C41  1  0.44222600  0.77613400  0.83288900  1
  C  C42  1  0.66726400  0.55518300  0.49496800  1
  C  C43  1  0.77564400  0.77499800  0.16781500  1
  C  C44  1  0.11318400  0.11025700  0.49881500  1
  C  C45  1  0.44191200  0.11135500  0.49674700  1
  C  C46  1  0.77921300  0.11352600  0.49672200  1
  C  C47  1  0.11113600  0.44610800  0.49669100  1
  C  C48  1  0.44528400  0.44449800  0.49504300  1
  C  C49  1  0.77791500  0.44474000  0.49190500  1
  C  C50  1  0.11159400  0.77776500  0.50122500  1
  C  C51  1  0.44152800  0.77487800  0.50151600  1
  C  C52  1  0.77732300  0.77508900  0.49886800  1
  C  C53  1  0.11330500  0.11035900  0.83355900  1
  C  C54  1  0.44159500  0.10897000  0.83502700  1
  C  C55  1  0.77722600  0.11148200  0.83660100  1
  C  C56  1  0.11297100  0.44733400  0.83476200  1
  C  C57  1  0.44421700  0.44589900  0.83626100  1
  C  C58  1  0.77861400  0.44479200  0.83632800  1
  C  C59  1  0.11353100  0.77899500  0.82914400  1
  C  C60  1  0.44321800  0.77621100  0.16561800  1
  C  C61  1  0.11199200  0.77703700  0.16977600  1
  C  C62  1  0.77725400  0.44277500  0.17162800  1
  C  C63  1  0.33361100  0.55739600  0.83278200  1
  C  C64  1  0.00236000  0.88820800  0.49986300  1
  C  C65  1  0.32953200  0.88758900  0.50186400  1
  C  C66  1  0.66578800  0.88640700  0.49974100  1
  C  C67  1  0.00118900  0.22359800  0.83567200  1
  C  C68  1  0.33161900  0.21988000  0.83494500  1
  C  C69  1  0.66661900  0.22143400  0.83819000  1
  C  C70  1  0.00353000  0.55796100  0.83277500  1
  C  C71  1  0.66596400  0.55678400  0.83517900  1
  C  C72  1  0.44440700  0.44367300  0.16924700  1
  C  C73  1  0.00312100  0.88945100  0.83115200  1
  C  C74  1  0.33059400  0.88726200  0.83167700  1
  C  C75  1  0.66457600  0.88668200  0.83509000  1
  C  C76  1  0.11446500  0.11389300  0.16778800  1
  C  C77  1  0.44470900  0.11280100  0.16884800  1
  C  C78  1  0.77809400  0.11469600  0.16675100  1
  C  C79  1  0.11081100  0.44448400  0.16894700  1
  C  C80  1  0.33291300  0.55665000  0.50002000  1
