# generated using pymatgen
data_Cu2NiC14
_symmetry_space_group_name_H-M   'P 1'
_cell_length_a   8.54132642
_cell_length_b   8.54673900
_cell_length_c   22.11123058
_cell_angle_alpha   89.60398940
_cell_angle_beta   90.26616291
_cell_angle_gamma   119.83441230
_symmetry_Int_Tables_number   1
_chemical_formula_structural   Cu2NiC14
_chemical_formula_sum   'Cu12 Ni6 C84'
_cell_volume   1400.16993606
_cell_formula_units_Z   6
loop_
 _symmetry_equiv_pos_site_id
 _symmetry_equiv_pos_as_xyz
  1  'x, y, z'
loop_
 _atom_site_type_symbol
 _atom_site_label
 _atom_site_symmetry_multiplicity
 _atom_site_fract_x
 _atom_site_fract_y
 _atom_site_fract_z
 _atom_site_occupancy
  C  C0  1  0.66685699  0.33253725  0.97370098  1
  C  C1  1  0.32109734  0.65916673  0.31164888  1
  C  C2  1  0.33866072  0.67172614  0.80942697  1
  C  C3  1  0.99696132  0.99966587  0.35506311  1
  C  C4  1  0.99319664  0.00273290  0.85610186  1
  C  C5  1  0.99230107  0.99782933  0.64602929  1
  C  C6  1  0.00126387  0.00743631  0.14621284  1
  C  C7  1  0.66675073  0.32665915  0.68670964  1
  C  C8  1  0.67376109  0.33358267  0.18747902  1
  C  C9  1  0.67411208  0.33970061  0.48069733  1
  C  C10  1  0.33219550  0.66533272  0.01624429  1
  C  C11  1  0.32809137  0.67040931  0.52209327  1
  Ni  Ni12  1  0.99023352  0.27639515  0.24918281  1
  Ni  Ni13  1  0.72272755  0.01044689  0.74852590  1
  Ni  Ni14  1  0.62582303  0.67778541  0.91779137  1
  Ni  Ni15  1  0.05357181  0.37585990  0.91715330  1
  Ni  Ni16  1  0.32048036  0.94837139  0.91714064  1
  Ni  Ni17  1  0.03694054  0.66858186  0.41985438  1
  Cu  Cu18  1  0.28984351  0.00720208  0.24894774  1
  Cu  Cu19  1  0.71461439  0.71001653  0.24915231  1
  Cu  Cu20  1  0.28927566  0.28258127  0.74901799  1
  Cu  Cu21  1  0.99240475  0.71090131  0.74900216  1
  Cu  Cu22  1  0.95789975  0.33309251  0.58343992  1
  Cu  Cu23  1  0.37547351  0.04442162  0.58303122  1
  Cu  Cu24  1  0.66566116  0.62310246  0.58350171  1
  Cu  Cu25  1  0.96091057  0.62791744  0.08462372  1
  Cu  Cu26  1  0.66428812  0.03807219  0.08471847  1
  Cu  Cu27  1  0.37546359  0.33438876  0.08500427  1
  Cu  Cu28  1  0.62457325  0.95856483  0.41831405  1
  Cu  Cu29  1  0.33351438  0.37301195  0.41914619  1
  C  C30  1  0.21180328  0.03436587  0.30395634  1
  C  C31  1  0.82370118  0.78692944  0.30393551  1
  C  C32  1  0.96591736  0.16786373  0.30688355  1
  C  C33  1  0.21270715  0.17590816  0.80397727  1
  C  C34  1  0.96682207  0.78902840  0.80392111  1
  C  C35  1  0.83034260  0.03532177  0.80592013  1
  C  C36  1  0.79382288  0.96241186  0.69254240  1
  C  C37  1  0.17621598  0.21054525  0.69457304  1
  C  C38  1  0.03696766  0.82568809  0.69448903  1
  C  C39  1  0.78874574  0.82369451  0.19468084  1
  C  C40  1  0.03808393  0.20593919  0.19305282  1
  C  C41  1  0.17485667  0.96239676  0.19479353  1
  C  C42  1  0.87921886  0.36988354  0.63734551  1
  C  C43  1  0.48999256  0.12285681  0.63741064  1
  C  C44  1  0.63170565  0.50816750  0.63809042  1
  C  C45  1  0.87721808  0.51097204  0.13834221  1
  C  C46  1  0.63151500  0.12166349  0.13813088  1
  C  C47  1  0.49155201  0.36549165  0.13895397  1
  C  C48  1  0.46139720  0.30252856  0.03062353  1
  C  C49  1  0.84179939  0.54145769  0.03038809  1
  C  C50  1  0.69827300  0.15822628  0.03043867  1
  C  C51  1  0.45601418  0.15827633  0.52809047  1
  C  C52  1  0.70003537  0.54422270  0.52883214  1
  C  C53  1  0.84308730  0.29677617  0.52883906  1
  C  C54  1  0.54117065  0.70245743  0.97444130  1
  C  C55  1  0.16077768  0.45896354  0.97452872  1
  C  C56  1  0.29731096  0.83981632  0.97427753  1
  C  C57  1  0.54387979  0.84072295  0.47145596  1
  C  C58  1  0.30012030  0.45718176  0.47130049  1
  C  C59  1  0.16488185  0.70334461  0.47259274  1
  C  C60  1  0.13254680  0.63652224  0.36198666  1
  C  C61  1  0.50857006  0.87181410  0.36281036  1
  C  C62  1  0.36654547  0.49207240  0.36303722  1
  C  C63  1  0.13087419  0.49952615  0.86088389  1
  C  C64  1  0.36759603  0.86946128  0.86113952  1
  C  C65  1  0.50091725  0.63072821  0.86136478  1
  C  C66  1  0.02544112  0.83646558  0.40530932  1
  C  C67  1  0.80154787  0.97372796  0.40873896  1
  C  C68  1  0.17229844  0.19843309  0.40832456  1
  C  C69  1  0.02501610  0.19083285  0.90815194  1
  C  C70  1  0.16510276  0.97771327  0.90531647  1
  C  C71  1  0.81127705  0.83134630  0.90765326  1
  C  C72  1  0.97687088  0.17184822  0.59111129  1
  C  C73  1  0.19551960  0.02558852  0.59166446  1
  C  C74  1  0.82856035  0.80170356  0.59072520  1
  C  C75  1  0.97292967  0.80497062  0.09190158  1
  C  C76  1  0.82944379  0.02553338  0.09087101  1
  C  C77  1  0.19878368  0.16871711  0.09080734  1
  C  C78  1  0.68942772  0.16874350  0.74042890  1
  C  C79  1  0.47273487  0.31165967  0.74127690  1
  C  C80  1  0.83663371  0.52925717  0.74107383  1
  C  C81  1  0.68849484  0.52776778  0.24129026  1
  C  C82  1  0.83258272  0.31020890  0.24087476  1
  C  C83  1  0.47111257  0.16328772  0.24103385  1
  C  C84  1  0.63849844  0.50195412  0.92643945  1
  C  C85  1  0.86342222  0.36098429  0.92660202  1
  C  C86  1  0.49661514  0.13646375  0.92641798  1
  C  C87  1  0.63719278  0.13513484  0.42423688  1
  C  C88  1  0.49678040  0.35894809  0.42434700  1
  C  C89  1  0.85526320  0.49684860  0.42534182  1
  C  C90  1  0.35876915  0.49507790  0.07625765  1
  C  C91  1  0.13722860  0.64247634  0.07600979  1
  C  C92  1  0.50388924  0.86211156  0.07590476  1
  C  C93  1  0.36056494  0.86524501  0.57582545  1
  C  C94  1  0.50316018  0.64084532  0.57457745  1
  C  C95  1  0.13764783  0.49473789  0.57545063  1
  C  C96  1  0.31128585  0.84293275  0.25785984  1
  C  C97  1  0.53281071  0.69334096  0.25855856  1
  C  C98  1  0.16359036  0.46953878  0.25941718  1
  C  C99  1  0.30613157  0.46585958  0.75731282  1
  C  C100  1  0.15752706  0.69094633  0.75722450  1
  C  C101  1  0.52991030  0.83802940  0.75867638  1
