# generated using pymatgen
data_Cu(NiC4)2
_symmetry_space_group_name_H-M   'P 1'
_cell_length_a   6.24820827
_cell_length_b   6.57867969
_cell_length_c   7.21048990
_cell_angle_alpha   47.92146334
_cell_angle_beta   64.32460106
_cell_angle_gamma   61.64825459
_symmetry_Int_Tables_number   1
_chemical_formula_structural   Cu(NiC4)2
_chemical_formula_sum   'Cu1 Ni2 C8'
_cell_volume   190.57311174
_cell_formula_units_Z   1
loop_
 _symmetry_equiv_pos_site_id
 _symmetry_equiv_pos_as_xyz
  1  'x, y, z'
loop_
 _atom_site_type_symbol
 _atom_site_label
 _atom_site_symmetry_multiplicity
 _atom_site_fract_x
 _atom_site_fract_y
 _atom_site_fract_z
 _atom_site_occupancy
  Ni  Ni0  1  0.21606860  0.74228540  0.82557639  1
  Ni  Ni1  1  0.78393140  0.25771460  0.17442361  1
  Cu  Cu2  1  -0.00000000  0.50000000  0.50000000  1
  C  C3  1  0.50000000  0.50000000  0.50000000  1
  C  C4  1  0.50000000  0.00000000  0.00000000  1
  C  C5  1  0.19886551  0.34927266  0.80994751  1
  C  C6  1  0.35808568  0.65072734  0.19005249  1
  C  C7  1  0.80113449  0.65072734  0.19005249  1
  C  C8  1  0.64191432  0.34927266  0.80994751  1
  C  C9  1  0.64746132  0.04454039  0.66053797  1
  C  C10  1  0.35253868  0.95545961  0.33946203  1
