# generated using pymatgen
data_Cu2NiC7
_symmetry_space_group_name_H-M   'P 1'
_cell_length_a   3.27973775
_cell_length_b   3.27974352
_cell_length_c   37.53498228
_cell_angle_alpha   88.47065182
_cell_angle_beta   91.53041237
_cell_angle_gamma   120.01619603
_symmetry_Int_Tables_number   1
_chemical_formula_structural   Cu2NiC7
_chemical_formula_sum   'Cu2 Ni1 C7'
_cell_volume   349.43669216
_cell_formula_units_Z   1
loop_
 _symmetry_equiv_pos_site_id
 _symmetry_equiv_pos_as_xyz
  1  'x, y, z'
loop_
 _atom_site_type_symbol
 _atom_site_label
 _atom_site_symmetry_multiplicity
 _atom_site_fract_x
 _atom_site_fract_y
 _atom_site_fract_z
 _atom_site_occupancy
  C  C0  1  0.33228800  0.66765500  0.22997600  1
  Ni  Ni1  1  0.66612500  0.33383600  0.35277400  1
  Cu  Cu2  1  0.34296700  0.65702400  0.10508600  1
  Cu  Cu3  1  0.33388100  0.66612400  0.57842200  1
  C  C4  1  0.34182400  0.65816300  0.39784500  1
  C  C5  1  0.65814800  0.34185200  0.53312500  1
  C  C6  1  0.67620500  0.32380300  0.62373400  1
  C  C7  1  0.32376400  0.67616600  0.30751900  1
  C  C8  1  0.66793100  0.33203900  0.06413300  1
  C  C9  1  0.68457800  0.31542500  0.14619900  1
