# generated using pymatgen
data_Cu3NiC22
_symmetry_space_group_name_H-M   'P 1'
_cell_length_a   17.82940629
_cell_length_b   8.95928170
_cell_length_c   22.35966470
_cell_angle_alpha   89.93888670
_cell_angle_beta   90.02942731
_cell_angle_gamma   120.10838342
_symmetry_Int_Tables_number   1
_chemical_formula_structural   Cu3NiC22
_chemical_formula_sum   'Cu27 Ni9 C198'
_cell_volume   3089.80019380
_cell_formula_units_Z   9
loop_
 _symmetry_equiv_pos_site_id
 _symmetry_equiv_pos_as_xyz
  1  'x, y, z'
loop_
 _atom_site_type_symbol
 _atom_site_label
 _atom_site_symmetry_multiplicity
 _atom_site_fract_x
 _atom_site_fract_y
 _atom_site_fract_z
 _atom_site_occupancy
  C  C0  1  0.81060519  0.00332448  0.23995717  1
  C  C1  1  0.00410882  0.63668152  0.24276820  1
  C  C2  1  0.50283017  0.63314269  0.24163142  1
  C  C3  1  0.00254580  0.37223975  0.74001306  1
  C  C4  1  0.50219368  0.37203508  0.74119809  1
  C  C5  1  0.18140355  0.01009766  0.75264805  1
  C  C6  1  0.65627119  0.34900218  0.58283700  1
  C  C7  1  0.66085703  0.95945698  0.08600300  1
  C  C8  1  0.83324022  0.68993347  0.07643513  1
  C  C9  1  0.00916189  0.33695066  0.08148782  1
  C  C10  1  0.48047305  0.66016719  0.92564965  1
  C  C11  1  0.84884479  0.03481164  0.92519159  1
  C  C12  1  0.16514172  0.29767023  0.91061371  1
  C  C13  1  0.66504659  0.30020312  0.90871929  1
  C  C14  1  0.48021245  0.30002409  0.42487155  1
  C  C15  1  0.98452697  0.30492863  0.42724010  1
  C  C16  1  0.16563418  0.03181203  0.40990132  1
  C  C17  1  0.66444877  0.03120445  0.40949862  1
  C  C18  1  0.99150012  0.99005556  0.49898025  1
  C  C19  1  0.48032656  0.96975760  0.49784714  1
  C  C20  1  0.00074623  0.97327186  0.99691160  1
  C  C21  1  0.48044506  0.99121476  0.99866398  1
  C  C22  1  0.32700291  0.33456384  0.82953141  1
  C  C23  1  0.82663441  0.34478918  0.82569921  1
  C  C24  1  0.31817942  0.32004294  0.32663454  1
  C  C25  1  0.82159220  0.33854677  0.32935787  1
  C  C26  1  0.17224048  0.69727601  0.16504993  1
  C  C27  1  0.65865167  0.66273133  0.16195204  1
  C  C28  1  0.16413179  0.63763469  0.66057759  1
  C  C29  1  0.66582374  0.66525496  0.66621097  1
  C  C30  1  0.00547403  0.00051463  0.34931141  1
  C  C31  1  0.49985606  0.99928476  0.34925249  1
  C  C32  1  0.00442338  0.99753140  0.84910741  1
  C  C33  1  0.50254306  0.00506587  0.84799505  1
  C  C34  1  0.33461275  0.34625293  0.68129262  1
  C  C35  1  0.83216837  0.33596677  0.68337644  1
  C  C36  1  0.33127570  0.32334069  0.18373766  1
  C  C37  1  0.83043380  0.32285420  0.18151046  1
  C  C38  1  0.33637480  0.33137719  0.98727466  1
  C  C39  1  0.84487833  0.34570952  0.98811985  1
  C  C40  1  0.33619465  0.33881510  0.48792586  1
  C  C41  1  0.83937544  0.34098863  0.48673654  1
  C  C42  1  0.16772352  0.67914906  0.01933056  1
  C  C43  1  0.66172781  0.66440008  0.02146342  1
  C  C44  1  0.16401658  0.65824341  0.52094417  1
  C  C45  1  0.66411363  0.66628652  0.51963525  1
  C  C46  1  0.16997167  0.67596897  0.31272586  1
  C  C47  1  0.66575504  0.66594073  0.31337756  1
  C  C48  1  0.16808834  0.65992242  0.81390331  1
  C  C49  1  0.66874457  0.66033202  0.81032279  1
  C  C50  1  0.00466901  0.01873716  0.64573480  1
  C  C51  1  0.50123587  0.00875236  0.64688451  1
  C  C52  1  0.00884500  0.99890422  0.14589757  1
  C  C53  1  0.49857577  0.98812510  0.14852206  1
  Ni  Ni54  1  0.15682962  0.00556215  0.25683324  1
  Ni  Ni55  1  0.65243216  0.00684180  0.25649525  1
  Ni  Ni56  1  0.15511128  0.30618916  0.75510612  1
  Ni  Ni57  1  0.65494120  0.30380234  0.75510982  1
  Ni  Ni58  1  0.48151173  0.34877674  0.58373442  1
  Ni  Ni59  1  0.98139334  0.35176310  0.58369756  1
  Ni  Ni60  1  0.47737550  0.61153236  0.08388970  1
  Ni  Ni61  1  0.98191910  0.61906224  0.08623258  1
  Ni  Ni62  1  0.83279851  0.03431285  0.08236589  1
  Cu  Cu63  1  0.35201399  0.70628074  0.25248059  1
  Cu  Cu64  1  0.85388992  0.70854893  0.25085825  1
  Cu  Cu65  1  0.00192088  0.29325403  0.25342832  1
  Cu  Cu66  1  0.50002004  0.29200789  0.25322187  1
  Cu  Cu67  1  0.99889521  0.70801173  0.75177692  1
  Cu  Cu68  1  0.49940857  0.70759052  0.75345106  1
  Cu  Cu69  1  0.35259353  0.99639113  0.75154119  1
  Cu  Cu70  1  0.85375503  0.99699582  0.75256137  1
  Cu  Cu71  1  0.18697080  0.03716154  0.58340277  1
  Cu  Cu72  1  0.68729563  0.03754935  0.58210885  1
  Cu  Cu73  1  0.33287919  0.62736122  0.58326537  1
  Cu  Cu74  1  0.83467166  0.62890641  0.58266940  1
  Cu  Cu75  1  0.33316393  0.03966060  0.08341527  1
  Cu  Cu76  1  0.19069752  0.34067884  0.08147160  1
  Cu  Cu77  1  0.68456500  0.32939698  0.08184774  1
  Cu  Cu78  1  0.31289654  0.66789914  0.91671250  1
  Cu  Cu79  1  0.81307770  0.66465169  0.91640090  1
  Cu  Cu80  1  0.01832278  0.37229713  0.91574534  1
  Cu  Cu81  1  0.51835135  0.37101656  0.91581343  1
  Cu  Cu82  1  0.16790296  0.96257872  0.91569270  1
  Cu  Cu83  1  0.66570263  0.95854138  0.91602600  1
  Cu  Cu84  1  0.31261096  0.95770145  0.41718158  1
  Cu  Cu85  1  0.81275767  0.95802104  0.41550359  1
  Cu  Cu86  1  0.16789109  0.37645013  0.41655614  1
  Cu  Cu87  1  0.66772836  0.37481077  0.41778509  1
  Cu  Cu88  1  0.01819873  0.66567574  0.41601578  1
  Cu  Cu89  1  0.51783325  0.66578106  0.41613931  1
  C  C90  1  0.10961161  0.02186424  0.31582726  1
  C  C91  1  0.60391490  0.01920632  0.31484911  1
  C  C92  1  0.40697126  0.79564656  0.30385610  1
  C  C93  1  0.90907432  0.79763619  0.30265744  1
  C  C94  1  0.48958349  0.19217446  0.30783614  1
  C  C95  1  0.98772696  0.18216686  0.30582600  1
  C  C96  1  0.10942520  0.18308465  0.81248682  1
  C  C97  1  0.60726600  0.19250401  0.81395055  1
  C  C98  1  0.48828938  0.78643906  0.80804594  1
  C  C99  1  0.98627436  0.78764354  0.80492751  1
  C  C100  1  0.40638995  0.01662976  0.80357824  1
  C  C101  1  0.90598538  0.01720293  0.80665590  1
  C  C102  1  0.39477409  0.97192026  0.69602954  1
  C  C103  1  0.89937245  0.97452691  0.69850128  1
  C  C104  1  0.08435596  0.18575489  0.69667703  1
  C  C105  1  0.58316858  0.17996515  0.69598361  1
  C  C106  1  0.00890611  0.81496470  0.69732797  1
  C  C107  1  0.50492036  0.81373751  0.69953057  1
  C  C108  1  0.39636296  0.81824231  0.19659059  1
  C  C109  1  0.89493954  0.81803755  0.19478917  1
  C  C110  1  0.00779272  0.20546520  0.19737663  1
  C  C111  1  0.50633308  0.19734213  0.19935556  1
  C  C112  1  0.08556301  0.98797337  0.19961547  1
  C  C113  1  0.58387960  0.98424816  0.19642101  1
  C  C114  1  0.43697144  0.35591606  0.64513109  1
  C  C115  1  0.93484359  0.35368453  0.64490869  1
  C  C116  1  0.23533075  0.12108522  0.63812367  1
  C  C117  1  0.73774570  0.12511608  0.63532212  1
  C  C118  1  0.31993368  0.52483111  0.63721369  1
  C  C119  1  0.81775663  0.51843127  0.63543353  1
  C  C120  1  0.43390235  0.51608821  0.14547878  1
  C  C121  1  0.93922112  0.51715858  0.14773187  1
  C  C122  1  0.32073139  0.11823252  0.13708935  1
  C  C123  1  0.81191012  0.11401193  0.14056115  1
  C  C124  1  0.24104380  0.35523691  0.13471888  1
  C  C125  1  0.73822234  0.35622202  0.13460933  1
  C  C126  1  0.22207206  0.30201173  0.02579888  1
  C  C127  1  0.71850341  0.29007667  0.02707599  1
  C  C128  1  0.42463935  0.54892074  0.02197338  1
  C  C129  1  0.91524781  0.55689461  0.03062258  1
  C  C130  1  0.34808230  0.14199333  0.02871053  1
  C  C131  1  0.85569093  0.15307283  0.02230569  1
  C  C132  1  0.22161069  0.14446953  0.52901165  1
  C  C133  1  0.72020394  0.14618418  0.52723580  1
  C  C134  1  0.34815760  0.55306350  0.52909238  1
  C  C135  1  0.84776428  0.55264760  0.52825808  1
  C  C136  1  0.42812813  0.30674061  0.52206494  1
  C  C137  1  0.92696709  0.30268848  0.52208247  1
  C  C138  1  0.27238372  0.68623796  0.97097600  1
  C  C139  1  0.77380741  0.68833297  0.97176529  1
  C  C140  1  0.07152244  0.45359578  0.96963344  1
  C  C141  1  0.57542181  0.45869898  0.96771626  1
  C  C142  1  0.16083588  0.85791250  0.96780301  1
  C  C143  1  0.65732320  0.86048166  0.97155640  1
  C  C144  1  0.27271977  0.85749927  0.47148827  1
  C  C145  1  0.77000423  0.85420359  0.46870579  1
  C  C146  1  0.15776897  0.46201723  0.46939865  1
  C  C147  1  0.65919740  0.45749697  0.47274197  1
  C  C148  1  0.07500519  0.69187558  0.46766618  1
  C  C149  1  0.57527298  0.69239312  0.46761094  1
  C  C150  1  0.05706380  0.63997787  0.36063966  1
  C  C151  1  0.55747986  0.64150444  0.36069895  1
  C  C152  1  0.26063756  0.87292286  0.36333690  1
  C  C153  1  0.76233218  0.87531636  0.36024217  1
  C  C154  1  0.17736223  0.47516466  0.36146161  1
  C  C155  1  0.67680315  0.47802522  0.36415025  1
  C  C156  1  0.06178482  0.47176567  0.86110554  1
  C  C157  1  0.55769631  0.47455027  0.86062571  1
  C  C158  1  0.17641121  0.88569298  0.85900744  1
  C  C159  1  0.67724049  0.87245583  0.86368855  1
  C  C160  1  0.26080845  0.64954529  0.86290067  1
  C  C161  1  0.75776327  0.64477450  0.86426960  1
  C  C162  1  0.00862454  0.82222157  0.41240645  1
  C  C163  1  0.50905454  0.82300602  0.41261840  1
  C  C164  1  0.40381109  0.98939033  0.41172642  1
  C  C165  1  0.90349978  0.98927871  0.41123328  1
  C  C166  1  0.08547557  0.20044881  0.41420694  1
  C  C167  1  0.58560191  0.20024973  0.41509501  1
  C  C168  1  0.00741989  0.19331803  0.91258302  1
  C  C169  1  0.50954592  0.19597901  0.91240066  1
  C  C170  1  0.08796227  0.98055800  0.91445613  1
  C  C171  1  0.58433044  0.97016882  0.91276116  1
  C  C172  1  0.40381603  0.81846663  0.91161846  1
  C  C173  1  0.90062196  0.82406636  0.91057810  1
  C  C174  1  0.49098412  0.15684963  0.59293855  1
  C  C175  1  0.98885051  0.15791256  0.59326240  1
  C  C176  1  0.09450837  0.01106704  0.59012566  1
  C  C177  1  0.59581342  0.01623809  0.58939692  1
  C  C178  1  0.41553849  0.80278044  0.59109896  1
  C  C179  1  0.91514974  0.80312601  0.59103538  1
  C  C180  1  0.48931845  0.82451391  0.09319922  1
  C  C181  1  0.99592946  0.82290158  0.09466682  1
  C  C182  1  0.41547846  0.02813146  0.09123019  1
  C  C183  1  0.92428410  0.02537936  0.09431567  1
  C  C184  1  0.09753213  0.18377206  0.08909515  1
  C  C185  1  0.59485319  0.17075241  0.09037389  1
  C  C186  1  0.34719763  0.15540846  0.74506129  1
  C  C187  1  0.85049257  0.15772299  0.74583483  1
  C  C188  1  0.24480245  0.30814934  0.74294878  1
  C  C189  1  0.74654457  0.31844360  0.74249032  1
  C  C190  1  0.42416319  0.53135705  0.74780932  1
  C  C191  1  0.92610120  0.53041807  0.74589687  1
  C  C192  1  0.34924455  0.54062201  0.24498844  1
  C  C193  1  0.84739348  0.53914140  0.24469528  1
  C  C194  1  0.42539714  0.31887524  0.24721051  1
  C  C195  1  0.92477321  0.31486639  0.24895368  1
  C  C196  1  0.24776952  0.17486079  0.24360318  1
  C  C197  1  0.74702514  0.17391950  0.24739743  1
  C  C198  1  0.31939779  0.50573490  0.91882381  1
  C  C199  1  0.81875797  0.50429390  0.91990337  1
  C  C200  1  0.43125473  0.35480204  0.92172944  1
  C  C201  1  0.92993339  0.35093860  0.91838574  1
  C  C202  1  0.24440157  0.14270723  0.92055520  1
  C  C203  1  0.74226312  0.13812070  0.91964516  1
  C  C204  1  0.31924179  0.13286543  0.41996938  1
  C  C205  1  0.81822094  0.13204921  0.41859422  1
  C  C206  1  0.24264788  0.34471334  0.42218566  1
  C  C207  1  0.74277860  0.34406031  0.42186424  1
  C  C208  1  0.43098804  0.50809833  0.42201599  1
  C  C209  1  0.93064367  0.50754304  0.42160073  1
  C  C210  1  0.17623651  0.48744243  0.07561488  1
  C  C211  1  0.67358555  0.48035241  0.07431564  1
  C  C212  1  0.07617392  0.63762674  0.07747196  1
  C  C213  1  0.57861674  0.66675267  0.07959825  1
  C  C214  1  0.26080643  0.86148555  0.07732258  1
  C  C215  1  0.75567851  0.83449262  0.07581022  1
  C  C216  1  0.17657780  0.86553035  0.57691289  1
  C  C217  1  0.67614651  0.86609064  0.57552696  1
  C  C218  1  0.26144809  0.66298896  0.57652725  1
  C  C219  1  0.76003104  0.65735480  0.57605986  1
  C  C220  1  0.08060432  0.50277023  0.57955346  1
  C  C221  1  0.58353545  0.49529691  0.57991752  1
  C  C222  1  0.15061671  0.81818241  0.25168606  1
  C  C223  1  0.65436400  0.82520388  0.25137905  1
  C  C224  1  0.26598838  0.68834425  0.25397882  1
  C  C225  1  0.76776138  0.69481637  0.25466322  1
  C  C226  1  0.08119172  0.46372190  0.25678689  1
  C  C227  1  0.58101792  0.46360525  0.25435417  1
  C  C228  1  0.15068807  0.48204308  0.75265605  1
  C  C229  1  0.64874883  0.47887115  0.74962515  1
  C  C230  1  0.08190519  0.70376312  0.75537726  1
  C  C231  1  0.58007955  0.69807038  0.75475151  1
  C  C232  1  0.26395335  0.84634825  0.75432220  1
  C  C233  1  0.76709020  0.84397632  0.75443016  1
