# generated using pymatgen
data_Cu9NiC50
_symmetry_space_group_name_H-M   'P 1'
_cell_length_a   9.10505830
_cell_length_b   27.28675298
_cell_length_c   22.53530132
_cell_angle_alpha   90.03783000
_cell_angle_beta   89.99386070
_cell_angle_gamma   120.06003918
_symmetry_Int_Tables_number   1
_chemical_formula_structural   Cu9NiC50
_chemical_formula_sum   'Cu54 Ni6 C300'
_cell_volume   4845.79925077
_cell_formula_units_Z   6
loop_
 _symmetry_equiv_pos_site_id
 _symmetry_equiv_pos_as_xyz
  1  'x, y, z'
loop_
 _atom_site_type_symbol
 _atom_site_label
 _atom_site_symmetry_multiplicity
 _atom_site_fract_x
 _atom_site_fract_y
 _atom_site_fract_z
 _atom_site_occupancy
  C  C0  1  0.00103382  0.00066900  0.49491667  1
  C  C1  1  0.99275708  0.33079209  0.49810190  1
  C  C2  1  0.00380717  0.66793538  0.50548891  1
  C  C3  1  0.99066826  0.99756390  0.99786423  1
  C  C4  1  0.99916234  0.33052523  0.99854377  1
  C  C5  1  0.00813682  0.66809260  0.00843385  1
  C  C6  1  0.66627485  0.11053957  0.82949149  1
  C  C7  1  0.66779083  0.44234112  0.83833231  1
  C  C8  1  0.66615214  0.78411955  0.83490423  1
  C  C9  1  0.66490121  0.11023917  0.32831863  1
  C  C10  1  0.66071353  0.44309180  0.33876868  1
  C  C11  1  0.67733876  0.78085167  0.33536103  1
  C  C12  1  0.33954730  0.22429135  0.16836220  1
  C  C13  1  0.33735232  0.55379768  0.16876368  1
  C  C14  1  0.33397041  0.88906602  0.16678427  1
  C  C15  1  0.33381055  0.22461800  0.66843777  1
  C  C16  1  0.32474729  0.55366822  0.66678618  1
  C  C17  1  0.34105676  0.88853044  0.66849670  1
  C  C18  1  0.62882652  0.00598985  0.24445151  1
  C  C19  1  0.64159340  0.66551056  0.24796979  1
  C  C20  1  0.38519075  0.12197631  0.24403621  1
  C  C21  1  0.35677807  0.78666050  0.24727113  1
  C  C22  1  0.98030929  0.20307999  0.24388360  1
  C  C23  1  0.00331882  0.54796529  0.24707993  1
  C  C24  1  0.62977887  0.20353587  0.74397787  1
  C  C25  1  0.63933099  0.54740771  0.74593078  1
  C  C26  1  0.98064399  0.12252227  0.74514150  1
  C  C27  1  0.00380782  0.78738612  0.74735262  1
  C  C28  1  0.38943388  0.00614177  0.74503190  1
  C  C29  1  0.35502989  0.66518469  0.74687215  1
  C  C30  1  0.31174783  0.11176920  0.58516018  1
  C  C31  1  0.31256775  0.44405858  0.57968944  1
  C  C32  1  0.27565714  0.77099566  0.58916703  1
  C  C33  1  0.02444448  0.22909002  0.58629249  1
  C  C34  1  0.02652013  0.57240798  0.58676653  1
  C  C35  1  0.03140234  0.89986176  0.58190423  1
  C  C36  1  0.66996676  0.32597575  0.57929149  1
  C  C37  1  0.68617704  0.65459633  0.59000102  1
  C  C38  1  0.66275239  0.99207775  0.58553528  1
  C  C39  1  0.30735671  0.32557983  0.07966008  1
  C  C40  1  0.27936235  0.65536666  0.09186475  1
  C  C41  1  0.31023072  0.99155554  0.08593221  1
  C  C42  1  0.66243768  0.22858809  0.08645376  1
  C  C43  1  0.69101645  0.57270445  0.08841692  1
  C  C44  1  0.02472873  0.11147957  0.08649784  1
  C  C45  1  0.01808086  0.44358036  0.08059336  1
  C  C46  1  0.03945230  0.77202991  0.08956545  1
  C  C47  1  0.94234795  0.54914463  0.92438677  1
  C  C48  1  0.70145220  0.35097945  0.92294294  1
  C  C49  1  0.70264935  0.67885144  0.91786524  1
  C  C50  1  0.35152072  0.43221143  0.92263778  1
  C  C51  1  0.94680052  0.43307620  0.42250889  1
  C  C52  1  0.35194061  0.35132195  0.42267124  1
  C  C53  1  0.70705838  0.55003370  0.42304111  1
  C  C54  1  0.99905362  0.99922848  0.35602061  1
  C  C55  1  0.99753658  0.33253258  0.35441494  1
  C  C56  1  0.00449908  0.66842741  0.35453619  1
  C  C57  1  0.00011330  0.99948661  0.85699925  1
  C  C58  1  0.99938069  0.33223681  0.85462930  1
  C  C59  1  0.00551175  0.66853321  0.85354023  1
  C  C60  1  0.99846914  0.00055716  0.64733390  1
  C  C61  1  0.00147261  0.33322036  0.64800448  1
  C  C62  1  0.99644313  0.99878100  0.14612508  1
  C  C63  1  0.99792156  0.33313304  0.14810852  1
  C  C64  1  0.66671041  0.44370228  0.68718346  1
  C  C65  1  0.66615824  0.77891995  0.68782751  1
  C  C66  1  0.66449201  0.44390826  0.18759872  1
  C  C67  1  0.67029566  0.77926281  0.18784609  1
  C  C68  1  0.66645433  0.11019192  0.97790533  1
  C  C69  1  0.66840859  0.78106539  0.97823204  1
  C  C70  1  0.66473923  0.11062684  0.47732081  1
  C  C71  1  0.66725882  0.77804988  0.47599167  1
  C  C72  1  0.32988161  0.22157648  0.01842402  1
  C  C73  1  0.33207325  0.55581943  0.02141884  1
  C  C74  1  0.34051262  0.88901668  0.02011072  1
  C  C75  1  0.33554729  0.22183764  0.51819146  1
  C  C76  1  0.33443972  0.55618792  0.52023150  1
  C  C77  1  0.33035920  0.88857595  0.51804521  1
  C  C78  1  0.33478517  0.22215905  0.31229218  1
  C  C79  1  0.33567513  0.55483481  0.31323409  1
  C  C80  1  0.32752970  0.88956863  0.31317762  1
  C  C81  1  0.33188880  0.22240355  0.81261646  1
  C  C82  1  0.32764013  0.55384820  0.81263126  1
  C  C83  1  0.34117040  0.88999641  0.81380274  1
  Ni  Ni84  1  0.99826139  0.66575136  0.65005857  1
  Ni  Ni85  1  0.00045493  0.66619235  0.15088461  1
  Ni  Ni86  1  0.66717033  0.11091520  0.68369758  1
  Ni  Ni87  1  0.66510973  0.11057926  0.18349328  1
  Ni  Ni88  1  0.66396077  0.44297839  0.98351452  1
  Ni  Ni89  1  0.66686996  0.44369219  0.48286485  1
  Cu  Cu90  1  0.28805766  0.99928992  0.25061566  1
  Cu  Cu91  1  0.29176646  0.33384945  0.25093628  1
  Cu  Cu92  1  0.29077196  0.66637223  0.24800117  1
  Cu  Cu93  1  0.70562250  0.23577618  0.25066888  1
  Cu  Cu94  1  0.71105421  0.57030235  0.24807490  1
  Cu  Cu95  1  0.71041103  0.90365795  0.25144690  1
  Cu  Cu96  1  0.99957648  0.09621131  0.25083276  1
  Cu  Cu97  1  0.99917647  0.43028283  0.25099461  1
  Cu  Cu98  1  0.00139105  0.76352028  0.24732211  1
  Cu  Cu99  1  0.29114855  0.09673963  0.75175972  1
  Cu  Cu100  1  0.29140387  0.42982791  0.75116339  1
  Cu  Cu101  1  0.29013927  0.76440260  0.74654545  1
  Cu  Cu102  1  0.00178300  0.23582018  0.75059310  1
  Cu  Cu103  1  0.99923106  0.56998837  0.74777397  1
  Cu  Cu104  1  0.00068424  0.90385629  0.75080460  1
  Cu  Cu105  1  0.70893912  0.99944421  0.75183418  1
  Cu  Cu106  1  0.70988774  0.33395123  0.75098371  1
  Cu  Cu107  1  0.70853503  0.66628222  0.74828560  1
  Cu  Cu108  1  0.95581543  0.11166951  0.58504345  1
  Cu  Cu109  1  0.95564752  0.44432381  0.58108325  1
  Cu  Cu110  1  0.95646978  0.77772680  0.58224137  1
  Cu  Cu111  1  0.37867968  0.01480858  0.58555145  1
  Cu  Cu112  1  0.37524879  0.34730532  0.58082504  1
  Cu  Cu113  1  0.37788112  0.68159870  0.58232704  1
  Cu  Cu114  1  0.66604219  0.20713846  0.58540018  1
  Cu  Cu115  1  0.67058934  0.54173076  0.58045649  1
  Cu  Cu116  1  0.66352427  0.87386610  0.58217696  1
  Cu  Cu117  1  0.95534928  0.20715109  0.08527617  1
  Cu  Cu118  1  0.95316423  0.54151177  0.08037899  1
  Cu  Cu119  1  0.95873951  0.87487718  0.08296937  1
  Cu  Cu120  1  0.66595732  0.01451448  0.08567637  1
  Cu  Cu121  1  0.66664888  0.34731420  0.08097201  1
  Cu  Cu122  1  0.66725885  0.68189744  0.08172750  1
  Cu  Cu123  1  0.37831800  0.11141170  0.08509895  1
  Cu  Cu124  1  0.37758580  0.44411939  0.08093271  1
  Cu  Cu125  1  0.37836783  0.77906415  0.08337150  1
  Cu  Cu126  1  0.62234486  0.22091005  0.91595041  1
  Cu  Cu127  1  0.62527066  0.55561928  0.91581274  1
  Cu  Cu128  1  0.62681957  0.88939326  0.91653347  1
  Cu  Cu129  1  0.04000640  0.12456055  0.91551480  1
  Cu  Cu130  1  0.04021786  0.45743221  0.91745805  1
  Cu  Cu131  1  0.04531950  0.79346008  0.91613613  1
  Cu  Cu132  1  0.33131765  0.31937596  0.91618218  1
  Cu  Cu133  1  0.33223348  0.65277688  0.91639433  1
  Cu  Cu134  1  0.33291561  0.98545457  0.91758252  1
  Cu  Cu135  1  0.62692609  0.31943343  0.41581201  1
  Cu  Cu136  1  0.62552648  0.65286734  0.41606654  1
  Cu  Cu137  1  0.62513034  0.98594226  0.41640581  1
  Cu  Cu138  1  0.33289234  0.12449240  0.41545244  1
  Cu  Cu139  1  0.33260854  0.45766844  0.41730156  1
  Cu  Cu140  1  0.33397470  0.79251551  0.41527716  1
  Cu  Cu141  1  0.04117730  0.22125687  0.41587221  1
  Cu  Cu142  1  0.04357654  0.55684213  0.41566954  1
  Cu  Cu143  1  0.03971744  0.88919680  0.41678169  1
  C  C144  1  0.18151065  0.00461220  0.30667573  1
  C  C145  1  0.19803496  0.34204424  0.30950545  1
  C  C146  1  0.19414536  0.67709964  0.30484566  1
  C  C147  1  0.83488533  0.27294717  0.30593028  1
  C  C148  1  0.83431276  0.60077444  0.30672863  1
  C  C149  1  0.82726413  0.93419783  0.30910434  1
  C  C150  1  0.98056464  0.05446865  0.30642978  1
  C  C151  1  0.97952208  0.39192813  0.30966289  1
  C  C152  1  0.96732820  0.72054456  0.30450269  1
  C  C153  1  0.18349891  0.05466333  0.80647099  1
  C  C154  1  0.19643285  0.39198726  0.80988431  1
  C  C155  1  0.19337825  0.72127701  0.80441470  1
  C  C156  1  0.98389128  0.27289889  0.80581058  1
  C  C157  1  0.96930420  0.60145589  0.80692497  1
  C  C158  1  0.97619859  0.93493932  0.80761824  1
  C  C159  1  0.83277326  0.00476235  0.80679279  1
  C  C160  1  0.82820193  0.34212556  0.80947567  1
  C  C161  1  0.83111222  0.67688254  0.80754919  1
  C  C162  1  0.80254196  0.32382432  0.69249801  1
  C  C163  1  0.77789123  0.65158198  0.69059301  1
  C  C164  1  0.80202328  0.99111727  0.69081417  1
  C  C165  1  0.16844664  0.06562355  0.69134881  1
  C  C166  1  0.17278067  0.39850976  0.69256829  1
  C  C167  1  0.17778599  0.74143102  0.68811456  1
  C  C168  1  0.02296397  0.27504163  0.69125360  1
  C  C169  1  0.05199152  0.60875874  0.69005422  1
  C  C170  1  0.02751075  0.94297071  0.69066424  1
  C  C171  1  0.80218542  0.27503976  0.19130813  1
  C  C172  1  0.77486877  0.60838193  0.18920942  1
  C  C173  1  0.80622290  0.94505371  0.19353922  1
  C  C174  1  0.03108789  0.06626454  0.19091456  1
  C  C175  1  0.02269945  0.39852410  0.19244335  1
  C  C176  1  0.04699121  0.74151100  0.18799582  1
  C  C177  1  0.16904730  0.32388088  0.19242654  1
  C  C178  1  0.17873911  0.65138056  0.18922254  1
  C  C179  1  0.17093216  0.99108969  0.19031099  1
  C  C180  1  0.89445857  0.12791253  0.64468374  1
  C  C181  1  0.85895295  0.45421436  0.63848562  1
  C  C182  1  0.86627206  0.78892674  0.64206610  1
  C  C183  1  0.48903136  0.03595091  0.64503831  1
  C  C184  1  0.50254993  0.37937526  0.63796352  1
  C  C185  1  0.50030262  0.71170833  0.64249960  1
  C  C186  1  0.61835325  0.17027390  0.64481704  1
  C  C187  1  0.63441958  0.49955275  0.64032374  1
  C  C188  1  0.63489545  0.83273731  0.64050857  1
  C  C189  1  0.89255165  0.17052751  0.14493631  1
  C  C190  1  0.86472489  0.49947721  0.13990808  1
  C  C191  1  0.86072937  0.83291558  0.13994796  1
  C  C192  1  0.61944449  0.03608315  0.14516392  1
  C  C193  1  0.63547492  0.37951059  0.13777363  1
  C  C194  1  0.63542906  0.71203084  0.14088776  1
  C  C195  1  0.49125134  0.12870943  0.14431818  1
  C  C196  1  0.50394026  0.45442791  0.13814786  1
  C  C197  1  0.49595236  0.78674976  0.14293362  1
  C  C198  1  0.47358479  0.10068254  0.02851390  1
  C  C199  1  0.43746298  0.42665556  0.02189567  1
  C  C200  1  0.48677728  0.77381486  0.02689674  1
  C  C201  1  0.82886929  0.17637055  0.02849196  1
  C  C202  1  0.84380297  0.51376934  0.02152187  1
  C  C203  1  0.84064448  0.84323880  0.02461737  1
  C  C204  1  0.69984023  0.05743469  0.02876660  1
  C  C205  1  0.71383581  0.38376585  0.02136161  1
  C  C206  1  0.68396862  0.72133869  0.02368972  1
  C  C207  1  0.47107201  0.05742120  0.52884644  1
  C  C208  1  0.43839812  0.38375548  0.52138175  1
  C  C209  1  0.48516916  0.72382277  0.52729452  1
  C  C210  1  0.70030912  0.17617381  0.52871141  1
  C  C211  1  0.69744048  0.51365901  0.52196026  1
  C  C212  1  0.69878085  0.84456722  0.52581855  1
  C  C213  1  0.82762027  0.09992200  0.52865648  1
  C  C214  1  0.84172134  0.42628314  0.52241751  1
  C  C215  1  0.83514477  0.77349276  0.52659655  1
  C  C216  1  0.53138658  0.23214070  0.97416726  1
  C  C217  1  0.52982501  0.56614024  0.97398872  1
  C  C218  1  0.52540664  0.89565732  0.97353693  1
  C  C219  1  0.16117290  0.15741719  0.97381666  1
  C  C220  1  0.16418616  0.48892072  0.97617023  1
  C  C221  1  0.16082157  0.82331520  0.97501334  1
  C  C222  1  0.31005844  0.28077437  0.97568325  1
  C  C223  1  0.30181370  0.61126284  0.97438577  1
  C  C224  1  0.30721914  0.94552177  0.97583637  1
  C  C225  1  0.53193119  0.28066790  0.47560439  1
  C  C226  1  0.53005722  0.61130807  0.47434139  1
  C  C227  1  0.52830234  0.94611283  0.47575820  1
  C  C228  1  0.31134779  0.15733424  0.47419302  1
  C  C229  1  0.30284876  0.48871112  0.47642580  1
  C  C230  1  0.30863114  0.82383023  0.47479095  1
  C  C231  1  0.16461296  0.23185867  0.47448595  1
  C  C232  1  0.16441846  0.56417101  0.47505825  1
  C  C233  1  0.15700929  0.89588229  0.47606385  1
  C  C234  1  0.13563722  0.21357617  0.35746343  1
  C  C235  1  0.14599772  0.55100970  0.35808000  1
  C  C236  1  0.14317935  0.88196305  0.36087751  1
  C  C237  1  0.49827648  0.28273192  0.36077183  1
  C  C238  1  0.50897565  0.62168791  0.35765840  1
  C  C239  1  0.50558642  0.95442440  0.35833547  1
  C  C240  1  0.35570777  0.16406540  0.35729333  1
  C  C241  1  0.34706172  0.49947887  0.36204157  1
  C  C242  1  0.36024244  0.83213933  0.35718569  1
  C  C243  1  0.13692976  0.16404089  0.85702057  1
  C  C244  1  0.15178507  0.49964104  0.86205419  1
  C  C245  1  0.13584326  0.83183020  0.85684488  1
  C  C246  1  0.34988245  0.28281526  0.86069237  1
  C  C247  1  0.36035155  0.62201538  0.85849037  1
  C  C248  1  0.35771416  0.95408245  0.85839591  1
  C  C249  1  0.50499128  0.21364843  0.85721169  1
  C  C250  1  0.50742542  0.55092763  0.85783753  1
  C  C251  1  0.50372003  0.88153468  0.85935742  1
  C  C252  1  0.03559256  0.28056645  0.41097561  1
  C  C253  1  0.02597059  0.61373106  0.41089203  1
  C  C254  1  0.02556150  0.94587652  0.41261838  1
  C  C255  1  0.81449758  0.32452017  0.41173200  1
  C  C256  1  0.80741196  0.65474620  0.41063734  1
  C  C257  1  0.81096665  0.99165883  0.41182694  1
  C  C258  1  0.16327605  0.06256896  0.41126578  1
  C  C259  1  0.15537105  0.39607649  0.41325294  1
  C  C260  1  0.16206699  0.73058624  0.40935261  1
  C  C261  1  0.02449606  0.06255267  0.91079127  1
  C  C262  1  0.03319770  0.39611463  0.91325610  1
  C  C263  1  0.02255963  0.72955620  0.90937246  1
  C  C264  1  0.15920654  0.32458886  0.91167176  1
  C  C265  1  0.15663536  0.65519286  0.91050755  1
  C  C266  1  0.16408721  0.99141476  0.91083411  1
  C  C267  1  0.80603362  0.28050055  0.91068824  1
  C  C268  1  0.81103873  0.61477144  0.91094958  1
  C  C269  1  0.81207622  0.94541765  0.91192172  1
  C  C270  1  0.97535028  0.05389103  0.58823748  1
  C  C271  1  0.98720590  0.38989684  0.59345161  1
  C  C272  1  0.97454464  0.72297586  0.58329861  1
  C  C273  1  0.18517268  0.00748053  0.58841081  1
  C  C274  1  0.18256522  0.33802670  0.59260950  1
  C  C275  1  0.19448017  0.67509981  0.58333701  1
  C  C276  1  0.83679004  0.27192610  0.58804212  1
  C  C277  1  0.83044910  0.60446878  0.58748354  1
  C  C278  1  0.83380715  0.93682143  0.58980461  1
  C  C279  1  0.97936185  0.27203785  0.08798251  1
  C  C280  1  0.98357933  0.60460149  0.08705308  1
  C  C281  1  0.98291183  0.93815068  0.08900182  1
  C  C282  1  0.84127983  0.01017020  0.08892938  1
  C  C283  1  0.83147418  0.33802330  0.09257364  1
  C  C284  1  0.83126452  0.67511307  0.08206868  1
  C  C285  1  0.18702828  0.05421473  0.08804473  1
  C  C286  1  0.18263900  0.39007556  0.09313227  1
  C  C287  1  0.19623500  0.72299412  0.08271072  1
  C  C288  1  0.69458440  0.05538503  0.74983785  1
  C  C289  1  0.69033601  0.38964277  0.74293226  1
  C  C290  1  0.69254338  0.72452404  0.74561017  1
  C  C291  1  0.47380261  0.10247810  0.74984292  1
  C  C292  1  0.48051379  0.43766150  0.74395905  1
  C  C293  1  0.47695899  0.76744676  0.74497871  1
  C  C294  1  0.83345032  0.17540247  0.75093349  1
  C  C295  1  0.82305108  0.50800504  0.74409263  1
  C  C296  1  0.83475386  0.83975092  0.74378711  1
  C  C297  1  0.69259201  0.17532038  0.25107113  1
  C  C298  1  0.70013825  0.50795458  0.24317009  1
  C  C299  1  0.68428622  0.83983412  0.24375403  1
  C  C300  1  0.83416154  0.10236314  0.24992666  1
  C  C301  1  0.83217938  0.43749500  0.24366161  1
  C  C302  1  0.82530560  0.76741880  0.24409371  1
  C  C303  1  0.47127533  0.05537355  0.24979507  1
  C  C304  1  0.47841023  0.38961305  0.24277209  1
  C  C305  1  0.48142543  0.72418938  0.24565985  1
  C  C306  1  0.64183014  0.16555605  0.92354396  1
  C  C307  1  0.63991403  0.50004584  0.91647447  1
  C  C308  1  0.64145689  0.83213572  0.92091742  1
  C  C309  1  0.85619991  0.12023498  0.92352908  1
  C  C310  1  0.85880797  0.45238333  0.91579498  1
  C  C311  1  0.85185715  0.78318405  0.92125574  1
  C  C312  1  0.50399816  0.04754944  0.92428308  1
  C  C313  1  0.49954200  0.38008972  0.91579554  1
  C  C314  1  0.50500237  0.71403932  0.92223989  1
  C  C315  1  0.63874800  0.04778833  0.42465258  1
  C  C316  1  0.64085698  0.38009377  0.41581332  1
  C  C317  1  0.64381871  0.71509559  0.42298643  1
  C  C318  1  0.50458813  0.12027359  0.42402300  1
  C  C319  1  0.49864928  0.45238012  0.41590661  1
  C  C320  1  0.50237191  0.78651566  0.42340155  1
  C  C321  1  0.85506913  0.16558833  0.42405077  1
  C  C322  1  0.86181192  0.50012460  0.41663386  1
  C  C323  1  0.85462631  0.83220908  0.42141872  1
  C  C324  1  0.34750717  0.16616029  0.07341898  1
  C  C325  1  0.36269318  0.50240955  0.07841793  1
  C  C326  1  0.35811368  0.83565576  0.07852455  1
  C  C327  1  0.14986741  0.21730084  0.07421704  1
  C  C328  1  0.14466777  0.54483725  0.07769303  1
  C  C329  1  0.14573273  0.88008316  0.07924588  1
  C  C330  1  0.49549453  0.28328098  0.07935392  1
  C  C331  1  0.48920345  0.61925860  0.07749945  1
  C  C332  1  0.49712159  0.95169374  0.07340507  1
  C  C333  1  0.35399984  0.28317435  0.57945432  1
  C  C334  1  0.36936563  0.61942529  0.57801608  1
  C  C335  1  0.35021854  0.95039432  0.57431327  1
  C  C336  1  0.50215428  0.21729495  0.57429879  1
  C  C337  1  0.48963334  0.54500259  0.57824767  1
  C  C338  1  0.49457614  0.88070183  0.57914848  1
  C  C339  1  0.15109413  0.16575608  0.57369126  1
  C  C340  1  0.14502175  0.50229813  0.57924797  1
  C  C341  1  0.14503333  0.83673801  0.57866212  1
  C  C342  1  0.29683360  0.27463491  0.25566407  1
  C  C343  1  0.32119627  0.61198994  0.25787694  1
  C  C344  1  0.30925968  0.94251437  0.25503796  1
  C  C345  1  0.51870269  0.23103051  0.25480951  1
  C  C346  1  0.52030215  0.56200713  0.25978866  1
  C  C347  1  0.52145617  0.89760218  0.25428876  1
  C  C348  1  0.17642213  0.15856587  0.25448842  1
  C  C349  1  0.16460916  0.49453692  0.25465503  1
  C  C350  1  0.16946728  0.82617278  0.25986620  1
  C  C351  1  0.29905661  0.15854452  0.75394680  1
  C  C352  1  0.31832863  0.49432352  0.75482469  1
  C  C353  1  0.30933281  0.82664683  0.75924585  1
  C  C354  1  0.17439588  0.23098553  0.75476421  1
  C  C355  1  0.16531662  0.56215523  0.76093409  1
  C  C356  1  0.17129427  0.89759571  0.75362111  1
  C  C357  1  0.52692131  0.27467957  0.75563982  1
  C  C358  1  0.51407569  0.61208722  0.75794022  1
  C  C359  1  0.51776776  0.94250270  0.75472404  1
