# generated using pymatgen
data_Cu3NiC2
_symmetry_space_group_name_H-M   'P 1'
_cell_length_a   8.37821300
_cell_length_b   13.36754500
_cell_length_c   26.28344000
_cell_angle_alpha   90.00000000
_cell_angle_beta   90.00000000
_cell_angle_gamma   90.00000000
_symmetry_Int_Tables_number   1
_chemical_formula_structural   Cu3NiC2
_chemical_formula_sum   'Cu48 Ni16 C32'
_cell_volume   2943.64380745
_cell_formula_units_Z   16
loop_
 _symmetry_equiv_pos_site_id
 _symmetry_equiv_pos_as_xyz
  1  'x, y, z'
loop_
 _atom_site_type_symbol
 _atom_site_label
 _atom_site_symmetry_multiplicity
 _atom_site_fract_x
 _atom_site_fract_y
 _atom_site_fract_z
 _atom_site_occupancy
  C  C0  1  0.58923000  0.29739400  0.37375500  1
  C  C1  1  0.08923000  0.70260600  0.12624500  1
  C  C2  1  0.91077000  0.79739400  0.62624500  1
  C  C3  1  0.41077000  0.20260600  0.87375500  1
  C  C4  1  0.41077000  0.70260600  0.62624500  1
  C  C5  1  0.91077000  0.29739400  0.87375500  1
  C  C6  1  0.08923000  0.20260600  0.37375500  1
  C  C7  1  0.58923000  0.79739400  0.12624500  1
  C  C8  1  0.77806300  0.44527600  0.43734800  1
  C  C9  1  0.27806300  0.55472400  0.06265200  1
  C  C10  1  0.72193700  0.94527600  0.56265200  1
  C  C11  1  0.22193700  0.05472400  0.93734800  1
  C  C12  1  0.22193700  0.55472400  0.56265200  1
  C  C13  1  0.72193700  0.44527600  0.93734800  1
  C  C14  1  0.27806300  0.05472400  0.43734800  1
  C  C15  1  0.77806300  0.94527600  0.06265200  1
  C  C16  1  0.77740400  0.90346900  0.30441700  1
  C  C17  1  0.27740400  0.09653100  0.19558300  1
  C  C18  1  0.72259600  0.40346900  0.69558300  1
  C  C19  1  0.22259600  0.59653100  0.80441700  1
  C  C20  1  0.22259600  0.09653100  0.69558300  1
  C  C21  1  0.72259600  0.90346900  0.80441700  1
  C  C22  1  0.27740400  0.59653100  0.30441700  1
  C  C23  1  0.77740400  0.40346900  0.19558300  1
  C  C24  1  0.93475800  0.80911300  0.39617000  1
  C  C25  1  0.43475800  0.19088700  0.10383000  1
  C  C26  1  0.56524200  0.30911300  0.60383000  1
  C  C27  1  0.06524200  0.69088700  0.89617000  1
  C  C28  1  0.06524200  0.19088700  0.60383000  1
  C  C29  1  0.56524200  0.80911300  0.89617000  1
  C  C30  1  0.43475800  0.69088700  0.39617000  1
  C  C31  1  0.93475800  0.30911300  0.10383000  1
  Ni  Ni32  1  0.77519100  0.35182800  0.38975000  1
  Ni  Ni33  1  0.27519100  0.64817200  0.11025000  1
  Ni  Ni34  1  0.72480900  0.85182800  0.61025000  1
  Ni  Ni35  1  0.22480900  0.14817200  0.88975000  1
  Ni  Ni36  1  0.22480900  0.64817200  0.61025000  1
  Ni  Ni37  1  0.72480900  0.35182800  0.88975000  1
  Ni  Ni38  1  0.27519100  0.14817200  0.38975000  1
  Ni  Ni39  1  0.77519100  0.85182800  0.11025000  1
  Ni  Ni40  1  0.75832800  0.83562700  0.36176300  1
  Ni  Ni41  1  0.25832800  0.16437300  0.13823700  1
  Ni  Ni42  1  0.74167200  0.33562700  0.63823700  1
  Ni  Ni43  1  0.24167200  0.66437300  0.86176300  1
  Ni  Ni44  1  0.24167200  0.16437300  0.63823700  1
  Ni  Ni45  1  0.74167200  0.83562700  0.86176300  1
  Ni  Ni46  1  0.25832800  0.66437300  0.36176300  1
  Ni  Ni47  1  0.75832800  0.33562700  0.13823700  1
  Cu  Cu48  1  0.51456400  0.89964700  0.28742900  1
  Cu  Cu49  1  0.29699000  0.77343800  0.45866600  1
  Cu  Cu50  1  0.70301000  0.72656200  0.95866600  1
  Cu  Cu51  1  0.20301000  0.27343800  0.54133400  1
  Cu  Cu52  1  0.20301000  0.77343800  0.95866600  1
  Cu  Cu53  1  0.70301000  0.22656200  0.54133400  1
  Cu  Cu54  1  0.29699000  0.27343800  0.04133400  1
  Cu  Cu55  1  0.79699000  0.72656200  0.45866600  1
  Cu  Cu56  1  0.04211100  0.97018400  0.06996500  1
  Cu  Cu57  1  0.01456400  0.60035300  0.28742900  1
  Cu  Cu58  1  0.98543600  0.89964700  0.78742900  1
  Cu  Cu59  1  0.48543600  0.10035300  0.71257100  1
  Cu  Cu60  1  0.48543600  0.60035300  0.78742900  1
  Cu  Cu61  1  0.98543600  0.39964700  0.71257100  1
  Cu  Cu62  1  0.01456400  0.10035300  0.21257100  1
  Cu  Cu63  1  0.79699000  0.22656200  0.04133400  1
  Cu  Cu64  1  0.08178200  0.40443500  0.17361300  1
  Cu  Cu65  1  0.58178200  0.59556500  0.32638700  1
  Cu  Cu66  1  0.41821800  0.90443500  0.82638700  1
  Cu  Cu67  1  0.91821800  0.09556500  0.67361300  1
  Cu  Cu68  1  0.91821800  0.59556500  0.82638700  1
  Cu  Cu69  1  0.41821800  0.40443500  0.67361300  1
  Cu  Cu70  1  0.58178200  0.09556500  0.17361300  1
  Cu  Cu71  1  0.08178200  0.90443500  0.32638700  1
  Cu  Cu72  1  0.47041700  0.91281800  0.05759500  1
  Cu  Cu73  1  0.97041700  0.08718200  0.44240500  1
  Cu  Cu74  1  0.02958300  0.41281800  0.94240500  1
  Cu  Cu75  1  0.52958300  0.58718200  0.55759500  1
  Cu  Cu76  1  0.52958300  0.08718200  0.94240500  1
  Cu  Cu77  1  0.02958300  0.91281800  0.55759500  1
  Cu  Cu78  1  0.97041700  0.58718200  0.05759500  1
  Cu  Cu79  1  0.47041700  0.41281800  0.44240500  1
  Cu  Cu80  1  0.69992000  0.19939000  0.31274600  1
  Cu  Cu81  1  0.19992000  0.80061000  0.18725400  1
  Cu  Cu82  1  0.80008000  0.69939000  0.68725400  1
  Cu  Cu83  1  0.30008000  0.30061000  0.81274600  1
  Cu  Cu84  1  0.30008000  0.80061000  0.68725400  1
  Cu  Cu85  1  0.80008000  0.19939000  0.81274600  1
  Cu  Cu86  1  0.19992000  0.30061000  0.31274600  1
  Cu  Cu87  1  0.69992000  0.69939000  0.18725400  1
  Cu  Cu88  1  0.04211100  0.47018400  0.43003500  1
  Cu  Cu89  1  0.54211100  0.52981600  0.06996500  1
  Cu  Cu90  1  0.45788900  0.97018400  0.56996500  1
  Cu  Cu91  1  0.95788900  0.02981600  0.93003500  1
  Cu  Cu92  1  0.95788900  0.52981600  0.56996500  1
  Cu  Cu93  1  0.45788900  0.47018400  0.93003500  1
  Cu  Cu94  1  0.54211100  0.02981600  0.43003500  1
  Cu  Cu95  1  0.51456400  0.39964700  0.21257100  1
