# generated using pymatgen
data_Cu12NiC20
_symmetry_space_group_name_H-M   'P 1'
_cell_length_a   8.86849331
_cell_length_b   8.86849331
_cell_length_c   8.86849331
_cell_angle_alpha   109.47122063
_cell_angle_beta   109.47122063
_cell_angle_gamma   109.47122063
_symmetry_Int_Tables_number   1
_chemical_formula_structural   Cu12NiC20
_chemical_formula_sum   'Cu12 Ni1 C20'
_cell_volume   536.94232319
_cell_formula_units_Z   1
loop_
 _symmetry_equiv_pos_site_id
 _symmetry_equiv_pos_as_xyz
  1  'x, y, z'
loop_
 _atom_site_type_symbol
 _atom_site_label
 _atom_site_symmetry_multiplicity
 _atom_site_fract_x
 _atom_site_fract_y
 _atom_site_fract_z
 _atom_site_occupancy
  Ni  Ni0  1  0.00000000  0.00000000  0.00000000  1
  Cu  Cu1  1  0.14079600  0.30550500  0.81359900  1
  Cu  Cu2  1  0.50809400  0.69449500  0.83529000  1
  Cu  Cu3  1  0.85920400  0.67280300  0.16471000  1
  Cu  Cu4  1  0.49190600  0.32719700  0.18640100  1
  Cu  Cu5  1  0.69449500  0.83529000  0.50809400  1
  Cu  Cu6  1  0.67280300  0.16471000  0.85920400  1
  Cu  Cu7  1  0.30550500  0.81359900  0.14079600  1
  Cu  Cu8  1  0.32719700  0.18640100  0.49190600  1
  Cu  Cu9  1  0.16471000  0.85920400  0.67280300  1
  Cu  Cu10  1  0.81359900  0.14079600  0.30550500  1
  Cu  Cu11  1  0.83529000  0.50809400  0.69449500  1
  Cu  Cu12  1  0.18640100  0.49190600  0.32719700  1
  C  C13  1  0.23683400  0.35673300  0.61779600  1
  C  C14  1  0.26106300  0.64326700  0.88010100  1
  C  C15  1  0.76316600  0.38096200  0.11989900  1
  C  C16  1  0.73893700  0.61903800  0.38220400  1
  C  C17  1  0.00000000  0.00000000  0.21354000  1
  C  C18  1  0.21354000  0.00000000  0.00000000  1
  C  C19  1  0.00000000  0.21354000  0.00000000  1
  C  C20  1  0.78646000  0.78646000  0.78646000  1
  C  C21  1  0.00000000  0.00000000  0.61623000  1
  C  C22  1  0.61623000  0.00000000  0.00000000  1
  C  C23  1  0.00000000  0.61623000  0.00000000  1
  C  C24  1  0.38377000  0.38377000  0.38377000  1
  C  C25  1  0.38220400  0.73893700  0.61903800  1
  C  C26  1  0.61903800  0.38220400  0.73893700  1
  C  C27  1  0.35673300  0.61779600  0.23683400  1
  C  C28  1  0.38096200  0.11989900  0.76316600  1
  C  C29  1  0.64326700  0.88010100  0.26106300  1
  C  C30  1  0.11989900  0.76316600  0.38096200  1
  C  C31  1  0.61779600  0.23683400  0.35673300  1
  C  C32  1  0.88010100  0.26106300  0.64326700  1
