# generated using pymatgen
data_Cu6Ni6C5
_symmetry_space_group_name_H-M   'P 1'
_cell_length_a   5.23948359
_cell_length_b   9.18886827
_cell_length_c   5.41122207
_cell_angle_alpha   96.02239906
_cell_angle_beta   118.21868405
_cell_angle_gamma   84.93889047
_symmetry_Int_Tables_number   1
_chemical_formula_structural   Cu6Ni6C5
_chemical_formula_sum   'Cu6 Ni6 C5'
_cell_volume   228.07090418
_cell_formula_units_Z   1
loop_
 _symmetry_equiv_pos_site_id
 _symmetry_equiv_pos_as_xyz
  1  'x, y, z'
loop_
 _atom_site_type_symbol
 _atom_site_label
 _atom_site_symmetry_multiplicity
 _atom_site_fract_x
 _atom_site_fract_y
 _atom_site_fract_z
 _atom_site_occupancy
  C  C0  1  0.98431138  0.32149157  0.10993919  1
  C  C1  1  0.00414826  0.98534561  0.96265823  1
  C  C2  1  0.71648648  0.75751765  0.27016367  1
  C  C3  1  0.45626501  0.54897339  0.62702401  1
  C  C4  1  0.33672249  0.19772076  0.71219020  1
  Ni  Ni5  1  0.89322242  0.85144280  0.09063616  1
  Ni  Ni6  1  0.29611743  0.36187608  0.50454575  1
  Ni  Ni7  1  0.58539736  0.66526101  0.44954265  1
  Ni  Ni8  1  0.11118080  0.16311902  0.88759770  1
  Ni  Ni9  1  0.47381802  0.64680242  0.91665040  1
  Ni  Ni10  1  0.59950786  0.06728756  0.75626170  1
  Cu  Cu11  1  0.04583641  0.60691969  0.35163745  1
  Cu  Cu12  1  0.04072060  0.12286398  0.31890619  1
  Cu  Cu13  1  0.42354660  0.92190799  0.17132678  1
  Cu  Cu14  1  0.58325587  0.32024120  0.05119449  1
  Cu  Cu15  1  0.98014138  0.87778713  0.62489700  1
  Cu  Cu16  1  0.84432363  0.45487014  0.80732742  1
