# generated using pymatgen
data_CuNiC11
_symmetry_space_group_name_H-M   'P 1'
_cell_length_a   4.89170517
_cell_length_b   8.27563288
_cell_length_c   9.01590368
_cell_angle_alpha   139.15752294
_cell_angle_beta   109.46175009
_cell_angle_gamma   93.50669383
_symmetry_Int_Tables_number   1
_chemical_formula_structural   CuNiC11
_chemical_formula_sum   'Cu1 Ni1 C11'
_cell_volume   193.85631087
_cell_formula_units_Z   1
loop_
 _symmetry_equiv_pos_site_id
 _symmetry_equiv_pos_as_xyz
  1  'x, y, z'
loop_
 _atom_site_type_symbol
 _atom_site_label
 _atom_site_symmetry_multiplicity
 _atom_site_fract_x
 _atom_site_fract_y
 _atom_site_fract_z
 _atom_site_occupancy
  C  C0  1  0.52896200  0.80009800  0.76314100  1
  Ni  Ni1  1  0.60627300  0.71632000  0.08718400  1
  Cu  Cu2  1  0.19236500  0.27459600  0.15078600  1
  C  C3  1  0.88691400  0.36773000  0.61539800  1
  C  C4  1  0.32964500  0.06105400  0.56707500  1
  C  C5  1  0.32103600  0.68845100  0.85279200  1
  C  C6  1  0.61537000  0.45653900  0.50030100  1
  C  C7  1  0.23435600  0.35334500  0.82893500  1
  C  C8  1  0.49495400  0.95459400  0.35032900  1
  C  C9  1  0.56184000  0.02673800  0.73784300  1
  C  C10  1  0.92159000  0.74285400  0.30726700  1
  C  C11  1  0.97116800  0.07719700  0.34230500  1
  C  C12  1  0.70652700  0.45898300  0.82131000  1
