# generated using pymatgen
data_Cu(NiC2)2
_symmetry_space_group_name_H-M   'P 1'
_cell_length_a   12.16019700
_cell_length_b   6.40119700
_cell_length_c   7.33558269
_cell_angle_alpha   67.20432632
_cell_angle_beta   90.00000000
_cell_angle_gamma   90.00000000
_symmetry_Int_Tables_number   1
_chemical_formula_structural   Cu(NiC2)2
_chemical_formula_sum   'Cu4 Ni8 C16'
_cell_volume   526.40094456
_cell_formula_units_Z   4
loop_
 _symmetry_equiv_pos_site_id
 _symmetry_equiv_pos_as_xyz
  1  'x, y, z'
loop_
 _atom_site_type_symbol
 _atom_site_label
 _atom_site_symmetry_multiplicity
 _atom_site_fract_x
 _atom_site_fract_y
 _atom_site_fract_z
 _atom_site_occupancy
  Ni  Ni0  1  0.91597800  0.29837800  0.29179400  1
  Ni  Ni1  1  0.41597800  0.20162200  0.70820600  1
  Ni  Ni2  1  0.08402200  0.70162200  0.70820600  1
  Ni  Ni3  1  0.58402200  0.79837800  0.29179400  1
  Ni  Ni4  1  0.85874100  0.48597900  0.62957400  1
  Ni  Ni5  1  0.35874100  0.01402100  0.37042600  1
  Ni  Ni6  1  0.14125900  0.51402100  0.37042600  1
  Ni  Ni7  1  0.64125900  0.98597900  0.62957400  1
  Cu  Cu8  1  0.65809200  0.40299500  0.01590900  1
  Cu  Cu9  1  0.15809200  0.09700500  0.98409100  1
  Cu  Cu10  1  0.34190800  0.59700500  0.98409100  1
  Cu  Cu11  1  0.84190800  0.90299500  0.01590900  1
  C  C12  1  0.91005900  0.25810600  0.55318500  1
  C  C13  1  0.41005900  0.24189400  0.44681500  1
  C  C14  1  0.08994100  0.74189400  0.44681500  1
  C  C15  1  0.58994100  0.75810600  0.55318500  1
  C  C16  1  0.97866200  0.47507900  0.78897700  1
  C  C17  1  0.47866200  0.02492100  0.21102300  1
  C  C18  1  0.02133800  0.52492100  0.21102300  1
  C  C19  1  0.52133800  0.97507900  0.78897700  1
  C  C20  1  0.80163600  0.48011200  0.19296600  1
  C  C21  1  0.30163600  0.01988800  0.80703400  1
  C  C22  1  0.19836400  0.51988800  0.80703400  1
  C  C23  1  0.69836400  0.98011200  0.19296600  1
  C  C24  1  0.72428700  0.79711400  0.82173900  1
  C  C25  1  0.22428700  0.70288600  0.17826100  1
  C  C26  1  0.27571300  0.20288600  0.17826100  1
  C  C27  1  0.77571300  0.29711400  0.82173900  1
