# generated using pymatgen
data_Cu2Ni2C9
_symmetry_space_group_name_H-M   'P 1'
_cell_length_a   3.33310800
_cell_length_b   3.33309920
_cell_length_c   38.11073100
_cell_angle_alpha   89.99954785
_cell_angle_beta   89.99989281
_cell_angle_gamma   120.00036379
_symmetry_Int_Tables_number   1
_chemical_formula_structural   Cu2Ni2C9
_chemical_formula_sum   'Cu2 Ni2 C9'
_cell_volume   366.66878897
_cell_formula_units_Z   1
loop_
 _symmetry_equiv_pos_site_id
 _symmetry_equiv_pos_as_xyz
  1  'x, y, z'
loop_
 _atom_site_type_symbol
 _atom_site_label
 _atom_site_symmetry_multiplicity
 _atom_site_fract_x
 _atom_site_fract_y
 _atom_site_fract_z
 _atom_site_occupancy
  C  C0  1  0.24902600  0.74067000  0.86002800  1
  C  C1  1  0.66664400  0.33328800  0.04400300  1
  C  C2  1  0.66665900  0.33331600  0.14374200  1
  Ni  Ni3  1  0.33331300  0.66661900  0.09383200  1
  Ni  Ni4  1  0.66669600  0.33339300  0.28183300  1
  Cu  Cu5  1  0.33330500  0.66660800  0.46969200  1
  Cu  Cu6  1  0.66668900  0.33338200  0.65755500  1
  C  C7  1  0.33335200  0.66670700  0.32562100  1
  C  C8  1  0.66664600  0.33328700  0.42564300  1
  C  C9  1  0.66663900  0.33328100  0.51373400  1
  C  C10  1  0.33335600  0.66671200  0.23800600  1
  C  C11  1  0.33335300  0.66670800  0.69753800  1
  C  C12  1  0.33335000  0.66670100  0.61754500  1
