# generated using pymatgen
data_Cu2NiC6
_symmetry_space_group_name_H-M   'P 1'
_cell_length_a   4.93234800
_cell_length_b   4.93234800
_cell_length_c   9.93245900
_cell_angle_alpha   90.00000000
_cell_angle_beta   90.00000000
_cell_angle_gamma   90.00000000
_symmetry_Int_Tables_number   1
_chemical_formula_structural   Cu2NiC6
_chemical_formula_sum   'Cu4 Ni2 C12'
_cell_volume   241.63742665
_cell_formula_units_Z   2
loop_
 _symmetry_equiv_pos_site_id
 _symmetry_equiv_pos_as_xyz
  1  'x, y, z'
loop_
 _atom_site_type_symbol
 _atom_site_label
 _atom_site_symmetry_multiplicity
 _atom_site_fract_x
 _atom_site_fract_y
 _atom_site_fract_z
 _atom_site_occupancy
  Ni  Ni0  1  0.00000000  0.00000000  0.00000000  1
  Ni  Ni1  1  0.50000000  0.50000000  0.50000000  1
  Cu  Cu2  1  0.50000000  0.50000000  0.83295600  1
  Cu  Cu3  1  0.00000000  0.00000000  0.33295600  1
  Cu  Cu4  1  0.50000000  0.50000000  0.16704400  1
  Cu  Cu5  1  0.00000000  0.00000000  0.66704400  1
  C  C6  1  0.69121400  0.69121400  0.66424400  1
  C  C7  1  0.30878600  0.30878600  0.66424400  1
  C  C8  1  0.69121400  0.69121400  0.33575600  1
  C  C9  1  0.19121400  0.80878600  0.16424400  1
  C  C10  1  0.80878600  0.19121400  0.16424400  1
  C  C11  1  0.80878600  0.19121400  0.83575600  1
  C  C12  1  0.30264700  0.30264700  0.00000000  1
  C  C13  1  0.19735300  0.80264700  0.50000000  1
  C  C14  1  0.80264700  0.19735300  0.50000000  1
  C  C15  1  0.69735300  0.69735300  0.00000000  1
  C  C16  1  0.30878600  0.30878600  0.33575600  1
  C  C17  1  0.19121400  0.80878600  0.83575600  1
