# generated using pymatgen
data_CuNiC18
_symmetry_space_group_name_H-M   'P 1'
_cell_length_a   9.12046789
_cell_length_b   9.11447811
_cell_length_c   22.73111765
_cell_angle_alpha   89.92009968
_cell_angle_beta   90.66460140
_cell_angle_gamma   119.52297483
_symmetry_Int_Tables_number   1
_chemical_formula_structural   CuNiC18
_chemical_formula_sum   'Cu6 Ni6 C108'
_cell_volume   1644.11936225
_cell_formula_units_Z   6
loop_
 _symmetry_equiv_pos_site_id
 _symmetry_equiv_pos_as_xyz
  1  'x, y, z'
loop_
 _atom_site_type_symbol
 _atom_site_label
 _atom_site_symmetry_multiplicity
 _atom_site_fract_x
 _atom_site_fract_y
 _atom_site_fract_z
 _atom_site_occupancy
  C  C0  1  0.37272113  0.35144944  0.24561032  1
  C  C1  1  0.99933918  0.63891663  0.23782538  1
  C  C2  1  0.98805769  0.34837681  0.74307352  1
  C  C3  1  0.38623829  0.02725268  0.74623464  1
  C  C4  1  0.29560999  0.33327323  0.58240642  1
  C  C5  1  0.65837867  0.98085939  0.59255968  1
  C  C6  1  0.29935583  0.95672353  0.07277221  1
  C  C7  1  0.65868328  0.68053495  0.08059869  1
  C  C8  1  0.98706432  0.68501116  0.91778557  1
  C  C9  1  0.31905414  0.27934004  0.90719784  1
  C  C10  1  0.98712098  0.30280685  0.42740996  1
  C  C11  1  0.32320175  0.04210698  0.41558482  1
  C  C12  1  0.01109976  0.00309705  0.50446058  1
  C  C13  1  0.00834221  0.00797994  0.99221736  1
  C  C14  1  0.65034576  0.31256256  0.82222803  1
  C  C15  1  0.64468022  0.32278076  0.33001989  1
  C  C16  1  0.31918924  0.65682182  0.15475657  1
  C  C17  1  0.32434725  0.66492937  0.65990940  1
  Ni  Ni18  1  0.01783018  0.01127952  0.35033222  1
  Ni  Ni19  1  0.01345250  0.01102442  0.84533075  1
  Ni  Ni20  1  0.65981313  0.31575216  0.68472579  1
  Ni  Ni21  1  0.65749228  0.32774282  0.17987772  1
  Ni  Ni22  1  0.30750825  0.65674968  0.01962790  1
  Ni  Ni23  1  0.31231801  0.64955393  0.52308476  1
  Cu  Cu24  1  0.00464240  0.01501341  0.64947516  1
  Cu  Cu25  1  0.01735156  0.00156301  0.14430853  1
  Cu  Cu26  1  0.65623505  0.32555809  0.98327252  1
  Cu  Cu27  1  0.65293764  0.33075317  0.48748318  1
  Cu  Cu28  1  0.34160292  0.66976185  0.31588674  1
  Cu  Cu29  1  0.35300646  0.68420280  0.81047633  1
  C  C30  1  0.30666493  0.00522534  0.25323416  1
  C  C31  1  0.30584596  0.30095850  0.75372271  1
  C  C32  1  0.71476192  0.00545211  0.75150130  1
  C  C33  1  0.96080225  0.33871337  0.58569528  1
  C  C34  1  0.36454432  0.02408461  0.58496606  1
  C  C35  1  0.95933856  0.61781226  0.08781172  1
  C  C36  1  0.37373196  0.34593802  0.08579687  1
  C  C37  1  0.32745154  0.95922110  0.91958170  1
  C  C38  1  0.33265581  0.36993189  0.41813125  1
  C  C39  1  0.71155455  0.71318259  0.25191124  1
  C  C40  1  0.99391678  0.28970639  0.25273028  1
  C  C41  1  0.99478319  0.70527980  0.75268896  1
  C  C42  1  0.66767861  0.62773755  0.58520933  1
  C  C43  1  0.66724222  0.04047467  0.08551414  1
  C  C44  1  0.62925416  0.67061594  0.91972184  1
  C  C45  1  0.04056669  0.37372464  0.91729058  1
  C  C46  1  0.63235664  0.95942972  0.41774496  1
  C  C47  1  0.04016526  0.66802279  0.41544438  1
  C  C48  1  0.21262240  0.02681901  0.30950536  1
  C  C49  1  0.81509815  0.80424253  0.30310616  1
  C  C50  1  0.97680150  0.19345395  0.30645950  1
  C  C51  1  0.22418852  0.18533859  0.81112779  1
  C  C52  1  0.97909644  0.78304051  0.80728530  1
  C  C53  1  0.83068460  0.02132792  0.80680591  1
  C  C54  1  0.78988880  0.97057453  0.68978015  1
  C  C55  1  0.17747975  0.21046840  0.69467317  1
  C  C56  1  0.02611219  0.81678121  0.70108515  1
  C  C57  1  0.78177471  0.80960424  0.19663268  1
  C  C58  1  0.02005291  0.20737390  0.20074920  1
  C  C59  1  0.17785324  0.96941314  0.19445783  1
  C  C60  1  0.86744817  0.35679442  0.64193754  1
  C  C61  1  0.48187014  0.11740687  0.64091777  1
  C  C62  1  0.64427609  0.52104308  0.63575766  1
  C  C63  1  0.87069854  0.51519398  0.14660244  1
  C  C64  1  0.64223932  0.12213331  0.13683245  1
  C  C65  1  0.48103416  0.36762335  0.14520238  1
  C  C66  1  0.45952997  0.29884666  0.02888808  1
  C  C67  1  0.83986713  0.53149179  0.02800894  1
  C  C68  1  0.69533987  0.14457700  0.03158674  1
  C  C69  1  0.45067119  0.15477803  0.52501185  1
  C  C70  1  0.69102668  0.54697854  0.53001032  1
  C  C71  1  0.84625794  0.31057873  0.52274606  1
  C  C72  1  0.55012319  0.68760123  0.97302909  1
  C  C73  1  0.14992795  0.45640668  0.96898467  1
  C  C74  1  0.30812359  0.84787945  0.97735230  1
  C  C75  1  0.55488580  0.86340997  0.47024659  1
  C  C76  1  0.30936270  0.46825296  0.47255580  1
  C  C77  1  0.15069310  0.69720483  0.46638230  1
  C  C78  1  0.12289116  0.64353941  0.36102093  1
  C  C79  1  0.51810495  0.87643860  0.36466137  1
  C  C80  1  0.35355577  0.48279720  0.35673795  1
  C  C81  1  0.11541844  0.47668992  0.86347880  1
  C  C82  1  0.34883160  0.86493168  0.86070421  1
  C  C83  1  0.51800088  0.63907783  0.86717057  1
  C  C84  1  0.01739977  0.81644167  0.40748018  1
  C  C85  1  0.80200069  0.98206910  0.40760815  1
  C  C86  1  0.16217246  0.18232292  0.41293139  1
  C  C87  1  0.02079987  0.20325186  0.91273515  1
  C  C88  1  0.15791076  0.97990373  0.91420508  1
  C  C89  1  0.79998642  0.81282431  0.91257560  1
  C  C90  1  0.96467184  0.15426378  0.58515687  1
  C  C91  1  0.17876974  0.01493148  0.58707270  1
  C  C92  1  0.82020336  0.79715005  0.58770805  1
  C  C93  1  0.96130740  0.80790211  0.08931050  1
  C  C94  1  0.81880645  0.01941543  0.09183930  1
  C  C95  1  0.18591131  0.16833995  0.08876010  1
  C  C96  1  0.69300174  0.17171852  0.74753165  1
  C  C97  1  0.48876485  0.32200286  0.74296574  1
  C  C98  1  0.85096480  0.53605908  0.74505427  1
  C  C99  1  0.69640490  0.54307844  0.24914993  1
  C  C100  1  0.85195750  0.32163380  0.24646261  1
  C  C101  1  0.48827009  0.17292228  0.24497065  1
  C  C102  1  0.64351531  0.50943320  0.92242960  1
  C  C103  1  0.87225085  0.36479489  0.92388401  1
  C  C104  1  0.49751639  0.15344360  0.92159377  1
  C  C105  1  0.64601213  0.13290024  0.41891066  1
  C  C106  1  0.50214987  0.34377078  0.41788959  1
  C  C107  1  0.87522389  0.50897767  0.41898404  1
  C  C108  1  0.36700577  0.51666328  0.07414305  1
  C  C109  1  0.15386650  0.66619926  0.08217004  1
  C  C110  1  0.51904780  0.87113975  0.07807132  1
  C  C111  1  0.36704802  0.85145799  0.57185536  1
  C  C112  1  0.51738906  0.64758068  0.57641233  1
  C  C113  1  0.15596733  0.48696771  0.58064010  1
  C  C114  1  0.30601793  0.82062473  0.25623660  1
  C  C115  1  0.53387690  0.68622213  0.25584092  1
  C  C116  1  0.15537965  0.46296238  0.25621975  1
  C  C117  1  0.29588369  0.47841442  0.75879008  1
  C  C118  1  0.15339684  0.68808654  0.75649009  1
  C  C119  1  0.51638117  0.83942656  0.75319647  1
