# generated using pymatgen
data_Cu4NiC8
_symmetry_space_group_name_H-M   'P 1'
_cell_length_a   6.92323809
_cell_length_b   6.92719685
_cell_length_c   6.92554969
_cell_angle_alpha   59.99601151
_cell_angle_beta   60.02620498
_cell_angle_gamma   60.00512507
_symmetry_Int_Tables_number   1
_chemical_formula_structural   Cu4NiC8
_chemical_formula_sum   'Cu4 Ni1 C8'
_cell_volume   234.90686557
_cell_formula_units_Z   1
loop_
 _symmetry_equiv_pos_site_id
 _symmetry_equiv_pos_as_xyz
  1  'x, y, z'
loop_
 _atom_site_type_symbol
 _atom_site_label
 _atom_site_symmetry_multiplicity
 _atom_site_fract_x
 _atom_site_fract_y
 _atom_site_fract_z
 _atom_site_occupancy
  Ni  Ni0  1  0.87738200  0.87807500  0.87297700  1
  Cu  Cu1  1  0.49615000  0.99876800  0.50269900  1
  Cu  Cu2  1  0.49578100  0.49541100  0.00734200  1
  Cu  Cu3  1  0.99917300  0.49587500  0.50268600  1
  Cu  Cu4  1  0.49581900  0.49534400  0.50154000  1
  C  C5  1  0.26511400  0.26510100  0.27495900  1
  C  C6  1  0.68864000  0.26313800  0.27431000  1
  C  C7  1  0.26370400  0.68815600  0.27385100  1
  C  C8  1  0.26552600  0.26461700  0.69514500  1
  C  C9  1  0.75295000  0.75426000  0.24510300  1
  C  C10  1  0.75737400  0.24123300  0.75148400  1
  C  C11  1  0.24140800  0.75802400  0.75087900  1
  C  C12  1  0.75283000  0.75384800  0.74881100  1
