# generated using pymatgen
data_Cu7Ni5C58
_symmetry_space_group_name_H-M   'P 1'
_cell_length_a   18.12638096
_cell_length_b   9.06819493
_cell_length_c   23.42919041
_cell_angle_alpha   89.98085288
_cell_angle_beta   90.05980941
_cell_angle_gamma   120.09129225
_symmetry_Int_Tables_number   1
_chemical_formula_structural   Cu7Ni5C58
_chemical_formula_sum   'Cu21 Ni15 C174'
_cell_volume   3332.11026676
_cell_formula_units_Z   3
loop_
 _symmetry_equiv_pos_site_id
 _symmetry_equiv_pos_as_xyz
  1  'x, y, z'
loop_
 _atom_site_type_symbol
 _atom_site_label
 _atom_site_symmetry_multiplicity
 _atom_site_fract_x
 _atom_site_fract_y
 _atom_site_fract_z
 _atom_site_occupancy
  C  C0  1  0.99739485  0.99946380  0.49942554  1
  C  C1  1  0.49683723  0.99610834  0.99607455  1
  C  C2  1  0.33760894  0.34131741  0.83457039  1
  C  C3  1  0.83334301  0.33778638  0.83098129  1
  C  C4  1  0.33462066  0.33084942  0.33193940  1
  C  C5  1  0.83481222  0.33293154  0.33713483  1
  C  C6  1  0.00149601  0.99127557  0.35603984  1
  C  C7  1  0.49846896  0.00494651  0.35702526  1
  C  C8  1  0.99760221  0.99178034  0.85623046  1
  C  C9  1  0.50017124  0.00096252  0.85194848  1
  C  C10  1  0.00000147  0.99733910  0.64747964  1
  C  C11  1  0.50307437  0.99383412  0.64788768  1
  C  C12  1  0.00296317  0.99969522  0.14343012  1
  C  C13  1  0.49880511  0.00219438  0.14661405  1
  C  C14  1  0.33792250  0.35171802  0.68637665  1
  C  C15  1  0.83750916  0.34367318  0.68955109  1
  C  C16  1  0.33892567  0.33194952  0.18859494  1
  C  C17  1  0.83238142  0.32350420  0.18329058  1
  C  C18  1  0.34238515  0.35539869  0.97667479  1
  C  C19  1  0.83838602  0.32488625  0.97853811  1
  C  C20  1  0.34040062  0.35267429  0.48195258  1
  C  C21  1  0.84097129  0.32730598  0.47864925  1
  C  C22  1  0.16915345  0.65681024  0.01644793  1
  C  C23  1  0.66044085  0.66274381  0.02386406  1
  C  C24  1  0.16153367  0.66098319  0.52672982  1
  C  C25  1  0.66804986  0.68209709  0.51881060  1
  C  C26  1  0.16065480  0.67469832  0.31132440  1
  C  C27  1  0.66073348  0.66483128  0.31429369  1
  C  C28  1  0.16217187  0.65722213  0.81295040  1
  C  C29  1  0.65507773  0.64488796  0.80770704  1
  Ni  Ni30  1  0.14511883  0.00501284  0.24939504  1
  Ni  Ni31  1  0.50212621  0.29169240  0.25038471  1
  Ni  Ni32  1  0.64467442  0.28487820  0.74915235  1
  Ni  Ni33  1  0.00211370  0.71211294  0.75044452  1
  Ni  Ni34  1  0.49990760  0.71277352  0.75106018  1
  Ni  Ni35  1  0.97726587  0.32759588  0.58538891  1
  Ni  Ni36  1  0.33471378  0.63208668  0.58390062  1
  Ni  Ni37  1  0.47807713  0.62675894  0.08463306  1
  Ni  Ni38  1  0.83365277  0.03665837  0.08263319  1
  Ni  Ni39  1  0.31331650  0.67055481  0.91459976  1
  Ni  Ni40  1  0.02228157  0.37370784  0.91588827  1
  Ni  Ni41  1  0.52284184  0.37266934  0.91732197  1
  Ni  Ni42  1  0.81170053  0.95535686  0.41518624  1
  Ni  Ni43  1  0.02219180  0.66538147  0.41822837  1
  Ni  Ni44  1  0.52099222  0.66874773  0.41661711  1
  Cu  Cu45  1  0.64456050  0.00074651  0.25016726  1
  Cu  Cu46  1  0.35463025  0.71047856  0.25067186  1
  Cu  Cu47  1  0.85485916  0.71006278  0.24953818  1
  Cu  Cu48  1  0.00008704  0.28887856  0.25000015  1
  Cu  Cu49  1  0.14454545  0.28783730  0.75032025  1
  Cu  Cu50  1  0.35408677  0.99927561  0.74953656  1
  Cu  Cu51  1  0.85500688  0.99876780  0.75056813  1
  Cu  Cu52  1  0.47943801  0.33324490  0.58347754  1
  Cu  Cu53  1  0.18911262  0.04545315  0.58353526  1
  Cu  Cu54  1  0.68903723  0.04591824  0.58339735  1
  Cu  Cu55  1  0.83217920  0.62199234  0.58290098  1
  Cu  Cu56  1  0.97874628  0.62295513  0.08301055  1
  Cu  Cu57  1  0.33192679  0.04197788  0.08288414  1
  Cu  Cu58  1  0.18934225  0.33393236  0.08349607  1
  Cu  Cu59  1  0.68886623  0.33315271  0.08273751  1
  Cu  Cu60  1  0.81046161  0.66569373  0.91681077  1
  Cu  Cu61  1  0.16680762  0.95586898  0.91666382  1
  Cu  Cu62  1  0.66672877  0.95544046  0.91636895  1
  Cu  Cu63  1  0.31050634  0.95562197  0.41691334  1
  Cu  Cu64  1  0.16729839  0.37825097  0.41643495  1
  Cu  Cu65  1  0.66718702  0.37851329  0.41705889  1
  C  C66  1  0.09910038  0.03125586  0.30526447  1
  C  C67  1  0.60627195  0.03018465  0.30112620  1
  C  C68  1  0.40961265  0.78940992  0.30158407  1
  C  C69  1  0.90883953  0.78707589  0.30086677  1
  C  C70  1  0.48580309  0.16627857  0.30536727  1
  C  C71  1  0.98354956  0.18371579  0.30126145  1
  C  C72  1  0.10483645  0.18143883  0.80131423  1
  C  C73  1  0.60124367  0.16991429  0.80601538  1
  C  C74  1  0.48142085  0.79410520  0.80660192  1
  C  C75  1  0.98591289  0.80514044  0.80535866  1
  C  C76  1  0.40774552  0.03212550  0.80115635  1
  C  C77  1  0.91045802  0.03109363  0.80150192  1
  C  C78  1  0.39337954  0.97294775  0.69828354  1
  C  C79  1  0.89625243  0.97505755  0.69881963  1
  C  C80  1  0.09156802  0.20981948  0.69836357  1
  C  C81  1  0.58454336  0.20134433  0.69315591  1
  C  C82  1  0.01322367  0.83169261  0.69449284  1
  C  C83  1  0.51339800  0.82533298  0.69400456  1
  C  C84  1  0.39509381  0.81683116  0.19897461  1
  C  C85  1  0.89508398  0.81599804  0.19824105  1
  C  C86  1  0.01221502  0.21040387  0.19845088  1
  C  C87  1  0.51327351  0.19461743  0.19457423  1
  C  C88  1  0.08325840  0.97009999  0.19413043  1
  C  C89  1  0.59269226  0.97505703  0.19828977  1
  C  C90  1  0.43792354  0.36088118  0.63402896  1
  C  C91  1  0.93148135  0.35955967  0.63917544  1
  C  C92  1  0.24091823  0.12224445  0.63489722  1
  C  C93  1  0.74227231  0.12166262  0.63432452  1
  C  C94  1  0.31748884  0.50014398  0.63755651  1
  C  C95  1  0.81924758  0.51833152  0.63457879  1
  C  C96  1  0.43179268  0.50443208  0.13934895  1
  C  C97  1  0.93647001  0.51452772  0.13496591  1
  C  C98  1  0.31934753  0.12035495  0.13486560  1
  C  C99  1  0.81966816  0.13738522  0.13836644  1
  C  C100  1  0.24161117  0.36139078  0.13496691  1
  C  C101  1  0.74220911  0.35877550  0.13530891  1
  C  C102  1  0.22565657  0.30109668  0.03229538  1
  C  C103  1  0.72815071  0.30504086  0.03239731  1
  C  C104  1  0.41809524  0.53794828  0.02871870  1
  C  C105  1  0.92343699  0.54419921  0.03260429  1
  C  C106  1  0.34747035  0.14870287  0.03202674  1
  C  C107  1  0.84872766  0.16724754  0.02941457  1
  C  C108  1  0.22774381  0.15026630  0.53147208  1
  C  C109  1  0.72799775  0.15125951  0.53165566  1
  C  C110  1  0.34776165  0.53179715  0.52874967  1
  C  C111  1  0.84729358  0.54573700  0.53170974  1
  C  C112  1  0.42373334  0.30533397  0.53194176  1
  C  C113  1  0.91883531  0.29927197  0.52820093  1
  C  C114  1  0.26750295  0.69686003  0.97260814  1
  C  C115  1  0.77365909  0.69530805  0.96852438  1
  C  C116  1  0.07946603  0.46641113  0.97303363  1
  C  C117  1  0.58275028  0.46791604  0.97290835  1
  C  C118  1  0.15174507  0.84914721  0.96858668  1
  C  C119  1  0.65487439  0.85316383  0.96850985  1
  C  C120  1  0.27310990  0.85043768  0.46785346  1
  C  C121  1  0.76785340  0.83676323  0.47254714  1
  C  C122  1  0.15386694  0.45548272  0.46775484  1
  C  C123  1  0.65177844  0.45404482  0.46828258  1
  C  C124  1  0.08380409  0.69978391  0.47221638  1
  C  C125  1  0.58018606  0.69319735  0.47256960  1
  C  C126  1  0.06577996  0.63422057  0.36099586  1
  C  C127  1  0.56422385  0.63375431  0.36100261  1
  C  C128  1  0.25860248  0.87581349  0.36459016  1
  C  C129  1  0.75225791  0.86513008  0.35953932  1
  C  C130  1  0.18178802  0.48272228  0.36461936  1
  C  C131  1  0.68133633  0.48349098  0.36510081  1
  C  C132  1  0.06469829  0.49645255  0.86093118  1
  C  C133  1  0.56505057  0.49712627  0.86216161  1
  C  C134  1  0.18133623  0.87926438  0.86543028  1
  C  C135  1  0.68375153  0.88422415  0.86555554  1
  C  C136  1  0.25119574  0.63827958  0.86038070  1
  C  C137  1  0.75975538  0.64016855  0.86510171  1
  C  C138  1  0.01178365  0.83371702  0.40927283  1
  C  C139  1  0.51080651  0.83386151  0.40443207  1
  C  C140  1  0.39633601  0.97450096  0.40792308  1
  C  C141  1  0.90734265  0.98192863  0.40791564  1
  C  C142  1  0.08995294  0.20644561  0.40973840  1
  C  C143  1  0.59055839  0.20623830  0.40812726  1
  C  C144  1  0.01058726  0.18705722  0.90513293  1
  C  C145  1  0.51137972  0.18468962  0.91048559  1
  C  C146  1  0.09041991  0.97456032  0.90850020  1
  C  C147  1  0.59102361  0.97585130  0.91154342  1
  C  C148  1  0.40736533  0.83637007  0.91119387  1
  C  C149  1  0.89736958  0.81845990  0.90881165  1
  C  C150  1  0.48629333  0.18043232  0.59057992  1
  C  C151  1  0.98923913  0.16040417  0.59193977  1
  C  C152  1  0.10225757  0.02606759  0.59000478  1
  C  C153  1  0.60337160  0.02456180  0.58992841  1
  C  C154  1  0.41778757  0.81458783  0.59317751  1
  C  C155  1  0.90970093  0.79629130  0.59053638  1
  C  C156  1  0.48943759  0.81748220  0.09303577  1
  C  C157  1  0.98568221  0.79137414  0.09175566  1
  C  C158  1  0.40949206  0.02299455  0.09110289  1
  C  C159  1  0.91837247  0.02623945  0.09626766  1
  C  C160  1  0.10218852  0.18272505  0.09230128  1
  C  C161  1  0.60319729  0.17880499  0.09099809  1
  C  C162  1  0.34421002  0.15319023  0.74167738  1
  C  C163  1  0.84652210  0.15261153  0.74317279  1
  C  C164  1  0.23005123  0.30329551  0.74311954  1
  C  C165  1  0.73970854  0.30661445  0.74071411  1
  C  C166  1  0.41583034  0.51762172  0.74241151  1
  C  C167  1  0.91647735  0.52360575  0.74331551  1
  C  C168  1  0.34547915  0.53926072  0.24311277  1
  C  C169  1  0.84616490  0.53615355  0.24179482  1
  C  C170  1  0.41647777  0.30916691  0.24334596  1
  C  C171  1  0.92321097  0.31276345  0.24194873  1
  C  C172  1  0.23948882  0.17123346  0.24118700  1
  C  C173  1  0.73187249  0.15849484  0.24260563  1
  C  C174  1  0.31715074  0.49392911  0.92346934  1
  C  C175  1  0.82151242  0.51331593  0.92516900  1
  C  C176  1  0.42670049  0.35065572  0.92426519  1
  C  C177  1  0.92752268  0.35849665  0.92398466  1
  C  C178  1  0.24232804  0.12732919  0.92476275  1
  C  C179  1  0.74343686  0.13265138  0.92481448  1
  C  C180  1  0.32050796  0.12795038  0.42332282  1
  C  C181  1  0.81834818  0.14230148  0.42297024  1
  C  C182  1  0.24278943  0.35369321  0.42361551  1
  C  C183  1  0.74235960  0.35727558  0.42403618  1
  C  C184  1  0.42637132  0.49486733  0.42344757  1
  C  C185  1  0.92547036  0.50107593  0.42302738  1
  C  C186  1  0.17848184  0.48539018  0.07605679  1
  C  C187  1  0.68062840  0.48546319  0.07697488  1
  C  C188  1  0.06331474  0.64247229  0.07612911  1
  C  C189  1  0.57081897  0.64564356  0.07429005  1
  C  C190  1  0.25641556  0.87125537  0.07595163  1
  C  C191  1  0.75060053  0.85560614  0.07234822  1
  C  C192  1  0.17954967  0.87522268  0.57570934  1
  C  C193  1  0.67960494  0.87297685  0.57536017  1
  C  C194  1  0.25035585  0.64364257  0.57104080  1
  C  C195  1  0.75657223  0.64138647  0.57521303  1
  C  C196  1  0.06989692  0.49490079  0.57384130  1
  C  C197  1  0.56354342  0.48601425  0.57441396  1
  C  C198  1  0.15610011  0.83660874  0.25958922  1
  C  C199  1  0.65564889  0.85182786  0.25667485  1
  C  C200  1  0.26999260  0.69172441  0.25897010  1
  C  C201  1  0.77002263  0.68964832  0.25766133  1
  C  C202  1  0.07629915  0.45948680  0.25734784  1
  C  C203  1  0.58577457  0.47673241  0.25969387  1
  C  C204  1  0.15452490  0.45838342  0.75665483  1
  C  C205  1  0.65863604  0.47556845  0.75911745  1
  C  C206  1  0.08560640  0.69493990  0.75984937  1
  C  C207  1  0.58375166  0.69465618  0.75800181  1
  C  C208  1  0.26925541  0.84849248  0.75836253  1
  C  C209  1  0.77122984  0.84847394  0.75864443  1
