# generated using pymatgen
data_CuNiC11
_symmetry_space_group_name_H-M   'P 1'
_cell_length_a   8.75212547
_cell_length_b   8.79545965
_cell_length_c   22.08032171
_cell_angle_alpha   89.80685512
_cell_angle_beta   90.70534823
_cell_angle_gamma   120.20988442
_symmetry_Int_Tables_number   1
_chemical_formula_structural   CuNiC11
_chemical_formula_sum   'Cu9 Ni9 C99'
_cell_volume   1468.75879796
_cell_formula_units_Z   9
loop_
 _symmetry_equiv_pos_site_id
 _symmetry_equiv_pos_as_xyz
  1  'x, y, z'
loop_
 _atom_site_type_symbol
 _atom_site_label
 _atom_site_symmetry_multiplicity
 _atom_site_fract_x
 _atom_site_fract_y
 _atom_site_fract_z
 _atom_site_occupancy
  C  C0  1  0.64129958  0.00332579  0.25445043  1
  C  C1  1  0.00165274  0.62467551  0.24893556  1
  C  C2  1  0.62863863  0.63310658  0.74582105  1
  C  C3  1  0.37148536  0.01056602  0.75398696  1
  C  C4  1  0.66776946  0.95973175  0.58554411  1
  C  C5  1  0.97198432  0.67895530  0.92035479  1
  C  C6  1  0.69019865  0.01974428  0.91149232  1
  C  C7  1  0.96267978  0.30097847  0.41002062  1
  C  C8  1  0.70883151  0.68046268  0.42054289  1
  C  C9  1  0.00228340  0.98323312  0.50179165  1
  C  C10  1  0.00720599  0.98991885  0.00067737  1
  C  C11  1  0.64908308  0.32315347  0.83083299  1
  C  C12  1  0.66367405  0.32404034  0.33138199  1
  C  C13  1  0.31784910  0.64666181  0.16250229  1
  C  C14  1  0.32874264  0.64615537  0.66411255  1
  C  C15  1  0.66060645  0.34489862  0.98322415  1
  C  C16  1  0.67372746  0.34117621  0.48037411  1
  C  C17  1  0.34532684  0.66705857  0.81089845  1
  Ni  Ni18  1  0.98710779  0.99679716  0.35431661  1
  Ni  Ni19  1  0.00707229  0.01110788  0.85256308  1
  Ni  Ni20  1  0.98588415  0.99434847  0.65086653  1
  Ni  Ni21  1  0.00894594  0.00768103  0.14653782  1
  Ni  Ni22  1  0.64960508  0.33317554  0.68931268  1
  Ni  Ni23  1  0.69523939  0.34032807  0.18118235  1
  Ni  Ni24  1  0.32973979  0.68643484  0.01736507  1
  Ni  Ni25  1  0.34768011  0.68066674  0.51713691  1
  Ni  Ni26  1  0.31567661  0.65546975  0.31685343  1
  Cu  Cu27  1  0.00881718  0.28684622  0.24944693  1
  Cu  Cu28  1  0.27521891  0.27561658  0.74695938  1
  Cu  Cu29  1  0.72563397  0.01913132  0.74844427  1
  Cu  Cu30  1  0.66633909  0.63021748  0.58683272  1
  Cu  Cu31  1  0.97653940  0.64272713  0.08692530  1
  Cu  Cu32  1  0.62534586  0.67416168  0.92073956  1
  Cu  Cu33  1  0.32512275  0.95956418  0.91582635  1
  Cu  Cu34  1  0.61445099  0.94784563  0.41299183  1
  Cu  Cu35  1  0.06126038  0.68412886  0.41587873  1
  C  C36  1  0.28895566  0.00663952  0.24971029  1
  C  C37  1  0.70691036  0.70653828  0.24914885  1
  C  C38  1  0.99313641  0.70917750  0.74833701  1
  C  C39  1  0.96645609  0.33804025  0.58607192  1
  C  C40  1  0.36828525  0.03883561  0.58512981  1
  C  C41  1  0.66839429  0.03850499  0.08633202  1
  C  C42  1  0.37375786  0.33374262  0.08872375  1
  C  C43  1  0.04999931  0.37590475  0.91947097  1
  C  C44  1  0.32744583  0.37826526  0.41536799  1
  C  C45  1  0.20879685  0.03037930  0.30434467  1
  C  C46  1  0.82034874  0.78275873  0.30516080  1
  C  C47  1  0.96863094  0.16279599  0.31007340  1
  C  C48  1  0.19538465  0.15387458  0.80675774  1
  C  C49  1  0.96215574  0.78248063  0.80411835  1
  C  C50  1  0.83219598  0.03326902  0.81120273  1
  C  C51  1  0.79614380  0.96324970  0.68976801  1
  C  C52  1  0.16194975  0.17779317  0.68722570  1
  C  C53  1  0.02588985  0.82249627  0.69506195  1
  C  C54  1  0.79158102  0.82173284  0.19670273  1
  C  C55  1  0.02575362  0.18375138  0.19200102  1
  C  C56  1  0.17328017  0.96991272  0.19579119  1
  C  C57  1  0.87495850  0.36054839  0.63730486  1
  C  C58  1  0.48642110  0.12130261  0.63890067  1
  C  C59  1  0.64350911  0.50229133  0.64369323  1
  C  C60  1  0.87486672  0.51304065  0.14476264  1
  C  C61  1  0.63859403  0.12550733  0.13989309  1
  C  C62  1  0.49131461  0.35410325  0.14091004  1
  C  C63  1  0.44697943  0.29878902  0.03226235  1
  C  C64  1  0.85115230  0.55139930  0.02599226  1
  C  C65  1  0.69567720  0.14573232  0.03112610  1
  C  C66  1  0.45223567  0.14737778  0.53028607  1
  C  C67  1  0.69409033  0.54454138  0.52415085  1
  C  C68  1  0.85177401  0.30080489  0.52880693  1
  C  C69  1  0.52108024  0.69899661  0.97671437  1
  C  C70  1  0.15817180  0.45963940  0.97310621  1
  C  C71  1  0.28704382  0.82831381  0.97254479  1
  C  C72  1  0.53821742  0.83034172  0.47429611  1
  C  C73  1  0.29816556  0.45500297  0.47019770  1
  C  C74  1  0.17341465  0.69281774  0.47591458  1
  C  C75  1  0.12761022  0.62786759  0.35571013  1
  C  C76  1  0.49896958  0.84972016  0.35229445  1
  C  C77  1  0.36321789  0.49090748  0.36156597  1
  C  C78  1  0.11747940  0.48422338  0.86416195  1
  C  C79  1  0.36063968  0.87465968  0.85506539  1
  C  C80  1  0.51239707  0.63132429  0.85716545  1
  C  C81  1  0.02774736  0.84983300  0.40533744  1
  C  C82  1  0.81704505  0.97675116  0.40820725  1
  C  C83  1  0.17099174  0.20096657  0.40815598  1
  C  C84  1  0.02774376  0.19873157  0.91303159  1
  C  C85  1  0.14952492  0.97554113  0.90813494  1
  C  C86  1  0.81948400  0.84984076  0.91158179  1
  C  C87  1  0.97878653  0.17611020  0.58971694  1
  C  C88  1  0.19281772  0.01890209  0.59079183  1
  C  C89  1  0.84312388  0.82923107  0.59223458  1
  C  C90  1  0.98777730  0.83322733  0.09694821  1
  C  C91  1  0.82852078  0.02404506  0.09396390  1
  C  C92  1  0.19611866  0.17434215  0.09374765  1
  C  C93  1  0.69361772  0.18568403  0.73794463  1
  C  C94  1  0.48100529  0.30996415  0.74276201  1
  C  C95  1  0.83562012  0.53155329  0.74145897  1
  C  C96  1  0.68742640  0.52854102  0.24294814  1
  C  C97  1  0.82396545  0.30578007  0.24212070  1
  C  C98  1  0.46926289  0.16306426  0.24195140  1
  C  C99  1  0.65929895  0.50571920  0.92186083  1
  C  C100  1  0.86686080  0.35059924  0.92546209  1
  C  C101  1  0.51224246  0.14559314  0.92396628  1
  C  C102  1  0.64329732  0.14759323  0.41964098  1
  C  C103  1  0.48807037  0.36057247  0.42087260  1
  C  C104  1  0.85506618  0.50606362  0.42162079  1
  C  C105  1  0.36128640  0.49142870  0.08108604  1
  C  C106  1  0.16472525  0.64785910  0.07677259  1
  C  C107  1  0.50922857  0.86361265  0.08091168  1
  C  C108  1  0.35696352  0.86438291  0.57901237  1
  C  C109  1  0.48929642  0.65209396  0.57683797  1
  C  C110  1  0.13933128  0.49573979  0.57732016  1
  C  C111  1  0.31099025  0.84704463  0.25427062  1
  C  C112  1  0.53156961  0.69186753  0.25567391  1
  C  C113  1  0.17803416  0.49006719  0.25748816  1
  C  C114  1  0.30275223  0.47544390  0.75032101  1
  C  C115  1  0.15264762  0.69201306  0.75337157  1
  C  C116  1  0.52030680  0.84081031  0.75202248  1
