# generated using pymatgen
data_Cu6Ni3C61
_symmetry_space_group_name_H-M   'P 1'
_cell_length_a   17.53721105
_cell_length_b   8.75290202
_cell_length_c   22.60742229
_cell_angle_alpha   89.97906670
_cell_angle_beta   90.00932062
_cell_angle_gamma   120.24327568
_symmetry_Int_Tables_number   1
_chemical_formula_structural   Cu6Ni3C61
_chemical_formula_sum   'Cu18 Ni9 C183'
_cell_volume   2997.94998951
_cell_formula_units_Z   3
loop_
 _symmetry_equiv_pos_site_id
 _symmetry_equiv_pos_as_xyz
  1  'x, y, z'
loop_
 _atom_site_type_symbol
 _atom_site_label
 _atom_site_symmetry_multiplicity
 _atom_site_fract_x
 _atom_site_fract_y
 _atom_site_fract_z
 _atom_site_occupancy
  C  C0  1  0.99617308  0.98757109  0.49795887  1
  C  C1  1  0.50122488  0.99924272  0.99847023  1
  C  C2  1  0.33431279  0.32376400  0.83965027  1
  C  C3  1  0.83251860  0.33612043  0.83884416  1
  C  C4  1  0.32821453  0.32605880  0.33751007  1
  C  C5  1  0.83581988  0.34081715  0.34405737  1
  C  C6  1  0.49424204  0.99371142  0.36279710  1
  C  C7  1  0.00602067  0.00706194  0.86432998  1
  C  C8  1  0.49850977  0.00163413  0.63960772  1
  C  C9  1  0.00071501  0.01187198  0.14555823  1
  C  C10  1  0.32793961  0.33616497  0.69184406  1
  C  C11  1  0.82427948  0.32686127  0.68439416  1
  C  C12  1  0.33989512  0.34554874  0.19152313  1
  C  C13  1  0.83336210  0.31828211  0.18955472  1
  C  C14  1  0.16487317  0.66673393  0.01967904  1
  C  C15  1  0.66444278  0.66012805  0.02454572  1
  C  C16  1  0.16714824  0.67305729  0.52054111  1
  C  C17  1  0.67427623  0.66322774  0.52543435  1
  C  C18  1  0.16342263  0.67898480  0.30778442  1
  C  C19  1  0.16572532  0.67040344  0.80738617  1
  C  C20  1  0.66509433  0.64653652  0.81371498  1
  Ni  Ni21  1  0.00649378  0.00103032  0.35370275  1
  Ni  Ni22  1  0.50491652  0.03473169  0.85215282  1
  Ni  Ni23  1  0.99569235  0.00576414  0.64653075  1
  Ni  Ni24  1  0.49414581  0.97661607  0.14450622  1
  Ni  Ni25  1  0.34390251  0.34195056  0.97648382  1
  Ni  Ni26  1  0.83547218  0.32774999  0.97466723  1
  Ni  Ni27  1  0.33173461  0.33343491  0.48025944  1
  Ni  Ni28  1  0.82919262  0.36133467  0.47785803  1
  Ni  Ni29  1  0.67206772  0.66534059  0.31728186  1
  Cu  Cu30  1  0.14069180  0.00580421  0.25132964  1
  Cu  Cu31  1  0.35972938  0.72726691  0.24857602  1
  Cu  Cu32  1  0.99972916  0.27673166  0.25815515  1
  Cu  Cu33  1  0.13326393  0.27405324  0.74662489  1
  Cu  Cu34  1  0.64071755  0.27627488  0.75162198  1
  Cu  Cu35  1  0.36221662  0.00348246  0.75171192  1
  Cu  Cu36  1  0.69257564  0.05387816  0.57505124  1
  Cu  Cu37  1  0.33159693  0.61029844  0.57739098  1
  Cu  Cu38  1  0.84686596  0.63796075  0.58219471  1
  Cu  Cu39  1  0.47251643  0.62657342  0.07864390  1
  Cu  Cu40  1  0.83399581  0.05028541  0.07594671  1
  Cu  Cu41  1  0.80966038  0.65184820  0.92089896  1
  Cu  Cu42  1  0.01732032  0.38371811  0.91630110  1
  Cu  Cu43  1  0.51669239  0.36367025  0.91855844  1
  Cu  Cu44  1  0.17749555  0.97259532  0.91764372  1
  Cu  Cu45  1  0.30709574  0.97102121  0.41845561  1
  Cu  Cu46  1  0.67297487  0.38863703  0.41324164  1
  Cu  Cu47  1  0.01392042  0.66508040  0.41636670  1
  C  C48  1  0.64040411  0.98848152  0.25079322  1
  C  C49  1  0.85246292  0.71430041  0.25253749  1
  C  C50  1  0.50733715  0.29208704  0.24939782  1
  C  C51  1  0.99858020  0.71602564  0.74792405  1
  C  C52  1  0.50178112  0.72123260  0.75253490  1
  C  C53  1  0.85836543  0.00138128  0.74940139  1
  C  C54  1  0.47323987  0.33464543  0.58075714  1
  C  C55  1  0.97541591  0.32613799  0.58235256  1
  C  C56  1  0.18771279  0.04953224  0.58260969  1
  C  C57  1  0.97436440  0.61715946  0.08151801  1
  C  C58  1  0.33756513  0.04952412  0.08276272  1
  C  C59  1  0.19325255  0.33399820  0.08127773  1
  C  C60  1  0.68718099  0.32374844  0.08380227  1
  C  C61  1  0.31404534  0.66674939  0.91616626  1
  C  C62  1  0.66416128  0.95739779  0.91633935  1
  C  C63  1  0.81133587  0.95509501  0.41377401  1
  C  C64  1  0.16667830  0.37224267  0.41701713  1
  C  C65  1  0.52351180  0.65876963  0.41534451  1
  C  C66  1  0.09826552  0.03963216  0.30806708  1
  C  C67  1  0.60545943  0.03032154  0.30356192  1
  C  C68  1  0.42311444  0.80792669  0.30690848  1
  C  C69  1  0.90935173  0.78891615  0.30427021  1
  C  C70  1  0.48775666  0.17778765  0.30246754  1
  C  C71  1  0.97751400  0.14513476  0.31181920  1
  C  C72  1  0.09464827  0.15544157  0.80642195  1
  C  C73  1  0.60155178  0.16054665  0.80972549  1
  C  C74  1  0.48384126  0.79391423  0.80504778  1
  C  C75  1  0.98301170  0.78840260  0.80234049  1
  C  C76  1  0.41846108  0.02962794  0.80994870  1
  C  C77  1  0.91206522  0.02796396  0.80256445  1
  C  C78  1  0.40284846  0.97046811  0.69129903  1
  C  C79  1  0.89650072  0.97137312  0.69573912  1
  C  C80  1  0.07791701  0.18015259  0.68905267  1
  C  C81  1  0.58346509  0.19283757  0.69190156  1
  C  C82  1  0.01091970  0.82237067  0.69524453  1
  C  C83  1  0.51362368  0.82030116  0.69715340  1
  C  C84  1  0.40597258  0.84539366  0.19165167  1
  C  C85  1  0.89285190  0.81952097  0.19707271  1
  C  C86  1  0.00973746  0.18975279  0.19474776  1
  C  C87  1  0.51905087  0.21188391  0.19576368  1
  C  C88  1  0.08133820  0.97170956  0.19076318  1
  C  C89  1  0.59022920  0.96935595  0.19639060  1
  C  C90  1  0.43480210  0.35923839  0.63541188  1
  C  C91  1  0.93747245  0.35909929  0.63743195  1
  C  C92  1  0.24385089  0.12729713  0.63683439  1
  C  C93  1  0.75021310  0.13131856  0.63888629  1
  C  C94  1  0.32043775  0.49382751  0.63843913  1
  C  C95  1  0.82162496  0.50504763  0.64114954  1
  C  C96  1  0.42813462  0.49871205  0.13850941  1
  C  C97  1  0.93504679  0.50983176  0.13652614  1
  C  C98  1  0.31835392  0.12152793  0.13649122  1
  C  C99  1  0.82140407  0.14452968  0.13859136  1
  C  C100  1  0.24456888  0.35957070  0.13638112  1
  C  C101  1  0.74394703  0.35679077  0.13759743  1
  C  C102  1  0.23125239  0.30381795  0.02890267  1
  C  C103  1  0.72720476  0.29724131  0.03106310  1
  C  C104  1  0.40739354  0.52160064  0.02506187  1
  C  C105  1  0.92130008  0.53702787  0.02911441  1
  C  C106  1  0.34819176  0.15527950  0.02970158  1
  C  C107  1  0.84795833  0.18432234  0.02469335  1
  C  C108  1  0.23040434  0.15681526  0.52979755  1
  C  C109  1  0.74541637  0.18128640  0.52240499  1
  C  C110  1  0.34703438  0.51373963  0.52300857  1
  C  C111  1  0.85782840  0.54508686  0.52562152  1
  C  C112  1  0.41911763  0.30509808  0.52820463  1
  C  C113  1  0.92156981  0.29656243  0.53022272  1
  C  C114  1  0.27119883  0.69732376  0.97053050  1
  C  C115  1  0.76504506  0.69857814  0.97531585  1
  C  C116  1  0.08382071  0.47193080  0.97517035  1
  C  C117  1  0.58404899  0.47012313  0.97344682  1
  C  C118  1  0.15690468  0.83540196  0.97511624  1
  C  C119  1  0.65066941  0.84731889  0.96990699  1
  C  C120  1  0.26613402  0.83866504  0.47597772  1
  C  C121  1  0.76808696  0.84056695  0.46818044  1
  C  C122  1  0.15254991  0.45598320  0.47089220  1
  C  C123  1  0.65120198  0.47391043  0.47216297  1
  C  C124  1  0.08297938  0.69655898  0.47353065  1
  C  C125  1  0.57618411  0.69102320  0.46914882  1
  C  C126  1  0.06739139  0.63784575  0.36029512  1
  C  C127  1  0.56553332  0.63886858  0.36121672  1
  C  C128  1  0.25009566  0.87405892  0.36011501  1
  C  C129  1  0.75296905  0.86829527  0.36115600  1
  C  C130  1  0.18374893  0.48257029  0.36415684  1
  C  C131  1  0.68214873  0.50719207  0.35674775  1
  C  C132  1  0.06978470  0.50758236  0.86010956  1
  C  C133  1  0.56662387  0.49554961  0.85939503  1
  C  C134  1  0.18720211  0.87081034  0.86052990  1
  C  C135  1  0.68167474  0.87933875  0.86273477  1
  C  C136  1  0.25747962  0.63754560  0.86359022  1
  C  C137  1  0.74863054  0.63035831  0.86074309  1
  C  C138  1  0.00745398  0.84314523  0.40721649  1
  C  C139  1  0.51566005  0.82254163  0.40872450  1
  C  C140  1  0.40416987  0.98352552  0.40873624  1
  C  C141  1  0.89732285  0.96440972  0.40867885  1
  C  C142  1  0.08542846  0.19640714  0.41209289  1
  C  C143  1  0.58392303  0.19151399  0.40216649  1
  C  C144  1  0.01219367  0.19297830  0.90923398  1
  C  C145  1  0.51220145  0.17558783  0.91233404  1
  C  C146  1  0.08364356  0.96824268  0.91017879  1
  C  C147  1  0.58321422  0.96792673  0.90900405  1
  C  C148  1  0.40202198  0.82378487  0.91060278  1
  C  C149  1  0.90320682  0.82563365  0.90271354  1
  C  C150  1  0.48463103  0.17764093  0.58646625  1
  C  C151  1  0.98645517  0.16941723  0.59153900  1
  C  C152  1  0.10007947  0.02933220  0.59015415  1
  C  C153  1  0.59677502  0.02941652  0.59295152  1
  C  C154  1  0.41737976  0.80445696  0.59169266  1
  C  C155  1  0.92741838  0.83270958  0.59621311  1
  C  C156  1  0.48933299  0.82453500  0.08981665  1
  C  C157  1  0.98599742  0.79443406  0.09026571  1
  C  C158  1  0.41778400  0.03509296  0.09052053  1
  C  C159  1  0.91797528  0.02436812  0.09204578  1
  C  C160  1  0.10211494  0.17668442  0.08910283  1
  C  C161  1  0.59764314  0.16910418  0.09407650  1
  C  C162  1  0.34903570  0.17572923  0.73985996  1
  C  C163  1  0.85191605  0.16531917  0.74344167  1
  C  C164  1  0.23560795  0.30368703  0.74188670  1
  C  C165  1  0.74312880  0.31019186  0.74496016  1
  C  C166  1  0.42258793  0.53510527  0.74476763  1
  C  C167  1  0.92250390  0.53157961  0.74242731  1
  C  C168  1  0.34869677  0.52455081  0.24205543  1
  C  C169  1  0.84138832  0.53310525  0.24184998  1
  C  C170  1  0.42312646  0.30383921  0.24342634  1
  C  C171  1  0.91384411  0.30893308  0.24297087  1
  C  C172  1  0.24116483  0.17203215  0.23913008  1
  C  C173  1  0.73235769  0.15623377  0.24293879  1
  C  C174  1  0.31719448  0.50361770  0.92477001  1
  C  C175  1  0.81651734  0.47859702  0.93029512  1
  C  C176  1  0.42416468  0.35852345  0.92348122  1
  C  C177  1  0.92191739  0.35889844  0.92383158  1
  C  C178  1  0.25679105  0.16493380  0.93181192  1
  C  C179  1  0.74350604  0.13493056  0.92428742  1
  C  C180  1  0.32268553  0.16563485  0.42993875  1
  C  C181  1  0.81926277  0.12771815  0.42137939  1
  C  C182  1  0.24581142  0.35298758  0.42586599  1
  C  C183  1  0.75399140  0.35600667  0.42157035  1
  C  C184  1  0.43356838  0.50423600  0.42088615  1
  C  C185  1  0.92303397  0.48183976  0.42695081  1
  C  C186  1  0.18308208  0.49295965  0.07575793  1
  C  C187  1  0.68014299  0.48635753  0.07861915  1
  C  C188  1  0.06438478  0.63507412  0.07644829  1
  C  C189  1  0.56921860  0.64127819  0.07149095  1
  C  C190  1  0.25875246  0.86625502  0.07485556  1
  C  C191  1  0.74706730  0.85737442  0.07354137  1
  C  C192  1  0.17957253  0.87122420  0.57736649  1
  C  C193  1  0.67639568  0.85386143  0.56849905  1
  C  C194  1  0.24446661  0.63102032  0.57143871  1
  C  C195  1  0.75470328  0.64888669  0.57504797  1
  C  C196  1  0.06524343  0.48636399  0.57591386  1
  C  C197  1  0.56250043  0.49412742  0.57503092  1
  C  C198  1  0.15281225  0.83334862  0.25514338  1
  C  C199  1  0.65432936  0.83771555  0.26044949  1
  C  C200  1  0.26145895  0.68758619  0.26196743  1
  C  C201  1  0.76496741  0.69807992  0.25981712  1
  C  C202  1  0.08436090  0.47109295  0.26021491  1
  C  C203  1  0.58124356  0.47247112  0.25930277  1
  C  C204  1  0.15205520  0.47403645  0.75953430  1
  C  C205  1  0.65425060  0.47803794  0.75772819  1
  C  C206  1  0.07964175  0.70046187  0.75422035  1
  C  C207  1  0.58048492  0.70124778  0.75867796  1
  C  C208  1  0.26218486  0.83304502  0.76016283  1
  C  C209  1  0.76776923  0.84807550  0.75700011  1
