# generated using pymatgen
data_Cu2NiC28
_symmetry_space_group_name_H-M   'P 1'
_cell_length_a   5.93700891
_cell_length_b   5.93661196
_cell_length_c   15.65887731
_cell_angle_alpha   90.17171190
_cell_angle_beta   81.31834282
_cell_angle_gamma   119.72203245
_symmetry_Int_Tables_number   1
_chemical_formula_structural   Cu2NiC28
_chemical_formula_sum   'Cu2 Ni1 C28'
_cell_volume   472.14625376
_cell_formula_units_Z   1
loop_
 _symmetry_equiv_pos_site_id
 _symmetry_equiv_pos_as_xyz
  1  'x, y, z'
loop_
 _atom_site_type_symbol
 _atom_site_label
 _atom_site_symmetry_multiplicity
 _atom_site_fract_x
 _atom_site_fract_y
 _atom_site_fract_z
 _atom_site_occupancy
  C  C0  1  0.39833300  0.70806000  0.57743400  1
  C  C1  1  0.46068600  0.21828600  0.05291600  1
  C  C2  1  0.81019600  0.41075400  0.41914900  1
  C  C3  1  0.21965600  0.60029700  0.90385700  1
  C  C4  1  0.97790400  0.99148600  0.73872300  1
  C  C5  1  0.21697400  0.11396500  0.29566000  1
  Ni  Ni6  1  0.71143200  0.84771900  0.16244200  1
  Cu  Cu7  1  0.84833600  0.91828000  0.98209600  1
  Cu  Cu8  1  0.10231500  0.05880900  0.50682600  1
  C  C9  1  0.04534000  0.51361200  0.15250600  1
  C  C10  1  0.68965500  0.35132200  0.65204000  1
  C  C11  1  0.59056600  0.28762900  0.83787800  1
  C  C12  1  0.51069200  0.76006600  0.35107500  1
  C  C13  1  0.96966800  0.75810200  0.08056800  1
  C  C14  1  0.91780400  0.19680000  0.07032600  1
  C  C15  1  0.42693700  0.68493700  0.08541800  1
  C  C16  1  0.38909200  0.22110500  0.59150200  1
  C  C17  1  0.72765500  0.57945500  0.91389200  1
  C  C18  1  0.87479800  0.19201300  0.58740400  1
  C  C19  1  0.90020300  0.70013800  0.59180700  1
  C  C20  1  0.34019800  0.93079400  0.42970600  1
  C  C21  1  0.80043600  0.88562800  0.42474800  1
  C  C22  1  0.22877900  0.12070100  0.90595400  1
  C  C23  1  0.68926300  0.07641900  0.90511900  1
  C  C24  1  0.29909600  0.42174700  0.42875200  1
  C  C25  1  0.72706100  0.07751300  0.26549100  1
  C  C26  1  0.50346800  0.48147700  0.75125600  1
  C  C27  1  0.93536900  0.45576100  0.74916800  1
  C  C28  1  0.48243300  0.02607400  0.74445700  1
  C  C29  1  0.66675900  0.59660200  0.26540800  1
  C  C30  1  0.21598300  0.64778500  0.28178000  1
