# generated using pymatgen
data_Cu4NiC9
_symmetry_space_group_name_H-M   'P 1'
_cell_length_a   7.53949299
_cell_length_b   7.65812974
_cell_length_c   7.53949299
_cell_angle_alpha   92.22374476
_cell_angle_beta   156.09404159
_cell_angle_gamma   92.61687805
_symmetry_Int_Tables_number   1
_chemical_formula_structural   Cu4NiC9
_chemical_formula_sum   'Cu4 Ni1 C9'
_cell_volume   172.69983767
_cell_formula_units_Z   1
loop_
 _symmetry_equiv_pos_site_id
 _symmetry_equiv_pos_as_xyz
  1  'x, y, z'
loop_
 _atom_site_type_symbol
 _atom_site_label
 _atom_site_symmetry_multiplicity
 _atom_site_fract_x
 _atom_site_fract_y
 _atom_site_fract_z
 _atom_site_occupancy
  C  C0  1  0.50000000  0.00000000  0.50000000  1
  Ni  Ni1  1  0.00000000  0.50000000  0.50000000  1
  Cu  Cu2  1  0.81391200  0.16096600  0.34705400  1
  Cu  Cu3  1  0.33748000  0.50471700  0.16723500  1
  Cu  Cu4  1  0.66252000  0.49528300  0.83276500  1
  Cu  Cu5  1  0.18608800  0.83903400  0.65294600  1
  C  C6  1  0.81522800  0.35144100  0.53621300  1
  C  C7  1  0.80654800  0.97029700  0.16374700  1
  C  C8  1  0.52566200  0.65917200  0.13350800  1
  C  C9  1  0.15720400  0.36908600  0.21188200  1
  C  C10  1  0.84279600  0.63091400  0.78811800  1
  C  C11  1  0.47433800  0.34082800  0.86649200  1
  C  C12  1  0.19345200  0.02970300  0.83625300  1
  C  C13  1  0.18477200  0.64855900  0.46378700  1
