# generated using pymatgen
data_Cu(NiC4)2
_symmetry_space_group_name_H-M   'P 1'
_cell_length_a   6.61504545
_cell_length_b   6.25972148
_cell_length_c   6.61504521
_cell_angle_alpha   61.76150356
_cell_angle_beta   55.26273229
_cell_angle_gamma   61.76150494
_symmetry_Int_Tables_number   1
_chemical_formula_structural   Cu(NiC4)2
_chemical_formula_sum   'Cu1 Ni2 C8'
_cell_volume   190.31007463
_cell_formula_units_Z   1
loop_
 _symmetry_equiv_pos_site_id
 _symmetry_equiv_pos_as_xyz
  1  'x, y, z'
loop_
 _atom_site_type_symbol
 _atom_site_label
 _atom_site_symmetry_multiplicity
 _atom_site_fract_x
 _atom_site_fract_y
 _atom_site_fract_z
 _atom_site_occupancy
  Ni  Ni0  1  0.80684700  0.69315300  0.80684700  1
  Ni  Ni1  1  0.19315300  0.30684700  0.19315300  1
  Cu  Cu2  1  0.00000000  0.00000000  0.00000000  1
  C  C3  1  0.50000000  0.00000000  0.50000000  1
  C  C4  1  0.50000000  0.50000000  0.50000000  1
  C  C5  1  0.26545700  0.76793400  0.73454300  1
  C  C6  1  0.24080200  0.75919800  0.24080200  1
  C  C7  1  0.75919800  0.24080200  0.75919800  1
  C  C8  1  0.26545700  0.23206600  0.73454300  1
  C  C9  1  0.73454300  0.23206600  0.26545700  1
  C  C10  1  0.73454300  0.76793400  0.26545700  1
