# generated using pymatgen
data_Cu6Ni6C7
_symmetry_space_group_name_H-M   'P 1'
_cell_length_a   5.07299742
_cell_length_b   14.56437716
_cell_length_c   3.06255048
_cell_angle_alpha   89.97215711
_cell_angle_beta   89.95266630
_cell_angle_gamma   96.30244824
_symmetry_Int_Tables_number   1
_chemical_formula_structural   Cu6Ni6C7
_chemical_formula_sum   'Cu6 Ni6 C7'
_cell_volume   224.90901736
_cell_formula_units_Z   1
loop_
 _symmetry_equiv_pos_site_id
 _symmetry_equiv_pos_as_xyz
  1  'x, y, z'
loop_
 _atom_site_type_symbol
 _atom_site_label
 _atom_site_symmetry_multiplicity
 _atom_site_fract_x
 _atom_site_fract_y
 _atom_site_fract_z
 _atom_site_occupancy
  C  C0  1  0.00548200  0.16477100  0.48943800  1
  C  C1  1  0.07581200  0.98169500  0.99084000  1
  C  C2  1  0.98810400  0.35165600  0.99142600  1
  C  C3  1  0.97074600  0.66614700  0.99253400  1
  C  C4  1  0.50774700  0.17267700  0.48974100  1
  C  C5  1  0.49006700  0.50181900  0.49216100  1
  C  C6  1  0.45992700  0.82552400  0.49168900  1
  Ni  Ni7  1  0.23975900  0.93146000  0.49087100  1
  Ni  Ni8  1  0.29210400  0.76451300  0.99205500  1
  Ni  Ni9  1  0.24298600  0.11145200  0.98915400  1
  Ni  Ni10  1  0.28457300  0.45077900  0.99250700  1
  Ni  Ni11  1  0.68289000  0.57482300  0.99196400  1
  Ni  Ni12  1  0.77781000  0.21356800  0.99008400  1
  Cu  Cu13  1  0.23957500  0.27954100  0.49008800  1
  Cu  Cu14  1  0.15746400  0.61102700  0.49245700  1
  Cu  Cu15  1  0.71780300  0.88793100  0.99149100  1
  Cu  Cu16  1  0.75026500  0.40150300  0.49210900  1
  Cu  Cu17  1  0.80295600  0.73899300  0.49249300  1
  Cu  Cu18  1  0.82782100  0.03678900  0.49023300  1
