# generated using pymatgen
data_Cu4NiC12
_symmetry_space_group_name_H-M   'P 1'
_cell_length_a   5.06538165
_cell_length_b   9.45940669
_cell_length_c   5.21928915
_cell_angle_alpha   103.88479962
_cell_angle_beta   118.11375441
_cell_angle_gamma   72.87508165
_symmetry_Int_Tables_number   1
_chemical_formula_structural   Cu4NiC12
_chemical_formula_sum   'Cu4 Ni1 C12'
_cell_volume   209.27370078
_cell_formula_units_Z   1
loop_
 _symmetry_equiv_pos_site_id
 _symmetry_equiv_pos_as_xyz
  1  'x, y, z'
loop_
 _atom_site_type_symbol
 _atom_site_label
 _atom_site_symmetry_multiplicity
 _atom_site_fract_x
 _atom_site_fract_y
 _atom_site_fract_z
 _atom_site_occupancy
  Ni  Ni0  1  0.65012000  0.05227300  0.35526500  1
  Cu  Cu1  1  0.00563200  0.99498400  0.99700700  1
  Cu  Cu2  1  0.69505000  0.72047800  0.20205800  1
  Cu  Cu3  1  0.51606800  0.48584500  0.53962300  1
  Cu  Cu4  1  0.27928700  0.24501300  0.78358200  1
  C  C5  1  0.41500200  0.88293400  0.22637700  1
  C  C6  1  0.81146600  0.89750300  0.06167300  1
  C  C7  1  0.28464900  0.39159900  0.54751700  1
  C  C8  1  0.68756500  0.61774300  0.41828100  1
  C  C9  1  0.24814500  0.13424800  0.01497700  1
  C  C10  1  0.52070400  0.63406100  0.85172400  1
  C  C11  1  0.61508100  0.13566800  0.74515100  1
  C  C12  1  0.86790300  0.37826800  0.71143600  1
  C  C13  1  0.11178300  0.63661800  0.27566900  1
  C  C14  1  0.00211700  0.13211800  0.39733800  1
  C  C15  1  0.47036200  0.37831600  0.13648400  1
  C  C16  1  0.98156600  0.89344100  0.62333800  1
