# generated using pymatgen
data_CuNi11C7
_symmetry_space_group_name_H-M   'P 1'
_cell_length_a   4.91804576
_cell_length_b   7.48080739
_cell_length_c   5.54643785
_cell_angle_alpha   95.87298204
_cell_angle_beta   91.67879178
_cell_angle_gamma   88.51830996
_symmetry_Int_Tables_number   1
_chemical_formula_structural   CuNi11C7
_chemical_formula_sum   'Cu1 Ni11 C7'
_cell_volume   202.84691017
_cell_formula_units_Z   1
loop_
 _symmetry_equiv_pos_site_id
 _symmetry_equiv_pos_as_xyz
  1  'x, y, z'
loop_
 _atom_site_type_symbol
 _atom_site_label
 _atom_site_symmetry_multiplicity
 _atom_site_fract_x
 _atom_site_fract_y
 _atom_site_fract_z
 _atom_site_occupancy
  C  C0  1  0.00893400  0.49451600  0.00189300  1
  C  C1  1  0.51975600  0.69728400  0.13397600  1
  C  C2  1  0.49196100  0.00126400  0.50771700  1
  C  C3  1  0.50819900  0.32450400  0.85469800  1
  C  C4  1  0.98143200  0.69961800  0.63251300  1
  C  C5  1  0.99370500  0.29809900  0.39488700  1
  C  C6  1  0.00152900  0.00632200  0.00604400  1
  Ni  Ni7  1  0.84657600  0.44530700  0.66566500  1
  Ni  Ni8  1  0.84261300  0.76789300  0.96566000  1
  Ni  Ni9  1  0.81294000  0.08416900  0.29903200  1
  Ni  Ni10  1  0.71036700  0.09953400  0.81650900  1
  Ni  Ni11  1  0.66470700  0.76413600  0.45121100  1
  Ni  Ni12  1  0.66697100  0.44135800  0.14865100  1
  Ni  Ni13  1  0.33691800  0.57392400  0.85686500  1
  Ni  Ni14  1  0.33269100  0.24368800  0.55721300  1
  Ni  Ni15  1  0.29085700  0.90928100  0.19101500  1
  Ni  Ni16  1  0.16412200  0.24256500  0.05627400  1
  Ni  Ni17  1  0.17848500  0.91687200  0.70747100  1
  Cu  Cu18  1  0.16112400  0.57002400  0.33604000  1
