# generated using pymatgen
data_Cu4NiC15
_symmetry_space_group_name_H-M   'P 1'
_cell_length_a   5.39787067
_cell_length_b   5.18610409
_cell_length_c   9.14779660
_cell_angle_alpha   86.93211876
_cell_angle_beta   79.87887555
_cell_angle_gamma   81.90266852
_symmetry_Int_Tables_number   1
_chemical_formula_structural   Cu4NiC15
_chemical_formula_sum   'Cu4 Ni1 C15'
_cell_volume   249.47553960
_cell_formula_units_Z   1
loop_
 _symmetry_equiv_pos_site_id
 _symmetry_equiv_pos_as_xyz
  1  'x, y, z'
loop_
 _atom_site_type_symbol
 _atom_site_label
 _atom_site_symmetry_multiplicity
 _atom_site_fract_x
 _atom_site_fract_y
 _atom_site_fract_z
 _atom_site_occupancy
  Ni  Ni0  1  0.74623100  0.56619100  0.54170400  1
  Cu  Cu1  1  0.96745200  0.11582200  0.34539100  1
  Cu  Cu2  1  0.60044300  0.73838000  0.27529500  1
  Cu  Cu3  1  0.73064800  0.98911800  0.69387000  1
  Cu  Cu4  1  0.43924600  0.49732400  0.93322400  1
  C  C5  1  0.22769700  0.41916100  0.60454100  1
  C  C6  1  0.00275400  0.03598900  0.99566400  1
  C  C7  1  0.88192300  0.46954400  0.31645900  1
  C  C8  1  0.26895400  0.93941500  0.31143200  1
  C  C9  1  0.71320900  0.93332800  0.46398500  1
  C  C10  1  0.58047500  0.68757600  0.75671500  1
  C  C11  1  0.54498100  0.58894300  0.08372600  1
  C  C12  1  0.39394000  0.25354500  0.73453000  1
  C  C13  1  0.78331100  0.16614300  0.88403600  1
  C  C14  1  0.11431500  0.72506500  0.94335000  1
  C  C15  1  0.82037900  0.00114700  0.17559800  1
  C  C16  1  0.99170100  0.23514300  0.56973100  1
  C  C17  1  0.05235300  0.71210600  0.63939000  1
  C  C18  1  0.45260600  0.46206900  0.45388300  1
  C  C19  1  0.22249900  0.21919100  0.02787800  1
