# generated using pymatgen
data_Cu(NiC7)2
_symmetry_space_group_name_H-M   'P 1'
_cell_length_a   8.83576841
_cell_length_b   8.86995100
_cell_length_c   23.01598403
_cell_angle_alpha   90.04864205
_cell_angle_beta   90.00278339
_cell_angle_gamma   119.91056796
_symmetry_Int_Tables_number   1
_chemical_formula_structural   Cu(NiC7)2
_chemical_formula_sum   'Cu6 Ni12 C84'
_cell_volume   1563.56584287
_cell_formula_units_Z   6
loop_
 _symmetry_equiv_pos_site_id
 _symmetry_equiv_pos_as_xyz
  1  'x, y, z'
loop_
 _atom_site_type_symbol
 _atom_site_label
 _atom_site_symmetry_multiplicity
 _atom_site_fract_x
 _atom_site_fract_y
 _atom_site_fract_z
 _atom_site_occupancy
  C  C0  1  0.99903264  0.00276272  0.35558884  1
  C  C1  1  0.99213565  0.00598897  0.64373552  1
  C  C2  1  0.01270242  0.00434097  0.14187512  1
  C  C3  1  0.66495330  0.33516204  0.68978897  1
  C  C4  1  0.67871515  0.33803139  0.47676396  1
  C  C5  1  0.32566755  0.67154726  0.30864445  1
  C  C6  1  0.00139318  0.99927171  0.85475197  1
  C  C7  1  0.66936587  0.33623523  0.18636873  1
  C  C8  1  0.65871386  0.33673071  0.97767328  1
  C  C9  1  0.33304913  0.66801930  0.01985438  1
  C  C10  1  0.33576457  0.66823431  0.52088730  1
  C  C11  1  0.34513256  0.67112856  0.81336125  1
  Ni  Ni12  1  0.29565967  0.01041129  0.24910972  1
  Ni  Ni13  1  0.99366985  0.28568876  0.24834505  1
  Ni  Ni14  1  0.28353270  0.29015565  0.75230580  1
  Ni  Ni15  1  0.71055379  0.99831210  0.75232807  1
  Ni  Ni16  1  0.96216069  0.34286335  0.58317182  1
  Ni  Ni17  1  0.66161220  0.62047057  0.58261726  1
  Ni  Ni18  1  0.95453881  0.61523257  0.08162698  1
  Ni  Ni19  1  0.38495648  0.34304156  0.08242173  1
  Ni  Ni20  1  0.62526946  0.66981128  0.91718131  1
  Ni  Ni21  1  0.33368206  0.95517956  0.91673545  1
  Ni  Ni22  1  0.61688119  0.95004513  0.41735279  1
  Ni  Ni23  1  0.05068629  0.67148674  0.41771769  1
  Cu  Cu24  1  0.71154583  0.70797904  0.24895912  1
  Cu  Cu25  1  0.00593377  0.71242397  0.75131202  1
  Cu  Cu26  1  0.37691657  0.04082084  0.58295187  1
  Cu  Cu27  1  0.66353868  0.04406546  0.08188263  1
  Cu  Cu28  1  0.04114012  0.37599528  0.91652035  1
  Cu  Cu29  1  0.33361509  0.37985988  0.41685490  1
  C  C30  1  0.20722472  0.03376912  0.30297457  1
  C  C31  1  0.81985456  0.78762408  0.30132899  1
  C  C32  1  0.96613537  0.17288404  0.30268732  1
  C  C33  1  0.20710883  0.17518534  0.80708463  1
  C  C34  1  0.96975527  0.78578968  0.80424160  1
  C  C35  1  0.82510184  0.03193421  0.80684003  1
  C  C36  1  0.79567797  0.96653646  0.69859067  1
  C  C37  1  0.17034076  0.20205554  0.69837628  1
  C  C38  1  0.03476843  0.82027158  0.69970253  1
  C  C39  1  0.78980176  0.81576760  0.19714173  1
  C  C40  1  0.02063916  0.19785684  0.19478692  1
  C  C41  1  0.17814387  0.97471155  0.19536428  1
  C  C42  1  0.87260627  0.36625732  0.63676684  1
  C  C43  1  0.48663142  0.12168883  0.63502772  1
  C  C44  1  0.63400255  0.50582951  0.63651488  1
  C  C45  1  0.87651252  0.50264684  0.13677392  1
  C  C46  1  0.62967078  0.11926026  0.13465836  1
  C  C47  1  0.49641311  0.37311153  0.13745150  1
  C  C48  1  0.45821956  0.29840104  0.02855998  1
  C  C49  1  0.83999000  0.53382440  0.02722754  1
  C  C50  1  0.69761837  0.15387476  0.02965069  1
  C  C51  1  0.45517760  0.14863629  0.53091653  1
  C  C52  1  0.68853595  0.53345306  0.52869976  1
  C  C53  1  0.84551003  0.30718357  0.52917461  1
  C  C54  1  0.54308583  0.70223290  0.97179622  1
  C  C55  1  0.15144641  0.45197019  0.96907207  1
  C  C56  1  0.29781841  0.84005335  0.97137570  1
  C  C57  1  0.54134480  0.83843665  0.47250451  1
  C  C58  1  0.29936267  0.45335162  0.46989687  1
  C  C59  1  0.16153318  0.70199301  0.47258483  1
  C  C60  1  0.13266351  0.63695434  0.36402967  1
  C  C61  1  0.50396982  0.86284610  0.36356671  1
  C  C62  1  0.36256465  0.48744773  0.36519338  1
  C  C63  1  0.11721903  0.48576157  0.86427014  1
  C  C64  1  0.36468048  0.87275513  0.86192323  1
  C  C65  1  0.50771312  0.62907044  0.86307357  1
  C  C66  1  0.02955152  0.83033353  0.40742751  1
  C  C67  1  0.79931485  0.97242228  0.40782891  1
  C  C68  1  0.17809666  0.20601568  0.40966190  1
  C  C69  1  0.02454578  0.20276909  0.90965152  1
  C  C70  1  0.17132871  0.97564015  0.90839177  1
  C  C71  1  0.80594051  0.83279588  0.90816502  1
  C  C72  1  0.98126896  0.18024668  0.59110062  1
  C  C73  1  0.20286871  0.02038355  0.59186899  1
  C  C74  1  0.82538280  0.79925203  0.59273354  1
  C  C75  1  0.96998371  0.79410318  0.09189049  1
  C  C76  1  0.81710474  0.02395373  0.09050154  1
  C  C77  1  0.20304555  0.18127849  0.09124726  1
  C  C78  1  0.69205263  0.15914991  0.74125424  1
  C  C79  1  0.46566421  0.31127351  0.74192996  1
  C  C80  1  0.85022697  0.53869385  0.74366463  1
  C  C81  1  0.69453738  0.53372919  0.24285628  1
  C  C82  1  0.83221703  0.30748009  0.24076831  1
  C  C83  1  0.47647210  0.17098794  0.24004643  1
  C  C84  1  0.64551123  0.50776617  0.92412390  1
  C  C85  1  0.86617547  0.35650693  0.92474189  1
  C  C86  1  0.49969584  0.13487553  0.92551046  1
  C  C87  1  0.63313346  0.12920502  0.42643060  1
  C  C88  1  0.48687682  0.35863421  0.42511716  1
  C  C89  1  0.86888674  0.50938508  0.42495705  1
  C  C90  1  0.36366449  0.50325199  0.07338614  1
  C  C91  1  0.13824661  0.63791151  0.07348349  1
  C  C92  1  0.50667635  0.87021777  0.07516613  1
  C  C93  1  0.36045325  0.86724786  0.57675499  1
  C  C94  1  0.49988994  0.64118533  0.57501760  1
  C  C95  1  0.14270434  0.50318095  0.57428453  1
  C  C96  1  0.31484849  0.84791173  0.25697027  1
  C  C97  1  0.53698554  0.68671841  0.25774105  1
  C  C98  1  0.15734723  0.46464089  0.25838149  1
  C  C99  1  0.29843869  0.47003638  0.76058594  1
  C  C100  1  0.16104070  0.69238789  0.75968292  1
  C  C101  1  0.52846028  0.83570490  0.75815834  1
