# generated using pymatgen
data_CuNi2C11
_symmetry_space_group_name_H-M   'P 1'
_cell_length_a   3.74634260
_cell_length_b   4.00244249
_cell_length_c   14.04046767
_cell_angle_alpha   90.00000000
_cell_angle_beta   90.00000000
_cell_angle_gamma   90.00000000
_symmetry_Int_Tables_number   1
_chemical_formula_structural   CuNi2C11
_chemical_formula_sum   'Cu1 Ni2 C11'
_cell_volume   210.53008458
_cell_formula_units_Z   1
loop_
 _symmetry_equiv_pos_site_id
 _symmetry_equiv_pos_as_xyz
  1  'x, y, z'
loop_
 _atom_site_type_symbol
 _atom_site_label
 _atom_site_symmetry_multiplicity
 _atom_site_fract_x
 _atom_site_fract_y
 _atom_site_fract_z
 _atom_site_occupancy
  Ni  Ni0  1  0.50000000  0.50000000  0.74172775  1
  Ni  Ni1  1  0.50000000  0.50000000  0.20858270  1
  Cu  Cu2  1  0.50000000  0.50000000  0.48033410  1
  C  C3  1  0.50000000  0.00000000  0.92944065  1
  C  C4  1  0.00000000  0.00000000  0.60191341  1
  C  C5  1  0.00000000  0.00000000  0.35624650  1
  C  C6  1  0.00000000  0.00000000  0.06209509  1
  C  C7  1  0.00000000  0.00000000  0.84793430  1
  C  C8  1  0.00000000  0.00000000  0.19917005  1
  C  C9  1  0.00000000  0.50000000  0.60164222  1
  C  C10  1  0.00000000  0.50000000  0.37298661  1
  C  C11  1  0.50000000  0.00000000  0.60955726  1
  C  C12  1  0.50000000  0.00000000  0.38777167  1
  C  C13  1  0.00000000  0.50000000  0.02837568  1
