# generated using pymatgen
data_Cu2NiC12
_symmetry_space_group_name_H-M   'P 1'
_cell_length_a   2.94546374
_cell_length_b   5.66050665
_cell_length_c   11.98243471
_cell_angle_alpha   90.00000000
_cell_angle_beta   90.00000000
_cell_angle_gamma   114.27911769
_symmetry_Int_Tables_number   1
_chemical_formula_structural   Cu2NiC12
_chemical_formula_sum   'Cu2 Ni1 C12'
_cell_volume   182.11095683
_cell_formula_units_Z   1
loop_
 _symmetry_equiv_pos_site_id
 _symmetry_equiv_pos_as_xyz
  1  'x, y, z'
loop_
 _atom_site_type_symbol
 _atom_site_label
 _atom_site_symmetry_multiplicity
 _atom_site_fract_x
 _atom_site_fract_y
 _atom_site_fract_z
 _atom_site_occupancy
  Ni  Ni0  1  0.47117058  0.84342114  0.25000000  1
  Cu  Cu1  1  0.19050981  0.70544580  0.75000000  1
  Cu  Cu2  1  0.85641944  0.34203372  0.25000000  1
  C  C3  1  0.73889671  0.67553602  0.01734002  1
  C  C4  1  0.13564414  0.18009551  0.89309257  1
  C  C5  1  0.73889671  0.67553602  0.48265998  1
  C  C6  1  0.13564414  0.18009551  0.60690743  1
  C  C7  1  0.17043692  0.59385903  0.37214199  1
  C  C8  1  0.84987770  0.45295528  0.62389104  1
  C  C9  1  0.84987770  0.45295528  0.87610896  1
  C  C10  1  0.17043692  0.59385903  0.12785801  1
  C  C11  1  0.16292815  0.08687146  0.25000000  1
  C  C12  1  -0.07671351  -0.01973184  0.75000000  1
  C  C13  1  0.48007079  -0.03146598  0.95898676  1
  C  C14  1  0.48007079  -0.03146598  0.54101324  1
