# generated using pymatgen
data_Cu7Ni6C61
_symmetry_space_group_name_H-M   'P 1'
_cell_length_a   18.42158475
_cell_length_b   9.20292985
_cell_length_c   24.13656588
_cell_angle_alpha   90.05815173
_cell_angle_beta   89.93697863
_cell_angle_gamma   119.94919861
_symmetry_Int_Tables_number   1
_chemical_formula_structural   Cu7Ni6C61
_chemical_formula_sum   'Cu21 Ni18 C183'
_cell_volume   3545.52847031
_cell_formula_units_Z   3
loop_
 _symmetry_equiv_pos_site_id
 _symmetry_equiv_pos_as_xyz
  1  'x, y, z'
loop_
 _atom_site_type_symbol
 _atom_site_label
 _atom_site_symmetry_multiplicity
 _atom_site_fract_x
 _atom_site_fract_y
 _atom_site_fract_z
 _atom_site_occupancy
  Ni  Ni0  1  0.32125355  0.64099552  0.74923831  1
  Ni  Ni1  1  0.64947064  0.33050565  0.58435846  1
  Ni  Ni2  1  0.98726259  0.66764721  0.91758371  1
  Ni  Ni3  1  0.66477950  0.30150684  0.91536059  1
  Ni  Ni4  1  0.16706472  0.02960935  0.41709696  1
  Ni  Ni5  1  0.66643650  0.02884584  0.41724668  1
  Ni  Ni6  1  0.99512419  0.00290997  0.49567944  1
  Ni  Ni7  1  0.48545196  0.98272695  0.50146770  1
  Ni  Ni8  1  0.00303298  0.01631618  0.99797286  1
  Ni  Ni9  1  0.49107103  0.98477142  0.99521991  1
  Ni  Ni10  1  0.33780116  0.32544776  0.83720199  1
  Ni  Ni11  1  0.82983306  0.31715205  0.83003832  1
  Ni  Ni12  1  0.33994512  0.34576269  0.33460382  1
  Ni  Ni13  1  0.84024182  0.34600444  0.33387706  1
  Ni  Ni14  1  0.16761546  0.66690571  0.16638808  1
  Ni  Ni15  1  0.66584392  0.66619947  0.16660925  1
  Ni  Ni16  1  0.16540578  0.67146859  0.66337106  1
  Ni  Ni17  1  0.66249258  0.67389429  0.66999871  1
  Cu  Cu18  1  0.99590642  0.99953862  0.35009637  1
  Cu  Cu19  1  0.49542372  0.00000584  0.35053711  1
  Cu  Cu20  1  0.00141066  0.00965120  0.85028543  1
  Cu  Cu21  1  0.49695863  0.99585211  0.84893099  1
  Cu  Cu22  1  0.49797052  0.99472815  0.65103948  1
  Cu  Cu23  1  0.33677217  0.32878452  0.68090773  1
  Cu  Cu24  1  0.83215381  0.33074797  0.68447390  1
  Cu  Cu25  1  0.33304659  0.33277304  0.18310776  1
  Cu  Cu26  1  0.83288060  0.33293706  0.18317060  1
  Cu  Cu27  1  0.33353236  0.33534049  0.98553039  1
  Cu  Cu28  1  0.83311036  0.32274278  0.98940369  1
  Cu  Cu29  1  0.33661632  0.34095970  0.48568383  1
  Cu  Cu30  1  0.84209156  0.34326548  0.48563186  1
  Cu  Cu31  1  0.17024465  0.66803211  0.01776742  1
  Cu  Cu32  1  0.66566439  0.67045296  0.01773146  1
  Cu  Cu33  1  0.16709735  0.66053952  0.51757476  1
  Cu  Cu34  1  0.66639282  0.67101001  0.51565205  1
  Cu  Cu35  1  0.16714944  0.66197307  0.31357920  1
  Cu  Cu36  1  0.66664172  0.66151907  0.31336656  1
  Cu  Cu37  1  0.16460859  0.66844122  0.81645539  1
  Cu  Cu38  1  0.66711962  0.66983077  0.81530255  1
  C  C39  1  0.00048075  0.00109628  0.65037334  1
  C  C40  1  0.00072363  0.00023705  0.15054657  1
  C  C41  1  0.49969713  0.99968779  0.15012370  1
  C  C42  1  0.14473248  0.99947939  0.24898291  1
  C  C43  1  0.64444101  0.99981142  0.24891289  1
  C  C44  1  0.35512957  0.71034148  0.24745464  1
  C  C45  1  0.85523027  0.71062329  0.24739541  1
  C  C46  1  0.00008991  0.29022702  0.24741816  1
  C  C47  1  0.50013698  0.29005099  0.24736621  1
  C  C48  1  0.14637912  0.29270756  0.74708838  1
  C  C49  1  0.65079697  0.30125339  0.75020377  1
  C  C50  1  0.00000089  0.71102697  0.74883815  1
  C  C51  1  0.49880826  0.69941859  0.74960785  1
  C  C52  1  0.34923665  0.99716730  0.75024713  1
  C  C53  1  0.85558670  0.99974825  0.74774543  1
  C  C54  1  0.48581152  0.33316727  0.58286612  1
  C  C55  1  0.98323410  0.32591321  0.58699024  1
  C  C56  1  0.17847460  0.03116676  0.58502167  1
  C  C57  1  0.68459457  0.03822770  0.58199774  1
  C  C58  1  0.33270508  0.63374811  0.58550115  1
  C  C59  1  0.83687168  0.63874067  0.58616417  1
  C  C60  1  0.48304421  0.64037334  0.08660687  1
  C  C61  1  0.98380026  0.64157275  0.08493889  1
  C  C62  1  0.33715556  0.03420397  0.08643181  1
  C  C63  1  0.83727929  0.03151914  0.08696279  1
  C  C64  1  0.17972416  0.32549805  0.08652667  1
  C  C65  1  0.67899363  0.32581579  0.08518915  1
  C  C66  1  0.31614504  0.66422836  0.91508465  1
  C  C67  1  0.81600100  0.66438737  0.91759279  1
  C  C68  1  0.01714004  0.37172310  0.91764735  1
  C  C69  1  0.51887329  0.36951133  0.91690724  1
  C  C70  1  0.16560287  0.96370627  0.91721551  1
  C  C71  1  0.66740318  0.96966547  0.91671679  1
  C  C72  1  0.31333705  0.96422935  0.41692921  1
  C  C73  1  0.81405338  0.96457411  0.41658210  1
  C  C74  1  0.16675667  0.36443229  0.41626606  1
  C  C75  1  0.66760416  0.36497457  0.41804881  1
  C  C76  1  0.01981532  0.66904526  0.41609347  1
  C  C77  1  0.51867620  0.66856415  0.41524355  1
  C  C78  1  0.10724574  0.01577514  0.30087887  1
  C  C79  1  0.60723201  0.01614534  0.30095777  1
  C  C80  1  0.40194472  0.78716043  0.29828975  1
  C  C81  1  0.90196489  0.78705001  0.29828704  1
  C  C82  1  0.49213840  0.19680136  0.29819881  1
  C  C83  1  0.99170482  0.19650798  0.29820514  1
  C  C84  1  0.10806982  0.19839472  0.79772902  1
  C  C85  1  0.60913817  0.20286374  0.80085937  1
  C  C86  1  0.48840499  0.78136059  0.79934493  1
  C  C87  1  0.99196672  0.78576216  0.80091865  1
  C  C88  1  0.39855397  0.01623311  0.80048489  1
  C  C89  1  0.90236417  0.01529107  0.79849656  1
  C  C90  1  0.39020174  0.97637353  0.70042923  1
  C  C91  1  0.90544331  0.99028421  0.69822819  1
  C  C92  1  0.09164088  0.19539054  0.69782883  1
  C  C93  1  0.60242876  0.21873805  0.69915594  1
  C  C94  1  0.00546959  0.82391493  0.70018331  1
  C  C95  1  0.50795556  0.79805740  0.69934031  1
  C  C96  1  0.40442331  0.82027885  0.19799844  1
  C  C97  1  0.90452861  0.82034683  0.19801652  1
  C  C98  1  0.00534977  0.19098973  0.19793583  1
  C  C99  1  0.50541642  0.19103174  0.19790214  1
  C  C100  1  0.08866015  0.98891851  0.20022312  1
  C  C101  1  0.58864193  0.98938412  0.20020041  1
  C  C102  1  0.44612343  0.35112429  0.63321532  1
  C  C103  1  0.94158349  0.34845683  0.63508404  1
  C  C104  1  0.23223830  0.11813751  0.63239530  1
  C  C105  1  0.73610937  0.12385012  0.63096418  1
  C  C106  1  0.32528685  0.53963015  0.63739755  1
  C  C107  1  0.82399497  0.53085790  0.63416796  1
  C  C108  1  0.44205189  0.53583696  0.13508520  1
  C  C109  1  0.93988449  0.53261040  0.13199852  1
  C  C110  1  0.32571507  0.11571897  0.13508009  1
  C  C111  1  0.82571833  0.11534010  0.13484862  1
  C  C112  1  0.23169391  0.34771044  0.13510220  1
  C  C113  1  0.73348788  0.34716627  0.13222908  1
  C  C114  1  0.21300369  0.29233830  0.03567760  1
  C  C115  1  0.71119360  0.29434084  0.03275525  1
  C  C116  1  0.43343148  0.57380174  0.03570584  1
  C  C117  1  0.93584280  0.57771613  0.03250361  1
  C  C118  1  0.35323905  0.13382165  0.03566008  1
  C  C119  1  0.85414535  0.13067213  0.03571449  1
  C  C120  1  0.20968793  0.12573052  0.53272621  1
  C  C121  1  0.72433216  0.13760514  0.53057947  1
  C  C122  1  0.33974629  0.54532375  0.53645693  1
  C  C123  1  0.85427881  0.57370466  0.53522182  1
  C  C124  1  0.43628031  0.31619376  0.53303278  1
  C  C125  1  0.93410945  0.29159469  0.53572519  1
  C  C126  1  0.27222272  0.68053824  0.96384975  1
  C  C127  1  0.77642519  0.68487346  0.96760443  1
  C  C128  1  0.06687483  0.45314631  0.96753085  1
  C  C129  1  0.57056398  0.45154617  0.96674119  1
  C  C130  1  0.15396787  0.85853605  0.96655852  1
  C  C131  1  0.65952775  0.87273450  0.96701451  1
  C  C132  1  0.27298488  0.86543030  0.46718263  1
  C  C133  1  0.77432549  0.86615057  0.46697862  1
  C  C134  1  0.15758327  0.44436891  0.46638839  1
  C  C135  1  0.65923025  0.44165769  0.46998610  1
  C  C136  1  0.07005988  0.68820214  0.46624814  1
  C  C137  1  0.56942673  0.68989304  0.46542690  1
  C  C138  1  0.06024268  0.65101641  0.36570389  1
  C  C139  1  0.55996652  0.65059682  0.36524480  1
  C  C140  1  0.26254948  0.88235289  0.36671321  1
  C  C141  1  0.76280800  0.88175798  0.36673246  1
  C  C142  1  0.17509542  0.46212844  0.36595931  1
  C  C143  1  0.67561488  0.46730570  0.36908414  1
  C  C144  1  0.05713114  0.47193174  0.86709578  1
  C  C145  1  0.55942039  0.46865872  0.86665970  1
  C  C146  1  0.17414598  0.88358716  0.86640606  1
  C  C147  1  0.67679284  0.88966051  0.86651303  1
  C  C148  1  0.26926793  0.64834719  0.86274773  1
  C  C149  1  0.76565766  0.64359569  0.86759387  1
  C  C150  1  0.01527114  0.82785661  0.41262593  1
  C  C151  1  0.51446156  0.82740392  0.41153510  1
  C  C152  1  0.39876600  0.98760735  0.41301447  1
  C  C153  1  0.89947381  0.98769033  0.41277345  1
  C  C154  1  0.09172539  0.19017300  0.41295975  1
  C  C155  1  0.59261229  0.19221731  0.41356483  1
  C  C156  1  0.00530811  0.20048590  0.91352015  1
  C  C157  1  0.51501207  0.20227475  0.91309866  1
  C  C158  1  0.08583174  0.97217695  0.91328321  1
  C  C159  1  0.59244529  0.99289039  0.91320971  1
  C  C160  1  0.40082362  0.81723726  0.91316654  1
  C  C161  1  0.90335299  0.80968407  0.91282636  1
  C  C162  1  0.49720018  0.18291139  0.58605700  1
  C  C163  1  0.99196208  0.16916402  0.59675870  1
  C  C164  1  0.09182308  0.01490878  0.59593661  1
  C  C165  1  0.60167590  0.03122511  0.58645496  1
  C  C166  1  0.40906874  0.80295177  0.58680280  1
  C  C167  1  0.91244598  0.81274113  0.59637397  1
  C  C168  1  0.49193260  0.81455709  0.09624921  1
  C  C169  1  0.99194137  0.81421183  0.09531483  1
  C  C170  1  0.41533009  0.01632130  0.09598834  1
  C  C171  1  0.91535276  0.01484995  0.09640526  1
  C  C172  1  0.09260130  0.16862942  0.09613548  1
  C  C173  1  0.59313949  0.16958095  0.09553534  1
  C  C174  1  0.33696298  0.14369768  0.74591789  1
  C  C175  1  0.84754831  0.15049777  0.74208571  1
  C  C176  1  0.23133424  0.31589260  0.74054376  1
  C  C177  1  0.73546337  0.31667757  0.74770195  1
  C  C178  1  0.41914226  0.53235706  0.74600134  1
  C  C179  1  0.92520147  0.54504164  0.74178372  1
  C  C180  1  0.34642005  0.54326163  0.24118078  1
  C  C181  1  0.84663925  0.54351547  0.24107246  1
  C  C182  1  0.42547274  0.30791735  0.24136852  1
  C  C183  1  0.92541416  0.30822598  0.24122653  1
  C  C184  1  0.22774158  0.14935784  0.24201149  1
  C  C185  1  0.72769045  0.14992507  0.24199751  1
  C  C186  1  0.32449664  0.51168529  0.91981086  1
  C  C187  1  0.82301330  0.50746878  0.92221620  1
  C  C188  1  0.43348315  0.34610109  0.92181793  1
  C  C189  1  0.93351223  0.36403803  0.92171193  1
  C  C190  1  0.23934654  0.13355085  0.92217182  1
  C  C191  1  0.74262341  0.14438845  0.92050359  1
  C  C192  1  0.31753992  0.13177912  0.42091407  1
  C  C193  1  0.81833377  0.13210894  0.42053806  1
  C  C194  1  0.24173368  0.34053202  0.41981549  1
  C  C195  1  0.74295016  0.34210800  0.42081381  1
  C  C196  1  0.43339093  0.52082898  0.41957068  1
  C  C197  1  0.93417949  0.52134447  0.42011414  1
  C  C198  1  0.16658223  0.47054932  0.08118881  1
  C  C199  1  0.66693487  0.47214185  0.08056672  1
  C  C200  1  0.06888879  0.66576875  0.08025905  1
  C  C201  1  0.56862745  0.66621760  0.08124783  1
  C  C202  1  0.26456222  0.86296057  0.08108517  1
  C  C203  1  0.76436973  0.86140364  0.08122579  1
  C  C204  1  0.16545455  0.85987339  0.58089777  1
  C  C205  1  0.67333548  0.86786253  0.57881568  1
  C  C206  1  0.25660807  0.65096875  0.58183968  1
  C  C207  1  0.76045809  0.65351494  0.58004097  1
  C  C208  1  0.06825232  0.47126297  0.58145325  1
  C  C209  1  0.57268775  0.48302613  0.57949093  1
  C  C210  1  0.14919160  0.84359863  0.24761695  1
  C  C211  1  0.64937805  0.84427771  0.24770063  1
  C  C212  1  0.27272571  0.70145276  0.24687772  1
  C  C213  1  0.77280576  0.70148420  0.24691186  1
  C  C214  1  0.07798380  0.45483889  0.24674214  1
  C  C215  1  0.57819216  0.45475327  0.24662829  1
  C  C216  1  0.15310198  0.46075926  0.74735558  1
  C  C217  1  0.65942592  0.47068658  0.75308867  1
  C  C218  1  0.07762003  0.70154014  0.74749571  1
  C  C219  1  0.57292720  0.67732869  0.75365270  1
  C  C220  1  0.26608922  0.83652437  0.75380760  1
  C  C221  1  0.77321719  0.84513906  0.74677539  1
