# generated using pymatgen
data_Cu2Ni2C9
_symmetry_space_group_name_H-M   'P 1'
_cell_length_a   3.40179300
_cell_length_b   3.40178680
_cell_length_c   45.57905341
_cell_angle_alpha   90.01050918
_cell_angle_beta   90.00510969
_cell_angle_gamma   119.99994137
_symmetry_Int_Tables_number   1
_chemical_formula_structural   Cu2Ni2C9
_chemical_formula_sum   'Cu2 Ni2 C9'
_cell_volume   456.78427862
_cell_formula_units_Z   1
loop_
 _symmetry_equiv_pos_site_id
 _symmetry_equiv_pos_as_xyz
  1  'x, y, z'
loop_
 _atom_site_type_symbol
 _atom_site_label
 _atom_site_symmetry_multiplicity
 _atom_site_fract_x
 _atom_site_fract_y
 _atom_site_fract_z
 _atom_site_occupancy
  C  C0  1  0.00008700  0.00008800  0.19999200  1
  C  C1  1  0.33346900  0.66683400  0.69876800  1
  C  C2  1  0.66631500  0.33282400  0.04582300  1
  C  C3  1  0.66659100  0.33318700  0.12861900  1
  C  C4  1  0.33325200  0.66656900  0.61624100  1
  C  C5  1  0.33342800  0.66681000  0.46956500  1
  C  C6  1  0.66672800  0.33344800  0.28882200  1
  C  C7  1  0.33312200  0.66634200  0.08706300  1
  C  C8  1  0.66669400  0.33337100  0.65751000  1
  Ni  Ni9  1  0.66666100  0.33334500  0.43339800  1
  Ni  Ni10  1  0.66686500  0.33362000  0.50570200  1
  Cu  Cu11  1  0.33349400  0.66691700  0.32145400  1
  Cu  Cu12  1  0.33329500  0.66664400  0.25544400  1
