# generated using pymatgen
data_CuNiC
_symmetry_space_group_name_H-M   'P 1'
_cell_length_a   3.95255830
_cell_length_b   3.95255830
_cell_length_c   6.89060450
_cell_angle_alpha   73.33306780
_cell_angle_beta   73.33306780
_cell_angle_gamma   59.99999496
_symmetry_Int_Tables_number   1
_chemical_formula_structural   CuNiC
_chemical_formula_sum   'Cu2 Ni2 C2'
_cell_volume   87.96664124
_cell_formula_units_Z   2
loop_
 _symmetry_equiv_pos_site_id
 _symmetry_equiv_pos_as_xyz
  1  'x, y, z'
loop_
 _atom_site_type_symbol
 _atom_site_label
 _atom_site_symmetry_multiplicity
 _atom_site_fract_x
 _atom_site_fract_y
 _atom_site_fract_z
 _atom_site_occupancy
  C  C0  1  0.75742100  0.75742100  0.72773700  1
  C  C1  1  0.24257900  0.24257900  0.27226300  1
  Ni  Ni2  1  0.87637200  0.87637200  0.37088400  1
  Ni  Ni3  1  0.12362800  0.12362800  0.62911600  1
  Cu  Cu4  1  0.37162400  0.37162400  0.88512800  1
  Cu  Cu5  1  0.62837600  0.62837600  0.11487200  1
