# generated using pymatgen
data_Cu6NiC12
_symmetry_space_group_name_H-M   'P 1'
_cell_length_a   8.10224274
_cell_length_b   5.68035562
_cell_length_c   5.88212134
_cell_angle_alpha   69.70557232
_cell_angle_beta   64.14717851
_cell_angle_gamma   65.84729262
_symmetry_Int_Tables_number   1
_chemical_formula_structural   Cu6NiC12
_chemical_formula_sum   'Cu6 Ni1 C12'
_cell_volume   217.56915635
_cell_formula_units_Z   1
loop_
 _symmetry_equiv_pos_site_id
 _symmetry_equiv_pos_as_xyz
  1  'x, y, z'
loop_
 _atom_site_type_symbol
 _atom_site_label
 _atom_site_symmetry_multiplicity
 _atom_site_fract_x
 _atom_site_fract_y
 _atom_site_fract_z
 _atom_site_occupancy
  Ni  Ni0  1  0.49727272  0.99603959  0.52302726  1
  Cu  Cu1  1  0.86085069  0.67854118  0.69616998  1
  Cu  Cu2  1  0.66974536  0.36827909  0.32826995  1
  Cu  Cu3  1  0.31879756  0.62999044  0.67545372  1
  Cu  Cu4  1  0.12757686  0.30562246  0.31645636  1
  Cu  Cu5  1  0.52061039  0.02212584  0.01731150  1
  Cu  Cu6  1  0.97914978  0.02602078  0.98731541  1
  C  C7  1  0.67398443  0.03578803  0.65254524  1
  C  C8  1  0.32595587  0.35916640  0.98036990  1
  C  C9  1  0.59053311  0.59349940  0.55549508  1
  C  C10  1  0.94309097  0.24895875  0.20140250  1
  C  C11  1  0.69301479  0.10653982  0.15587121  1
  C  C12  1  0.04334087  0.76582956  0.79130465  1
  C  C13  1  0.39401603  0.40578376  0.46294394  1
  C  C14  1  0.32874313  0.96879070  0.36758025  1
  C  C15  1  0.66076198  0.64939317  0.03326177  1
  C  C16  1  0.98801511  0.31411634  0.67780486  1
  C  C17  1  0.28873601  0.90389789  0.86315750  1
  C  C18  1  0.00321134  0.70495279  0.30949692  1
