# generated using pymatgen
data_CuNi2C15
_symmetry_space_group_name_H-M   'P 1'
_cell_length_a   5.53164804
_cell_length_b   5.78649237
_cell_length_c   7.81857442
_cell_angle_alpha   110.45877430
_cell_angle_beta   98.36348921
_cell_angle_gamma   105.77488056
_symmetry_Int_Tables_number   1
_chemical_formula_structural   CuNi2C15
_chemical_formula_sum   'Cu1 Ni2 C15'
_cell_volume   217.47309416
_cell_formula_units_Z   1
loop_
 _symmetry_equiv_pos_site_id
 _symmetry_equiv_pos_as_xyz
  1  'x, y, z'
loop_
 _atom_site_type_symbol
 _atom_site_label
 _atom_site_symmetry_multiplicity
 _atom_site_fract_x
 _atom_site_fract_y
 _atom_site_fract_z
 _atom_site_occupancy
  C  C0  1  0.82151218  0.84505355  0.56967313  1
  Ni  Ni1  1  0.84028156  0.38776509  0.83777189  1
  Ni  Ni2  1  0.19855684  0.61883470  0.21024883  1
  Cu  Cu3  1  0.02331291  0.01039773  0.03562061  1
  C  C4  1  0.30128426  0.76178210  0.68075528  1
  C  C5  1  0.69600325  0.23327853  0.35290216  1
  C  C6  1  0.16630873  0.32449875  0.59531382  1
  C  C7  1  0.64934741  0.63293572  0.22651126  1
  C  C8  1  0.61246594  0.97571845  0.77590384  1
  C  C9  1  0.43125252  0.95592847  0.20220638  1
  C  C10  1  0.35164759  0.46234107  0.63953172  1
  C  C11  1  0.55309870  0.61657943  0.32257807  1
  C  C12  1  0.04329128  0.76842051  0.78588521  1
  C  C13  1  0.94737126  0.25370700  0.23179685  1
  C  C14  1  0.15234133  0.79069448  0.48220713  1
  C  C15  1  0.86111175  0.19031946  0.56184855  1
  C  C16  1  0.13406358  0.30539352  0.97377238  1
  C  C17  1  0.90424890  0.69135146  0.08213988  1
