# generated using pymatgen
data_Cu4(Ni3C23)3
_symmetry_space_group_name_H-M   'P 1'
_cell_length_a   18.36880084
_cell_length_b   9.18936824
_cell_length_c   22.69025280
_cell_angle_alpha   90.04712279
_cell_angle_beta   89.68804486
_cell_angle_gamma   119.99987095
_symmetry_Int_Tables_number   1
_chemical_formula_structural   Cu4(Ni3C23)3
_chemical_formula_sum   'Cu12 Ni27 C207'
_cell_volume   3316.87808595
_cell_formula_units_Z   3
loop_
 _symmetry_equiv_pos_site_id
 _symmetry_equiv_pos_as_xyz
  1  'x, y, z'
loop_
 _atom_site_type_symbol
 _atom_site_label
 _atom_site_symmetry_multiplicity
 _atom_site_fract_x
 _atom_site_fract_y
 _atom_site_fract_z
 _atom_site_occupancy
  C  C0  1  0.81950023  0.00800332  0.25513516  1
  C  C1  1  0.17809560  0.36028469  0.25285743  1
  C  C2  1  0.69240764  0.37213139  0.25396748  1
  C  C3  1  0.99671457  0.62903736  0.24687563  1
  C  C4  1  0.50172250  0.64611703  0.24972058  1
  C  C5  1  0.31891739  0.62979112  0.75186243  1
  C  C6  1  0.99933268  0.35531123  0.74371903  1
  C  C7  1  0.49845443  0.36603312  0.74361722  1
  C  C8  1  0.19095634  0.01217264  0.74984155  1
  C  C9  1  0.68148470  0.99968408  0.74806910  1
  C  C10  1  0.14596587  0.32234079  0.58188503  1
  C  C11  1  0.65269344  0.33337259  0.58289184  1
  C  C12  1  0.33527626  0.98380982  0.58602749  1
  C  C13  1  0.83314842  0.96810360  0.58300847  1
  C  C14  1  0.14513390  0.96728839  0.08096360  1
  C  C15  1  0.64922001  0.97173105  0.08075507  1
  C  C16  1  0.33290285  0.68836495  0.08232323  1
  C  C17  1  0.83525997  0.68806617  0.08624738  1
  C  C18  1  0.48041669  0.67809099  0.91449609  1
  C  C19  1  0.98056771  0.67643844  0.92172324  1
  C  C20  1  0.34622907  0.02400302  0.90859617  1
  C  C21  1  0.84534388  0.02365952  0.91070293  1
  C  C22  1  0.17186835  0.29608134  0.91073500  1
  C  C23  1  0.66929878  0.29119408  0.91109441  1
  C  C24  1  0.48305571  0.28985519  0.42546800  1
  C  C25  1  0.97831077  0.28177038  0.41929106  1
  C  C26  1  0.16863675  0.04737188  0.41479327  1
  C  C27  1  0.67490225  0.05096414  0.41641419  1
  C  C28  1  0.34597047  0.66715468  0.41419680  1
  C  C29  1  0.84615408  0.66597665  0.41902579  1
  C  C30  1  0.99741553  0.99779971  0.50204150  1
  C  C31  1  0.50598986  0.01381814  0.50287227  1
  C  C32  1  0.00313824  0.99518072  0.00095478  1
  C  C33  1  0.50364349  0.99649758  0.99717043  1
  C  C34  1  0.32988534  0.33492595  0.82697746  1
  C  C35  1  0.82337443  0.32965515  0.82956185  1
  C  C36  1  0.32379674  0.31666210  0.33514926  1
  C  C37  1  0.82915021  0.32455829  0.33233593  1
  C  C38  1  0.15930266  0.65464679  0.16926446  1
  C  C39  1  0.66615795  0.66198507  0.16870018  1
  C  C40  1  0.16384676  0.66866032  0.66663881  1
  C  C41  1  0.66563528  0.66505086  0.66509403  1
  C  C42  1  0.00119813  0.01125058  0.34878704  1
  C  C43  1  0.50034875  0.00274459  0.35084752  1
  C  C44  1  0.99914183  0.99696994  0.84841740  1
  C  C45  1  0.50158050  0.99133816  0.84712894  1
  C  C46  1  0.33478772  0.32505223  0.68359146  1
  C  C47  1  0.83504113  0.34497606  0.18413384  1
  C  C48  1  0.32715822  0.33746603  0.98418237  1
  C  C49  1  0.82573238  0.34035307  0.98518890  1
  C  C50  1  0.32716969  0.31339233  0.48513562  1
  C  C51  1  0.82801820  0.32792186  0.48788162  1
  C  C52  1  0.67796788  0.68163906  0.31730865  1
  C  C53  1  0.17601916  0.67360139  0.81430931  1
  Ni  Ni54  1  0.15192337  0.00099239  0.25068471  1
  Ni  Ni55  1  0.64791821  0.99590283  0.25094682  1
  Ni  Ni56  1  0.35497154  0.70895194  0.24917100  1
  Ni  Ni57  1  0.85436706  0.70980960  0.24991720  1
  Ni  Ni58  1  0.00005575  0.29760908  0.25069346  1
  Ni  Ni59  1  0.14560651  0.29439691  0.75004182  1
  Ni  Ni60  1  0.65194329  0.30205016  0.75209009  1
  Ni  Ni61  1  0.49983618  0.70217348  0.75125264  1
  Ni  Ni62  1  0.35439643  0.99947556  0.75025784  1
  Ni  Ni63  1  0.85501743  0.00791054  0.74954880  1
  Ni  Ni64  1  0.48287671  0.33335658  0.58257359  1
  Ni  Ni65  1  0.98233146  0.34054155  0.58325869  1
  Ni  Ni66  1  0.18128799  0.02924967  0.58424294  1
  Ni  Ni67  1  0.67945662  0.02677026  0.58299971  1
  Ni  Ni68  1  0.83729955  0.62916241  0.58282826  1
  Ni  Ni69  1  0.48184819  0.62425967  0.08346271  1
  Ni  Ni70  1  0.98360184  0.63223569  0.08265549  1
  Ni  Ni71  1  0.17976359  0.33170675  0.08334469  1
  Ni  Ni72  1  0.67913616  0.33151780  0.08469156  1
  Ni  Ni73  1  0.31553274  0.66980007  0.91868898  1
  Ni  Ni74  1  0.81172241  0.66775733  0.91660239  1
  Ni  Ni75  1  0.16675637  0.96030285  0.91685352  1
  Ni  Ni76  1  0.66793441  0.95899726  0.91785946  1
  Ni  Ni77  1  0.31144277  0.95580665  0.41632876  1
  Ni  Ni78  1  0.81626690  0.96708007  0.41848808  1
  Ni  Ni79  1  0.16818837  0.37697121  0.41716648  1
  Ni  Ni80  1  0.66609743  0.37188077  0.41536392  1
  Cu  Cu81  1  0.99756272  0.00325769  0.64609930  1
  Cu  Cu82  1  0.50683651  0.01118224  0.65312839  1
  Cu  Cu83  1  0.00624574  0.00273055  0.15358063  1
  Cu  Cu84  1  0.50250092  0.99073105  0.15009896  1
  Cu  Cu85  1  0.82850860  0.32341827  0.67977392  1
  Cu  Cu86  1  0.33036982  0.34358262  0.18309820  1
  Cu  Cu87  1  0.16356409  0.66275536  0.01810991  1
  Cu  Cu88  1  0.66453084  0.66301688  0.01848769  1
  Cu  Cu89  1  0.16393177  0.66599004  0.51862081  1
  Cu  Cu90  1  0.67080600  0.66228000  0.52216818  1
  Cu  Cu91  1  0.17452391  0.67251859  0.31061788  1
  Cu  Cu92  1  0.67564089  0.67878709  0.80947432  1
  C  C93  1  0.49636589  0.29212093  0.24800079  1
  C  C94  1  0.99774189  0.70107085  0.74990991  1
  C  C95  1  0.33441404  0.63171149  0.58195854  1
  C  C96  1  0.33573433  0.04316354  0.08391278  1
  C  C97  1  0.83446713  0.03767189  0.08197360  1
  C  C98  1  0.01896859  0.37327637  0.91679415  1
  C  C99  1  0.52088922  0.37502408  0.91660469  1
  C  C100  1  0.02188161  0.66723334  0.41475042  1
  C  C101  1  0.52028368  0.66413418  0.41718909  1
  C  C102  1  0.11581849  0.04831363  0.30878589  1
  C  C103  1  0.60796471  0.03906863  0.30813626  1
  C  C104  1  0.41294589  0.78394378  0.30734237  1
  C  C105  1  0.91256466  0.79031967  0.30796217  1
  C  C106  1  0.48249545  0.19565473  0.30320758  1
  C  C107  1  0.98051711  0.19064525  0.31123068  1
  C  C108  1  0.10950242  0.17991014  0.81017983  1
  C  C109  1  0.61469814  0.18665624  0.81159442  1
  C  C110  1  0.47900744  0.76586023  0.81295871  1
  C  C111  1  0.98445427  0.76829597  0.80580803  1
  C  C112  1  0.40975331  0.03216737  0.81013863  1
  C  C113  1  0.90995441  0.04601596  0.81001131  1
  C  C114  1  0.39815279  0.96360425  0.69196419  1
  C  C115  1  0.89787296  0.97411299  0.69214238  1
  C  C116  1  0.08463484  0.20291335  0.69283050  1
  C  C117  1  0.59200202  0.22364141  0.69337858  1
  C  C118  1  0.01223400  0.81383576  0.69912534  1
  C  C119  1  0.52204008  0.83623362  0.69679172  1
  C  C120  1  0.39543100  0.82492032  0.18928201  1
  C  C121  1  0.89683457  0.83082797  0.19024381  1
  C  C122  1  0.02383004  0.21181179  0.19514847  1
  C  C123  1  0.51006638  0.20714809  0.19637686  1
  C  C124  1  0.09430270  0.96277888  0.19068843  1
  C  C125  1  0.58827643  0.95848352  0.19139691  1
  C  C126  1  0.44370760  0.36577847  0.64188688  1
  C  C127  1  0.94031551  0.36875798  0.64342567  1
  C  C128  1  0.24225137  0.10683461  0.64139563  1
  C  C129  1  0.74108980  0.10712127  0.64130456  1
  C  C130  1  0.31988618  0.52675530  0.63518239  1
  C  C131  1  0.81584280  0.49959567  0.63840327  1
  C  C132  1  0.43932705  0.50770857  0.14287690  1
  C  C133  1  0.94490123  0.52132901  0.14140530  1
  C  C134  1  0.32189960  0.12618969  0.13571358  1
  C  C135  1  0.81998853  0.11326857  0.13501100  1
  C  C136  1  0.24328216  0.37616521  0.14065235  1
  C  C137  1  0.73957635  0.37202671  0.14162471  1
  C  C138  1  0.21577021  0.28168720  0.02570835  1
  C  C139  1  0.71201457  0.27802556  0.02556080  1
  C  C140  1  0.42435614  0.54431649  0.02540270  1
  C  C141  1  0.92722200  0.55356461  0.02265687  1
  C  C142  1  0.34871767  0.13975892  0.02908999  1
  C  C143  1  0.84585190  0.13648082  0.02815717  1
  C  C144  1  0.21468522  0.14618007  0.52461012  1
  C  C145  1  0.71422852  0.14504470  0.52449807  1
  C  C146  1  0.34593381  0.55555242  0.52812113  1
  C  C147  1  0.85331420  0.56007952  0.52088222  1
  C  C148  1  0.42528011  0.29520250  0.52299108  1
  C  C149  1  0.92635442  0.30432312  0.52449234  1
  C  C150  1  0.26951225  0.69916823  0.97796141  1
  C  C151  1  0.77116573  0.70166382  0.97729870  1
  C  C152  1  0.07363154  0.45318594  0.96949031  1
  C  C153  1  0.57404927  0.45372875  0.97020029  1
  C  C154  1  0.14924113  0.83946048  0.97592907  1
  C  C155  1  0.64903481  0.83864381  0.97725230  1
  C  C156  1  0.26977829  0.83874782  0.47607402  1
  C  C157  1  0.76822902  0.84070897  0.47504670  1
  C  C158  1  0.15019163  0.46260823  0.47568802  1
  C  C159  1  0.64712461  0.45899334  0.47277451  1
  C  C160  1  0.07542867  0.69541903  0.46831217  1
  C  C161  1  0.57470048  0.68942030  0.46816848  1
  C  C162  1  0.06199268  0.64185380  0.36134948  1
  C  C163  1  0.55478347  0.63582839  0.36161215  1
  C  C164  1  0.24702034  0.86928423  0.36108893  1
  C  C165  1  0.75822871  0.90032312  0.35892836  1
  C  C166  1  0.18356162  0.49418379  0.35799456  1
  C  C167  1  0.67666024  0.47678054  0.35433438  1
  C  C168  1  0.05586521  0.47589446  0.86319684  1
  C  C169  1  0.55885967  0.48026873  0.86361522  1
  C  C170  1  0.17964341  0.87568291  0.85745694  1
  C  C171  1  0.68247376  0.86877519  0.85998447  1
  C  C172  1  0.25438294  0.62079099  0.86163232  1
  C  C173  1  0.74588296  0.62530579  0.86253847  1
  C  C174  1  0.01527678  0.82060206  0.41150880  1
  C  C175  1  0.51185056  0.81777320  0.41428168  1
  C  C176  1  0.40359762  0.96716280  0.41216573  1
  C  C177  1  0.90662675  0.96969107  0.41651796  1
  C  C178  1  0.08587689  0.18812690  0.41515058  1
  C  C179  1  0.58034181  0.18263031  0.41500813  1
  C  C180  1  0.01192125  0.20527013  0.91412034  1
  C  C181  1  0.51355935  0.20763146  0.91343178  1
  C  C182  1  0.08228981  0.98063298  0.91554249  1
  C  C183  1  0.58525048  0.98265868  0.91580542  1
  C  C184  1  0.40617223  0.84569416  0.91743036  1
  C  C185  1  0.90441491  0.83963781  0.91213202  1
  C  C186  1  0.48820933  0.15619260  0.58850297  1
  C  C187  1  0.99159091  0.16985427  0.58799745  1
  C  C188  1  0.08935954  0.01551425  0.59231347  1
  C  C189  1  0.58790970  0.01829626  0.59070390  1
  C  C190  1  0.40799161  0.80438081  0.58715907  1
  C  C191  1  0.91652831  0.82150862  0.59025751  1
  C  C192  1  0.48633816  0.81110988  0.08830673  1
  C  C193  1  0.98999860  0.82118994  0.08789568  1
  C  C194  1  0.40960109  0.01886266  0.09045813  1
  C  C195  1  0.90821048  0.01153970  0.08679574  1
  C  C196  1  0.08815722  0.16002225  0.09066834  1
  C  C197  1  0.58434781  0.16066173  0.09194821  1
  C  C198  1  0.34401384  0.16581504  0.74841235  1
  C  C199  1  0.84836229  0.18221560  0.74341164  1
  C  C200  1  0.24036743  0.32219530  0.74293859  1
  C  C201  1  0.74349542  0.31047624  0.74386687  1
  C  C202  1  0.41604820  0.51858492  0.74346576  1
  C  C203  1  0.92319881  0.52974773  0.74364336  1
  C  C204  1  0.34955205  0.52178788  0.24407250  1
  C  C205  1  0.84381084  0.52265081  0.24747893  1
  C  C206  1  0.42083351  0.31141670  0.24124359  1
  C  C207  1  0.91659807  0.31391159  0.24281862  1
  C  C208  1  0.24570081  0.17449396  0.24097897  1
  C  C209  1  0.74143783  0.15833415  0.24303302  1
  C  C210  1  0.32817794  0.50485522  0.92109151  1
  C  C211  1  0.82378860  0.50172952  0.91814222  1
  C  C212  1  0.43608968  0.35636730  0.92363994  1
  C  C213  1  0.93443995  0.35423524  0.92432752  1
  C  C214  1  0.25539994  0.14198737  0.92226662  1
  C  C215  1  0.75666096  0.14112495  0.92201901  1
  C  C216  1  0.32363514  0.14584756  0.41753734  1
  C  C217  1  0.82900456  0.15706053  0.42298608  1
  C  C218  1  0.25702645  0.37226157  0.42118504  1
  C  C219  1  0.75265918  0.36179103  0.41908429  1
  C  C220  1  0.43430362  0.51418558  0.42345427  1
  C  C221  1  0.93875180  0.51554401  0.41987979  1
  C  C222  1  0.17961875  0.51125961  0.07715448  1
  C  C223  1  0.67790126  0.51003786  0.07667265  1
  C  C224  1  0.08202908  0.66718869  0.07793823  1
  C  C225  1  0.57952351  0.66082904  0.08002950  1
  C  C226  1  0.25783843  0.87324426  0.08126683  1
  C  C227  1  0.75582679  0.86584042  0.07873395  1
  C  C228  1  0.17996346  0.84778719  0.57645420  1
  C  C229  1  0.67670777  0.84592165  0.57706505  1
  C  C230  1  0.25586117  0.64579063  0.57860864  1
  C  C231  1  0.75054996  0.64405974  0.58120928  1
  C  C232  1  0.08058908  0.50273329  0.58001654  1
  C  C233  1  0.57896965  0.49390200  0.57725739  1
  C  C234  1  0.15293140  0.82362428  0.25561509  1
  C  C235  1  0.64833383  0.81714543  0.25427835  1
  C  C236  1  0.25892962  0.67540308  0.25068025  1
  C  C237  1  0.76028307  0.69148545  0.24869765  1
  C  C238  1  0.08604480  0.48681311  0.25544780  1
  C  C239  1  0.57242606  0.46113666  0.25105549  1
  C  C240  1  0.14680546  0.47567068  0.75312404  1
  C  C241  1  0.65217000  0.48129602  0.75706818  1
  C  C242  1  0.07492790  0.68523804  0.75322504  1
  C  C243  1  0.58569978  0.68543766  0.75624507  1
  C  C244  1  0.26029609  0.82920320  0.74824836  1
  C  C245  1  0.75898055  0.84674875  0.75144526  1
