# generated using pymatgen
data_CuNi2C13
_symmetry_space_group_name_H-M   'P 1'
_cell_length_a   3.77442800
_cell_length_b   4.04694571
_cell_length_c   15.02305488
_cell_angle_alpha   96.87154936
_cell_angle_beta   90.00000000
_cell_angle_gamma   90.00000000
_symmetry_Int_Tables_number   1
_chemical_formula_structural   CuNi2C13
_chemical_formula_sum   'Cu1 Ni2 C13'
_cell_volume   227.82738583
_cell_formula_units_Z   1
loop_
 _symmetry_equiv_pos_site_id
 _symmetry_equiv_pos_as_xyz
  1  'x, y, z'
loop_
 _atom_site_type_symbol
 _atom_site_label
 _atom_site_symmetry_multiplicity
 _atom_site_fract_x
 _atom_site_fract_y
 _atom_site_fract_z
 _atom_site_occupancy
  Ni  Ni0  1  0.50000000  0.38517100  0.74867000  1
  Ni  Ni1  1  0.50000000  0.61482900  0.25133000  1
  Cu  Cu2  1  0.50000000  0.50000000  0.00000000  1
  C  C3  1  0.50000000  0.50000000  0.50000000  1
  C  C4  1  0.00000000  0.94659100  0.88443200  1
  C  C5  1  0.00000000  0.05340900  0.11556800  1
  C  C6  1  0.00000000  0.83883100  0.58828500  1
  C  C7  1  0.00000000  0.16116900  0.41171500  1
  C  C8  1  0.00000000  0.29215800  0.55061900  1
  C  C9  1  0.00000000  0.70784200  0.44938100  1
  C  C10  1  0.00000000  0.44996300  0.89235000  1
  C  C11  1  0.00000000  0.55003700  0.10765000  1
  C  C12  1  0.50000000  0.95273000  0.89715100  1
  C  C13  1  0.50000000  0.04727000  0.10284900  1
  C  C14  1  0.00000000  0.87183500  0.71224300  1
  C  C15  1  0.00000000  0.12816500  0.28775700  1
