# generated using pymatgen
data_Cu12NiC24
_symmetry_space_group_name_H-M   'P 1'
_cell_length_a   9.74707179
_cell_length_b   14.81987411
_cell_length_c   3.10009400
_cell_angle_alpha   90.00000000
_cell_angle_beta   90.00000000
_cell_angle_gamma   87.48297524
_symmetry_Int_Tables_number   1
_chemical_formula_structural   Cu12NiC24
_chemical_formula_sum   'Cu12 Ni1 C24'
_cell_volume   447.37770699
_cell_formula_units_Z   1
loop_
 _symmetry_equiv_pos_site_id
 _symmetry_equiv_pos_as_xyz
  1  'x, y, z'
loop_
 _atom_site_type_symbol
 _atom_site_label
 _atom_site_symmetry_multiplicity
 _atom_site_fract_x
 _atom_site_fract_y
 _atom_site_fract_z
 _atom_site_occupancy
  Ni  Ni0  1  0.99463000  0.82810200  0.50000000  1
  Cu  Cu1  1  0.02166000  0.03359800  0.00000000  1
  Cu  Cu2  1  0.02242700  0.32894900  0.00000000  1
  Cu  Cu3  1  0.98525200  0.64008600  0.00000000  1
  Cu  Cu4  1  0.25078600  0.17039000  0.50000000  1
  Cu  Cu5  1  0.24376900  0.47556000  0.50000000  1
  Cu  Cu6  1  0.28511000  0.92196500  0.50000000  1
  Cu  Cu7  1  0.49942900  0.34216700  0.00000000  1
  Cu  Cu8  1  0.54560400  0.01013600  0.00000000  1
  Cu  Cu9  1  0.49841800  0.64972900  0.00000000  1
  Cu  Cu10  1  0.75782300  0.16242500  0.50000000  1
  Cu  Cu11  1  0.71819700  0.48535100  0.50000000  1
  Cu  Cu12  1  0.67579700  0.82144000  0.50000000  1
  C  C13  1  0.10571500  0.26712700  0.50000000  1
  C  C14  1  0.08398400  0.94431700  0.50000000  1
  C  C15  1  0.18637000  0.10384900  0.00000000  1
  C  C16  1  0.14554800  0.43149200  0.00000000  1
  C  C17  1  0.39913000  0.92519700  0.00000000  1
  C  C18  1  0.40293400  0.39261600  0.50000000  1
  C  C19  1  0.63606100  0.94613300  0.50000000  1
  C  C20  1  0.58932600  0.58913700  0.50000000  1
  C  C21  1  0.66971900  0.11251600  0.00000000  1
  C  C22  1  0.65263500  0.42226500  0.00000000  1
  C  C23  1  0.61805700  0.75970000  0.00000000  1
  C  C24  1  0.92234000  0.08440900  0.50000000  1
  C  C25  1  0.10274000  0.58946900  0.50000000  1
  C  C26  1  0.08747000  0.76615000  0.00000000  1
  C  C27  1  0.35932500  0.23467600  0.00000000  1
  C  C28  1  0.33610900  0.55271700  0.00000000  1
  C  C29  1  0.43431900  0.08515700  0.50000000  1
  C  C30  1  0.38957600  0.70631100  0.50000000  1
  C  C31  1  0.59958200  0.26815200  0.50000000  1
  C  C32  1  0.84952400  0.24322700  0.00000000  1
  C  C33  1  0.85502300  0.86082500  0.00000000  1
  C  C34  1  0.83453300  0.54604400  0.00000000  1
  C  C35  1  0.90547000  0.39435800  0.50000000  1
  C  C36  1  0.87846700  0.71444000  0.50000000  1
