# generated using pymatgen
data_CuNiC9
_symmetry_space_group_name_H-M   'P 1'
_cell_length_a   6.42530509
_cell_length_b   6.53096060
_cell_length_c   6.51388515
_cell_angle_alpha   52.03907784
_cell_angle_beta   51.56334681
_cell_angle_gamma   51.23723469
_symmetry_Int_Tables_number   1
_chemical_formula_structural   CuNiC9
_chemical_formula_sum   'Cu1 Ni1 C9'
_cell_volume   155.11098036
_cell_formula_units_Z   1
loop_
 _symmetry_equiv_pos_site_id
 _symmetry_equiv_pos_as_xyz
  1  'x, y, z'
loop_
 _atom_site_type_symbol
 _atom_site_label
 _atom_site_symmetry_multiplicity
 _atom_site_fract_x
 _atom_site_fract_y
 _atom_site_fract_z
 _atom_site_occupancy
  Ni  Ni0  1  0.86581455  0.87028219  0.88192271  1
  C  C1  1  0.23608043  0.22595789  0.23816779  1
  Cu  Cu2  1  0.68566222  0.69655594  0.70819375  1
  C  C3  1  0.52038565  0.51686053  0.52382533  1
  C  C4  1  0.03018621  0.05111980  0.07208095  1
  C  C5  1  0.30060011  0.66851891  0.91381592  1
  C  C6  1  0.90565281  0.27636156  0.63578200  1
  C  C7  1  0.88062961  0.46470259  0.10970892  1
  C  C8  1  0.00108339  0.81825616  0.51706374  1
  C  C9  1  0.61921380  0.90811498  0.30922958  1
  C  C10  1  0.44678523  0.06679243  0.91563830  1
