# generated using pymatgen
data_Cu3Ni2C37
_symmetry_space_group_name_H-M   'P 1'
_cell_length_a   9.38684702
_cell_length_b   9.46246049
_cell_length_c   22.88635918
_cell_angle_alpha   89.53525254
_cell_angle_beta   88.88789804
_cell_angle_gamma   120.12316314
_symmetry_Int_Tables_number   1
_chemical_formula_structural   Cu3Ni2C37
_chemical_formula_sum   'Cu9 Ni6 C111'
_cell_volume   1757.58551055
_cell_formula_units_Z   3
loop_
 _symmetry_equiv_pos_site_id
 _symmetry_equiv_pos_as_xyz
  1  'x, y, z'
loop_
 _atom_site_type_symbol
 _atom_site_label
 _atom_site_symmetry_multiplicity
 _atom_site_fract_x
 _atom_site_fract_y
 _atom_site_fract_z
 _atom_site_occupancy
  C  C0  1  0.63931925  0.02458472  0.26037374  1
  C  C1  1  0.35025679  0.34222548  0.25215607  1
  C  C2  1  0.00071311  0.62391476  0.24235614  1
  C  C3  1  0.62495262  0.62114667  0.73223905  1
  C  C4  1  0.98790645  0.34557721  0.73514100  1
  C  C5  1  0.39434643  0.03132828  0.75066989  1
  C  C6  1  0.30534863  0.35594402  0.59222076  1
  C  C7  1  0.01702996  0.67529745  0.58364579  1
  C  C8  1  0.66829535  0.95578225  0.57990298  1
  C  C9  1  0.28567340  0.94050992  0.08174436  1
  C  C10  1  0.67343030  0.69256367  0.07997498  1
  C  C11  1  0.03387296  0.35215183  0.09455608  1
  C  C12  1  0.98561924  0.69737247  0.91672099  1
  C  C13  1  0.68815225  0.02340112  0.89974210  1
  C  C14  1  0.31461301  0.26736749  0.90199063  1
  C  C15  1  0.95175516  0.27143897  0.41652103  1
  C  C16  1  0.33684201  0.02683535  0.40827097  1
  C  C17  1  0.70268665  0.68990857  0.42914410  1
  C  C18  1  0.97110005  0.99600066  0.50208423  1
  C  C19  1  0.00905572  0.98156716  0.99328653  1
  C  C20  1  0.64440958  0.31038003  0.81782224  1
  C  C21  1  0.66366487  0.30454052  0.32870912  1
  C  C22  1  0.30496579  0.66337642  0.16926830  1
  C  C23  1  0.34050862  0.65087588  0.65999322  1
  C  C24  1  0.99698870  0.00890881  0.65001069  1
  C  C25  1  0.00813728  0.00124636  0.15402509  1
  C  C26  1  0.66472363  0.33214567  0.98449417  1
  C  C27  1  0.67348192  0.33141285  0.48729375  1
  C  C28  1  0.33408108  0.67543012  0.31715319  1
  C  C29  1  0.34061623  0.67454343  0.81563618  1
  Ni  Ni30  1  0.00322348  0.02112051  0.34297825  1
  Ni  Ni31  1  0.01210015  0.01786936  0.82958116  1
  Ni  Ni32  1  0.67409853  0.34170477  0.67827073  1
  Ni  Ni33  1  0.68778495  0.32921715  0.18895075  1
  Ni  Ni34  1  0.28582878  0.67109050  0.01133583  1
  Ni  Ni35  1  0.36106798  0.66508283  0.52195750  1
  Cu  Cu36  1  0.30525156  0.00902831  0.25059732  1
  Cu  Cu37  1  0.00018338  0.30255528  0.24946417  1
  Cu  Cu38  1  0.31007536  0.30238868  0.75046095  1
  Cu  Cu39  1  0.70489191  0.00630290  0.75399624  1
  Cu  Cu40  1  0.97760276  0.34590935  0.58269017  1
  Cu  Cu41  1  0.66889168  0.63087498  0.58374436  1
  Cu  Cu42  1  0.96144983  0.62815865  0.08421942  1
  Cu  Cu43  1  0.32703394  0.97007476  0.91874674  1
  Cu  Cu44  1  0.63696679  0.96355473  0.41661239  1
  C  C45  1  0.70078162  0.69669684  0.25126007  1
  C  C46  1  0.99708326  0.70249636  0.75378397  1
  C  C47  1  0.36689080  0.02895867  0.58469605  1
  C  C48  1  0.66403487  0.02865830  0.08421640  1
  C  C49  1  0.36752170  0.34008064  0.08416951  1
  C  C50  1  0.62674613  0.66636287  0.92158018  1
  C  C51  1  0.03829742  0.36781125  0.92113864  1
  C  C52  1  0.33144292  0.36502043  0.41718169  1
  C  C53  1  0.03209789  0.66995270  0.41782884  1
  C  C54  1  0.20993197  0.03012649  0.30844032  1
  C  C55  1  0.80326058  0.77918231  0.30180016  1
  C  C56  1  0.96734345  0.18579132  0.30693537  1
  C  C57  1  0.22998323  0.18960235  0.81090092  1
  C  C58  1  0.97894127  0.78445849  0.80690694  1
  C  C59  1  0.81180171  0.02113178  0.81322769  1
  C  C60  1  0.78652029  0.96902278  0.69712232  1
  C  C61  1  0.19264987  0.21315407  0.69510990  1
  C  C62  1  0.02519290  0.80427853  0.70027275  1
  C  C63  1  0.77426763  0.79780204  0.19616307  1
  C  C64  1  0.02325026  0.22135410  0.18888426  1
  C  C65  1  0.19420654  0.97269268  0.19167586  1
  C  C66  1  0.88635264  0.36988423  0.64097863  1
  C  C67  1  0.46874407  0.11120513  0.63592536  1
  C  C68  1  0.64038795  0.51337928  0.64071272  1
  C  C69  1  0.86559832  0.51140563  0.14160867  1
  C  C70  1  0.63942394  0.10752691  0.13616614  1
  C  C71  1  0.46298730  0.35405484  0.13626394  1
  C  C72  1  0.44744487  0.31525140  0.03083558  1
  C  C73  1  0.85874026  0.54885315  0.02432455  1
  C  C74  1  0.68637657  0.13025717  0.03038560  1
  C  C75  1  0.44132467  0.13055612  0.53004657  1
  C  C76  1  0.68591676  0.54849590  0.52262744  1
  C  C77  1  0.86272521  0.30808289  0.52479126  1
  C  C78  1  0.53997964  0.67713508  0.97489463  1
  C  C79  1  0.13850451  0.44802852  0.97356387  1
  C  C80  1  0.30619890  0.86621518  0.98000248  1
  C  C81  1  0.54000754  0.84586356  0.47410532  1
  C  C82  1  0.31132095  0.44756727  0.46869046  1
  C  C83  1  0.12954799  0.68352053  0.46910596  1
  C  C84  1  0.11020196  0.64617811  0.36345715  1
  C  C85  1  0.53069240  0.88384730  0.35729030  1
  C  C86  1  0.35166285  0.46219784  0.36238255  1
  C  C87  1  0.11736407  0.46738150  0.86789617  1
  C  C88  1  0.35861088  0.88073545  0.86328641  1
  C  C89  1  0.52755038  0.64440109  0.86895487  1
  C  C90  1  0.01741769  0.81877300  0.41184633  1
  C  C91  1  0.82289667  0.97976046  0.41263596  1
  C  C92  1  0.18350655  0.19820888  0.41468680  1
  C  C93  1  0.01678930  0.20130739  0.91849111  1
  C  C94  1  0.15808617  0.98130197  0.91470570  1
  C  C95  1  0.79303756  0.81495191  0.91620534  1
  C  C96  1  0.00435784  0.18532559  0.58544409  1
  C  C97  1  0.19907063  0.00835729  0.58961029  1
  C  C98  1  0.84000014  0.81200974  0.58536924  1
  C  C99  1  0.98327028  0.81446021  0.08597603  1
  C  C100  1  0.81844835  0.01794900  0.08699259  1
  C  C101  1  0.19726197  0.19121970  0.08603783  1
  C  C102  1  0.69527177  0.17433130  0.74875342  1
  C  C103  1  0.49490294  0.32388407  0.74422470  1
  C  C104  1  0.84731994  0.53958897  0.75064901  1
  C  C105  1  0.68279022  0.53248964  0.24579731  1
  C  C106  1  0.83644643  0.32481855  0.24925225  1
  C  C107  1  0.48738962  0.17972459  0.24342746  1
  C  C108  1  0.64766374  0.51808136  0.92359975  1
  C  C109  1  0.87134417  0.35296414  0.92536229  1
  C  C110  1  0.49520753  0.15587362  0.92092768  1
  C  C111  1  0.65226659  0.14777134  0.41852114  1
  C  C112  1  0.48338859  0.34995812  0.41970573  1
  C  C113  1  0.86232860  0.52085526  0.41987262  1
  C  C114  1  0.35469579  0.48974928  0.07716934  1
  C  C115  1  0.14678419  0.64131866  0.08288183  1
  C  C116  1  0.52000146  0.86090053  0.07976123  1
  C  C117  1  0.35109041  0.86554696  0.57945557  1
  C  C118  1  0.50575268  0.65484255  0.58397400  1
  C  C119  1  0.15927615  0.51673736  0.57517479  1
  C  C120  1  0.33083952  0.84767316  0.25372356  1
  C  C121  1  0.53186631  0.67611807  0.25604103  1
  C  C122  1  0.17000189  0.48443595  0.25230422  1
  C  C123  1  0.31905456  0.48172156  0.75553768  1
  C  C124  1  0.14467368  0.68124480  0.75792256  1
  C  C125  1  0.51659100  0.84637506  0.75561463  1
