# generated using pymatgen
data_Cu4Ni2C9
_symmetry_space_group_name_H-M   'P 1'
_cell_length_a   8.71648340
_cell_length_b   6.95002440
_cell_length_c   6.95008070
_cell_angle_alpha   71.85708716
_cell_angle_beta   128.82121252
_cell_angle_gamma   128.84336891
_symmetry_Int_Tables_number   1
_chemical_formula_structural   Cu4Ni2C9
_chemical_formula_sum   'Cu4 Ni2 C9'
_cell_volume   253.15917080
_cell_formula_units_Z   1
loop_
 _symmetry_equiv_pos_site_id
 _symmetry_equiv_pos_as_xyz
  1  'x, y, z'
loop_
 _atom_site_type_symbol
 _atom_site_label
 _atom_site_symmetry_multiplicity
 _atom_site_fract_x
 _atom_site_fract_y
 _atom_site_fract_z
 _atom_site_occupancy
  C  C0  1  0.24825868  0.28937486  0.71056763  1
  Ni  Ni1  1  0.92220982  0.97993926  0.01947182  1
  Ni  Ni2  1  0.57750435  0.98107681  0.01959023  1
  Cu  Cu3  1  0.49371236  0.02055039  0.46671051  1
  Cu  Cu4  1  0.60471081  0.56870136  0.43145114  1
  Cu  Cu5  1  0.00664118  0.53334586  0.97942062  1
  Cu  Cu6  1  0.89577756  0.56888547  0.43099932  1
  C  C7  1  0.07992937  0.75896477  0.24082798  1
  C  C8  1  0.50225926  0.74825255  0.75688838  1
  C  C9  1  0.42055182  0.75891372  0.24133501  1
  C  C10  1  0.99521077  0.79626559  0.69343028  1
  C  C11  1  0.57465397  0.28804111  0.71205176  1
  C  C12  1  0.50545754  0.30650427  0.20385435  1
  C  C13  1  0.99763099  0.24313305  0.25176705  1
  C  C14  1  0.92554052  0.28764695  0.71204793  1
