# generated using pymatgen
data_CuNi3C31
_symmetry_space_group_name_H-M   'P 1'
_cell_length_a   8.79519350
_cell_length_b   8.79519321
_cell_length_c   22.73822613
_cell_angle_alpha   90.00000000
_cell_angle_beta   90.00000000
_cell_angle_gamma   120.00000108
_symmetry_Int_Tables_number   1
_chemical_formula_structural   CuNi3C31
_chemical_formula_sum   'Cu3 Ni9 C93'
_cell_volume   1523.27386629
_cell_formula_units_Z   3
loop_
 _symmetry_equiv_pos_site_id
 _symmetry_equiv_pos_as_xyz
  1  'x, y, z'
loop_
 _atom_site_type_symbol
 _atom_site_label
 _atom_site_symmetry_multiplicity
 _atom_site_fract_x
 _atom_site_fract_y
 _atom_site_fract_z
 _atom_site_occupancy
  C  C0  1  -0.00000000  -0.00000000  0.98625864  1
  C  C1  1  0.66666700  0.33333300  0.84323928  1
  C  C2  1  0.66666700  0.33333300  0.34217210  1
  Ni  Ni3  1  -0.00000000  -0.00000000  0.36107856  1
  Ni  Ni4  1  -0.00000000  -0.00000000  0.64653171  1
  Ni  Ni5  1  -0.00000000  -0.00000000  0.14342624  1
  Ni  Ni6  1  0.66666700  0.33333300  0.68782288  1
  Ni  Ni7  1  0.66666700  0.33333300  0.18477001  1
  Ni  Ni8  1  0.33333300  0.66666700  0.01838645  1
  Ni  Ni9  1  0.33333300  0.66666700  0.52704367  1
  Ni  Ni10  1  0.33333300  0.66666700  0.31099076  1
  Ni  Ni11  1  0.33333300  0.66666700  0.81116329  1
  Cu  Cu12  1  -0.00000000  -0.00000000  0.85408475  1
  Cu  Cu13  1  0.66666700  0.33333300  0.97637076  1
  Cu  Cu14  1  0.66666700  0.33333300  0.48166385  1
  C  C15  1  0.28649664  0.00311982  0.25113838  1
  C  C16  1  0.71662317  0.71350336  0.25113838  1
  C  C17  1  0.99688018  0.28337683  0.25113838  1
  C  C18  1  0.28605186  0.28457648  0.75244027  1
  C  C19  1  0.99852462  0.71394814  0.75244027  1
  C  C20  1  0.71542352  0.00147538  0.75244027  1
  C  C21  1  0.94814040  0.32805432  0.58115256  1
  C  C22  1  0.37991492  0.05185960  0.58115256  1
  C  C23  1  0.67194568  0.62008508  0.58115256  1
  C  C24  1  0.95404475  0.61908531  0.08062418  1
  C  C25  1  0.66504156  0.04595525  0.08062418  1
  C  C26  1  0.38091469  0.33495844  0.08062418  1
  C  C27  1  0.62679691  0.66676857  0.91572054  1
  C  C28  1  0.03997066  0.37320309  0.91572054  1
  C  C29  1  0.33323143  0.96002934  0.91572054  1
  C  C30  1  0.61585768  0.95568248  0.41719048  1
  C  C31  1  0.33982381  0.38414232  0.41719048  1
  C  C32  1  0.04431752  0.66017619  0.41719048  1
  C  C33  1  0.20044524  0.03257794  0.30561896  1
  C  C34  1  0.83213270  0.79955476  0.30561896  1
  C  C35  1  0.96742206  0.16786730  0.30561896  1
  C  C36  1  0.21732382  0.17250846  0.80611021  1
  C  C37  1  0.95518464  0.78267618  0.80611021  1
  C  C38  1  0.82749154  0.04481536  0.80611021  1
  C  C39  1  0.80162712  0.97455278  0.69603527  1
  C  C40  1  0.17292566  0.19837288  0.69603527  1
  C  C41  1  0.02544722  0.82707434  0.69603527  1
  C  C42  1  0.80116099  0.82682378  0.19622561  1
  C  C43  1  0.02566279  0.19883901  0.19622561  1
  C  C44  1  0.17317622  0.97433721  0.19622561  1
  C  C45  1  0.86695818  0.36392885  0.63633137  1
  C  C46  1  0.49697167  0.13304182  0.63633137  1
  C  C47  1  0.63607115  0.50302833  0.63633137  1
  C  C48  1  0.86318833  0.50578087  0.13845739  1
  C  C49  1  0.64259354  0.13681167  0.13845739  1
  C  C50  1  0.49421913  0.35740646  0.13845739  1
  C  C51  1  0.45152033  0.28841817  0.02840411  1
  C  C52  1  0.83689884  0.54847967  0.02840411  1
  C  C53  1  0.71158183  0.16310116  0.02840411  1
  C  C54  1  0.45008331  0.15770778  0.52613185  1
  C  C55  1  0.70762547  0.54991669  0.52613185  1
  C  C56  1  0.84229222  0.29237453  0.52613185  1
  C  C57  1  0.52354969  0.68190405  0.97212162  1
  C  C58  1  0.15835337  0.47645031  0.97212162  1
  C  C59  1  0.31809595  0.84164663  0.97212162  1
  C  C60  1  0.53218613  0.83817963  0.47118122  1
  C  C61  1  0.30599250  0.46781387  0.47118122  1
  C  C62  1  0.16182037  0.69400750  0.47118122  1
  C  C63  1  0.14223786  0.64683816  0.36113754  1
  C  C64  1  0.50459930  0.85776214  0.36113754  1
  C  C65  1  0.35316184  0.49540070  0.36113754  1
  C  C66  1  0.14333324  0.49146260  0.86118000  1
  C  C67  1  0.34812837  0.85666676  0.86118000  1
  C  C68  1  0.50853740  0.65187163  0.86118000  1
  C  C69  1  0.03592115  0.83374348  0.40656454  1
  C  C70  1  0.79782233  0.96407885  0.40656454  1
  C  C71  1  0.16625652  0.20217767  0.40656454  1
  C  C72  1  0.03792632  0.20104471  0.91483271  1
  C  C73  1  0.16311839  0.96207368  0.91483271  1
  C  C74  1  0.79895529  0.83688161  0.91483271  1
  C  C75  1  0.98090388  0.17478354  0.59566192  1
  C  C76  1  0.19387966  0.01909612  0.59566192  1
  C  C77  1  0.82521646  0.80612034  0.59566192  1
  C  C78  1  0.98018852  0.80726532  0.09552881  1
  C  C79  1  0.82707680  0.01981148  0.09552881  1
  C  C80  1  0.19273468  0.17292320  0.09552881  1
  C  C81  1  0.68614969  0.16123953  0.73844336  1
  C  C82  1  0.47509084  0.31385031  0.73844336  1
  C  C83  1  0.83876047  0.52490916  0.73844336  1
  C  C84  1  0.69444569  0.52838073  0.24323570  1
  C  C85  1  0.83393604  0.30555431  0.24323570  1
  C  C86  1  0.47161927  0.16606396  0.24323570  1
  C  C87  1  0.62849057  0.49632214  0.91884174  1
  C  C88  1  0.86783257  0.37150943  0.91884174  1
  C  C89  1  0.50367786  0.13216743  0.91884174  1
  C  C90  1  0.63832589  0.13604627  0.41856592  1
  C  C91  1  0.49772138  0.36167411  0.41856592  1
  C  C92  1  0.86395373  0.50227862  0.41856592  1
  C  C93  1  0.35914940  0.49610417  0.07712079  1
  C  C94  1  0.13695378  0.64085060  0.07712079  1
  C  C95  1  0.50389583  0.86304622  0.07712079  1
  C  C96  1  0.35949031  0.86333182  0.57372338  1
  C  C97  1  0.50384052  0.64050969  0.57372338  1
  C  C98  1  0.13666818  0.49615948  0.57372338  1
  C  C99  1  0.30627847  0.83946512  0.25970101  1
  C  C100  1  0.53318566  0.69372153  0.25970101  1
  C  C101  1  0.16053488  0.46681434  0.25970101  1
  C  C102  1  0.30849662  0.47022618  0.75779959  1
  C  C103  1  0.16172856  0.69150338  0.75779959  1
  C  C104  1  0.52977382  0.83827144  0.75779959  1
