# generated using pymatgen
data_Cu2NiC2
_symmetry_space_group_name_H-M   'P 1'
_cell_length_a   4.42992600
_cell_length_b   18.45662900
_cell_length_c   26.53676400
_cell_angle_alpha   90.00000000
_cell_angle_beta   90.00000000
_cell_angle_gamma   90.00000000
_symmetry_Int_Tables_number   1
_chemical_formula_structural   Cu2NiC2
_chemical_formula_sum   'Cu24 Ni12 C24'
_cell_volume   2169.68564782
_cell_formula_units_Z   12
loop_
 _symmetry_equiv_pos_site_id
 _symmetry_equiv_pos_as_xyz
  1  'x, y, z'
loop_
 _atom_site_type_symbol
 _atom_site_label
 _atom_site_symmetry_multiplicity
 _atom_site_fract_x
 _atom_site_fract_y
 _atom_site_fract_z
 _atom_site_occupancy
  C  C0  1  0.75000000  0.98632900  0.43578200  1
  C  C1  1  0.25000000  0.01367100  0.56421800  1
  C  C2  1  0.75000000  0.48632900  0.06421800  1
  C  C3  1  0.25000000  0.51367100  0.93578200  1
  C  C4  1  0.75000000  0.16342000  0.34026000  1
  C  C5  1  0.25000000  0.83658000  0.65974000  1
  C  C6  1  0.75000000  0.66342000  0.15974000  1
  C  C7  1  0.25000000  0.33658000  0.84026000  1
  C  C8  1  0.75000000  0.30908200  0.44998600  1
  C  C9  1  0.25000000  0.69091800  0.55001400  1
  C  C10  1  0.75000000  0.80908200  0.05001400  1
  C  C11  1  0.25000000  0.19091800  0.94998600  1
  C  C12  1  0.75000000  0.46455100  0.56113400  1
  C  C13  1  0.25000000  0.03544900  0.06113400  1
  C  C14  1  0.75000000  0.96455100  0.93886600  1
  C  C15  1  0.25000000  0.68106500  0.31541200  1
  C  C16  1  0.75000000  0.31893500  0.68458800  1
  C  C17  1  0.25000000  0.18106500  0.18458800  1
  C  C18  1  0.75000000  0.81893500  0.81541200  1
  C  C19  1  0.25000000  0.99687900  0.27667400  1
  C  C20  1  0.75000000  0.00312100  0.72332600  1
  C  C21  1  0.25000000  0.49687900  0.22332600  1
  C  C22  1  0.75000000  0.50312100  0.77667400  1
  C  C23  1  0.25000000  0.53544900  0.43886600  1
  Ni  Ni24  1  0.75000000  0.94991100  0.03803800  1
  Ni  Ni25  1  0.25000000  0.55008900  0.53803800  1
  Ni  Ni26  1  0.75000000  0.44991100  0.46196200  1
  Ni  Ni27  1  0.25000000  0.48128000  0.83923300  1
  Ni  Ni28  1  0.75000000  0.51872000  0.16076700  1
  Ni  Ni29  1  0.25000000  0.98128000  0.66076700  1
  Ni  Ni30  1  0.75000000  0.01872000  0.33923300  1
  Ni  Ni31  1  0.25000000  0.63892900  0.22101700  1
  Ni  Ni32  1  0.75000000  0.36107100  0.77898300  1
  Ni  Ni33  1  0.25000000  0.13892900  0.27898300  1
  Ni  Ni34  1  0.75000000  0.86107100  0.72101700  1
  Ni  Ni35  1  0.25000000  0.05008900  0.96196200  1
  Cu  Cu36  1  0.75000000  0.54267400  0.31803400  1
  Cu  Cu37  1  0.25000000  0.45732600  0.68196600  1
  Cu  Cu38  1  0.75000000  0.04267400  0.18196600  1
  Cu  Cu39  1  0.25000000  0.95732600  0.81803400  1
  Cu  Cu40  1  0.75000000  0.62469200  0.91534500  1
  Cu  Cu41  1  0.25000000  0.37530800  0.08465500  1
  Cu  Cu42  1  0.75000000  0.12469200  0.58465500  1
  Cu  Cu43  1  0.25000000  0.87530800  0.41534500  1
  Cu  Cu44  1  0.75000000  0.67697900  0.45601800  1
  Cu  Cu45  1  0.25000000  0.32302100  0.54398200  1
  Cu  Cu46  1  0.75000000  0.17697900  0.04398200  1
  Cu  Cu47  1  0.25000000  0.82302100  0.95601800  1
  Cu  Cu48  1  0.75000000  0.78888800  0.28222000  1
  Cu  Cu49  1  0.25000000  0.21111200  0.71778000  1
  Cu  Cu50  1  0.75000000  0.28888800  0.21778000  1
  Cu  Cu51  1  0.25000000  0.71111200  0.78222000  1
  Cu  Cu52  1  0.75000000  0.16301700  0.86844500  1
  Cu  Cu53  1  0.25000000  0.83698300  0.13155500  1
  Cu  Cu54  1  0.75000000  0.66301700  0.63155500  1
  Cu  Cu55  1  0.25000000  0.33698300  0.36844500  1
  Cu  Cu56  1  0.75000000  0.37464400  0.93577500  1
  Cu  Cu57  1  0.25000000  0.62535600  0.06422500  1
  Cu  Cu58  1  0.75000000  0.87464400  0.56422500  1
  Cu  Cu59  1  0.25000000  0.12535600  0.43577500  1
