# generated using pymatgen
data_Cu2Ni2C9
_symmetry_space_group_name_H-M   'P 1'
_cell_length_a   3.40379900
_cell_length_b   3.40374954
_cell_length_c   44.75342306
_cell_angle_alpha   90.00540243
_cell_angle_beta   90.00000000
_cell_angle_gamma   120.00049039
_symmetry_Int_Tables_number   1
_chemical_formula_structural   Cu2Ni2C9
_chemical_formula_sum   'Cu2 Ni2 C9'
_cell_volume   449.03091670
_cell_formula_units_Z   1
loop_
 _symmetry_equiv_pos_site_id
 _symmetry_equiv_pos_as_xyz
  1  'x, y, z'
loop_
 _atom_site_type_symbol
 _atom_site_label
 _atom_site_symmetry_multiplicity
 _atom_site_fract_x
 _atom_site_fract_y
 _atom_site_fract_z
 _atom_site_occupancy
  C  C0  1  0.00001300  0.00002600  0.36363500  1
  C  C1  1  0.33338700  0.66677700  0.70011800  1
  C  C2  1  0.66656700  0.33313600  0.05180200  1
  C  C3  1  0.66663600  0.33327000  0.13597900  1
  C  C4  1  0.33332700  0.66665500  0.61592900  1
  C  C5  1  0.66670600  0.33341100  0.27696000  1
  C  C6  1  0.33326700  0.66653400  0.09387200  1
  C  C7  1  0.33332900  0.66665900  0.47631300  1
  C  C8  1  0.66669400  0.33338900  0.65802400  1
  Ni  Ni9  1  0.66664900  0.33329600  0.43914500  1
  Ni  Ni10  1  0.66669900  0.33339700  0.51324500  1
  Cu  Cu11  1  0.33337600  0.66675400  0.31136900  1
  Cu  Cu12  1  0.33334900  0.66669800  0.24388700  1
