# generated using pymatgen
data_Cu3NiC2
_symmetry_space_group_name_H-M   'P 1'
_cell_length_a   6.77980390
_cell_length_b   6.77980390
_cell_length_c   8.00666450
_cell_angle_alpha   77.89274279
_cell_angle_beta   77.89274279
_cell_angle_gamma   118.62672870
_symmetry_Int_Tables_number   1
_chemical_formula_structural   Cu3NiC2
_chemical_formula_sum   'Cu6 Ni2 C4'
_cell_volume   294.50055151
_cell_formula_units_Z   2
loop_
 _symmetry_equiv_pos_site_id
 _symmetry_equiv_pos_as_xyz
  1  'x, y, z'
loop_
 _atom_site_type_symbol
 _atom_site_label
 _atom_site_symmetry_multiplicity
 _atom_site_fract_x
 _atom_site_fract_y
 _atom_site_fract_z
 _atom_site_occupancy
  C  C0  1  0.37123800  0.30607500  0.12453900  1
  C  C1  1  0.09040100  0.68005700  0.08166200  1
  C  C2  1  0.30607500  0.37123800  0.62453900  1
  C  C3  1  0.68005700  0.09040100  0.58166200  1
  Ni  Ni4  1  0.71192900  0.99447400  0.09724700  1
  Ni  Ni5  1  0.99447400  0.71192900  0.59724700  1
  Cu  Cu6  1  0.11633600  0.35511500  0.94583400  1
  Cu  Cu7  1  0.35511500  0.11633600  0.44583400  1
  Cu  Cu8  1  0.72374200  0.77629100  0.48451000  1
  Cu  Cu9  1  0.77629100  0.72374200  0.98451000  1
  Cu  Cu10  1  0.08425500  0.51048600  0.40720700  1
  Cu  Cu11  1  0.51048600  0.08425500  0.90720700  1
