# generated using pymatgen
data_Cu2NiC18
_symmetry_space_group_name_H-M   'P 1'
_cell_length_a   9.32935248
_cell_length_b   9.33197120
_cell_length_c   22.77633513
_cell_angle_alpha   89.97166766
_cell_angle_beta   89.66715181
_cell_angle_gamma   120.07523886
_symmetry_Int_Tables_number   1
_chemical_formula_structural   Cu2NiC18
_chemical_formula_sum   'Cu12 Ni6 C108'
_cell_volume   1715.92741630
_cell_formula_units_Z   6
loop_
 _symmetry_equiv_pos_site_id
 _symmetry_equiv_pos_as_xyz
  1  'x, y, z'
loop_
 _atom_site_type_symbol
 _atom_site_label
 _atom_site_symmetry_multiplicity
 _atom_site_fract_x
 _atom_site_fract_y
 _atom_site_fract_z
 _atom_site_occupancy
  C  C0  1  0.62943766  0.99527288  0.25748411  1
  C  C1  1  0.36629525  0.37036285  0.25319845  1
  C  C2  1  0.00528631  0.62694042  0.25293311  1
  C  C3  1  0.63844998  0.63182576  0.74027887  1
  C  C4  1  0.98678724  0.35954072  0.74510197  1
  C  C5  1  0.38364490  0.01484190  0.74283473  1
  C  C6  1  0.29483059  0.32850153  0.58344804  1
  C  C7  1  0.04097875  0.71371318  0.58338734  1
  C  C8  1  0.66868723  0.96439618  0.58900458  1
  C  C9  1  0.29314495  0.97419310  0.08641872  1
  C  C10  1  0.68502734  0.70319495  0.08692491  1
  C  C11  1  0.02562399  0.32685386  0.09306032  1
  C  C12  1  0.97586833  0.67698330  0.92196529  1
  C  C13  1  0.69233510  0.03354695  0.91131081  1
  C  C14  1  0.33280774  0.29826401  0.91682405  1
  C  C15  1  0.96284904  0.29691385  0.41071888  1
  C  C16  1  0.33107406  0.03256969  0.41724351  1
  C  C17  1  0.70027535  0.66694415  0.41406736  1
  C  C18  1  0.00366109  0.99572218  0.49864503  1
  C  C19  1  0.00505277  0.99459137  0.00322710  1
  C  C20  1  0.66246008  0.32164663  0.83131134  1
  C  C21  1  0.67316635  0.33285336  0.34206355  1
  C  C22  1  0.32566994  0.66412417  0.17150947  1
  C  C23  1  0.33847259  0.67623654  0.66348970  1
  C  C24  1  0.99970199  -0.00036173  0.83725870  1
  C  C25  1  0.67165848  0.33276992  0.18945719  1
  C  C26  1  0.66964458  0.33654400  0.99435786  1
  C  C27  1  0.32922864  0.67124514  0.01467054  1
  C  C28  1  0.32916290  0.67230691  0.51242366  1
  C  C29  1  0.33945594  0.67663478  0.81251815  1
  C  C30  1  0.99675376  0.99348082  0.34873825  1
  C  C31  1  0.00732485  0.00078148  0.64834690  1
  C  C32  1  0.00202982  0.00212657  0.15685073  1
  C  C33  1  0.66479327  0.32542578  0.67883443  1
  C  C34  1  0.67098657  0.33949089  0.48757779  1
  C  C35  1  0.31132437  0.64754604  0.31925210  1
  Ni  Ni36  1  0.01404464  0.28731640  0.25555362  1
  Ni  Ni37  1  0.70925902  0.01518651  0.73973775  1
  Ni  Ni38  1  0.37527749  0.05510454  0.58453886  1
  Ni  Ni39  1  0.98036656  0.66343412  0.08957878  1
  Ni  Ni40  1  0.33431349  0.98710915  0.91583977  1
  Ni  Ni41  1  0.02198206  0.66711678  0.41445485  1
  Cu  Cu42  1  0.27618077  0.98410734  0.25464557  1
  Cu  Cu43  1  0.70584715  0.72221066  0.25428685  1
  Cu  Cu44  1  0.31118261  0.29853814  0.74050867  1
  Cu  Cu45  1  0.98477401  0.68811164  0.73995669  1
  Cu  Cu46  1  0.94568914  0.32307308  0.58404911  1
  Cu  Cu47  1  0.67716520  0.62056753  0.58534489  1
  Cu  Cu48  1  0.68232929  0.02074262  0.08841636  1
  Cu  Cu49  1  0.34127319  0.31970338  0.08895117  1
  Cu  Cu50  1  0.64612553  0.66515695  0.91605795  1
  Cu  Cu51  1  0.02049639  0.35294935  0.91523400  1
  Cu  Cu52  1  0.63719182  0.96828034  0.41171537  1
  Cu  Cu53  1  0.33143300  0.36069170  0.41289999  1
  C  C54  1  0.19012147  0.00623383  0.30896575  1
  C  C55  1  0.81552629  0.80361469  0.30835545  1
  C  C56  1  0.99046204  0.17111871  0.31215974  1
  C  C57  1  0.25199573  0.21171094  0.80115039  1
  C  C58  1  0.95821823  0.74766865  0.80048877  1
  C  C59  1  0.79665772  0.04598127  0.80444184  1
  C  C60  1  0.82111027  0.98626422  0.68906610  1
  C  C61  1  0.18552026  0.19480540  0.69176812  1
  C  C62  1  0.01620065  0.81777233  0.69103592  1
  C  C63  1  0.78991304  0.82357668  0.19740795  1
  C  C64  1  0.03698600  0.20331094  0.19480472  1
  C  C65  1  0.17748645  0.96580964  0.19751690  1
  C  C66  1  0.86516526  0.35167275  0.63875086  1
  C  C67  1  0.48931712  0.14073604  0.64179493  1
  C  C68  1  0.65552939  0.51231576  0.63943624  1
  C  C69  1  0.88744330  0.53160975  0.14274159  1
  C  C70  1  0.64430477  0.10577090  0.13914150  1
  C  C71  1  0.45931653  0.34679970  0.14004080  1
  C  C72  1  0.41492577  0.29584660  0.03037105  1
  C  C73  1  0.87513997  0.59248429  0.02787525  1
  C  C74  1  0.70611477  0.11868298  0.03007256  1
  C  C75  1  0.46517441  0.17007909  0.52441753  1
  C  C76  1  0.69916143  0.54063179  0.52793243  1
  C  C77  1  0.84178741  0.30368886  0.52764454  1
  C  C78  1  0.56146037  0.67650322  0.97286767  1
  C  C79  1  0.11929881  0.43479002  0.97167307  1
  C  C80  1  0.31303009  0.88149880  0.97572997  1
  C  C81  1  0.57489972  0.86694418  0.46985906  1
  C  C82  1  0.29464291  0.42720033  0.47017020  1
  C  C83  1  0.13533716  0.71958245  0.47377223  1
  C  C84  1  0.11705735  0.62446400  0.36035209  1
  C  C85  1  0.51207542  0.87293116  0.36079180  1
  C  C86  1  0.36213073  0.48561365  0.36098668  1
  C  C87  1  0.11183581  0.45585450  0.86003622  1
  C  C88  1  0.35409799  0.89509484  0.85734790  1
  C  C89  1  0.54078194  0.64839540  0.86137546  1
  C  C90  1  -0.00185340  0.83043584  0.40370843  1
  C  C91  1  0.81420000  0.99082679  0.40440559  1
  C  C92  1  0.17831252  0.18345410  0.40563469  1
  C  C93  1  -0.00037711  0.17841218  0.91439673  1
  C  C94  1  0.16661355  0.00090162  0.91430407  1
  C  C95  1  0.81704966  0.82458647  0.91401052  1
  C  C96  1  0.96286900  0.16405584  0.58710480  1
  C  C97  1  0.18281843  0.03265396  0.58964370  1
  C  C98  1  0.83530793  0.79839821  0.58836694  1
  C  C99  1  0.98750642  0.84111489  0.09873890  1
  C  C100  1  0.84599440  0.01969280  0.09612568  1
  C  C101  1  0.17203830  0.15886752  0.09490176  1
  C  C102  1  0.68907024  0.18134019  0.73511474  1
  C  C103  1  0.48785564  0.32284620  0.73460502  1
  C  C104  1  0.82712973  0.51617386  0.73290654  1
  C  C105  1  0.68069077  0.54335090  0.25290138  1
  C  C106  1  0.84904900  0.30986401  0.25625515  1
  C  C107  1  0.45241246  0.14125857  0.25357431  1
  C  C108  1  0.66451231  0.50936140  0.91598937  1
  C  C109  1  0.85010914  0.34402627  0.91655571  1
  C  C110  1  0.50358956  0.16833813  0.91690511  1
  C  C111  1  0.64869572  0.14136022  0.41786254  1
  C  C112  1  0.49469221  0.35252518  0.41741836  1
  C  C113  1  0.83822627  0.49244312  0.42461207  1
  C  C114  1  0.32035624  0.47385797  0.08699100  1
  C  C115  1  0.16541103  0.68412000  0.08881023  1
  C  C116  1  0.53358575  0.84216411  0.08602049  1
  C  C117  1  0.35307509  0.86731400  0.58348138  1
  C  C118  1  0.51870277  0.63805170  0.58320918  1
  C  C119  1  0.12414639  0.47799918  0.58173483  1
  C  C120  1  0.29660521  0.82611045  0.25830502  1
  C  C121  1  0.52981406  0.70636426  0.25850133  1
  C  C122  1  0.18417692  0.47880182  0.25874303  1
  C  C123  1  0.32083735  0.47007496  0.73983365  1
  C  C124  1  0.14159436  0.66915388  0.73999925  1
  C  C125  1  0.52607232  0.84521665  0.73747741  1
