# generated using pymatgen
data_Cu6NiC12
_symmetry_space_group_name_H-M   'P 1'
_cell_length_a   5.14431318
_cell_length_b   7.48603810
_cell_length_c   5.76855193
_cell_angle_alpha   98.62628574
_cell_angle_beta   80.80602964
_cell_angle_gamma   95.67022670
_symmetry_Int_Tables_number   1
_chemical_formula_structural   Cu6NiC12
_chemical_formula_sum   'Cu6 Ni1 C12'
_cell_volume   216.17692661
_cell_formula_units_Z   1
loop_
 _symmetry_equiv_pos_site_id
 _symmetry_equiv_pos_as_xyz
  1  'x, y, z'
loop_
 _atom_site_type_symbol
 _atom_site_label
 _atom_site_symmetry_multiplicity
 _atom_site_fract_x
 _atom_site_fract_y
 _atom_site_fract_z
 _atom_site_occupancy
  Ni  Ni0  1  0.01846954  0.49925898  0.99390865  1
  Cu  Cu1  1  0.49495475  0.00792799  0.52160488  1
  Cu  Cu2  1  0.52192066  0.67538984  0.15906150  1
  Cu  Cu3  1  0.51804486  0.33337172  0.84834019  1
  Cu  Cu4  1  0.89759296  0.69968693  0.62414054  1
  Cu  Cu5  1  0.06816966  0.28497217  0.40604208  1
  Cu  Cu6  1  0.96866872  0.02020221  0.98572081  1
  C  C7  1  0.86444403  0.42516481  0.67803705  1
  C  C8  1  0.84607823  0.75743913  0.98761370  1
  C  C9  1  0.81345387  0.09566017  0.31050583  1
  C  C10  1  0.64876539  0.09602799  0.79958322  1
  C  C11  1  0.62005143  0.77014128  0.45833308  1
  C  C12  1  0.64573725  0.44563469  0.14051239  1
  C  C13  1  0.39092670  0.57097671  0.87496955  1
  C  C14  1  0.36955154  0.24602117  0.56462769  1
  C  C15  1  0.17214474  0.25760203  0.04431949  1
  C  C16  1  0.15276811  0.92177860  0.68285002  1
  C  C17  1  0.35364289  0.90984508  0.20751387  1
  C  C18  1  0.14849966  0.58111149  0.31945448  1
