# generated using pymatgen
data_CuNi2C5
_symmetry_space_group_name_H-M   'P 1'
_cell_length_a   8.77104400
_cell_length_b   8.77104400
_cell_length_c   13.33014300
_cell_angle_alpha   90.00000000
_cell_angle_beta   90.00000000
_cell_angle_gamma   90.00000000
_symmetry_Int_Tables_number   1
_chemical_formula_structural   CuNi2C5
_chemical_formula_sum   'Cu4 Ni8 C20'
_cell_volume   1025.50406845
_cell_formula_units_Z   4
loop_
 _symmetry_equiv_pos_site_id
 _symmetry_equiv_pos_as_xyz
  1  'x, y, z'
loop_
 _atom_site_type_symbol
 _atom_site_label
 _atom_site_symmetry_multiplicity
 _atom_site_fract_x
 _atom_site_fract_y
 _atom_site_fract_z
 _atom_site_occupancy
  C  C0  1  0.37312100  0.66562000  0.60717500  1
  C  C1  1  0.83438000  0.87312100  0.60717500  1
  C  C2  1  0.16562000  0.12687900  0.60717500  1
  C  C3  1  0.87312100  0.83438000  0.89282500  1
  C  C4  1  0.12687900  0.16562000  0.89282500  1
  C  C5  1  0.62687900  0.33438000  0.60717500  1
  C  C6  1  0.66562000  0.37312100  0.89282500  1
  C  C7  1  0.33438000  0.62687900  0.89282500  1
  C  C8  1  0.16562000  0.87312100  0.10717500  1
  C  C9  1  0.83438000  0.12687900  0.10717500  1
  C  C10  1  0.87312100  0.16562000  0.39282500  1
  C  C11  1  0.37312100  0.33438000  0.10717500  1
  C  C12  1  0.62687900  0.66562000  0.10717500  1
  C  C13  1  0.33438000  0.37312100  0.39282500  1
  C  C14  1  0.66562000  0.62687900  0.39282500  1
  C  C15  1  0.12687900  0.83438000  0.39282500  1
  C  C16  1  0.50000000  0.00000000  0.79210200  1
  C  C17  1  0.00000000  0.50000000  0.70789800  1
  C  C18  1  0.00000000  0.50000000  0.20789800  1
  C  C19  1  0.50000000  0.00000000  0.29210200  1
  Ni  Ni20  1  0.66067900  0.33932100  0.25000000  1
  Ni  Ni21  1  0.16067900  0.16067900  0.25000000  1
  Ni  Ni22  1  0.83932100  0.83932100  0.25000000  1
  Ni  Ni23  1  0.33932100  0.66067900  0.25000000  1
  Ni  Ni24  1  0.16067900  0.83932100  0.75000000  1
  Ni  Ni25  1  0.66067900  0.66067900  0.75000000  1
  Ni  Ni26  1  0.33932100  0.33932100  0.75000000  1
  Ni  Ni27  1  0.83932100  0.16067900  0.75000000  1
  Cu  Cu28  1  0.50000000  0.00000000  0.54222500  1
  Cu  Cu29  1  0.00000000  0.50000000  0.95777500  1
  Cu  Cu30  1  0.00000000  0.50000000  0.45777500  1
  Cu  Cu31  1  0.50000000  0.00000000  0.04222500  1
