# generated using pymatgen
data_Cu4NiC12
_symmetry_space_group_name_H-M   'P 1'
_cell_length_a   5.43171586
_cell_length_b   5.76564973
_cell_length_c   9.11229061
_cell_angle_alpha   89.95718570
_cell_angle_beta   89.18968677
_cell_angle_gamma   91.33114875
_symmetry_Int_Tables_number   1
_chemical_formula_structural   Cu4NiC12
_chemical_formula_sum   'Cu4 Ni1 C12'
_cell_volume   285.26727584
_cell_formula_units_Z   1
loop_
 _symmetry_equiv_pos_site_id
 _symmetry_equiv_pos_as_xyz
  1  'x, y, z'
loop_
 _atom_site_type_symbol
 _atom_site_label
 _atom_site_symmetry_multiplicity
 _atom_site_fract_x
 _atom_site_fract_y
 _atom_site_fract_z
 _atom_site_occupancy
  Ni  Ni0  1  0.29321200  0.86317600  0.48759000  1
  Cu  Cu1  1  0.12257400  0.66267600  0.13086400  1
  Cu  Cu2  1  0.39273100  0.31297400  0.63663800  1
  Cu  Cu3  1  0.60958700  0.82405100  0.87054400  1
  Cu  Cu4  1  0.86908200  0.15703400  0.36535200  1
  C  C5  1  0.08436300  0.87109300  0.29284700  1
  C  C6  1  0.87683400  0.69267200  0.99113000  1
  C  C7  1  0.62082000  0.33281500  0.48377500  1
  C  C8  1  0.44500800  0.99565700  0.69585100  1
  C  C9  1  0.53035800  0.53267600  0.77698900  1
  C  C10  1  0.37061100  0.86662300  0.01473200  1
  C  C11  1  0.11213100  0.15706600  0.51756300  1
  C  C12  1  0.94616400  0.38869200  0.23286200  1
  C  C13  1  0.16610300  0.59252600  0.58059200  1
  C  C14  1  0.38853900  0.44126300  0.12276600  1
  C  C15  1  0.59770300  0.89407800  0.37561900  1
  C  C16  1  0.84918100  0.08159400  0.83857300  1
