# generated using pymatgen
data_Cu2NiC12
_symmetry_space_group_name_H-M   'P 1'
_cell_length_a   6.50818410
_cell_length_b   6.36960295
_cell_length_c   6.04879242
_cell_angle_alpha   63.40972157
_cell_angle_beta   85.86723049
_cell_angle_gamma   118.41686029
_symmetry_Int_Tables_number   1
_chemical_formula_structural   Cu2NiC12
_chemical_formula_sum   'Cu2 Ni1 C12'
_cell_volume   183.79937909
_cell_formula_units_Z   1
loop_
 _symmetry_equiv_pos_site_id
 _symmetry_equiv_pos_as_xyz
  1  'x, y, z'
loop_
 _atom_site_type_symbol
 _atom_site_label
 _atom_site_symmetry_multiplicity
 _atom_site_fract_x
 _atom_site_fract_y
 _atom_site_fract_z
 _atom_site_occupancy
  Ni  Ni0  1  0.26344836  0.46115487  0.74018261  1
  Cu  Cu1  1  0.91296609  0.85099836  0.09710533  1
  Cu  Cu2  1  0.81291769  0.60582301  0.73207987  1
  C  C3  1  0.34960662  0.28045292  0.33752211  1
  C  C4  1  0.89688582  0.26367175  0.36807563  1
  C  C5  1  0.42433662  0.89351507  0.26295823  1
  C  C6  1  0.43992260  0.88897884  0.81479867  1
  C  C7  1  0.12718020  0.23482052  0.12874971  1
  C  C8  1  0.61915376  0.29143256  0.17075979  1
  C  C9  1  0.54039008  0.71690347  0.13130141  1
  C  C10  1  0.15494690  0.71421336  0.13278829  1
  C  C11  1  0.64735300  0.26960953  0.63055890  1
  C  C12  1  0.12237487  0.20767444  0.61184926  1
  C  C13  1  0.20784558  0.78061946  0.61116671  1
  C  C14  1  0.61608880  0.81096483  0.59468648  1
