# generated using pymatgen
data_Cu3Ni3C31
_symmetry_space_group_name_H-M   'P 1'
_cell_length_a   9.03735906
_cell_length_b   9.06029326
_cell_length_c   23.65100111
_cell_angle_alpha   89.46499547
_cell_angle_beta   90.46664545
_cell_angle_gamma   120.19448028
_symmetry_Int_Tables_number   1
_chemical_formula_structural   Cu3Ni3C31
_chemical_formula_sum   'Cu9 Ni9 C93'
_cell_volume   1673.73666694
_cell_formula_units_Z   3
loop_
 _symmetry_equiv_pos_site_id
 _symmetry_equiv_pos_as_xyz
  1  'x, y, z'
loop_
 _atom_site_type_symbol
 _atom_site_label
 _atom_site_symmetry_multiplicity
 _atom_site_fract_x
 _atom_site_fract_y
 _atom_site_fract_z
 _atom_site_occupancy
  C  C0  1  0.34792251  0.34922784  0.25371494  1
  C  C1  1  0.68663019  0.02250166  0.91531162  1
  C  C2  1  0.98260834  0.31486449  0.41778253  1
  C  C3  1  0.01404450  0.99554419  0.50323859  1
  C  C4  1  0.00146771  0.98450594  0.99725349  1
  C  C5  1  0.65148965  0.33901566  0.82903266  1
  C  C6  1  0.66654350  0.33401339  0.33286708  1
  C  C7  1  0.33182954  0.69938905  0.16299102  1
  C  C8  1  0.33277263  0.66576506  0.66658966  1
  C  C9  1  0.00624971  0.99269361  0.35231123  1
  C  C10  1  0.99409177  0.00233624  0.14694989  1
  C  C11  1  0.67634308  0.32059221  0.18038823  1
  C  C12  1  0.66060393  0.33367789  0.97991647  1
  C  C13  1  0.66160135  0.33578542  0.48722181  1
  C  C14  1  0.32625734  0.67441670  0.31635001  1
  C  C15  1  0.99833940  0.99430291  0.84711294  1
  C  C16  1  0.99328017  0.00768118  0.65238436  1
  C  C17  1  0.67581561  0.32406633  0.68340053  1
  C  C18  1  0.34136006  0.68003670  0.01221741  1
  C  C19  1  0.32252565  0.65513999  0.51986673  1
  C  C20  1  0.34287508  0.67506852  0.81445310  1
  Ni  Ni21  1  0.30309002  0.00517389  0.24700705  1
  Ni  Ni22  1  0.00105857  0.29926622  0.25357538  1
  Ni  Ni23  1  0.70170068  0.00130773  0.75221196  1
  Ni  Ni24  1  0.97243696  0.33257756  0.58413850  1
  Ni  Ni25  1  0.65919648  0.01944472  0.07638454  1
  Ni  Ni26  1  0.63149113  0.67322684  0.91330257  1
  Ni  Ni27  1  0.32290589  0.95716895  0.91311542  1
  Ni  Ni28  1  0.33338312  0.37158009  0.41638795  1
  Ni  Ni29  1  0.03490143  0.66544499  0.42227595  1
  Cu  Cu30  1  0.69521393  0.69328185  0.24903131  1
  Cu  Cu31  1  0.30184747  0.29946576  0.74954317  1
  Cu  Cu32  1  0.99906606  0.70104633  0.74810127  1
  Cu  Cu33  1  0.35861616  0.02567676  0.58818114  1
  Cu  Cu34  1  0.66635993  0.63512011  0.58851863  1
  Cu  Cu35  1  0.97818421  0.63517663  0.08009948  1
  Cu  Cu36  1  0.36635881  0.34590843  0.08267887  1
  Cu  Cu37  1  0.04560098  0.37224541  0.91443273  1
  Cu  Cu38  1  0.63055330  0.96232413  0.42208158  1
  C  C39  1  0.21306610  0.01818575  0.30065192  1
  C  C40  1  0.79367147  0.77666912  0.30080475  1
  C  C41  1  0.98553163  0.20369130  0.30987856  1
  C  C42  1  0.22255168  0.19322822  0.80049728  1
  C  C43  1  0.97888201  0.77795432  0.80009637  1
  C  C44  1  0.80159745  0.02174582  0.80818716  1
  C  C45  1  0.79291369  0.98116509  0.70090558  1
  C  C46  1  0.20133987  0.21791883  0.69768767  1
  C  C47  1  0.02555349  0.80972863  0.69748459  1
  C  C48  1  0.78073863  0.79164200  0.19802873  1
  C  C49  1  0.01069141  0.19658714  0.20347699  1
  C  C50  1  0.19601838  0.98773982  0.19428996  1
  C  C51  1  0.87946920  0.35179856  0.63543388  1
  C  C52  1  0.46147897  0.11097787  0.63914815  1
  C  C53  1  0.64112129  0.52643969  0.63875769  1
  C  C54  1  0.89305730  0.54054571  0.13268669  1
  C  C55  1  0.65116028  0.11767766  0.12860809  1
  C  C56  1  0.46101860  0.36215272  0.13634872  1
  C  C57  1  0.46232834  0.33467985  0.03435493  1
  C  C58  1  0.87264443  0.54666749  0.03041977  1
  C  C59  1  0.66944330  0.11735417  0.02139202  1
  C  C60  1  0.43760586  0.13006720  0.53683018  1
  C  C61  1  0.68249684  0.55414896  0.53661325  1
  C  C62  1  0.87488271  0.31702969  0.52864518  1
  C  C63  1  0.54907993  0.70263841  0.96596882  1
  C  C64  1  0.14403457  0.45279304  0.96635353  1
  C  C65  1  0.28860991  0.85082776  0.96774475  1
  C  C66  1  0.54527325  0.86392254  0.47344677  1
  C  C67  1  0.31573052  0.46817991  0.46704593  1
  C  C68  1  0.14432884  0.69381097  0.47559139  1
  C  C69  1  0.12245037  0.64763100  0.36918360  1
  C  C70  1  0.53516992  0.88115495  0.37008035  1
  C  C71  1  0.35093936  0.46740567  0.36023259  1
  C  C72  1  0.12596801  0.47314785  0.86283878  1
  C  C73  1  0.35385283  0.87289829  0.86181207  1
  C  C74  1  0.52195041  0.64106706  0.85991230  1
  C  C75  1  0.00036550  0.81473747  0.41790163  1
  C  C76  1  0.80578255  0.98577690  0.41977071  1
  C  C77  1  0.16253695  0.19577056  0.41614112  1
  C  C78  1  0.02504241  0.19813785  0.91121768  1
  C  C79  1  0.16931630  0.98635053  0.90599095  1
  C  C80  1  0.80701133  0.84562064  0.90911438  1
  C  C81  1  0.98886765  0.16931322  0.58872144  1
  C  C82  1  0.18341675  0.00176386  0.59252799  1
  C  C83  1  0.82589998  0.80434437  0.59253535  1
  C  C84  1  0.00254219  0.80979233  0.08184818  1
  C  C85  1  0.81889935  0.99903241  0.07991102  1
  C  C86  1  0.19531679  0.18781671  0.08318991  1
  C  C87  1  0.68577727  0.16507783  0.74767506  1
  C  C88  1  0.47765131  0.32388258  0.74480179  1
  C  C89  1  0.84000878  0.53098447  0.74281307  1
  C  C90  1  0.67233693  0.51871721  0.24648961  1
  C  C91  1  0.84810422  0.32915368  0.24835481  1
  C  C92  1  0.47584118  0.17846423  0.24486941  1
  C  C93  1  0.66376496  0.52297387  0.91995056  1
  C  C94  1  0.86903946  0.34756012  0.91791947  1
  C  C95  1  0.49220272  0.13356672  0.91821980  1
  C  C96  1  0.65187865  0.13714522  0.42393334  1
  C  C97  1  0.48678263  0.34296192  0.42249078  1
  C  C98  1  0.86191349  0.49270219  0.42512552  1
  C  C99  1  0.34463615  0.49643796  0.07727484  1
  C  C100  1  0.14612316  0.64344702  0.07758089  1
  C  C101  1  0.49360683  0.84185727  0.07828834  1
  C  C102  1  0.34766062  0.85656490  0.58369226  1
  C  C103  1  0.51601740  0.66079889  0.58376369  1
  C  C104  1  0.15560867  0.49355311  0.58403821  1
  C  C105  1  0.33756373  0.85563171  0.25005566  1
  C  C106  1  0.52176671  0.67319122  0.25138186  1
  C  C107  1  0.17222652  0.47288265  0.25263210  1
  C  C108  1  0.31301747  0.46897398  0.75400871  1
  C  C109  1  0.15023614  0.67625472  0.75224060  1
  C  C110  1  0.51993549  0.84005925  0.75300248  1
