# generated using pymatgen
data_Cu4Ni2C9
_symmetry_space_group_name_H-M   'P 1'
_cell_length_a   7.20018308
_cell_length_b   7.00903623
_cell_length_c   7.00903600
_cell_angle_alpha   60.00000107
_cell_angle_beta   60.87436736
_cell_angle_gamma   60.87436153
_symmetry_Int_Tables_number   1
_chemical_formula_structural   Cu4Ni2C9
_chemical_formula_sum   'Cu4 Ni2 C9'
_cell_volume   253.37286381
_cell_formula_units_Z   1
loop_
 _symmetry_equiv_pos_site_id
 _symmetry_equiv_pos_as_xyz
  1  'x, y, z'
loop_
 _atom_site_type_symbol
 _atom_site_label
 _atom_site_symmetry_multiplicity
 _atom_site_fract_x
 _atom_site_fract_y
 _atom_site_fract_z
 _atom_site_occupancy
  C  C0  1  0.50000000  0.00000000  0.00000000  1
  Ni  Ni1  1  0.92210800  0.85929700  0.85929700  1
  Ni  Ni2  1  0.07789200  0.14070300  0.14070300  1
  Cu  Cu3  1  0.50000000  0.50000000  0.00000000  1
  Cu  Cu4  1  0.50000000  0.50000000  0.50000000  1
  Cu  Cu5  1  0.00000000  0.50000000  0.50000000  1
  Cu  Cu6  1  0.50000000  0.00000000  0.50000000  1
  C  C7  1  0.74028500  0.73875100  0.73875100  1
  C  C8  1  0.25971500  0.26124900  0.71778600  1
  C  C9  1  0.25971500  0.71778600  0.26124900  1
  C  C10  1  0.70573900  0.26475300  0.26475300  1
  C  C11  1  0.74028500  0.28221400  0.73875100  1
  C  C12  1  0.29426100  0.73524700  0.73524700  1
  C  C13  1  0.25971500  0.26124900  0.26124900  1
  C  C14  1  0.74028500  0.73875100  0.28221400  1
