# generated using pymatgen
data_Cu5NiC28
_symmetry_space_group_name_H-M   'P 1'
_cell_length_a   8.90023120
_cell_length_b   8.94321920
_cell_length_c   23.11618062
_cell_angle_alpha   90.28971912
_cell_angle_beta   89.98147057
_cell_angle_gamma   120.03794720
_symmetry_Int_Tables_number   1
_chemical_formula_structural   Cu5NiC28
_chemical_formula_sum   'Cu15 Ni3 C84'
_cell_volume   1592.82739740
_cell_formula_units_Z   3
loop_
 _symmetry_equiv_pos_site_id
 _symmetry_equiv_pos_as_xyz
  1  'x, y, z'
loop_
 _atom_site_type_symbol
 _atom_site_label
 _atom_site_symmetry_multiplicity
 _atom_site_fract_x
 _atom_site_fract_y
 _atom_site_fract_z
 _atom_site_occupancy
  C  C0  1  0.67100073  0.33786516  0.97468601  1
  C  C1  1  0.33225715  0.67318546  0.30922004  1
  C  C2  1  0.33051698  0.65731834  0.81730252  1
  C  C3  1  0.00845965  0.00325535  0.35136343  1
  C  C4  1  0.99331666  0.99837789  0.85672694  1
  C  C5  1  0.99808670  0.99904869  0.64856658  1
  C  C6  1  0.00716695  0.99761891  0.14353616  1
  C  C7  1  0.66833344  0.33463399  0.68632275  1
  C  C8  1  0.65770337  0.32459128  0.18668225  1
  C  C9  1  0.66546828  0.33245828  0.47813974  1
  C  C10  1  0.33661269  0.66263860  0.02028766  1
  C  C11  1  0.33452751  0.66694228  0.52077060  1
  Ni  Ni12  1  0.29050883  0.00828789  0.24921298  1
  Ni  Ni13  1  0.62341942  0.66775965  0.91926249  1
  Ni  Ni14  1  0.04662384  0.37760701  0.91893137  1
  Cu  Cu15  1  0.70561111  0.70813844  0.25109433  1
  Cu  Cu16  1  0.00059260  0.29537145  0.25125579  1
  Cu  Cu17  1  0.29208920  0.29459999  0.75033205  1
  Cu  Cu18  1  0.00555685  0.70969610  0.75009976  1
  Cu  Cu19  1  0.70112327  0.99689853  0.74967660  1
  Cu  Cu20  1  0.95852431  0.33194463  0.58291895  1
  Cu  Cu21  1  0.37376015  0.04141139  0.58308784  1
  Cu  Cu22  1  0.66769508  0.62571150  0.58316042  1
  Cu  Cu23  1  0.95073744  0.61725542  0.08278344  1
  Cu  Cu24  1  0.66813612  0.04435962  0.08220822  1
  Cu  Cu25  1  0.37963464  0.33414517  0.08235806  1
  Cu  Cu26  1  0.33761389  0.95630818  0.91706637  1
  Cu  Cu27  1  0.62332281  0.95393775  0.41528276  1
  Cu  Cu28  1  0.33321792  0.38000037  0.41642870  1
  Cu  Cu29  1  0.04506732  0.66523811  0.41642503  1
  C  C30  1  0.21378934  0.03224715  0.30918396  1
  C  C31  1  0.80681819  0.78550646  0.30399566  1
  C  C32  1  0.96665372  0.18934435  0.30336495  1
  C  C33  1  0.21460168  0.18554555  0.80066960  1
  C  C34  1  0.97528180  0.78922280  0.80056125  1
  C  C35  1  0.81377963  0.03106276  0.79947356  1
  C  C36  1  0.77168330  0.95996779  0.69619613  1
  C  C37  1  0.18556994  0.22470483  0.69705378  1
  C  C38  1  0.03805491  0.81453973  0.69665660  1
  C  C39  1  0.76865540  0.81887788  0.19974168  1
  C  C40  1  0.04254241  0.22770834  0.19958307  1
  C  C41  1  0.16497754  0.94899432  0.19319291  1
  C  C42  1  0.88104091  0.36334177  0.63510532  1
  C  C43  1  0.48257146  0.11950398  0.63519569  1
  C  C44  1  0.63675855  0.51757075  0.63514803  1
  C  C45  1  0.87395822  0.51414169  0.13552143  1
  C  C46  1  0.64372372  0.12089362  0.13541524  1
  C  C47  1  0.48314646  0.36231805  0.13524642  1
  C  C48  1  0.47146456  0.31117252  0.03137849  1
  C  C49  1  0.83632165  0.52032699  0.03111350  1
  C  C50  1  0.68916933  0.15621072  0.03101817  1
  C  C51  1  0.45142326  0.14834163  0.53061634  1
  C  C52  1  0.69824751  0.54840400  0.53061152  1
  C  C53  1  0.85000317  0.30127816  0.53048513  1
  C  C54  1  0.54643982  0.70741263  0.97468843  1
  C  C55  1  0.15135808  0.46478108  0.97570325  1
  C  C56  1  0.30507158  0.85405400  0.96935270  1
  C  C57  1  0.54781311  0.85009453  0.46814887  1
  C  C58  1  0.30788805  0.45780125  0.46986909  1
  C  C59  1  0.15189059  0.69532367  0.46893130  1
  C  C60  1  0.13854057  0.64288895  0.36526295  1
  C  C61  1  0.50672523  0.85977895  0.36445435  1
  C  C62  1  0.35609916  0.49159218  0.36548235  1
  C  C63  1  0.13873740  0.51021148  0.86071830  1
  C  C64  1  0.37052031  0.87278943  0.86470199  1
  C  C65  1  0.49170686  0.63575310  0.86113410  1
  C  C66  1  0.02185570  0.81372876  0.40891487  1
  C  C67  1  0.79412180  0.97263814  0.40551926  1
  C  C68  1  0.17730677  0.20976231  0.41045208  1
  C  C69  1  0.02504121  0.19746717  0.90382530  1
  C  C70  1  0.19464277  0.98371746  0.90467917  1
  C  C71  1  0.81315025  0.81012225  0.90402108  1
  C  C72  1  0.97620238  0.17750006  0.59066504  1
  C  C73  1  0.20065427  0.02342256  0.59083568  1
  C  C74  1  0.82296113  0.79821541  0.59075424  1
  C  C75  1  0.95318312  0.78328761  0.08468030  1
  C  C76  1  0.82783544  0.03159444  0.08768512  1
  C  C77  1  0.20797148  0.17476396  0.08513297  1
  C  C78  1  0.67978540  0.14965325  0.74108531  1
  C  C79  1  0.46893511  0.32213047  0.74195796  1
  C  C80  1  0.85275754  0.53445172  0.74199636  1
  C  C81  1  0.68228765  0.53710345  0.24262418  1
  C  C82  1  0.86084740  0.33235100  0.24311598  1
  C  C83  1  0.48683360  0.16016281  0.24363437  1
  C  C84  1  0.62650091  0.48368478  0.93033509  1
  C  C85  1  0.85206034  0.35956899  0.92914602  1
  C  C86  1  0.49953576  0.12828549  0.92565382  1
  C  C87  1  0.63280327  0.12289182  0.42023467  1
  C  C88  1  0.49256658  0.36723229  0.42141014  1
  C  C89  1  0.87627671  0.50306468  0.42051093  1
  C  C90  1  0.36095762  0.48678413  0.07747000  1
  C  C91  1  0.12444664  0.64165426  0.07542568  1
  C  C92  1  0.51210651  0.87434918  0.07538392  1
  C  C93  1  0.35669461  0.86900831  0.57567112  1
  C  C94  1  0.51196989  0.64318877  0.57632193  1
  C  C95  1  0.13149528  0.48766980  0.57597489  1
  C  C96  1  0.30997722  0.82866963  0.26601526  1
  C  C97  1  0.52446815  0.68440820  0.26427489  1
  C  C98  1  0.16443752  0.47059723  0.26483650  1
  C  C99  1  0.30854615  0.47019500  0.75999963  1
  C  C100  1  0.16332534  0.69369503  0.75951021  1
  C  C101  1  0.52574616  0.84266709  0.76008012  1
