# generated using pymatgen
data_Cu3Ni14C65
_symmetry_space_group_name_H-M   'P 1'
_cell_length_a   18.59042865
_cell_length_b   9.28685884
_cell_length_c   22.42465620
_cell_angle_alpha   90.02676392
_cell_angle_beta   89.92091505
_cell_angle_gamma   119.95601752
_symmetry_Int_Tables_number   1
_chemical_formula_structural   Cu3Ni14C65
_chemical_formula_sum   'Cu9 Ni42 C195'
_cell_volume   3354.33591844
_cell_formula_units_Z   3
loop_
 _symmetry_equiv_pos_site_id
 _symmetry_equiv_pos_as_xyz
  1  'x, y, z'
loop_
 _atom_site_type_symbol
 _atom_site_label
 _atom_site_symmetry_multiplicity
 _atom_site_fract_x
 _atom_site_fract_y
 _atom_site_fract_z
 _atom_site_occupancy
  Ni  Ni0  1  0.31939622  0.01291186  0.24644032  1
  Ni  Ni1  1  0.81729749  0.00836646  0.24416423  1
  Ni  Ni2  1  0.18657834  0.36548402  0.24403460  1
  Ni  Ni3  1  0.68764573  0.36118632  0.24705344  1
  Ni  Ni4  1  0.99604333  0.62118881  0.24623506  1
  Ni  Ni5  1  0.49218014  0.62868863  0.24526023  1
  Ni  Ni6  1  0.31570630  0.62351969  0.74638299  1
  Ni  Ni7  1  0.81530036  0.62282356  0.74681073  1
  Ni  Ni8  1  0.99515443  0.36852526  0.74737042  1
  Ni  Ni9  1  0.49489643  0.36775622  0.74696638  1
  Ni  Ni10  1  0.18974571  0.00846574  0.74683220  1
  Ni  Ni11  1  0.68909817  0.00826113  0.74667109  1
  Ni  Ni12  1  0.15491812  0.34790274  0.57846337  1
  Ni  Ni13  1  0.65353384  0.34741584  0.57812326  1
  Ni  Ni14  1  0.01901711  0.69285589  0.57822799  1
  Ni  Ni15  1  0.51963747  0.69169676  0.57795181  1
  Ni  Ni16  1  0.32489964  0.95752638  0.57711062  1
  Ni  Ni17  1  0.82786691  0.96281671  0.57987369  1
  Ni  Ni18  1  0.15554422  0.96079051  0.07797094  1
  Ni  Ni19  1  0.65472935  0.96037315  0.07805753  1
  Ni  Ni20  1  0.32607056  0.69249305  0.07888508  1
  Ni  Ni21  1  0.82572249  0.69235743  0.07862322  1
  Ni  Ni22  1  0.01896569  0.34693488  0.07732347  1
  Ni  Ni23  1  0.51919835  0.34667279  0.07757442  1
  Ni  Ni24  1  0.34831625  0.02642431  0.91938980  1
  Ni  Ni25  1  0.84817337  0.02654578  0.91948214  1
  Ni  Ni26  1  0.48543269  0.29362395  0.41378155  1
  Ni  Ni27  1  0.66082538  0.02745390  0.41307975  1
  Ni  Ni28  1  0.35202777  0.67827841  0.41407047  1
  Ni  Ni29  1  0.84850747  0.67255987  0.41669420  1
  Ni  Ni30  1  0.00768561  0.01471245  0.49690420  1
  Ni  Ni31  1  0.49943656  0.99986747  0.49414710  1
  Ni  Ni32  1  0.00730792  0.99985728  0.99751042  1
  Ni  Ni33  1  0.50725879  0.00032408  0.99830843  1
  Ni  Ni34  1  0.33281719  0.34188673  0.83633899  1
  Ni  Ni35  1  0.83270036  0.34175998  0.83659714  1
  Ni  Ni36  1  0.32899724  0.32744336  0.33168090  1
  Ni  Ni37  1  0.83719664  0.32973631  0.33229701  1
  Ni  Ni38  1  0.16764185  0.66762770  0.15902297  1
  Ni  Ni39  1  0.66621911  0.66687816  0.15923689  1
  Ni  Ni40  1  0.16745983  0.66764430  0.65990793  1
  Ni  Ni41  1  0.66638435  0.66623237  0.66115884  1
  Cu  Cu42  1  0.49909017  0.99919864  0.34878209  1
  Cu  Cu43  1  0.33294632  0.33290984  0.68722621  1
  Cu  Cu44  1  0.83338387  0.33313433  0.68842793  1
  Cu  Cu45  1  0.33132632  0.33089975  0.18236486  1
  Cu  Cu46  1  0.83528809  0.33613536  0.18426309  1
  Cu  Cu47  1  0.16481946  0.66444958  0.01003574  1
  Cu  Cu48  1  0.66481878  0.66434078  0.01094260  1
  Cu  Cu49  1  0.16141404  0.66007158  0.51237220  1
  Cu  Cu50  1  0.67011403  0.67167183  0.51501201  1
  C  C51  1  0.00277653  0.00429805  0.35383849  1
  C  C52  1  0.00182381  0.00042317  0.85449135  1
  C  C53  1  0.50179629  0.00018621  0.85447977  1
  C  C54  1  0.00020855  0.99975555  0.64488076  1
  C  C55  1  0.49971881  0.99995319  0.64404007  1
  C  C56  1  0.99995430  0.99986853  0.14402776  1
  C  C57  1  0.49978044  0.00017020  0.14688161  1
  C  C58  1  0.33375387  0.33742182  0.97943977  1
  C  C59  1  0.83372338  0.33750488  0.97962575  1
  C  C60  1  0.33051990  0.32815129  0.48004989  1
  C  C61  1  0.83654943  0.33542588  0.48003879  1
  C  C62  1  0.16689700  0.66870891  0.31565339  1
  C  C63  1  0.66600911  0.66557364  0.31391255  1
  C  C64  1  0.16610094  0.66471136  0.81606302  1
  C  C65  1  0.66591817  0.66461376  0.81619699  1
  C  C66  1  0.14225738  0.98809551  0.24962990  1
  C  C67  1  0.64781714  0.99210868  0.25133921  1
  C  C68  1  0.34674612  0.70422795  0.25121565  1
  C  C69  1  0.85379074  0.71471343  0.25157691  1
  C  C70  1  0.00491715  0.29428675  0.25043149  1
  C  C71  1  0.50404892  0.30474676  0.25125128  1
  C  C72  1  0.14181321  0.29516030  0.75026348  1
  C  C73  1  0.64147465  0.29462468  0.75014678  1
  C  C74  1  0.00516353  0.71611308  0.75073869  1
  C  C75  1  0.50499202  0.71613094  0.75032191  1
  C  C76  1  0.35279273  0.98961507  0.75149946  1
  C  C77  1  0.85257315  0.98907296  0.75157430  1
  C  C78  1  0.48032181  0.32870939  0.58513770  1
  C  C79  1  0.98037657  0.32728295  0.58671359  1
  C  C80  1  0.18311531  0.03709881  0.58654568  1
  C  C81  1  0.68431201  0.04248208  0.58507154  1
  C  C82  1  0.33489449  0.63205708  0.58462423  1
  C  C83  1  0.83685054  0.63352716  0.58606316  1
  C  C84  1  0.48101118  0.63443031  0.08462092  1
  C  C85  1  0.98204196  0.63412737  0.08510634  1
  C  C86  1  0.33533654  0.03520462  0.08397509  1
  C  C87  1  0.83575611  0.03755107  0.08323281  1
  C  C88  1  0.18224270  0.32748871  0.08366452  1
  C  C89  1  0.68388035  0.32836622  0.08551386  1
  C  C90  1  0.31717972  0.66359170  0.91630411  1
  C  C91  1  0.81712116  0.66382195  0.91645521  1
  C  C92  1  0.01412299  0.36511844  0.91730200  1
  C  C93  1  0.51426817  0.36514182  0.91747684  1
  C  C94  1  0.16820289  0.97202846  0.91752350  1
  C  C95  1  0.66821184  0.97197227  0.91760935  1
  C  C96  1  0.31375859  0.96931864  0.41905450  1
  C  C97  1  0.81770491  0.97155691  0.41593396  1
  C  C98  1  0.16823619  0.36644793  0.41759601  1
  C  C99  1  0.67044352  0.36863224  0.41842731  1
  C  C100  1  0.01505621  0.66439902  0.41726768  1
  C  C101  1  0.51438012  0.65893362  0.41866234  1
  C  C102  1  0.08783612  -0.00005675  0.30487470  1
  C  C103  1  0.61080499  0.01887688  0.31211587  1
  C  C104  1  0.39751941  0.77676879  0.31178978  1
  C  C105  1  0.91106529  0.81631419  0.30851817  1
  C  C106  1  0.49075640  0.20436665  0.31208254  1
  C  C107  1  0.99728066  0.17119720  0.30512587  1
  C  C108  1  0.08707595  0.17531850  0.80515710  1
  C  C109  1  0.58697432  0.17519866  0.80520206  1
  C  C110  1  0.49775882  0.82366723  0.80512387  1
  C  C111  1  0.99776805  0.82393954  0.80524950  1
  C  C112  1  0.41031309  0.00367965  0.80826383  1
  C  C113  1  0.91031167  0.00348270  0.80817707  1
  C  C114  1  0.40163650  0.96976576  0.69129537  1
  C  C115  1  0.90150797  0.96974159  0.69123180  1
  C  C116  1  0.08477487  0.20014828  0.68939129  1
  C  C117  1  0.58477593  0.20024661  0.68925219  1
  C  C118  1  0.01576432  0.83109074  0.68976950  1
  C  C119  1  0.51596801  0.83125262  0.68939567  1
  C  C120  1  0.40249009  0.83272793  0.19392271  1
  C  C121  1  0.90190281  0.83219030  0.19126154  1
  C  C122  1  0.01545252  0.19945707  0.18964882  1
  C  C123  1  0.51344966  0.19532151  0.19376802  1
  C  C124  1  0.08514540  0.97027502  0.18897351  1
  C  C125  1  0.58376462  0.97263578  0.19399503  1
  C  C126  1  0.44389359  0.35835969  0.64641473  1
  C  C127  1  0.94367599  0.35450351  0.64813211  1
  C  C128  1  0.23342108  0.10875782  0.64810809  1
  C  C129  1  0.73545460  0.11566278  0.64612121  1
  C  C130  1  0.32064165  0.52949642  0.64588812  1
  C  C131  1  0.82283415  0.53070609  0.64690950  1
  C  C132  1  0.44401807  0.53386705  0.14583289  1
  C  C133  1  0.94900954  0.53730414  0.14773307  1
  C  C134  1  0.31893514  0.10374876  0.14581491  1
  C  C135  1  0.82350617  0.11481895  0.14409724  1
  C  C136  1  0.23030236  0.35538031  0.14587893  1
  C  C137  1  0.73449884  0.36077671  0.14726453  1
  C  C138  1  0.23896124  0.30782864  0.02872014  1
  C  C139  1  0.73946572  0.30782411  0.02968886  1
  C  C140  1  0.41614943  0.52129595  0.02875458  1
  C  C141  1  0.91600369  0.51949804  0.03010302  1
  C  C142  1  0.34599481  0.16254026  0.02678843  1
  C  C143  1  0.84627057  0.16207071  0.02540814  1
  C  C144  1  0.23896933  0.16943969  0.53080202  1
  C  C145  1  0.73730509  0.16640746  0.52697714  1
  C  C146  1  0.34591620  0.52757677  0.52696434  1
  C  C147  1  0.84597261  0.52755219  0.52792436  1
  C  C148  1  0.41699659  0.30823921  0.52782211  1
  C  C149  1  0.91647410  0.31172758  0.53000135  1
  C  C150  1  0.28564625  0.71289772  0.97536763  1
  C  C151  1  0.78545982  0.71309321  0.97555002  1
  C  C152  1  0.06281372  0.42731734  0.97887921  1
  C  C153  1  0.56318861  0.42807705  0.97898626  1
  C  C154  1  0.15178389  0.87492147  0.97930522  1
  C  C155  1  0.65205538  0.87441685  0.97932287  1
  C  C156  1  0.27595513  0.86124237  0.47830027  1
  C  C157  1  0.78761726  0.86515493  0.47667147  1
  C  C158  1  0.15006480  0.42611622  0.47992020  1
  C  C159  1  0.65849916  0.44694176  0.47875467  1
  C  C160  1  0.06148664  0.69755676  0.47984811  1
  C  C161  1  0.56826133  0.69016804  0.47805418  1
  C  C162  1  0.06979378  0.64375323  0.36133382  1
  C  C163  1  0.57030764  0.64192173  0.36074081  1
  C  C164  1  0.25196747  0.85937309  0.36041868  1
  C  C165  1  0.74991716  0.86281274  0.36080286  1
  C  C166  1  0.18010062  0.50209316  0.36257647  1
  C  C167  1  0.67996387  0.49816910  0.36085636  1
  C  C168  1  0.07026884  0.49648410  0.86120001  1
  C  C169  1  0.57026849  0.49660594  0.86129290  1
  C  C170  1  0.17995264  0.85822808  0.86236226  1
  C  C171  1  0.68011584  0.85861940  0.86230943  1
  C  C172  1  0.25129918  0.64078317  0.85981973  1
  C  C173  1  0.75134191  0.64100259  0.85991814  1
  C  C174  1  0.99605693  0.81862514  0.40670935  1
  C  C175  1  0.49740074  0.81258892  0.41417244  1
  C  C176  1  0.40781716  0.00306764  0.41439109  1
  C  C177  1  0.91031413  0.99568731  0.40428102  1
  C  C178  1  0.09056731  0.17808387  0.40479286  1
  C  C179  1  0.59279816  0.18239309  0.41424758  1
  C  C180  1  0.99678187  0.17411764  0.90650378  1
  C  C181  1  0.49691150  0.17417995  0.90665316  1
  C  C182  1  0.08930099  0.00086759  0.90508772  1
  C  C183  1  0.58925972  0.00057659  0.90520639  1
  C  C184  1  0.40978041  0.82607067  0.90464367  1
  C  C185  1  0.90974958  0.82623998  0.90472604  1
  C  C186  1  0.47963383  0.14756045  0.58659728  1
  C  C187  1  0.97874788  0.14574117  0.58632442  1
  C  C188  1  0.09395393  0.04052957  0.58676386  1
  C  C189  1  0.59408983  0.04160938  0.58625307  1
  C  C190  1  0.42526215  0.81260129  0.58687047  1
  C  C191  1  0.92714238  0.81297646  0.58685438  1
  C  C192  1  0.48080272  0.81429224  0.08661279  1
  C  C193  1  0.97985588  0.81203216  0.08567301  1
  C  C194  1  0.42624618  0.03751152  0.08738824  1
  C  C195  1  0.92573456  0.03620851  0.08621462  1
  C  C196  1  0.09255310  0.14661905  0.08502581  1
  C  C197  1  0.59412830  0.14808286  0.08782567  1
  C  C198  1  0.34220369  0.15242938  0.75287607  1
  C  C199  1  0.84163003  0.15136851  0.75326289  1
  C  C200  1  0.23327852  0.31528546  0.75290899  1
  C  C201  1  0.73298504  0.31466417  0.75317846  1
  C  C202  1  0.42352091  0.53292727  0.75259248  1
  C  C203  1  0.92374066  0.53318990  0.75326641  1
  C  C204  1  0.32996712  0.51679520  0.24625155  1
  C  C205  1  0.84292492  0.53057965  0.25283442  1
  C  C206  1  0.42642931  0.33677875  0.24663156  1
  C  C207  1  0.92399764  0.31566369  0.25219153  1
  C  C208  1  0.23423268  0.14868272  0.25166623  1
  C  C209  1  0.74122954  0.14815743  0.24692932  1
  C  C210  1  0.32181934  0.49231477  0.92154994  1
  C  C211  1  0.82196340  0.49276766  0.92183834  1
  C  C212  1  0.42206716  0.35073792  0.91959523  1
  C  C213  1  0.92209402  0.35146258  0.91948746  1
  C  C214  1  0.25723679  0.14887093  0.91908054  1
  C  C215  1  0.75707328  0.14929683  0.91925332  1
  C  C216  1  0.31707974  0.15107056  0.42148295  1
  C  C217  1  0.81731098  0.14839881  0.42062412  1
  C  C218  1  0.25849458  0.37065497  0.41993406  1
  C  C219  1  0.75945813  0.36712038  0.41974269  1
  C  C220  1  0.42567238  0.47966757  0.42024077  1
  C  C221  1  0.92290667  0.49163409  0.42016151  1
  C  C222  1  0.16703848  0.48291417  0.07654344  1
  C  C223  1  0.66828772  0.48342400  0.07762778  1
  C  C224  1  0.07524394  0.66696979  0.07777330  1
  C  C225  1  0.57421158  0.66549124  0.07836667  1
  C  C226  1  0.25867680  0.84757195  0.07735748  1
  C  C227  1  0.75817992  0.85027997  0.07855725  1
  C  C228  1  0.16606134  0.84975850  0.58016838  1
  C  C229  1  0.66811249  0.85506549  0.58007556  1
  C  C230  1  0.25761242  0.66449364  0.57882224  1
  C  C231  1  0.76052773  0.66966858  0.58217491  1
  C  C232  1  0.07370079  0.48121256  0.58140131  1
  C  C233  1  0.57437311  0.48204243  0.57955903  1
  C  C234  1  0.14531984  0.81341526  0.25491797  1
  C  C235  1  0.64883407  0.81317312  0.25255447  1
  C  C236  1  0.25719193  0.70595690  0.25236397  1
  C  C237  1  0.76240276  0.70520657  0.25606364  1
  C  C238  1  0.09117277  0.47601986  0.25633149  1
  C  C239  1  0.59469974  0.48338945  0.25276112  1
  C  C240  1  0.14681099  0.47840715  0.75443527  1
  C  C241  1  0.64681413  0.47833980  0.75445806  1
  C  C242  1  0.09154047  0.70595185  0.75576529  1
  C  C243  1  0.59145242  0.70577333  0.75569898  1
  C  C244  1  0.26063178  0.81665520  0.75485656  1
  C  C245  1  0.76046852  0.81626232  0.75470321  1
