# generated using pymatgen
data_Cu4NiC12
_symmetry_space_group_name_H-M   'P 1'
_cell_length_a   5.11829441
_cell_length_b   9.39671037
_cell_length_c   5.16173851
_cell_angle_alpha   104.44850150
_cell_angle_beta   117.55845451
_cell_angle_gamma   77.12211666
_symmetry_Int_Tables_number   1
_chemical_formula_structural   Cu4NiC12
_chemical_formula_sum   'Cu4 Ni1 C12'
_cell_volume   211.45098348
_cell_formula_units_Z   1
loop_
 _symmetry_equiv_pos_site_id
 _symmetry_equiv_pos_as_xyz
  1  'x, y, z'
loop_
 _atom_site_type_symbol
 _atom_site_label
 _atom_site_symmetry_multiplicity
 _atom_site_fract_x
 _atom_site_fract_y
 _atom_site_fract_z
 _atom_site_occupancy
  Ni  Ni0  1  0.41843000  0.81053000  0.61781500  1
  Cu  Cu1  1  0.98217900  0.01633000  0.01005600  1
  Cu  Cu2  1  0.74298000  0.73276500  0.21449300  1
  Cu  Cu3  1  0.51328000  0.48616200  0.51834300  1
  Cu  Cu4  1  0.28097500  0.24049800  0.76216200  1
  C  C5  1  0.76383700  0.87767800  0.01415000  1
  C  C6  1  0.31265200  0.37021500  0.53399300  1
  C  C7  1  0.68972600  0.64818800  0.45029100  1
  C  C8  1  0.16830600  0.13555200  0.96855300  1
  C  C9  1  0.51276900  0.63865300  0.84494400  1
  C  C10  1  0.58537600  0.11791900  0.77915900  1
  C  C11  1  0.14070100  0.63259000  0.28157800  1
  C  C12  1  0.99344500  0.13245000  0.38849200  1
  C  C13  1  0.36158000  0.88743400  0.25996700  1
  C  C14  1  0.49485800  0.37736700  0.12180800  1
  C  C15  1  0.02036000  0.87799800  0.62741900  1
  C  C16  1  0.90604700  0.38909900  0.73177700  1
