# generated using pymatgen
data_Cu2NiC10
_symmetry_space_group_name_H-M   'P 1'
_cell_length_a   9.04738338
_cell_length_b   9.03711091
_cell_length_c   22.98910442
_cell_angle_alpha   89.91118899
_cell_angle_beta   89.97024550
_cell_angle_gamma   120.00091630
_symmetry_Int_Tables_number   1
_chemical_formula_structural   Cu2NiC10
_chemical_formula_sum   'Cu18 Ni9 C90'
_cell_volume   1627.79711145
_cell_formula_units_Z   9
loop_
 _symmetry_equiv_pos_site_id
 _symmetry_equiv_pos_as_xyz
  1  'x, y, z'
loop_
 _atom_site_type_symbol
 _atom_site_label
 _atom_site_symmetry_multiplicity
 _atom_site_fract_x
 _atom_site_fract_y
 _atom_site_fract_z
 _atom_site_occupancy
  C  C0  1  0.63482394  0.99946784  0.25294111  1
  C  C1  1  0.36434814  0.36506118  0.25366637  1
  C  C2  1  0.00079762  0.63614427  0.25304475  1
  C  C3  1  0.64083717  0.63464407  0.74846725  1
  C  C4  1  0.99670075  0.35985858  0.74866022  1
  C  C5  1  0.03285860  0.70030967  0.58134077  1
  C  C6  1  0.66466372  0.96640461  0.58111029  1
  C  C7  1  0.66486537  0.69933996  0.08146305  1
  C  C8  1  0.03331962  0.33270975  0.08159361  1
  C  C9  1  0.00952816  0.01014300  0.49533547  1
  C  C10  1  0.00916883  0.99919458  0.99456865  1
  C  C11  1  0.65672197  0.32309610  0.83274209  1
  C  C12  1  0.66635777  0.33327603  0.33804064  1
  C  C13  1  0.33266791  0.67596642  0.16538373  1
  C  C14  1  0.33324889  0.66544931  0.66263660  1
  C  C15  1  0.66503357  0.33231310  0.97793716  1
  C  C16  1  0.66398075  0.33299554  0.47928380  1
  C  C17  1  0.33375588  0.67348752  0.81787835  1
  Ni  Ni18  1  0.99951351  0.99923186  0.35358570  1
  Ni  Ni19  1  0.00154105  0.00018880  0.85187574  1
  Ni  Ni20  1  0.00945502  0.00744368  0.64988723  1
  Ni  Ni21  1  0.00635073  0.99937290  0.14955986  1
  Ni  Ni22  1  0.65766764  0.32673298  0.68164598  1
  Ni  Ni23  1  0.66418776  0.33065216  0.18047024  1
  Ni  Ni24  1  0.33317815  0.67261760  0.01400747  1
  Ni  Ni25  1  0.33279662  0.65960616  0.51367801  1
  Ni  Ni26  1  0.33322676  0.66643104  0.32323063  1
  Cu  Cu27  1  0.29519440  0.99911572  0.25052600  1
  Cu  Cu28  1  0.70440354  0.70490149  0.24902292  1
  Cu  Cu29  1  0.00036181  0.29575036  0.24903820  1
  Cu  Cu30  1  0.29622369  0.29566848  0.75146054  1
  Cu  Cu31  1  0.99902288  0.70408770  0.74908138  1
  Cu  Cu32  1  0.70727930  0.00126479  0.74940438  1
  Cu  Cu33  1  0.96082470  0.33440695  0.58431392  1
  Cu  Cu34  1  0.37107265  0.03635311  0.58247198  1
  Cu  Cu35  1  0.66551968  0.62887843  0.58466859  1
  Cu  Cu36  1  0.96164058  0.62713718  0.08348292  1
  Cu  Cu37  1  0.66528666  0.03646139  0.08400392  1
  Cu  Cu38  1  0.37100286  0.33393354  0.08308075  1
  Cu  Cu39  1  0.63081859  0.67000213  0.91760147  1
  Cu  Cu40  1  0.03890634  0.36923424  0.91800464  1
  Cu  Cu41  1  0.32990213  0.96229041  0.91781162  1
  Cu  Cu42  1  0.63254468  0.96426884  0.41709915  1
  Cu  Cu43  1  0.33153551  0.36712487  0.41562947  1
  Cu  Cu44  1  0.03584725  0.66800963  0.41732307  1
  C  C45  1  0.21515247  0.03587115  0.30282228  1
  C  C46  1  0.82278015  0.78835849  0.30069738  1
  C  C47  1  0.96552951  0.17695824  0.30073388  1
  C  C48  1  0.21552535  0.18648751  0.80496571  1
  C  C49  1  0.96414014  0.78611434  0.80130566  1
  C  C50  1  0.82275486  0.03404279  0.80200627  1
  C  C51  1  0.77610941  0.96135087  0.69316333  1
  C  C52  1  0.18334031  0.22644256  0.69681788  1
  C  C53  1  0.03145299  0.80620054  0.69215417  1
  C  C54  1  0.77632331  0.81111351  0.19220633  1
  C  C55  1  0.03446666  0.22419791  0.19223273  1
  C  C56  1  0.18451322  0.96101134  0.19543732  1
  C  C57  1  0.88850272  0.36656459  0.64128631  1
  C  C58  1  0.48064690  0.10917423  0.63742168  1
  C  C59  1  0.63975543  0.52997739  0.64205772  1
  C  C60  1  0.88991062  0.52300509  0.14067735  1
  C  C61  1  0.63885906  0.10842512  0.14148205  1
  C  C62  1  0.47498413  0.36733050  0.13998828  1
  C  C63  1  0.46822522  0.31388008  0.03156435  1
  C  C64  1  0.84078032  0.53141550  0.03203299  1
  C  C65  1  0.69061262  0.15743105  0.03266565  1
  C  C66  1  0.46417221  0.15148352  0.53008564  1
  C  C67  1  0.69058467  0.53395677  0.53331907  1
  C  C68  1  0.84087176  0.30911289  0.53267463  1
  C  C69  1  0.55232925  0.69254484  0.97379027  1
  C  C70  1  0.14103948  0.44777931  0.97395975  1
  C  C71  1  0.30312432  0.85705622  0.97247773  1
  C  C72  1  0.55027882  0.85864928  0.47238017  1
  C  C73  1  0.30523712  0.45162892  0.46878552  1
  C  C74  1  0.14199083  0.69195025  0.47238228  1
  C  C75  1  0.10661344  0.63459724  0.36019410  1
  C  C76  1  0.52830747  0.89292152  0.36013972  1
  C  C77  1  0.36607992  0.46948367  0.35785563  1
  C  C78  1  0.12723808  0.48390716  0.86350512  1
  C  C79  1  0.35748114  0.87366989  0.86406250  1
  C  C80  1  0.51695674  0.64485513  0.86323206  1
  C  C81  1  0.01648379  0.82660765  0.41288924  1
  C  C82  1  0.81019684  0.98310743  0.41264498  1
  C  C83  1  0.17338715  0.18895433  0.41196308  1
  C  C84  1  0.01734920  0.19171909  0.91148462  1
  C  C85  1  0.17405475  0.98321904  0.91096282  1
  C  C86  1  0.80825613  0.82632693  0.91105366  1
  C  C87  1  0.96634009  0.16587461  0.58729534  1
  C  C88  1  0.19001375  0.01358342  0.58595140  1
  C  C89  1  0.83304415  0.80731725  0.58681894  1
  C  C90  1  0.96639455  0.80060317  0.08639912  1
  C  C91  1  0.83299616  0.02624258  0.08629658  1
  C  C92  1  0.18974273  0.17610351  0.08589850  1
  C  C93  1  0.69255718  0.16402152  0.74430263  1
  C  C94  1  0.48068513  0.32846548  0.74567162  1
  C  C95  1  0.83856449  0.52118737  0.74491692  1
  C  C96  1  0.68467915  0.52329105  0.24420590  1
  C  C97  1  0.83869638  0.31567468  0.24438818  1
  C  C98  1  0.47632701  0.16123656  0.24466998  1
  C  C99  1  0.64185667  0.50350195  0.92227285  1
  C  C100  1  0.86148818  0.35824982  0.92283674  1
  C  C101  1  0.49663470  0.13906759  0.92228079  1
  C  C102  1  0.64773947  0.14328373  0.42379717  1
  C  C103  1  0.49576737  0.35353776  0.42336114  1
  C  C104  1  0.85712628  0.50415817  0.42431975  1
  C  C105  1  0.35485851  0.49730650  0.07717103  1
  C  C106  1  0.13649037  0.63767801  0.07722093  1
  C  C107  1  0.51213768  0.85367532  0.07798866  1
  C  C108  1  0.35329867  0.85590634  0.57669688  1
  C  C109  1  0.51188608  0.65802039  0.57830537  1
  C  C110  1  0.13623998  0.49865152  0.57767151  1
  C  C111  1  0.31598382  0.83829665  0.25633604  1
  C  C112  1  0.52400144  0.68598783  0.25526728  1
  C  C113  1  0.16168296  0.47654366  0.25524443  1
  C  C114  1  0.31411520  0.47833659  0.75855758  1
  C  C115  1  0.15577044  0.67704216  0.75756531  1
  C  C116  1  0.52946775  0.83587494  0.75800184  1
