# generated using pymatgen
data_CuNiC17
_symmetry_space_group_name_H-M   'P 1'
_cell_length_a   4.89653392
_cell_length_b   4.89805005
_cell_length_c   9.91136620
_cell_angle_alpha   93.79118251
_cell_angle_beta   97.60143537
_cell_angle_gamma   60.01022842
_symmetry_Int_Tables_number   1
_chemical_formula_structural   CuNiC17
_chemical_formula_sum   'Cu1 Ni1 C17'
_cell_volume   204.07393699
_cell_formula_units_Z   1
loop_
 _symmetry_equiv_pos_site_id
 _symmetry_equiv_pos_as_xyz
  1  'x, y, z'
loop_
 _atom_site_type_symbol
 _atom_site_label
 _atom_site_symmetry_multiplicity
 _atom_site_fract_x
 _atom_site_fract_y
 _atom_site_fract_z
 _atom_site_occupancy
  Ni  Ni0  1  0.08579024  1.00000000  0.25459662  1
  Cu  Cu1  1  0.00892742  0.00000000  0.98138291  1
  C  C2  1  0.15523933  0.66562437  0.50490786  1
  C  C3  1  0.68136317  0.66660462  0.00189026  1
  C  C4  1  0.34796980  0.33339538  0.00189026  1
  C  C5  1  0.82086470  0.33437563  0.50490786  1
  C  C6  1  0.48930668  1.00000000  0.50506271  1
  C  C7  1  0.04133906  0.68129061  0.10169002  1
  C  C8  1  0.34042548  0.64710425  0.90122082  1
  C  C9  1  0.12743435  0.32204803  0.40067093  1
  C  C10  1  0.44948238  0.67795197  0.40067093  1
  C  C11  1  0.51221965  0.33393162  0.59585421  1
  C  C12  1  0.17929761  0.00000000  0.59774583  1
  C  C13  1  0.84615127  0.66606838  0.59585421  1
  C  C14  1  0.72263067  0.31870939  0.10169002  1
  C  C15  1  0.36004915  0.00000000  0.10155685  1
  C  C16  1  0.98753073  0.35289575  0.90122082  1
  C  C17  1  0.63478809  0.00000000  0.90104130  1
  C  C18  1  0.80502322  1.00000000  0.40077557  1
