# generated using pymatgen
data_Cu5NiC48
_symmetry_space_group_name_H-M   'P 1'
_cell_length_a   8.80882754
_cell_length_b   8.80882725
_cell_length_c   22.90343170
_cell_angle_alpha   90.00000000
_cell_angle_beta   90.00000000
_cell_angle_gamma   120.00000110
_symmetry_Int_Tables_number   1
_chemical_formula_structural   Cu5NiC48
_chemical_formula_sum   'Cu10 Ni2 C96'
_cell_volume   1539.10194277
_cell_formula_units_Z   2
loop_
 _symmetry_equiv_pos_site_id
 _symmetry_equiv_pos_as_xyz
  1  'x, y, z'
loop_
 _atom_site_type_symbol
 _atom_site_label
 _atom_site_symmetry_multiplicity
 _atom_site_fract_x
 _atom_site_fract_y
 _atom_site_fract_z
 _atom_site_occupancy
  C  C0  1  0.00000000  -0.00000000  0.49941187  1
  C  C1  1  0.00000000  -0.00000000  0.99941187  1
  C  C2  1  0.66666700  0.33333300  0.82827482  1
  C  C3  1  0.66666700  0.33333300  0.32827482  1
  C  C4  1  0.33333300  0.66666700  0.16668630  1
  C  C5  1  0.33333300  0.66666700  0.66668630  1
  Ni  Ni6  1  0.66666700  0.33333300  0.68667536  1
  Ni  Ni7  1  0.66666700  0.33333300  0.18667536  1
  Cu  Cu8  1  0.00000000  -0.00000000  0.35528828  1
  Cu  Cu9  1  0.00000000  -0.00000000  0.85528828  1
  Cu  Cu10  1  0.00000000  -0.00000000  0.64584889  1
  Cu  Cu11  1  0.00000000  -0.00000000  0.14584889  1
  Cu  Cu12  1  0.66666700  0.33333300  0.97807558  1
  Cu  Cu13  1  0.66666700  0.33333300  0.47807558  1
  Cu  Cu14  1  0.33333300  0.66666700  0.02022543  1
  Cu  Cu15  1  0.33333300  0.66666700  0.52022543  1
  Cu  Cu16  1  0.33333300  0.66666700  0.31243054  1
  Cu  Cu17  1  0.33333300  0.66666700  0.81243054  1
  C  C18  1  0.61984697  0.66628968  0.91650440  1
  C  C19  1  0.04644171  0.38015303  0.91650440  1
  C  C20  1  0.33371032  0.95355829  0.91650440  1
  C  C21  1  0.61984697  0.95355829  0.41650440  1
  C  C22  1  0.33371032  0.38015303  0.41650440  1
  C  C23  1  0.04644171  0.66628968  0.41650440  1
  C  C24  1  0.29311770  0.00463111  0.24970317  1
  C  C25  1  0.71151341  0.70688230  0.24970317  1
  C  C26  1  0.99536889  0.28848659  0.24970317  1
  C  C27  1  0.29311770  0.28848659  0.74970317  1
  C  C28  1  0.99536889  0.70688230  0.74970317  1
  C  C29  1  0.71151341  0.00463111  0.74970317  1
  C  C30  1  0.95250313  0.33475932  0.58574515  1
  C  C31  1  0.38225719  0.04749687  0.58574515  1
  C  C32  1  0.66524068  0.61774281  0.58574515  1
  C  C33  1  0.95250313  0.61774281  0.08574515  1
  C  C34  1  0.66524068  0.04749687  0.08574515  1
  C  C35  1  0.38225719  0.33475932  0.08574515  1
  C  C36  1  0.19523055  0.02106033  0.30395408  1
  C  C37  1  0.82582978  0.80476945  0.30395408  1
  C  C38  1  0.97893967  0.17417022  0.30395408  1
  C  C39  1  0.19523055  0.17417022  0.80395408  1
  C  C40  1  0.97893967  0.80476945  0.80395408  1
  C  C41  1  0.82582978  0.02106033  0.80395408  1
  C  C42  1  0.80288101  0.97248518  0.69546518  1
  C  C43  1  0.16960416  0.19711899  0.69546518  1
  C  C44  1  0.02751482  0.83039584  0.69546518  1
  C  C45  1  0.80288101  0.83039584  0.19546518  1
  C  C46  1  0.02751482  0.19711899  0.19546518  1
  C  C47  1  0.16960416  0.97248518  0.19546518  1
  C  C48  1  0.87575082  0.36497948  0.63915421  1
  C  C49  1  0.48922966  0.12424918  0.63915421  1
  C  C50  1  0.63502052  0.51077034  0.63915421  1
  C  C51  1  0.87575082  0.51077034  0.13915421  1
  C  C52  1  0.63502052  0.12424918  0.13915421  1
  C  C53  1  0.48922966  0.36497948  0.13915421  1
  C  C54  1  0.46232628  0.30391220  0.02896682  1
  C  C55  1  0.84158693  0.53767372  0.02896682  1
  C  C56  1  0.69608780  0.15841307  0.02896682  1
  C  C57  1  0.46232628  0.15841307  0.52896682  1
  C  C58  1  0.69608780  0.53767372  0.52896682  1
  C  C59  1  0.84158693  0.30391220  0.52896682  1
  C  C60  1  0.53148875  0.69893985  0.97397042  1
  C  C61  1  0.16745010  0.46851125  0.97397042  1
  C  C62  1  0.30106015  0.83254990  0.97397042  1
  C  C63  1  0.53148875  0.83254990  0.47397042  1
  C  C64  1  0.30106015  0.46851125  0.47397042  1
  C  C65  1  0.16745010  0.69893985  0.47397042  1
  C  C66  1  0.13560061  0.63383359  0.35885057  1
  C  C67  1  0.49823198  0.86439939  0.35885057  1
  C  C68  1  0.36616641  0.50176802  0.35885057  1
  C  C69  1  0.13560061  0.50176802  0.85885057  1
  C  C70  1  0.36616641  0.86439939  0.85885057  1
  C  C71  1  0.49823198  0.63383359  0.85885057  1
  C  C72  1  0.02450221  0.83735743  0.40783584  1
  C  C73  1  0.81285521  0.97549779  0.40783584  1
  C  C74  1  0.16264257  0.18714479  0.40783584  1
  C  C75  1  0.02450221  0.18714479  0.90783584  1
  C  C76  1  0.16264257  0.97549779  0.90783584  1
  C  C77  1  0.81285521  0.83735743  0.90783584  1
  C  C78  1  0.97635981  0.16809139  0.59092192  1
  C  C79  1  0.19173159  0.02364019  0.59092192  1
  C  C80  1  0.83190861  0.80826841  0.59092192  1
  C  C81  1  0.97635981  0.80826841  0.09092192  1
  C  C82  1  0.83190861  0.02364019  0.09092192  1
  C  C83  1  0.19173159  0.16809139  0.09092192  1
  C  C84  1  0.69361114  0.16393071  0.74443197  1
  C  C85  1  0.47032057  0.30638886  0.74443197  1
  C  C86  1  0.83606929  0.52967943  0.74443197  1
  C  C87  1  0.69361114  0.52967943  0.24443197  1
  C  C88  1  0.83606929  0.30638886  0.24443197  1
  C  C89  1  0.47032057  0.16393071  0.24443197  1
  C  C90  1  0.64147932  0.49518669  0.92585642  1
  C  C91  1  0.85370836  0.35852068  0.92585642  1
  C  C92  1  0.50481331  0.14629164  0.92585642  1
  C  C93  1  0.64147932  0.14629164  0.42585642  1
  C  C94  1  0.50481331  0.35852068  0.42585642  1
  C  C95  1  0.85370836  0.49518669  0.42585642  1
  C  C96  1  0.35266804  0.49373012  0.07536937  1
  C  C97  1  0.14106108  0.64733196  0.07536937  1
  C  C98  1  0.50626988  0.85893892  0.07536937  1
  C  C99  1  0.35266804  0.85893892  0.57536937  1
  C  C100  1  0.50626988  0.64733196  0.57536937  1
  C  C101  1  0.14106108  0.49373012  0.57536937  1
  C  C102  1  0.30019684  0.83139564  0.25563146  1
  C  C103  1  0.53119780  0.69980316  0.25563146  1
  C  C104  1  0.16860436  0.46880220  0.25563146  1
  C  C105  1  0.30019684  0.46880220  0.75563146  1
  C  C106  1  0.16860436  0.69980316  0.75563146  1
  C  C107  1  0.53119780  0.83139564  0.75563146  1
