# generated using pymatgen
data_Cu3NiC16
_symmetry_space_group_name_H-M   'P 1'
_cell_length_a   6.59843370
_cell_length_b   7.00400328
_cell_length_c   6.48200410
_cell_angle_alpha   109.86870249
_cell_angle_beta   108.87802358
_cell_angle_gamma   108.95211812
_symmetry_Int_Tables_number   1
_chemical_formula_structural   Cu3NiC16
_chemical_formula_sum   'Cu3 Ni1 C16'
_cell_volume   232.60399245
_cell_formula_units_Z   1
loop_
 _symmetry_equiv_pos_site_id
 _symmetry_equiv_pos_as_xyz
  1  'x, y, z'
loop_
 _atom_site_type_symbol
 _atom_site_label
 _atom_site_symmetry_multiplicity
 _atom_site_fract_x
 _atom_site_fract_y
 _atom_site_fract_z
 _atom_site_occupancy
  Ni  Ni0  1  0.14679612  0.71291882  0.56421478  1
  C  C1  1  0.57360734  0.06759056  0.03112268  1
  C  C2  1  0.00376994  0.53499406  0.00081197  1
  C  C3  1  0.01886202  0.04689953  0.51213671  1
  C  C4  1  0.52575962  0.52778152  0.49175564  1
  Cu  Cu5  1  0.51020725  0.54682695  0.00449187  1
  Cu  Cu6  1  0.50247919  0.00648601  0.49718943  1
  Cu  Cu7  1  0.86781719  0.35977135  0.51013263  1
  C  C8  1  0.83917645  0.33564925  0.14821436  1
  C  C9  1  0.50343611  0.19948835  0.30528758  1
  C  C10  1  0.87621129  0.17850731  0.70405997  1
  C  C11  1  0.31679414  0.50335496  0.18365525  1
  C  C12  1  0.71263641  0.90991826  0.18848789  1
  C  C13  1  0.82181210  0.71816855  0.50830598  1
  C  C14  1  0.21242126  0.30847806  0.50582202  1
  C  C15  1  0.30426104  0.07663099  0.79419912  1
  C  C16  1  0.69820325  0.52030079  0.82785599  1
  C  C17  1  0.13189377  0.81443567  0.30529127  1
  C  C18  1  0.50337576  0.80722855  0.68974849  1
  C  C19  1  0.15047976  0.64457046  0.84179835  1
