# generated using pymatgen
data_Cu6Ni2C7
_symmetry_space_group_name_H-M   'P 1'
_cell_length_a   6.18177851
_cell_length_b   7.08960906
_cell_length_c   8.13846761
_cell_angle_alpha   101.93074492
_cell_angle_beta   88.25039869
_cell_angle_gamma   107.00533921
_symmetry_Int_Tables_number   1
_chemical_formula_structural   Cu6Ni2C7
_chemical_formula_sum   'Cu6 Ni2 C7'
_cell_volume   333.54592926
_cell_formula_units_Z   1
loop_
 _symmetry_equiv_pos_site_id
 _symmetry_equiv_pos_as_xyz
  1  'x, y, z'
loop_
 _atom_site_type_symbol
 _atom_site_label
 _atom_site_symmetry_multiplicity
 _atom_site_fract_x
 _atom_site_fract_y
 _atom_site_fract_z
 _atom_site_occupancy
  C  C0  1  0.51712182  0.07273947  0.31961539  1
  C  C1  1  0.53866917  0.04178842  0.86178101  1
  C  C2  1  0.11871327  0.25833073  0.64350285  1
  C  C3  1  0.84392011  0.69827890  0.32109064  1
  C  C4  1  0.39221545  0.56767223  0.98764342  1
  C  C5  1  0.07761111  0.27608034  0.17413768  1
  C  C6  1  0.90061558  0.70138576  0.80814811  1
  Ni  Ni7  1  0.30598401  0.60175134  0.29948931  1
  Ni  Ni8  1  0.67121781  0.39403136  0.65837871  1
  Cu  Cu9  1  0.10490554  0.09967481  0.30080289  1
  Cu  Cu10  1  0.90213107  0.88006712  0.67977439  1
  Cu  Cu11  1  0.79821126  0.29158798  0.13377005  1
  Cu  Cu12  1  0.24725562  0.27289002  0.97219041  1
  Cu  Cu13  1  0.17128276  0.66923353  0.87791432  1
  Cu  Cu14  1  0.70181244  0.74856198  0.98676083  1
