# generated using pymatgen
data_CuNi5C33
_symmetry_space_group_name_H-M   'P 1'
_cell_length_a   9.16570351
_cell_length_b   9.06394440
_cell_length_c   22.98861357
_cell_angle_alpha   90.96650284
_cell_angle_beta   89.55790366
_cell_angle_gamma   120.15735858
_symmetry_Int_Tables_number   1
_chemical_formula_structural   CuNi5C33
_chemical_formula_sum   'Cu3 Ni15 C99'
_cell_volume   1651.10109204
_cell_formula_units_Z   3
loop_
 _symmetry_equiv_pos_site_id
 _symmetry_equiv_pos_as_xyz
  1  'x, y, z'
loop_
 _atom_site_type_symbol
 _atom_site_label
 _atom_site_symmetry_multiplicity
 _atom_site_fract_x
 _atom_site_fract_y
 _atom_site_fract_z
 _atom_site_occupancy
  C  C0  1  0.62960671  0.00324230  0.25031084  1
  C  C1  1  0.99843035  0.35617056  0.74926266  1
  C  C2  1  0.35541082  0.99843656  0.74995009  1
  C  C3  1  0.03579822  0.69750053  0.57080163  1
  C  C4  1  0.66192750  0.96662227  0.57602894  1
  C  C5  1  0.30765191  0.97934725  0.09311634  1
  C  C6  1  0.02262369  0.33075890  0.09188345  1
  C  C7  1  0.97267860  0.66479596  0.92309624  1
  C  C8  1  0.69561329  0.67005025  0.41259864  1
  C  C9  1  0.02884550  0.02481208  0.48842173  1
  C  C10  1  0.99483827  0.00619072  0.01047791  1
  C  C11  1  0.65424106  0.32385512  0.83578031  1
  C  C12  1  0.68396192  0.33848644  0.33167855  1
  C  C13  1  0.34048190  0.64614884  0.17225052  1
  C  C14  1  0.35076323  0.65093010  0.66305169  1
  C  C15  1  0.99664755  0.01360480  0.85932636  1
  C  C16  1  0.00189303  0.99782309  0.64254171  1
  C  C17  1  0.66678780  0.35186539  0.67872117  1
  C  C18  1  0.66048573  0.32307023  0.99810124  1
  C  C19  1  0.32359770  0.65983197  0.49594320  1
  C  C20  1  0.35038177  0.66964088  0.82186174  1
  C  C21  1  0.98019207  0.98595618  0.34122174  1
  C  C22  1  0.99082673  0.00084276  0.15785526  1
  C  C23  1  0.68048582  0.36687028  0.17906971  1
  C  C24  1  0.67806607  0.32429785  0.47826527  1
  C  C25  1  0.33272190  0.67326204  0.02587964  1
  C  C26  1  0.31174669  0.65545176  0.31633149  1
  Ni  Ni27  1  0.70173104  0.70340786  0.24934777  1
  Ni  Ni28  1  -0.00007784  0.29263775  0.25085941  1
  Ni  Ni29  1  0.30809507  0.30610176  0.75052685  1
  Ni  Ni30  1  0.00214850  0.69082961  0.75329080  1
  Ni  Ni31  1  0.68925765  0.00095339  0.74452134  1
  Ni  Ni32  1  0.96369453  0.33520290  0.57662727  1
  Ni  Ni33  1  0.37546757  0.04075663  0.57353912  1
  Ni  Ni34  1  0.66747647  0.63024572  0.56524246  1
  Ni  Ni35  1  0.97689264  0.65007749  0.08750604  1
  Ni  Ni36  1  0.66898703  0.02488035  0.09347752  1
  Ni  Ni37  1  0.35384019  0.32868662  0.09262086  1
  Ni  Ni38  1  0.04448625  0.37797349  0.92924357  1
  Ni  Ni39  1  0.32789116  0.96071023  0.92737721  1
  Ni  Ni40  1  0.64484314  0.97718315  0.40846484  1
  Ni  Ni41  1  0.02137541  0.67246879  0.41066811  1
  Cu  Cu42  1  0.28694394  0.99303577  0.25126180  1
  Cu  Cu43  1  0.63473304  0.66904852  0.93067235  1
  Cu  Cu44  1  0.32692540  0.34859823  0.40536020  1
  C  C45  1  0.19197385  0.00697775  0.30122242  1
  C  C46  1  0.80258884  0.77174193  0.30709399  1
  C  C47  1  0.96427939  0.16309724  0.29980407  1
  C  C48  1  0.20458279  0.21439855  0.80473821  1
  C  C49  1  0.00690911  0.79317343  0.80827717  1
  C  C50  1  0.79317794  0.99552969  0.79595719  1
  C  C51  1  0.77349875  0.00454302  0.68555329  1
  C  C52  1  0.21801461  0.20409485  0.69521436  1
  C  C53  1  0.99449353  0.77688883  0.69653153  1
  C  C54  1  0.79757443  0.83313536  0.20075929  1
  C  C55  1  0.03219153  0.21984635  0.19334490  1
  C  C56  1  0.19506823  0.97385793  0.19599745  1
  C  C57  1  0.89732513  0.34214388  0.63826140  1
  C  C58  1  0.44762647  0.10957367  0.63513757  1
  C  C59  1  0.66253572  0.55280529  0.62462141  1
  C  C60  1  0.87446736  0.50226256  0.13200174  1
  C  C61  1  0.62886337  0.12181853  0.14364667  1
  C  C62  1  0.48693392  0.36403526  0.14106872  1
  C  C63  1  0.40712280  0.27550620  0.03620033  1
  C  C64  1  0.88831998  0.59937787  0.02841712  1
  C  C65  1  0.72476107  0.13411423  0.03838486  1
  C  C66  1  0.49078537  0.15608504  0.52464677  1
  C  C67  1  0.66219254  0.51777782  0.51229678  1
  C  C68  1  0.84708115  0.34008372  0.52898251  1
  C  C69  1  0.52133599  0.65721147  0.97766876  1
  C  C70  1  0.15617040  0.49189219  0.98065560  1
  C  C71  1  0.34161645  0.85655138  0.97863587  1
  C  C72  1  0.58852018  0.87474850  0.46553806  1
  C  C73  1  0.28992755  0.39241887  0.46414882  1
  C  C74  1  0.10501769  0.70933224  0.47113146  1
  C  C75  1  0.13244261  0.64111433  0.36570095  1
  C  C76  1  0.51522300  0.87608567  0.35808580  1
  C  C77  1  0.35837591  0.49055480  0.36392582  1
  C  C78  1  0.12378206  0.44877170  0.86887365  1
  C  C79  1  0.32572856  0.88138977  0.86678679  1
  C  C80  1  0.57287806  0.67567416  0.87190740  1
  C  C81  1  0.00154691  0.82989171  0.39729863  1
  C  C82  1  0.82050328  0.99288465  0.39716584  1
  C  C83  1  0.18038668  0.18075939  0.39027260  1
  C  C84  1  0.01535294  0.19746009  0.93732874  1
  C  C85  1  0.15765071  0.95686796  0.93477762  1
  C  C86  1  0.80408876  0.82394065  0.93880799  1
  C  C87  1  0.96650793  0.16740297  0.56823331  1
  C  C88  1  0.19523670  0.01260237  0.56768491  1
  C  C89  1  0.83746097  0.80259195  0.56181753  1
  C  C90  1  0.00296886  0.82732765  0.10489679  1
  C  C91  1  0.82268109  0.00211390  0.10515605  1
  C  C92  1  0.17575152  0.16885102  0.10465454  1
  C  C93  1  0.67780502  0.16480879  0.75339943  1
  C  C94  1  0.48038028  0.31767612  0.75760500  1
  C  C95  1  0.85176963  0.50772308  0.75876363  1
  C  C96  1  0.68648124  0.52495040  0.23753299  1
  C  C97  1  0.83716818  0.30803674  0.24464003  1
  C  C98  1  0.46033638  0.14439725  0.24999093  1
  C  C99  1  0.65962796  0.51858559  0.92778812  1
  C  C100  1  0.87496247  0.37763562  0.92817188  1
  C  C101  1  0.48076521  0.14278549  0.92569704  1
  C  C102  1  0.66226298  0.15701531  0.41705604  1
  C  C103  1  0.48708235  0.34487671  0.40639473  1
  C  C104  1  0.84075235  0.50950306  0.41371228  1
  C  C105  1  0.33075448  0.48724054  0.08535009  1
  C  C106  1  0.15580473  0.66375745  0.08480186  1
  C  C107  1  0.50061830  0.85090906  0.08392747  1
  C  C108  1  0.36173067  0.86197140  0.57057579  1
  C  C109  1  0.51958160  0.66549133  0.56553386  1
  C  C110  1  0.13902156  0.49765991  0.57285926  1
  C  C111  1  0.30674296  0.83558704  0.25627554  1
  C  C112  1  0.52461435  0.69109005  0.25514839  1
  C  C113  1  0.16172382  0.47241976  0.26171849  1
  C  C114  1  0.32008569  0.48074511  0.74449641  1
  C  C115  1  0.16604036  0.68010892  0.74871213  1
  C  C116  1  0.50758175  0.84771951  0.74276572  1
