# generated using pymatgen
data_Cu11NiC5
_symmetry_space_group_name_H-M   'P 1'
_cell_length_a   7.58127037
_cell_length_b   5.14129673
_cell_length_c   5.48942203
_cell_angle_alpha   88.75709103
_cell_angle_beta   85.89604720
_cell_angle_gamma   89.72332103
_symmetry_Int_Tables_number   1
_chemical_formula_structural   Cu11NiC5
_chemical_formula_sum   'Cu11 Ni1 C5'
_cell_volume   213.36427810
_cell_formula_units_Z   1
loop_
 _symmetry_equiv_pos_site_id
 _symmetry_equiv_pos_as_xyz
  1  'x, y, z'
loop_
 _atom_site_type_symbol
 _atom_site_label
 _atom_site_symmetry_multiplicity
 _atom_site_fract_x
 _atom_site_fract_y
 _atom_site_fract_z
 _atom_site_occupancy
  C  C0  1  0.80309000  0.49650800  0.11322200  1
  C  C1  1  0.01373400  0.47865700  0.51812300  1
  C  C2  1  0.02008600  0.99928300  0.97912200  1
  C  C3  1  0.48960000  0.49993500  0.50877300  1
  C  C4  1  0.49441700  0.00581800  0.99457800  1
  Ni  Ni5  1  0.05273300  0.22269200  0.69562900  1
  Cu  Cu6  1  0.03858100  0.31354700  0.17946700  1
  Cu  Cu7  1  0.25553600  0.86939100  0.00410000  1
  Cu  Cu8  1  0.43221800  0.31240700  0.81723300  1
  Cu  Cu9  1  0.24073900  0.62596700  0.50356600  1
  Cu  Cu10  1  0.45689100  0.17407700  0.29019400  1
  Cu  Cu11  1  0.55661700  0.82218500  0.71410400  1
  Cu  Cu12  1  0.75920600  0.39049800  0.47412100  1
  Cu  Cu13  1  0.57843400  0.68398500  0.18207400  1
  Cu  Cu14  1  0.75233200  0.14795400  0.99199400  1
  Cu  Cu15  1  0.91832500  0.68913000  0.82491000  1
  Cu  Cu16  1  0.94301900  0.76796300  0.29629000  1
