# generated using pymatgen
data_Cu4NiC8
_symmetry_space_group_name_H-M   'P 1'
_cell_length_a   2.92023434
_cell_length_b   5.03493609
_cell_length_c   9.78807952
_cell_angle_alpha   89.85817341
_cell_angle_beta   90.42920085
_cell_angle_gamma   106.83279627
_symmetry_Int_Tables_number   1
_chemical_formula_structural   Cu4NiC8
_chemical_formula_sum   'Cu4 Ni1 C8'
_cell_volume   137.74591240
_cell_formula_units_Z   1
loop_
 _symmetry_equiv_pos_site_id
 _symmetry_equiv_pos_as_xyz
  1  'x, y, z'
loop_
 _atom_site_type_symbol
 _atom_site_label
 _atom_site_symmetry_multiplicity
 _atom_site_fract_x
 _atom_site_fract_y
 _atom_site_fract_z
 _atom_site_occupancy
  Ni  Ni0  1  0.60371300  0.21343900  0.24960300  1
  Cu  Cu1  1  0.86350400  0.73116100  0.07050200  1
  Cu  Cu2  1  0.13987900  0.26414900  0.92351300  1
  Cu  Cu3  1  0.86659300  0.73102300  0.42953200  1
  Cu  Cu4  1  0.12369600  0.26384600  0.57644900  1
  C  C5  1  0.22924100  0.45722700  0.38659100  1
  C  C6  1  0.74405200  0.51326100  0.60262400  1
  C  C7  1  0.76867100  0.51360400  0.89736100  1
  C  C8  1  0.22743700  0.45704500  0.11350100  1
  C  C9  1  0.95837200  0.92198700  0.25002700  1
  C  C10  1  0.06879400  0.13745900  0.75006300  1
  C  C11  1  0.48788400  0.01044900  0.00600700  1
  C  C12  1  0.52233100  0.01034900  0.49422700  1
