# generated using pymatgen
data_CuNi5C13
_symmetry_space_group_name_H-M   'P 1'
_cell_length_a   5.30965442
_cell_length_b   5.14113595
_cell_length_c   9.96788008
_cell_angle_alpha   84.82800143
_cell_angle_beta   91.72658530
_cell_angle_gamma   59.76335392
_symmetry_Int_Tables_number   1
_chemical_formula_structural   CuNi5C13
_chemical_formula_sum   'Cu1 Ni5 C13'
_cell_volume   233.22060314
_cell_formula_units_Z   1
loop_
 _symmetry_equiv_pos_site_id
 _symmetry_equiv_pos_as_xyz
  1  'x, y, z'
loop_
 _atom_site_type_symbol
 _atom_site_label
 _atom_site_symmetry_multiplicity
 _atom_site_fract_x
 _atom_site_fract_y
 _atom_site_fract_z
 _atom_site_occupancy
  C  C0  1  0.91402475  0.84460299  0.74279001  1
  Ni  Ni1  1  0.20678074  0.61780124  0.48607099  1
  Ni  Ni2  1  0.64576091  0.72271375  0.99897108  1
  Ni  Ni3  1  0.30012976  0.39203268  0.99672633  1
  Ni  Ni4  1  0.87161973  0.27352449  0.49657336  1
  Ni  Ni5  1  0.56112803  0.94403198  0.48307755  1
  Cu  Cu6  1  0.98037896  0.03917991  0.03391646  1
  C  C7  1  0.99784548  0.65386695  0.12600902  1
  C  C8  1  0.25345321  0.73938568  0.88998311  1
  C  C9  1  0.18580225  0.28941166  0.41747695  1
  C  C10  1  0.53817884  0.64206767  0.40872015  1
  C  C11  1  0.58690847  0.22340369  0.58923784  1
  C  C12  1  0.16161368  0.92166701  0.60197717  1
  C  C13  1  0.86200042  0.60658380  0.59521102  1
  C  C14  1  0.60589272  0.41230163  0.09681487  1
  C  C15  1  0.37347295  0.02602397  0.09903467  1
  C  C16  1  0.95445354  0.43345752  0.90489378  1
  C  C17  1  0.64376852  0.04892198  0.89162275  1
  C  C18  1  0.85053704  0.00652142  0.38776787  1
