# generated using pymatgen
data_Cu6NiC32
_symmetry_space_group_name_H-M   'P 1'
_cell_length_a   8.65525252
_cell_length_b   8.65593902
_cell_length_c   21.75024462
_cell_angle_alpha   89.95115871
_cell_angle_beta   89.96925407
_cell_angle_gamma   120.01739904
_symmetry_Int_Tables_number   1
_chemical_formula_structural   Cu6NiC32
_chemical_formula_sum   'Cu18 Ni3 C96'
_cell_volume   1410.95158945
_cell_formula_units_Z   3
loop_
 _symmetry_equiv_pos_site_id
 _symmetry_equiv_pos_as_xyz
  1  'x, y, z'
loop_
 _atom_site_type_symbol
 _atom_site_label
 _atom_site_symmetry_multiplicity
 _atom_site_fract_x
 _atom_site_fract_y
 _atom_site_fract_z
 _atom_site_occupancy
  C  C0  1  0.63426278  0.99983881  0.25247113  1
  C  C1  1  0.36521462  0.36551827  0.25288746  1
  C  C2  1  0.00048930  0.63523230  0.25252118  1
  C  C3  1  0.63922730  0.63456626  0.74951915  1
  C  C4  1  0.99864609  0.36210182  0.74977514  1
  C  C5  1  0.03348707  0.70160803  0.58199274  1
  C  C6  1  0.66474487  0.96539338  0.58178890  1
  C  C7  1  0.66523460  0.70018731  0.08187183  1
  C  C8  1  0.03359806  0.33175824  0.08206697  1
  C  C9  1  0.00786917  0.00869131  0.49658492  1
  C  C10  1  0.00781021  0.99899528  0.99587672  1
  C  C11  1  0.65857351  0.32450945  0.83433978  1
  C  C12  1  0.66630907  0.33329706  0.33776621  1
  C  C13  1  0.33242202  0.67416554  0.16563454  1
  C  C14  1  0.33329045  0.66615588  0.66484991  1
  C  C15  1  0.00059706  0.00005326  0.35617144  1
  C  C16  1  0.00192530  0.00076181  0.85406294  1
  C  C17  1  0.00788591  0.00694131  0.64874584  1
  C  C18  1  0.00605360  0.99912288  0.14831494  1
  C  C19  1  0.65984990  0.32734239  0.68378811  1
  C  C20  1  0.66558692  0.33183400  0.18288170  1
  C  C21  1  0.33259130  0.67243819  0.01541233  1
  C  C22  1  0.33256214  0.66063890  0.51507288  1
  C  C23  1  0.33339772  0.66637866  0.32224867  1
  Ni  Ni24  1  0.66490921  0.33211606  0.97775374  1
  Ni  Ni25  1  0.66434173  0.33241756  0.47894532  1
  Ni  Ni26  1  0.33419344  0.67295922  0.81804362  1
  Cu  Cu27  1  0.28977534  0.99939498  0.25057699  1
  Cu  Cu28  1  0.70995051  0.71032949  0.24979255  1
  Cu  Cu29  1  0.00019950  0.29030066  0.24982847  1
  Cu  Cu30  1  0.29122981  0.28954487  0.75193619  1
  Cu  Cu31  1  0.00548686  0.71270777  0.75088632  1
  Cu  Cu32  1  0.70579833  0.99867252  0.75104781  1
  Cu  Cu33  1  0.95720687  0.33377266  0.58302999  1
  Cu  Cu34  1  0.37751975  0.04738539  0.58210835  1
  Cu  Cu35  1  0.66236380  0.61903766  0.58318521  1
  Cu  Cu36  1  0.95744980  0.62372627  0.08224079  1
  Cu  Cu37  1  0.66231340  0.04319027  0.08252670  1
  Cu  Cu38  1  0.37708027  0.32972940  0.08210863  1
  Cu  Cu39  1  0.62504316  0.66593897  0.91755757  1
  Cu  Cu40  1  0.04072973  0.37508918  0.91777640  1
  Cu  Cu41  1  0.33397313  0.95903921  0.91736099  1
  Cu  Cu42  1  0.62760939  0.96262290  0.41790995  1
  Cu  Cu43  1  0.33499119  0.37275802  0.41728311  1
  Cu  Cu44  1  0.03727317  0.66460006  0.41808091  1
  C  C45  1  0.20880896  0.04067298  0.30605857  1
  C  C46  1  0.83332343  0.79360335  0.30479082  1
  C  C47  1  0.96021932  0.16660405  0.30478818  1
  C  C48  1  0.20816288  0.17544803  0.80845512  1
  C  C49  1  0.96289560  0.79373817  0.80593694  1
  C  C50  1  0.82898161  0.03714717  0.80617820  1
  C  C51  1  0.77904333  0.95517824  0.69191696  1
  C  C52  1  0.17133908  0.21735609  0.69427265  1
  C  C53  1  0.03870876  0.82072036  0.69079368  1
  C  C54  1  0.78501518  0.82452526  0.19021369  1
  C  C55  1  0.03881060  0.21522689  0.19022682  1
  C  C56  1  0.17195678  0.95757621  0.19260013  1
  C  C57  1  0.88025744  0.37219847  0.64199174  1
  C  C58  1  0.49668559  0.12267522  0.63933540  1
  C  C59  1  0.63339443  0.51185476  0.64294628  1
  C  C60  1  0.88070249  0.50859591  0.14136005  1
  C  C61  1  0.63232750  0.12040141  0.14229100  1
  C  C62  1  0.49203862  0.37107073  0.14109197  1
  C  C63  1  0.46686966  0.29915495  0.02570599  1
  C  C64  1  0.82911368  0.53498342  0.02662299  1
  C  C65  1  0.70485411  0.17167220  0.02685530  1
  C  C66  1  0.46422510  0.16621639  0.52495557  1
  C  C67  1  0.70479213  0.53362863  0.52746575  1
  C  C68  1  0.82945959  0.29385309  0.52725967  1
  C  C69  1  0.54292733  0.69547476  0.97595134  1
  C  C70  1  0.15349335  0.45693723  0.97592474  1
  C  C71  1  0.30105282  0.84431880  0.97457715  1
  C  C72  1  0.54386496  0.84855170  0.47583361  1
  C  C73  1  0.30222446  0.45816383  0.47338313  1
  C  C74  1  0.15210857  0.69605534  0.47577414  1
  C  C75  1  0.11433453  0.62821047  0.35859040  1
  C  C76  1  0.51405342  0.88515944  0.35854489  1
  C  C77  1  0.37206961  0.48472456  0.35717669  1
  C  C78  1  0.12425522  0.49522448  0.85872070  1
  C  C79  1  0.37371487  0.87658773  0.85928544  1
  C  C80  1  0.50481594  0.62954805  0.85870229  1
  C  C81  1  0.01871542  0.83063716  0.41160362  1
  C  C82  1  0.81208939  0.98080909  0.41145061  1
  C  C83  1  0.16913099  0.18791781  0.41109985  1
  C  C84  1  0.02127419  0.19104240  0.91054017  1
  C  C85  1  0.16920238  0.97793712  0.90996901  1
  C  C86  1  0.80886411  0.83119699  0.91013756  1
  C  C87  1  0.96857264  0.16172982  0.58874941  1
  C  C88  1  0.18896720  0.02356536  0.58789155  1
  C  C89  1  0.83339303  0.80759202  0.58773102  1
  C  C90  1  0.96892382  0.80670326  0.08761145  1
  C  C91  1  0.83306204  0.02605583  0.08698933  1
  C  C92  1  0.18855581  0.16548326  0.08732155  1
  C  C93  1  0.68903355  0.16696820  0.74405960  1
  C  C94  1  0.48149143  0.31939104  0.74474390  1
  C  C95  1  0.83919955  0.52190809  0.74492384  1
  C  C96  1  0.68883479  0.52120890  0.24356466  1
  C  C97  1  0.83237936  0.31176696  0.24387121  1
  C  C98  1  0.47870726  0.16760817  0.24380409  1
  C  C99  1  0.63918753  0.49261247  0.92272556  1
  C  C100  1  0.85342866  0.36138900  0.92317318  1
  C  C101  1  0.50743044  0.14640527  0.92304375  1
  C  C102  1  0.64255789  0.15003617  0.42402885  1
  C  C103  1  0.50805395  0.35895753  0.42395001  1
  C  C104  1  0.85004419  0.49177653  0.42460274  1
  C  C105  1  0.35756015  0.49871029  0.07661737  1
  C  C106  1  0.14101587  0.63729373  0.07618170  1
  C  C107  1  0.49976547  0.85418594  0.07668297  1
  C  C108  1  0.35654807  0.85828590  0.57631893  1
  C  C109  1  0.49988731  0.64545542  0.57689317  1
  C  C110  1  0.14109980  0.50325062  0.57638959  1
  C  C111  1  0.31197066  0.83246410  0.25655744  1
  C  C112  1  0.52134560  0.68915806  0.25573875  1
  C  C113  1  0.16759765  0.47900089  0.25577584  1
  C  C114  1  0.31111712  0.48299828  0.75839354  1
  C  C115  1  0.17267132  0.68713485  0.75834115  1
  C  C116  1  0.51832101  0.82407366  0.75865196  1
