# generated using pymatgen
data_Cu4Ni2C7
_symmetry_space_group_name_H-M   'P 1'
_cell_length_a   3.33716200
_cell_length_b   3.33713496
_cell_length_c   38.03088000
_cell_angle_alpha   90.00068654
_cell_angle_beta   89.99990932
_cell_angle_gamma   120.00019405
_symmetry_Int_Tables_number   1
_chemical_formula_structural   Cu4Ni2C7
_chemical_formula_sum   'Cu4 Ni2 C7'
_cell_volume   366.78977262
_cell_formula_units_Z   1
loop_
 _symmetry_equiv_pos_site_id
 _symmetry_equiv_pos_as_xyz
  1  'x, y, z'
loop_
 _atom_site_type_symbol
 _atom_site_label
 _atom_site_symmetry_multiplicity
 _atom_site_fract_x
 _atom_site_fract_y
 _atom_site_fract_z
 _atom_site_occupancy
  C  C0  1  0.60375900  0.22209700  0.88168900  1
  Ni  Ni1  1  0.33338400  0.66676800  0.70747000  1
  Ni  Ni2  1  0.33335300  0.66670800  0.60761600  1
  C  C3  1  0.33328800  0.66658000  0.09387800  1
  C  C4  1  0.33335900  0.66671200  0.46963200  1
  C  C5  1  0.66668300  0.33336300  0.28178600  1
  C  C6  1  0.66670100  0.33340000  0.65759500  1
  Cu  Cu7  1  0.33335000  0.66669800  0.32571300  1
  Cu  Cu8  1  0.66664100  0.33327900  0.05001200  1
  Cu  Cu9  1  0.66664300  0.33327900  0.13781700  1
  Cu  Cu10  1  0.33334300  0.66668800  0.23793200  1
  C  C11  1  0.66662000  0.33324600  0.42972400  1
  C  C12  1  0.66662800  0.33325600  0.50958500  1
