# generated using pymatgen
data_Cu(NiC3)3
_symmetry_space_group_name_H-M   'P 1'
_cell_length_a   5.72440193
_cell_length_b   5.89877511
_cell_length_c   5.80959655
_cell_angle_alpha   58.97365195
_cell_angle_beta   118.64017372
_cell_angle_gamma   120.61840993
_symmetry_Int_Tables_number   1
_chemical_formula_structural   Cu(NiC3)3
_chemical_formula_sum   'Cu1 Ni3 C9'
_cell_volume   138.27633578
_cell_formula_units_Z   1
loop_
 _symmetry_equiv_pos_site_id
 _symmetry_equiv_pos_as_xyz
  1  'x, y, z'
loop_
 _atom_site_type_symbol
 _atom_site_label
 _atom_site_symmetry_multiplicity
 _atom_site_fract_x
 _atom_site_fract_y
 _atom_site_fract_z
 _atom_site_occupancy
  C  C0  1  0.00000000  0.00000000  0.50000000  1
  Ni  Ni1  1  0.50000000  0.50000000  0.00000000  1
  Ni  Ni2  1  0.50000000  0.00000000  0.00000000  1
  Ni  Ni3  1  0.00000000  0.50000000  0.00000000  1
  Cu  Cu4  1  0.50000000  0.50000000  0.50000000  1
  C  C5  1  0.76334900  0.71718500  0.78172600  1
  C  C6  1  0.74400800  0.27744800  0.77303000  1
  C  C7  1  0.26202200  0.76125400  0.78422700  1
  C  C8  1  0.28589300  0.24342800  0.75647800  1
  C  C9  1  0.71410700  0.75657200  0.24352200  1
  C  C10  1  0.73797800  0.23874600  0.21577300  1
  C  C11  1  0.25599200  0.72255200  0.22697000  1
  C  C12  1  0.23665100  0.28281500  0.21827400  1
