# generated using pymatgen
data_Cu7NiC3
_symmetry_space_group_name_H-M   'P 1'
_cell_length_a   7.20381270
_cell_length_b   7.20381270
_cell_length_c   6.93488400
_cell_angle_alpha   90.00000000
_cell_angle_beta   90.00000000
_cell_angle_gamma   120.00000639
_symmetry_Int_Tables_number   1
_chemical_formula_structural   Cu7NiC3
_chemical_formula_sum   'Cu7 Ni1 C3'
_cell_volume   311.66973336
_cell_formula_units_Z   1
loop_
 _symmetry_equiv_pos_site_id
 _symmetry_equiv_pos_as_xyz
  1  'x, y, z'
loop_
 _atom_site_type_symbol
 _atom_site_label
 _atom_site_symmetry_multiplicity
 _atom_site_fract_x
 _atom_site_fract_y
 _atom_site_fract_z
 _atom_site_occupancy
  C  C0  1  0.60308300  0.80154100  0.22322800  1
  C  C1  1  0.19845900  0.39691700  0.22322800  1
  C  C2  1  0.19845900  0.80154100  0.22322800  1
  Ni  Ni3  1  0.33333300  0.66666700  0.47273600  1
  Cu  Cu4  1  0.99815900  0.49907900  0.97620800  1
  Cu  Cu5  1  0.50092100  0.00184100  0.97620800  1
  Cu  Cu6  1  0.00000000  0.00000000  0.02083000  1
  Cu  Cu7  1  0.33610100  0.16805100  0.43100900  1
  Cu  Cu8  1  0.83194900  0.16805100  0.43100900  1
  Cu  Cu9  1  0.83194900  0.66389900  0.43100900  1
  Cu  Cu10  1  0.50092100  0.49907900  0.97620800  1
