# generated using pymatgen
data_Cu11Ni2C65
_symmetry_space_group_name_H-M   'P 1'
_cell_length_a   18.11737207
_cell_length_b   9.06555546
_cell_length_c   22.65140289
_cell_angle_alpha   90.02550446
_cell_angle_beta   89.97106678
_cell_angle_gamma   120.03949023
_symmetry_Int_Tables_number   1
_chemical_formula_structural   Cu11Ni2C65
_chemical_formula_sum   'Cu33 Ni6 C195'
_cell_volume   3220.64114371
_cell_formula_units_Z   3
loop_
 _symmetry_equiv_pos_site_id
 _symmetry_equiv_pos_as_xyz
  1  'x, y, z'
loop_
 _atom_site_type_symbol
 _atom_site_label
 _atom_site_symmetry_multiplicity
 _atom_site_fract_x
 _atom_site_fract_y
 _atom_site_fract_z
 _atom_site_occupancy
  C  C0  1  0.31681557  0.99034875  0.25276543  1
  C  C1  1  0.81845669  0.99154147  0.25275340  1
  C  C2  1  0.81857399  0.64352227  0.74741929  1
  C  C3  1  0.18334170  0.98552288  0.75003587  1
  C  C4  1  0.67979792  0.00077934  0.74898282  1
  C  C5  1  0.01872033  0.71121209  0.58592948  1
  C  C6  1  0.83562630  0.96143376  0.58539090  1
  C  C7  1  0.64742214  0.96888115  0.08426856  1
  C  C8  1  0.33643154  0.71027980  0.08692618  1
  C  C9  1  0.83757567  0.71124887  0.08860323  1
  C  C10  1  0.01873436  0.32511608  0.08758112  1
  C  C11  1  0.51541987  0.32283844  0.08774710  1
  C  C12  1  0.98792452  0.65961940  0.91406216  1
  C  C13  1  0.34614943  0.03005644  0.91364690  1
  C  C14  1  0.48681397  0.31711986  0.41550987  1
  C  C15  1  0.98829018  0.31838144  0.41521610  1
  C  C16  1  0.34213661  0.65860209  0.41574213  1
  C  C17  1  0.84325826  0.65914611  0.41550270  1
  C  C18  1  0.01172680  0.01210956  0.50539617  1
  C  C19  1  0.50606119  0.99965861  0.50481448  1
  C  C20  1  0.00805417  0.01188115  0.00461497  1
  C  C21  1  0.50221547  0.99845984  0.99982223  1
  C  C22  1  0.33759645  0.35487462  0.83398075  1
  C  C23  1  0.83712231  0.32586828  0.83390816  1
  C  C24  1  0.33029636  0.33713496  0.33359114  1
  C  C25  1  0.83114453  0.33859744  0.33342345  1
  C  C26  1  0.16195968  0.65291093  0.17338742  1
  C  C27  1  0.66297368  0.64376380  0.17555604  1
  C  C28  1  0.17223732  0.66676659  0.67083788  1
  C  C29  1  0.65643978  0.64760227  0.66402258  1
  C  C30  1  0.99593657  0.99707691  0.35485619  1
  C  C31  1  0.49485433  0.99700799  0.35452173  1
  C  C32  1  0.99435231  0.99649544  0.85652021  1
  C  C33  1  0.49939805  0.99725030  0.85486855  1
  C  C34  1  0.49906127  0.00078947  0.64491725  1
  C  C35  1  0.33944450  0.33512622  0.68554885  1
  C  C36  1  0.83531687  0.33709716  0.68805094  1
  C  C37  1  0.33764236  0.34281497  0.18723893  1
  C  C38  1  0.83931841  0.34609857  0.18737049  1
  C  C39  1  0.33290765  0.33949568  0.97874140  1
  C  C40  1  0.83063787  0.32644508  0.97712682  1
  C  C41  1  0.33301134  0.33183272  0.48235076  1
  C  C42  1  0.83049694  0.32701627  0.48147829  1
  C  C43  1  0.16686960  0.66882317  0.01979268  1
  C  C44  1  0.66674825  0.66607884  0.01959126  1
  C  C45  1  0.16923670  0.66801909  0.52195347  1
  C  C46  1  0.66263061  0.66226810  0.52074707  1
  C  C47  1  0.66213496  0.66248782  0.81280661  1
  Ni  Ni48  1  0.99884728  0.99808944  0.64521084  1
  Ni  Ni49  1  0.00137526  0.00107626  0.14512215  1
  Ni  Ni50  1  0.49689810  0.00288537  0.14672447  1
  Ni  Ni51  1  0.16448492  0.65278714  0.31736823  1
  Ni  Ni52  1  0.66487335  0.65312463  0.31730659  1
  Ni  Ni53  1  0.16878116  0.67019617  0.81634590  1
  Cu  Cu54  1  0.35125352  0.70225019  0.24815796  1
  Cu  Cu55  1  0.85255564  0.70548179  0.24786948  1
  Cu  Cu56  1  0.00145248  0.29655543  0.24725942  1
  Cu  Cu57  1  0.50099623  0.29849967  0.24764033  1
  Cu  Cu58  1  0.64208612  0.28882568  0.74945315  1
  Cu  Cu59  1  0.00187514  0.70753173  0.74915434  1
  Cu  Cu60  1  0.49645961  0.70975546  0.74983422  1
  Cu  Cu61  1  0.35521551  0.99932217  0.74999364  1
  Cu  Cu62  1  0.85408464  0.00249715  0.74900962  1
  Cu  Cu63  1  0.48033082  0.33212219  0.58217297  1
  Cu  Cu64  1  0.98056125  0.33720716  0.58345922  1
  Cu  Cu65  1  0.18974617  0.04273066  0.58497498  1
  Cu  Cu66  1  0.68703920  0.04114766  0.58529239  1
  Cu  Cu67  1  0.33320843  0.62172218  0.58458115  1
  Cu  Cu68  1  0.82913839  0.61871266  0.58309210  1
  Cu  Cu69  1  0.48011229  0.62279376  0.08312219  1
  Cu  Cu70  1  0.97957462  0.62282716  0.08033478  1
  Cu  Cu71  1  0.32943446  0.04384115  0.08260075  1
  Cu  Cu72  1  0.83052004  0.04392273  0.08406554  1
  Cu  Cu73  1  0.18998741  0.33420806  0.08315651  1
  Cu  Cu74  1  0.69074985  0.33626915  0.08315954  1
  Cu  Cu75  1  0.31220021  0.66559017  0.91575018  1
  Cu  Cu76  1  0.80901271  0.66251222  0.91552680  1
  Cu  Cu77  1  0.02279503  0.37584089  0.91676399  1
  Cu  Cu78  1  0.52124293  0.37477748  0.91735120  1
  Cu  Cu79  1  0.16706244  0.96247350  0.91527483  1
  Cu  Cu80  1  0.66499663  0.95486022  0.91629346  1
  Cu  Cu81  1  0.30880998  0.96035798  0.41424650  1
  Cu  Cu82  1  0.80880296  0.95729206  0.41516670  1
  Cu  Cu83  1  0.16743934  0.37251470  0.41782698  1
  Cu  Cu84  1  0.66691950  0.37181262  0.41712593  1
  Cu  Cu85  1  0.02222631  0.66942919  0.41843342  1
  Cu  Cu86  1  0.52164457  0.67023696  0.41667861  1
  C  C87  1  0.14630069  0.00450775  0.25058624  1
  C  C88  1  0.64661673  0.00548382  0.24945826  1
  C  C89  1  0.14578241  0.28867081  0.75074247  1
  C  C90  1  0.10178771  0.02311686  0.30336692  1
  C  C91  1  0.60023986  0.02186718  0.30124291  1
  C  C92  1  0.41440005  0.80529386  0.30689511  1
  C  C93  1  0.91471872  0.80543961  0.30697196  1
  C  C94  1  0.48877422  0.16775653  0.30520100  1
  C  C95  1  0.98827919  0.16735689  0.30558095  1
  C  C96  1  0.10129038  0.17630403  0.80306845  1
  C  C97  1  0.59728667  0.16417639  0.80671227  1
  C  C98  1  0.48530479  0.80479121  0.80818769  1
  C  C99  1  0.98712270  0.80758724  0.80712095  1
  C  C100  1  0.41344459  0.02572017  0.80998203  1
  C  C101  1  0.91710442  0.02643456  0.80560417  1
  C  C102  1  0.40870193  0.98549882  0.69350531  1
  C  C103  1  0.88618437  0.95385877  0.68976085  1
  C  C104  1  0.09658493  0.21231279  0.69595627  1
  C  C105  1  0.58530660  0.19710077  0.69122421  1
  C  C106  1  0.01706844  0.81907019  0.69003096  1
  C  C107  1  0.51695168  0.83705276  0.69344411  1
  C  C108  1  0.39271335  0.80786218  0.18804075  1
  C  C109  1  0.89392523  0.81255040  0.18819958  1
  C  C110  1  0.01096488  0.21452143  0.18674732  1
  C  C111  1  0.51360134  0.22144533  0.18662068  1
  C  C112  1  0.09811007  0.98196297  0.19585276  1
  C  C113  1  0.60045716  0.98500156  0.19344159  1
  C  C114  1  0.43145788  0.35832772  0.63983360  1
  C  C115  1  0.92941394  0.36329989  0.64040816  1
  C  C116  1  0.24685599  0.13550505  0.64483426  1
  C  C117  1  0.74821742  0.13272949  0.64379741  1
  C  C118  1  0.32009551  0.49647370  0.64109990  1
  C  C119  1  0.81878225  0.50370041  0.64277355  1
  C  C120  1  0.43414653  0.49907429  0.14167580  1
  C  C121  1  0.93193740  0.49560138  0.13908227  1
  C  C122  1  0.31930170  0.13685493  0.14265439  1
  C  C123  1  0.81408847  0.13118108  0.14311894  1
  C  C124  1  0.25241090  0.36294105  0.14080594  1
  C  C125  1  0.75284463  0.36608203  0.14051815  1
  C  C126  1  0.24046338  0.31795732  0.02607229  1
  C  C127  1  0.73825907  0.31386037  0.02518868  1
  C  C128  1  0.41916677  0.52600285  0.02721324  1
  C  C129  1  0.91852101  0.52630444  0.02308543  1
  C  C130  1  0.34413966  0.16593312  0.02537896  1
  C  C131  1  0.83992905  0.16643860  0.02802089  1
  C  C132  1  0.24330684  0.16593126  0.52937795  1
  C  C133  1  0.73767063  0.16024880  0.52832577  1
  C  C134  1  0.34728684  0.53295999  0.52553361  1
  C  C135  1  0.84043378  0.51953155  0.52649340  1
  C  C136  1  0.42435431  0.31188476  0.52332212  1
  C  C137  1  0.92101719  0.31439919  0.52538994  1
  C  C138  1  0.26584562  0.69904731  0.97437663  1
  C  C139  1  0.76473744  0.69119768  0.97471478  1
  C  C140  1  0.08211393  0.46523523  0.97629797  1
  C  C141  1  0.58101868  0.46916235  0.97613532  1
  C  C142  1  0.14923556  0.82622045  0.97047081  1
  C  C143  1  0.65366993  0.83589791  0.97521329  1
  C  C144  1  0.26265322  0.82720341  0.46979146  1
  C  C145  1  0.76474777  0.83023051  0.47254475  1
  C  C146  1  0.14754989  0.46645051  0.47371486  1
  C  C147  1  0.64795204  0.46723910  0.47317947  1
  C  C148  1  0.08164543  0.69736831  0.47729493  1
  C  C149  1  0.58326752  0.69793410  0.47456896  1
  C  C150  1  0.05556588  0.61119902  0.36285090  1
  C  C151  1  0.55539827  0.61257112  0.36134256  1
  C  C152  1  0.25894264  0.89274354  0.35342314  1
  C  C153  1  0.75784204  0.88945195  0.35468727  1
  C  C154  1  0.19957349  0.49632112  0.36173846  1
  C  C155  1  0.69938382  0.49626366  0.36137207  1
  C  C156  1  0.05655298  0.50222395  0.86172114  1
  C  C157  1  0.57039240  0.49858763  0.86067755  1
  C  C158  1  0.19325557  0.90268994  0.85608229  1
  C  C159  1  0.67752447  0.86091778  0.85829295  1
  C  C160  1  0.25620339  0.62552759  0.85804013  1
  C  C161  1  0.75135446  0.64111453  0.85741598  1
  C  C162  1  0.00952960  0.83707350  0.40915450  1
  C  C163  1  0.51003325  0.83901761  0.40897199  1
  C  C164  1  0.40609078  0.97492384  0.40909106  1
  C  C165  1  0.90603806  0.97361499  0.40929393  1
  C  C166  1  0.07903011  0.18731691  0.40828830  1
  C  C167  1  0.57856513  0.18727544  0.40816916  1
  C  C168  1  0.01284034  0.18587004  0.90836555  1
  C  C169  1  0.51136614  0.18650039  0.91037193  1
  C  C170  1  0.07837606  0.97073818  0.90900016  1
  C  C171  1  0.58049605  0.97338938  0.91007319  1
  C  C172  1  0.40573510  0.84506050  0.91184312  1
  C  C173  1  0.90521479  0.83371369  0.90892308  1
  C  C174  1  0.48897919  0.16272221  0.58887814  1
  C  C175  1  0.98369113  0.16359958  0.58629898  1
  C  C176  1  0.09478384  0.01542361  0.58434001  1
  C  C177  1  0.59368639  0.02246597  0.59031014  1
  C  C178  1  0.41769061  0.81048292  0.59241208  1
  C  C179  1  0.91478916  0.80396538  0.58235793  1
  C  C180  1  0.49293327  0.81169404  0.08605697  1
  C  C181  1  0.98515943  0.80447257  0.08415309  1
  C  C182  1  0.41384492  0.02294115  0.08217655  1
  C  C183  1  0.91358711  0.02331034  0.08281844  1
  C  C184  1  0.09499179  0.17410010  0.08439832  1
  C  C185  1  0.59771227  0.16737263  0.08543810  1
  C  C186  1  0.34579457  0.17379831  0.74359066  1
  C  C187  1  0.84117922  0.16941534  0.74523542  1
  C  C188  1  0.23007277  0.29268538  0.74782945  1
  C  C189  1  0.73758837  0.30739968  0.74307564  1
  C  C190  1  0.41244538  0.52054066  0.74281755  1
  C  C191  1  0.90965423  0.52250412  0.74516261  1
  C  C192  1  0.34450498  0.51294151  0.24482277  1
  C  C193  1  0.84514815  0.51482047  0.24415139  1
  C  C194  1  0.40608612  0.29071657  0.24551285  1
  C  C195  1  0.90634278  0.29158395  0.24457775  1
  C  C196  1  0.23214470  0.16431498  0.24777040  1
  C  C197  1  0.73223790  0.16499030  0.24774327  1
  C  C198  1  0.32890905  0.50597178  0.92620677  1
  C  C199  1  0.82516672  0.50085343  0.92110939  1
  C  C200  1  0.42553792  0.34823395  0.92284957  1
  C  C201  1  0.92630532  0.35019971  0.92767615  1
  C  C202  1  0.25019316  0.14984933  0.92796693  1
  C  C203  1  0.75065119  0.14304858  0.92266953  1
  C  C204  1  0.33181485  0.15761638  0.42516132  1
  C  C205  1  0.83119348  0.15465845  0.42563021  1
  C  C206  1  0.24907061  0.34477944  0.42990315  1
  C  C207  1  0.74824150  0.34337192  0.42874881  1
  C  C208  1  0.42424539  0.50698561  0.42693665  1
  C  C209  1  0.92352949  0.50551183  0.42809997  1
  C  C210  1  0.18551668  0.51233168  0.07703693  1
  C  C211  1  0.68375491  0.51060894  0.07706122  1
  C  C212  1  0.07061101  0.62665802  0.07633082  1
  C  C213  1  0.57314461  0.63273444  0.07746580  1
  C  C214  1  0.24453254  0.85318968  0.07611391  1
  C  C215  1  0.74346553  0.85475226  0.07684416  1
  C  C216  1  0.18291976  0.85510315  0.57656710  1
  C  C217  1  0.68408033  0.85750095  0.57698357  1
  C  C218  1  0.24749961  0.63764412  0.57559941  1
  C  C219  1  0.74536687  0.64163492  0.57703334  1
  C  C220  1  0.07202577  0.51394177  0.57825123  1
  C  C221  1  0.57333814  0.50640870  0.57727123  1
  C  C222  1  0.16016354  0.85926637  0.25593464  1
  C  C223  1  0.66002731  0.85905151  0.25462615  1
  C  C224  1  0.26136571  0.69715557  0.25341147  1
  C  C225  1  0.76186904  0.69791217  0.25314378  1
  C  C226  1  0.07853375  0.48725740  0.25303654  1
  C  C227  1  0.57878060  0.48842620  0.25350486  1
  C  C228  1  0.15831076  0.45850501  0.75608721  1
  C  C229  1  0.65734645  0.48325245  0.75650708  1
  C  C230  1  0.08405340  0.68575427  0.75443037  1
  C  C231  1  0.58386369  0.69439979  0.75754721  1
  C  C232  1  0.26049248  0.83636639  0.74972016  1
  C  C233  1  0.75803759  0.83399084  0.76007275  1
