# generated using pymatgen
data_Cu2Ni8C21
_symmetry_space_group_name_H-M   'P 1'
_cell_length_a   10.72308499
_cell_length_b   6.52022500
_cell_length_c   10.34088801
_cell_angle_alpha   90.00000000
_cell_angle_beta   100.24649109
_cell_angle_gamma   90.00000000
_symmetry_Int_Tables_number   1
_chemical_formula_structural   Cu2Ni8C21
_chemical_formula_sum   'Cu4 Ni16 C42'
_cell_volume   711.47236303
_cell_formula_units_Z   2
loop_
 _symmetry_equiv_pos_site_id
 _symmetry_equiv_pos_as_xyz
  1  'x, y, z'
loop_
 _atom_site_type_symbol
 _atom_site_label
 _atom_site_symmetry_multiplicity
 _atom_site_fract_x
 _atom_site_fract_y
 _atom_site_fract_z
 _atom_site_occupancy
  Ni  Ni0  1  0.24500700  0.00000000  0.43541100  1
  Ni  Ni1  1  0.75499300  0.00000000  0.56458900  1
  Ni  Ni2  1  0.74500700  0.50000000  0.43541100  1
  Ni  Ni3  1  0.25499300  0.50000000  0.56458900  1
  Ni  Ni4  1  0.69914000  0.00000000  0.22783500  1
  Ni  Ni5  1  0.30086000  0.00000000  0.77216500  1
  Ni  Ni6  1  0.19914000  0.50000000  0.22783500  1
  Ni  Ni7  1  0.80086000  0.50000000  0.77216500  1
  Ni  Ni8  1  0.00153000  0.00000000  0.18582400  1
  Ni  Ni9  1  0.99847000  0.00000000  0.81417600  1
  Ni  Ni10  1  0.50153000  0.50000000  0.18582400  1
  Ni  Ni11  1  0.49847000  0.50000000  0.81417600  1
  Ni  Ni12  1  0.37952300  0.00000000  0.16599300  1
  Ni  Ni13  1  0.62047700  0.00000000  0.83400700  1
  Ni  Ni14  1  0.87952300  0.50000000  0.16599300  1
  Ni  Ni15  1  0.12047700  0.50000000  0.83400700  1
  Cu  Cu16  1  0.50000000  0.25046700  0.50000000  1
  Cu  Cu17  1  0.00000000  0.75046700  0.50000000  1
  Cu  Cu18  1  0.50000000  0.74953300  0.50000000  1
  Cu  Cu19  1  0.00000000  0.24953300  0.50000000  1
  C  C20  1  0.05049200  0.00000000  0.39058900  1
  C  C21  1  0.94950800  0.00000000  0.60941100  1
  C  C22  1  0.55049200  0.50000000  0.39058900  1
  C  C23  1  0.44950800  0.50000000  0.60941100  1
  C  C24  1  0.41316000  0.00000000  0.39144900  1
  C  C25  1  0.58684000  0.00000000  0.60855100  1
  C  C26  1  0.91316000  0.50000000  0.39144900  1
  C  C27  1  0.08684000  0.50000000  0.60855100  1
  C  C28  1  0.00000000  0.00000000  0.00000000  1
  C  C29  1  0.50000000  0.50000000  0.00000000  1
  C  C30  1  0.84231000  0.81623500  0.18693100  1
  C  C31  1  0.15769000  0.81623500  0.81306900  1
  C  C32  1  0.34231000  0.31623500  0.18693100  1
  C  C33  1  0.65769000  0.31623500  0.81306900  1
  C  C34  1  0.15769000  0.18376500  0.81306900  1
  C  C35  1  0.84231000  0.18376500  0.18693100  1
  C  C36  1  0.65769000  0.68376500  0.81306900  1
  C  C37  1  0.34231000  0.68376500  0.18693100  1
  C  C38  1  0.27020100  0.18029600  0.60721000  1
  C  C39  1  0.72979900  0.18029600  0.39279000  1
  C  C40  1  0.77020100  0.68029600  0.60721000  1
  C  C41  1  0.22979900  0.68029600  0.39279000  1
  C  C42  1  0.72979900  0.81970400  0.39279000  1
  C  C43  1  0.27020100  0.81970400  0.60721000  1
  C  C44  1  0.22979900  0.31970400  0.39279000  1
  C  C45  1  0.77020100  0.31970400  0.60721000  1
  C  C46  1  0.66364900  0.00000000  0.01064000  1
  C  C47  1  0.33635100  0.00000000  0.98936000  1
  C  C48  1  0.16364900  0.50000000  0.01064000  1
  C  C49  1  0.83635100  0.50000000  0.98936000  1
  C  C50  1  0.20315200  0.00000000  0.22543400  1
  C  C51  1  0.79684800  0.00000000  0.77456600  1
  C  C52  1  0.70315200  0.50000000  0.22543400  1
  C  C53  1  0.29684800  0.50000000  0.77456600  1
  C  C54  1  0.04580700  0.31435000  0.18800600  1
  C  C55  1  0.95419300  0.31435000  0.81199400  1
  C  C56  1  0.54580700  0.81435000  0.18800600  1
  C  C57  1  0.45419300  0.81435000  0.81199400  1
  C  C58  1  0.95419300  0.68565000  0.81199400  1
  C  C59  1  0.04580700  0.68565000  0.18800600  1
  C  C60  1  0.45419300  0.18565000  0.81199400  1
  C  C61  1  0.54580700  0.18565000  0.18800600  1
