# generated using pymatgen
data_Cu2NiC16
_symmetry_space_group_name_H-M   'P 1'
_cell_length_a   8.98646645
_cell_length_b   8.98646614
_cell_length_c   22.97032168
_cell_angle_alpha   90.05544213
_cell_angle_beta   89.94455789
_cell_angle_gamma   119.80549040
_symmetry_Int_Tables_number   1
_chemical_formula_structural   Cu2NiC16
_chemical_formula_sum   'Cu12 Ni6 C96'
_cell_volume   1609.61949920
_cell_formula_units_Z   6
loop_
 _symmetry_equiv_pos_site_id
 _symmetry_equiv_pos_as_xyz
  1  'x, y, z'
loop_
 _atom_site_type_symbol
 _atom_site_label
 _atom_site_symmetry_multiplicity
 _atom_site_fract_x
 _atom_site_fract_y
 _atom_site_fract_z
 _atom_site_occupancy
  C  C0  1  0.00066332  0.62724448  0.25058822  1
  C  C1  1  0.37275552  0.99933668  0.75058822  1
  C  C2  1  0.66040153  0.96933875  0.58902422  1
  C  C3  1  0.03066125  0.33959847  0.08902422  1
  C  C4  1  0.97877348  0.67436948  0.92205643  1
  C  C5  1  0.32563052  0.02122652  0.42205643  1
  C  C6  1  0.01075822  0.99065173  0.50062842  1
  C  C7  1  0.00934827  0.98924178  0.00062842  1
  C  C8  1  0.66092644  0.31440416  0.83437349  1
  C  C9  1  0.68559584  0.33907356  0.33437349  1
  C  C10  1  0.33399730  0.66363429  0.16681465  1
  C  C11  1  0.33636571  0.66600270  0.66681465  1
  C  C12  1  0.99194669  0.00312223  0.35166532  1
  C  C13  1  0.99687777  0.00805331  0.85166532  1
  C  C14  1  0.00279091  0.99785666  0.64857729  1
  C  C15  1  0.00214334  0.99720909  0.14857729  1
  C  C16  1  0.66417133  0.31946356  0.68504404  1
  C  C17  1  0.68053644  0.33582867  0.18504404  1
  C  C18  1  0.65935811  0.33064907  0.98180089  1
  C  C19  1  0.66935093  0.34064189  0.48180089  1
  C  C20  1  0.32577376  0.68099773  0.01834446  1
  C  C21  1  0.31900227  0.67422624  0.51834446  1
  C  C22  1  0.31417409  0.64855995  0.31497526  1
  C  C23  1  0.35144005  0.68582591  0.81497526  1
  Ni  Ni24  1  0.99975429  0.29137349  0.24791521  1
  Ni  Ni25  1  0.70862651  0.00024571  0.74791521  1
  Ni  Ni26  1  0.36893844  0.04034276  0.58185386  1
  Ni  Ni27  1  0.95965724  0.63106156  0.08185386  1
  Ni  Ni28  1  0.33409180  0.96875776  0.91489044  1
  Ni  Ni29  1  0.03124224  0.66590820  0.41489044  1
  Cu  Cu30  1  0.29566876  0.00280718  0.25114828  1
  Cu  Cu31  1  0.70602024  0.70837530  0.24992156  1
  Cu  Cu32  1  0.29162470  0.29397976  0.74992156  1
  Cu  Cu33  1  0.99719282  0.70433124  0.75114828  1
  Cu  Cu34  1  0.96044292  0.33387011  0.58353681  1
  Cu  Cu35  1  0.66618882  0.62532439  0.58397326  1
  Cu  Cu36  1  0.66612989  0.03955708  0.08353681  1
  Cu  Cu37  1  0.37467561  0.33381118  0.08397326  1
  Cu  Cu38  1  0.62525144  0.66598973  0.91733973  1
  Cu  Cu39  1  0.04323119  0.37508615  0.91732710  1
  Cu  Cu40  1  0.62491385  0.95676881  0.41732710  1
  Cu  Cu41  1  0.33401027  0.37474856  0.41733973  1
  C  C42  1  0.21566264  0.02425905  0.30473256  1
  C  C43  1  0.81716436  0.78519915  0.30189587  1
  C  C44  1  0.97751124  0.17282522  0.30446571  1
  C  C45  1  0.21480085  0.18283564  0.80189587  1
  C  C46  1  0.97574095  0.78433736  0.80473256  1
  C  C47  1  0.82717478  0.02248876  0.80446571  1
  C  C48  1  0.79554166  0.97830590  0.68821344  1
  C  C49  1  0.18694823  0.21136245  0.69747869  1
  C  C50  1  0.03067686  0.81896151  0.70005514  1
  C  C51  1  0.78863755  0.81305177  0.19747869  1
  C  C52  1  0.02169410  0.20445834  0.18821344  1
  C  C53  1  0.18103849  0.96932314  0.20005514  1
  C  C54  1  0.88286165  0.36289155  0.63592293  1
  C  C55  1  0.49215999  0.12937081  0.63960365  1
  C  C56  1  0.64758808  0.52337785  0.63635597  1
  C  C57  1  0.87062919  0.50784001  0.13960365  1
  C  C58  1  0.63710845  0.11713835  0.13592293  1
  C  C59  1  0.47662215  0.35241192  0.13635597  1
  C  C60  1  0.45394227  0.30702995  0.03120945  1
  C  C61  1  0.84699532  0.53656717  0.02321762  1
  C  C62  1  0.69161207  0.14833642  0.03147261  1
  C  C63  1  0.46343283  0.15300468  0.52321762  1
  C  C64  1  0.69297005  0.54605773  0.53120945  1
  C  C65  1  0.85166358  0.30838793  0.53147261  1
  C  C66  1  0.54264956  0.68633412  0.96959347  1
  C  C67  1  0.14468469  0.45149715  0.97124974  1
  C  C68  1  0.29840836  0.83806324  0.97016443  1
  C  C69  1  0.54850285  0.85531531  0.47124974  1
  C  C70  1  0.31366588  0.45735044  0.46959347  1
  C  C71  1  0.16193676  0.70159164  0.47016443  1
  C  C72  1  0.12294440  0.64200488  0.35599482  1
  C  C73  1  0.51587938  0.87157712  0.36589502  1
  C  C74  1  0.35959938  0.47916231  0.36437760  1
  C  C75  1  0.12842288  0.48412062  0.86589502  1
  C  C76  1  0.35799512  0.87705560  0.85599482  1
  C  C77  1  0.52083769  0.64040062  0.86437760  1
  C  C78  1  0.02685998  0.84654817  0.40946971  1
  C  C79  1  0.79839407  0.97852703  0.41208614  1
  C  C80  1  0.18026843  0.20014777  0.41164545  1
  C  C81  1  0.02147297  0.20160593  0.91208614  1
  C  C82  1  0.15345183  0.97314002  0.90946971  1
  C  C83  1  0.79985223  0.81973157  0.91164545  1
  C  C84  1  0.96975088  0.17381734  0.58857413  1
  C  C85  1  0.17825980  0.01712265  0.58931696  1
  C  C86  1  0.81884815  0.80200168  0.58792752  1
  C  C87  1  0.98287735  0.82174020  0.08931696  1
  C  C88  1  0.82618266  0.03024912  0.08857413  1
  C  C89  1  0.19799832  0.18115185  0.08792752  1
  C  C90  1  0.67961890  0.16900427  0.74577526  1
  C  C91  1  0.46474057  0.31161997  0.74381727  1
  C  C92  1  0.84240958  0.53574549  0.74320521  1
  C  C93  1  0.68838003  0.53525943  0.24381727  1
  C  C94  1  0.83099573  0.32038110  0.24577526  1
  C  C95  1  0.46425451  0.15759042  0.24320521  1
  C  C96  1  0.65013506  0.51391118  0.92120684  1
  C  C97  1  0.87173645  0.36353450  0.92192786  1
  C  C98  1  0.50487622  0.15605393  0.92284830  1
  C  C99  1  0.63646550  0.12826355  0.42192786  1
  C  C100  1  0.48608882  0.34986494  0.42120684  1
  C  C101  1  0.84394607  0.49512378  0.42284830  1
  C  C102  1  0.35552745  0.48818706  0.07773824  1
  C  C103  1  0.14695146  0.63526971  0.07821819  1
  C  C104  1  0.51675440  0.86511694  0.07719002  1
  C  C105  1  0.36473029  0.85304854  0.57821819  1
  C  C106  1  0.51181294  0.64447255  0.57773824  1
  C  C107  1  0.13488306  0.48324560  0.57719002  1
  C  C108  1  0.31443364  0.84742178  0.25581642  1
  C  C109  1  0.53588351  0.69404015  0.25697750  1
  C  C110  1  0.16903373  0.48792109  0.25256129  1
  C  C111  1  0.30595985  0.46411649  0.75697750  1
  C  C112  1  0.15257822  0.68556636  0.75581642  1
  C  C113  1  0.51207891  0.83096627  0.75256129  1
