# generated using pymatgen
data_Cu2NiC14
_symmetry_space_group_name_H-M   'P 1'
_cell_length_a   3.91183101
_cell_length_b   5.70734197
_cell_length_c   10.19147819
_cell_angle_alpha   89.97830993
_cell_angle_beta   90.00514418
_cell_angle_gamma   110.04691209
_symmetry_Int_Tables_number   1
_chemical_formula_structural   Cu2NiC14
_chemical_formula_sum   'Cu2 Ni1 C14'
_cell_volume   213.75060672
_cell_formula_units_Z   1
loop_
 _symmetry_equiv_pos_site_id
 _symmetry_equiv_pos_as_xyz
  1  'x, y, z'
loop_
 _atom_site_type_symbol
 _atom_site_label
 _atom_site_symmetry_multiplicity
 _atom_site_fract_x
 _atom_site_fract_y
 _atom_site_fract_z
 _atom_site_occupancy
  Ni  Ni0  1  0.51548000  0.03749300  0.75001600  1
  C  C1  1  0.14029300  0.28112200  0.55586200  1
  C  C2  1  0.14028500  0.28115700  0.94413000  1
  C  C3  1  0.87579800  0.75096700  0.06291400  1
  C  C4  1  0.87592000  0.75095300  0.43698500  1
  Cu  Cu5  1  0.20347700  0.40675200  0.24997700  1
  Cu  Cu6  1  0.79868100  0.59876100  0.74998000  1
  C  C7  1  0.06033000  0.12121900  0.10752000  1
  C  C8  1  0.06020000  0.12121200  0.39250500  1
  C  C9  1  0.29923200  0.59798500  0.45855200  1
  C  C10  1  0.29928700  0.59827400  0.04137500  1
  C  C11  1  0.22667000  0.45415900  0.75007600  1
  C  C12  1  0.79971500  0.59910200  0.24976200  1
  C  C13  1  0.96223800  0.92165700  0.62445500  1
  C  C14  1  0.64866200  0.29772200  0.59601300  1
  C  C15  1  0.96180100  0.92130500  0.87583600  1
  C  C16  1  0.64860100  0.29766100  0.90404200  1
