# generated using pymatgen
data_CuNiC16
_symmetry_space_group_name_H-M   'P 1'
_cell_length_a   8.78204748
_cell_length_b   8.80935577
_cell_length_c   22.75108851
_cell_angle_alpha   90.48534017
_cell_angle_beta   90.00000000
_cell_angle_gamma   119.89750837
_symmetry_Int_Tables_number   1
_chemical_formula_structural   CuNiC16
_chemical_formula_sum   'Cu6 Ni6 C96'
_cell_volume   1525.80702933
_cell_formula_units_Z   6
loop_
 _symmetry_equiv_pos_site_id
 _symmetry_equiv_pos_as_xyz
  1  'x, y, z'
loop_
 _atom_site_type_symbol
 _atom_site_label
 _atom_site_symmetry_multiplicity
 _atom_site_fract_x
 _atom_site_fract_y
 _atom_site_fract_z
 _atom_site_occupancy
  Ni  Ni0  1  0.01766981  0.00458491  0.50315020  1
  Ni  Ni1  1  0.98691510  0.00458491  0.00315020  1
  Ni  Ni2  1  0.69062294  0.34071415  0.83526694  1
  Ni  Ni3  1  0.65009222  0.34071415  0.33526694  1
  Ni  Ni4  1  0.33778279  0.68847154  0.16845659  1
  Ni  Ni5  1  0.35068774  0.68847154  0.66845659  1
  Cu  Cu6  1  0.99736613  0.99628305  0.64637039  1
  Cu  Cu7  1  0.99891693  0.99628305  0.14637039  1
  Cu  Cu8  1  0.67482087  0.32394467  0.97900667  1
  Cu  Cu9  1  0.64912481  0.32394467  0.47900667  1
  Cu  Cu10  1  0.33866768  0.66983631  0.31234821  1
  Cu  Cu11  1  0.33116763  0.66983631  0.81234821  1
  C  C12  1  0.02395468  0.01384826  0.35404436  1
  C  C13  1  0.98989358  0.01384826  0.85404436  1
  C  C14  1  0.65598946  0.30559770  0.68648421  1
  C  C15  1  0.64960924  0.30559770  0.18648421  1
  C  C16  1  0.33056171  0.66403359  0.02014957  1
  C  C17  1  0.33347088  0.66403359  0.52014957  1
  C  C18  1  0.29255273  0.99899905  0.24790241  1
  C  C19  1  0.70644632  0.99899905  0.74790241  1
  C  C20  1  0.37000117  0.03111840  0.58135498  1
  C  C21  1  0.66111822  0.03111840  0.08135498  1
  C  C22  1  0.04625860  0.37894576  0.91463203  1
  C  C23  1  0.33268616  0.37894576  0.41463203  1
  C  C24  1  0.71734716  0.70619797  0.25057773  1
  C  C25  1  0.99088634  0.28620362  0.25052831  1
  C  C26  1  0.29531728  0.28620362  0.75052831  1
  C  C27  1  0.98885081  0.70619797  0.75057773  1
  C  C28  1  0.95965318  0.34185573  0.58305551  1
  C  C29  1  0.65804230  0.61760751  0.58328238  1
  C  C30  1  0.95956621  0.61760751  0.08328238  1
  C  C31  1  0.38220354  0.34185573  0.08305551  1
  C  C32  1  0.62653483  0.67464407  0.91720703  1
  C  C33  1  0.32153158  0.95183361  0.91782638  1
  C  C34  1  0.63030103  0.95183361  0.41782638  1
  C  C35  1  0.04810825  0.67464407  0.41720703  1
  C  C36  1  0.19622532  0.02871989  0.30832790  1
  C  C37  1  0.82249100  0.79886345  0.30382000  1
  C  C38  1  0.96876451  0.17894758  0.30386473  1
  C  C39  1  0.21018307  0.17894758  0.80386473  1
  C  C40  1  0.97637244  0.79886345  0.80382000  1
  C  C41  1  0.83249457  0.02871989  0.80832790  1
  C  C42  1  0.80131859  0.98115680  0.69096363  1
  C  C43  1  0.19403859  0.20214255  0.69711536  1
  C  C44  1  0.01516423  0.80976898  0.69715326  1
  C  C45  1  0.79460476  0.80976898  0.19715326  1
  C  C46  1  0.00810395  0.20214255  0.19711536  1
  C  C47  1  0.17983821  0.98115680  0.19096363  1
  C  C48  1  0.87070248  0.36104816  0.63662170  1
  C  C49  1  0.49857192  0.13032639  0.64172154  1
  C  C50  1  0.64057752  0.51386251  0.63614978  1
  C  C51  1  0.87328599  0.51386251  0.13614978  1
  C  C52  1  0.63175547  0.13032639  0.14172154  1
  C  C53  1  0.49034668  0.36104816  0.13662170  1
  C  C54  1  0.46543328  0.32491169  0.02983714  1
  C  C55  1  0.85668660  0.53878600  0.02945769  1
  C  C56  1  0.68487146  0.15054207  0.02561053  1
  C  C57  1  0.46567161  0.15054207  0.52561053  1
  C  C58  1  0.68210041  0.53878600  0.52945769  1
  C  C59  1  0.85947941  0.32491169  0.52983714  1
  C  C60  1  0.54445671  0.70310753  0.97085655  1
  C  C61  1  0.16965873  0.47982987  0.97399339  1
  C  C62  1  0.31130636  0.84658816  0.97062490  1
  C  C63  1  0.53528080  0.84658816  0.47062490  1
  C  C64  1  0.31017014  0.47982987  0.47399339  1
  C  C65  1  0.15864982  0.70310753  0.47085655  1
  C  C66  1  0.13123849  0.65763734  0.36385989  1
  C  C67  1  0.52403805  0.87872858  0.36426105  1
  C  C68  1  0.34536734  0.48765290  0.35740964  1
  C  C69  1  0.14228455  0.48765290  0.85740964  1
  C  C70  1  0.35468953  0.87872858  0.86426105  1
  C  C71  1  0.52639785  0.65763734  0.86385989  1
  C  C72  1  0.02682984  0.83352862  0.41284229  1
  C  C73  1  0.79893393  0.95180349  0.41387317  1
  C  C74  1  0.14655800  0.18192167  0.40930805  1
  C  C75  1  0.03536367  0.18192167  0.90930805  1
  C  C76  1  0.15286956  0.95180349  0.91387317  1
  C  C77  1  0.80669879  0.83352862  0.91284229  1
  C  C78  1  0.98490750  0.18839981  0.58781884  1
  C  C79  1  0.17484272  0.00142190  0.58849573  1
  C  C80  1  0.80889287  0.79830035  0.58706516  1
  C  C81  1  0.98940748  0.79830035  0.08706516  1
  C  C82  1  0.82657918  0.00142190  0.08849573  1
  C  C83  1  0.20349231  0.18839981  0.08781884  1
  C  C84  1  0.70011515  0.18597458  0.74212253  1
  C  C85  1  0.47392814  0.30370717  0.74623003  1
  C  C86  1  0.82414800  0.53394194  0.74583145  1
  C  C87  1  0.70979494  0.53394194  0.24583145  1
  C  C88  1  0.82978003  0.30370717  0.24623003  1
  C  C89  1  0.48586043  0.18597458  0.24212253  1
  C  C90  1  0.64361925  0.51756674  0.92337773  1
  C  C91  1  0.84884642  0.34769247  0.91875395  1
  C  C92  1  0.46804533  0.13448639  0.92367368  1
  C  C93  1  0.66644207  0.13448639  0.42367368  1
  C  C94  1  0.49884705  0.34769247  0.41875395  1
  C  C95  1  0.87394849  0.51756674  0.42337773  1
  C  C96  1  0.36889205  0.50511835  0.08063299  1
  C  C97  1  0.13654242  0.62941189  0.07850005  1
  C  C98  1  0.47805550  0.84037737  0.07438840  1
  C  C99  1  0.36232087  0.84037737  0.57438840  1
  C  C100  1  0.49286847  0.62941189  0.57850005  1
  C  C101  1  0.13622530  0.50511835  0.58063299  1
  C  C102  1  0.32672619  0.83738992  0.25419983  1
  C  C103  1  0.53627134  0.67835716  0.25444292  1
  C  C104  1  0.14564612  0.46325984  0.25515064  1
  C  C105  1  0.31761272  0.46325984  0.75515064  1
  C  C106  1  0.14208483  0.67835716  0.75444292  1
  C  C107  1  0.51066273  0.83738992  0.75419983  1
