# generated using pymatgen
data_CuNiC6
_symmetry_space_group_name_H-M   'P 1'
_cell_length_a   3.94335671
_cell_length_b   3.94335675
_cell_length_c   9.43593062
_cell_angle_alpha   102.06109188
_cell_angle_beta   102.06110231
_cell_angle_gamma   89.99998850
_symmetry_Int_Tables_number   1
_chemical_formula_structural   CuNiC6
_chemical_formula_sum   'Cu1 Ni1 C6'
_cell_volume   140.17648872
_cell_formula_units_Z   1
loop_
 _symmetry_equiv_pos_site_id
 _symmetry_equiv_pos_as_xyz
  1  'x, y, z'
loop_
 _atom_site_type_symbol
 _atom_site_label
 _atom_site_symmetry_multiplicity
 _atom_site_fract_x
 _atom_site_fract_y
 _atom_site_fract_z
 _atom_site_occupancy
  C  C0  1  0.68341948  0.68341848  0.36683796  1
  C  C1  1  0.31658052  0.31658152  0.63316104  1
  Ni  Ni2  1  0.50000000  0.50000000  -0.00000000  1
  Cu  Cu3  1  0.00000000  -0.00000000  -0.00000000  1
  C  C4  1  0.81276262  0.81276162  0.62552524  1
  C  C5  1  0.18723738  0.18723538  0.37447276  1
  C  C6  1  0.00000000  0.50000000  -0.00000000  1
  C  C7  1  0.50000000  -0.00000000  0.00000100  1
