# generated using pymatgen
data_Cu2(NiC11)3
_symmetry_space_group_name_H-M   'P 1'
_cell_length_a   9.36566865
_cell_length_b   9.41985210
_cell_length_c   23.69507864
_cell_angle_alpha   90.19021495
_cell_angle_beta   88.79844570
_cell_angle_gamma   119.93347868
_symmetry_Int_Tables_number   1
_chemical_formula_structural   Cu2(NiC11)3
_chemical_formula_sum   'Cu6 Ni9 C99'
_cell_volume   1811.14038111
_cell_formula_units_Z   3
loop_
 _symmetry_equiv_pos_site_id
 _symmetry_equiv_pos_as_xyz
  1  'x, y, z'
loop_
 _atom_site_type_symbol
 _atom_site_label
 _atom_site_symmetry_multiplicity
 _atom_site_fract_x
 _atom_site_fract_y
 _atom_site_fract_z
 _atom_site_occupancy
  C  C0  1  0.98596352  0.64292050  0.24912382  1
  C  C1  1  0.99129980  0.35286329  0.74264168  1
  C  C2  1  0.65528680  0.97501384  0.58998423  1
  C  C3  1  0.67143184  0.69532280  0.08002129  1
  C  C4  1  0.33881680  0.30584286  0.90394264  1
  C  C5  1  0.31689577  0.01812602  0.41741582  1
  C  C6  1  0.00823043  0.99006692  0.50908988  1
  C  C7  1  0.97945663  0.97056635  0.00166463  1
  C  C8  1  0.64843018  0.31806886  0.82787122  1
  C  C9  1  0.65183120  0.34254224  0.33351370  1
  C  C10  1  0.32405837  0.67876766  0.17284172  1
  C  C11  1  0.32151302  0.66823185  0.66874470  1
  C  C12  1  0.99241701  0.98964444  0.35212977  1
  C  C13  1  0.98436290  0.98418418  0.84929491  1
  C  C14  1  0.64956852  0.32910884  0.68605253  1
  C  C15  1  0.65476068  0.32622096  0.18697473  1
  C  C16  1  0.32727542  0.67584752  0.01823497  1
  C  C17  1  0.31007238  0.65176820  0.52179760  1
  Ni  Ni18  1  0.29367343  0.98413512  0.25494470  1
  Ni  Ni19  1  0.68629030  0.70305764  0.25042628  1
  Ni  Ni20  1  0.29251108  0.30660126  0.75744691  1
  Ni  Ni21  1  0.70597976  0.99416740  0.74581575  1
  Ni  Ni22  1  0.95486232  0.31638770  0.58780436  1
  Ni  Ni23  1  0.36661717  0.04866896  0.57969261  1
  Ni  Ni24  1  0.96648933  0.64758620  0.08982260  1
  Ni  Ni25  1  0.62794503  0.65572200  0.92280145  1
  Ni  Ni26  1  0.02344871  0.64676498  0.41567747  1
  Cu  Cu27  1  0.02010218  0.03206807  0.64940096  1
  Cu  Cu28  1  0.99421974  0.97474043  0.15689549  1
  Cu  Cu29  1  0.69189752  0.37050913  0.98348940  1
  Cu  Cu30  1  0.67945138  0.33644373  0.48758175  1
  Cu  Cu31  1  0.32486978  0.66742517  0.31414999  1
  Cu  Cu32  1  0.37268509  0.67345108  0.81087694  1
  C  C33  1  0.01752333  0.30471931  0.24777073  1
  C  C34  1  0.02187839  0.70806312  0.74796966  1
  C  C35  1  0.68796889  0.64542242  0.58024515  1
  C  C36  1  0.68832913  0.03899517  0.08242913  1
  C  C37  1  0.35007283  0.31527302  0.08193304  1
  C  C38  1  0.03293362  0.37859322  0.91426076  1
  C  C39  1  0.35016094  0.97513491  0.91226249  1
  C  C40  1  0.61621222  0.97303519  0.41747649  1
  C  C41  1  0.35292731  0.37727578  0.41423354  1
  C  C42  1  0.22331349  0.01032030  0.31402657  1
  C  C43  1  0.81265125  0.79804344  0.29977439  1
  C  C44  1  0.99770050  0.21444632  0.29996530  1
  C  C45  1  0.22004044  0.21287947  0.81693135  1
  C  C46  1  0.99939418  0.77581765  0.80103743  1
  C  C47  1  0.80874744  0.01092130  0.80117710  1
  C  C48  1  0.79640165  0.96785625  0.68761992  1
  C  C49  1  0.16971032  0.21063674  0.70300913  1
  C  C50  1  0.03475074  0.80896729  0.69813139  1
  C  C51  1  0.76734892  0.81260952  0.18921436  1
  C  C52  1  0.02996971  0.21622913  0.19644935  1
  C  C53  1  0.16516694  0.95659443  0.20062097  1
  C  C54  1  0.88951703  0.35143707  0.64607551  1
  C  C55  1  0.48571535  0.13285496  0.63148121  1
  C  C56  1  0.66026077  0.54961109  0.63190740  1
  C  C57  1  0.87951411  0.54740823  0.14624032  1
  C  C58  1  0.66315079  0.11294514  0.13266977  1
  C  C59  1  0.45806671  0.33770288  0.12916328  1
  C  C60  1  0.42506916  0.29373226  0.02734095  1
  C  C61  1  0.84272811  0.56063278  0.03245561  1
  C  C62  1  0.69732780  0.13068411  0.02926782  1
  C  C63  1  0.45339394  0.16359617  0.51952681  1
  C  C64  1  0.69822298  0.55507739  0.52900225  1
  C  C65  1  0.83151833  0.29104839  0.53356237  1
  C  C66  1  0.54376192  0.65959381  0.98234193  1
  C  C67  1  0.12639952  0.46282619  0.96449727  1
  C  C68  1  0.33090595  0.88345031  0.96471272  1
  C  C69  1  0.54734842  0.87930712  0.47035651  1
  C  C70  1  0.34124879  0.45511352  0.46590090  1
  C  C71  1  0.14720091  0.68003711  0.46610706  1
  C  C72  1  0.11220920  0.62156069  0.35519906  1
  C  C73  1  0.51279473  0.88184241  0.36793407  1
  C  C74  1  0.36369107  0.47565270  0.36267753  1
  C  C75  1  0.11035660  0.47454621  0.86184259  1
  C  C76  1  0.35452681  0.88197355  0.86163244  1
  C  C77  1  0.50082944  0.62564712  0.86838046  1
  C  C78  1  0.00948501  0.81281383  0.41373794  1
  C  C79  1  0.78791904  0.01084314  0.41101145  1
  C  C80  1  0.20536436  0.20924752  0.41230368  1
  C  C81  1  0.02223652  0.21579840  0.91352916  1
  C  C82  1  0.20814351  0.00482690  0.91135712  1
  C  C83  1  0.81189952  0.80966655  0.91936864  1
  C  C84  1  0.95077449  0.13626646  0.58706292  1
  C  C85  1  0.17949292  0.02789874  0.58971605  1
  C  C86  1  0.84201194  0.80610498  0.58237626  1
  C  C87  1  0.96759431  0.82773132  0.08904395  1
  C  C88  1  0.84418160  0.02963862  0.08555553  1
  C  C89  1  0.18410232  0.16740211  0.08992382  1
  C  C90  1  0.69427910  0.16021677  0.74505998  1
  C  C91  1  0.48008675  0.34578456  0.75370731  1
  C  C92  1  0.87955263  0.53815889  0.74416244  1
  C  C93  1  0.67543874  0.52490859  0.24722255  1
  C  C94  1  0.87739357  0.33565505  0.24341413  1
  C  C95  1  0.48042574  0.12977159  0.24624783  1
  C  C96  1  0.62851210  0.47377847  0.92021432  1
  C  C97  1  0.86031810  0.35623101  0.91924254  1
  C  C98  1  0.50514889  0.13932403  0.91329181  1
  C  C99  1  0.61241939  0.13184273  0.41970148  1
  C  C100  1  0.50264424  0.35780189  0.41449966  1
  C  C101  1  0.83852542  0.47630593  0.42460806  1
  C  C102  1  0.33771785  0.46658603  0.07891971  1
  C  C103  1  0.15010603  0.67503776  0.08311629  1
  C  C104  1  0.54769534  0.86584628  0.07982259  1
  C  C105  1  0.35878341  0.87227467  0.57448548  1
  C  C106  1  0.54790191  0.67744759  0.57481556  1
  C  C107  1  0.14291139  0.46431584  0.58543762  1
  C  C108  1  0.28237819  0.80032895  0.25474017  1
  C  C109  1  0.50150300  0.68531019  0.25968961  1
  C  C110  1  0.17242299  0.46987961  0.24897634  1
  C  C111  1  0.28414885  0.48286216  0.75723095  1
  C  C112  1  0.17550014  0.69428341  0.75104531  1
  C  C113  1  0.51930590  0.82485806  0.75038114  1
