# generated using pymatgen
data_Cu4Ni9C16
_symmetry_space_group_name_H-M   'P 1'
_cell_length_a   11.85099400
_cell_length_b   11.85099400
_cell_length_c   11.85099400
_cell_angle_alpha   90.00000000
_cell_angle_beta   90.00000000
_cell_angle_gamma   90.00000000
_symmetry_Int_Tables_number   1
_chemical_formula_structural   Cu4Ni9C16
_chemical_formula_sum   'Cu8 Ni18 C32'
_cell_volume   1664.42540002
_cell_formula_units_Z   2
loop_
 _symmetry_equiv_pos_site_id
 _symmetry_equiv_pos_as_xyz
  1  'x, y, z'
loop_
 _atom_site_type_symbol
 _atom_site_label
 _atom_site_symmetry_multiplicity
 _atom_site_fract_x
 _atom_site_fract_y
 _atom_site_fract_z
 _atom_site_occupancy
  Ni  Ni0  1  0.23950700  0.50000000  0.50000000  1
  Ni  Ni1  1  0.23080600  0.00000000  0.50000000  1
  Ni  Ni2  1  0.76919400  0.50000000  0.00000000  1
  Ni  Ni3  1  0.50000000  0.00000000  0.76919400  1
  Ni  Ni4  1  0.00000000  0.76919400  0.50000000  1
  Ni  Ni5  1  0.50000000  0.00000000  0.23080600  1
  Ni  Ni6  1  0.00000000  0.23080600  0.50000000  1
  Ni  Ni7  1  0.50000000  0.23080600  0.00000000  1
  Ni  Ni8  1  0.50000000  0.76919400  0.00000000  1
  Ni  Ni9  1  0.00000000  0.50000000  0.76919400  1
  Ni  Ni10  1  0.00000000  0.50000000  0.23080600  1
  Ni  Ni11  1  0.76919400  0.00000000  0.50000000  1
  Ni  Ni12  1  0.23080600  0.50000000  0.00000000  1
  Ni  Ni13  1  0.50000000  0.23950700  0.50000000  1
  Ni  Ni14  1  0.50000000  0.76049300  0.50000000  1
  Ni  Ni15  1  0.50000000  0.50000000  0.76049300  1
  Ni  Ni16  1  0.50000000  0.50000000  0.23950700  1
  Ni  Ni17  1  0.76049300  0.50000000  0.50000000  1
  Cu  Cu18  1  0.22948600  0.22948600  0.22948600  1
  Cu  Cu19  1  0.77051400  0.22948600  0.77051400  1
  Cu  Cu20  1  0.77051400  0.77051400  0.22948600  1
  Cu  Cu21  1  0.22948600  0.77051400  0.77051400  1
  Cu  Cu22  1  0.75749300  0.75749300  0.75749300  1
  Cu  Cu23  1  0.24250700  0.75749300  0.24250700  1
  Cu  Cu24  1  0.24250700  0.24250700  0.75749300  1
  Cu  Cu25  1  0.75749300  0.24250700  0.24250700  1
  C  C26  1  0.88150300  0.64916800  0.88150300  1
  C  C27  1  0.88150300  0.88150300  0.64916800  1
  C  C28  1  0.11849700  0.35083200  0.88150300  1
  C  C29  1  0.35083200  0.11849700  0.88150300  1
  C  C30  1  0.11849700  0.64916800  0.11849700  1
  C  C31  1  0.64916800  0.11849700  0.11849700  1
  C  C32  1  0.88150300  0.11849700  0.35083200  1
  C  C33  1  0.11849700  0.88150300  0.35083200  1
  C  C34  1  0.64916800  0.88150300  0.88150300  1
  C  C35  1  0.35083200  0.88150300  0.11849700  1
  C  C36  1  0.88150300  0.35083200  0.11849700  1
  C  C37  1  0.12014000  0.87986000  0.87986000  1
  C  C38  1  0.11849700  0.11849700  0.64916800  1
  C  C39  1  0.63863900  0.63863900  0.13095500  1
  C  C40  1  0.36136100  0.86904500  0.63863900  1
  C  C41  1  0.86904500  0.36136100  0.63863900  1
  C  C42  1  0.36136100  0.13095500  0.36136100  1
  C  C43  1  0.13095500  0.36136100  0.36136100  1
  C  C44  1  0.12014000  0.12014000  0.12014000  1
  C  C45  1  0.87986000  0.12014000  0.87986000  1
  C  C46  1  0.87986000  0.87986000  0.12014000  1
  C  C47  1  0.63521700  0.36478300  0.36478300  1
  C  C48  1  0.63521700  0.63521700  0.63521700  1
  C  C49  1  0.36478300  0.63521700  0.36478300  1
  C  C50  1  0.36478300  0.36478300  0.63521700  1
  C  C51  1  0.36136100  0.63863900  0.86904500  1
  C  C52  1  0.36136100  0.36136100  0.13095500  1
  C  C53  1  0.63863900  0.13095500  0.63863900  1
  C  C54  1  0.63863900  0.86904500  0.36136100  1
  C  C55  1  0.86904500  0.63863900  0.36136100  1
  C  C56  1  0.13095500  0.63863900  0.63863900  1
  C  C57  1  0.63863900  0.36136100  0.86904500  1
