# generated using pymatgen
data_Cu4Ni2C3
_symmetry_space_group_name_H-M   'P 1'
_cell_length_a   19.56392400
_cell_length_b   7.97555900
_cell_length_c   7.98012656
_cell_angle_alpha   67.22809304
_cell_angle_beta   90.00000000
_cell_angle_gamma   90.00000000
_symmetry_Int_Tables_number   1
_chemical_formula_structural   Cu4Ni2C3
_chemical_formula_sum   'Cu16 Ni8 C12'
_cell_volume   1148.10811065
_cell_formula_units_Z   4
loop_
 _symmetry_equiv_pos_site_id
 _symmetry_equiv_pos_as_xyz
  1  'x, y, z'
loop_
 _atom_site_type_symbol
 _atom_site_label
 _atom_site_symmetry_multiplicity
 _atom_site_fract_x
 _atom_site_fract_y
 _atom_site_fract_z
 _atom_site_occupancy
  C  C0  1  0.68843800  0.29664100  0.06615900  1
  C  C1  1  0.18843800  0.70335900  0.43384100  1
  C  C2  1  0.31156200  0.70335900  0.93384100  1
  C  C3  1  0.81156200  0.29664100  0.56615900  1
  C  C4  1  0.06326900  0.23144400  0.45686400  1
  C  C5  1  0.56326900  0.76855600  0.04313600  1
  C  C6  1  0.93673100  0.76855600  0.54313600  1
  C  C7  1  0.43673100  0.23144400  0.95686400  1
  C  C8  1  0.30532000  0.18300800  0.44962300  1
  C  C9  1  0.80532000  0.81699200  0.05037700  1
  C  C10  1  0.69468000  0.81699200  0.55037700  1
  C  C11  1  0.19468000  0.18300800  0.94962300  1
  Ni  Ni12  1  0.62112700  0.35316700  0.58550000  1
  Ni  Ni13  1  0.12112700  0.64683300  0.91450000  1
  Ni  Ni14  1  0.37887300  0.64683300  0.41450000  1
  Ni  Ni15  1  0.87887300  0.35316700  0.08550000  1
  Ni  Ni16  1  0.00575500  0.77329000  0.05471400  1
  Ni  Ni17  1  0.49424500  0.77329000  0.55471400  1
  Ni  Ni18  1  0.99424500  0.22671000  0.94528600  1
  Ni  Ni19  1  0.50575500  0.22671000  0.44528600  1
  Cu  Cu20  1  0.68994400  0.55748800  0.31479200  1
  Cu  Cu21  1  0.18994400  0.44251200  0.18520800  1
  Cu  Cu22  1  0.31005600  0.44251200  0.68520800  1
  Cu  Cu23  1  0.81005600  0.55748800  0.81479200  1
  Cu  Cu24  1  0.92868900  0.52868500  0.27930700  1
  Cu  Cu25  1  0.42868900  0.47131500  0.22069300  1
  Cu  Cu26  1  0.07131100  0.47131500  0.72069300  1
  Cu  Cu27  1  0.57131100  0.52868500  0.77930700  1
  Cu  Cu28  1  0.81919300  0.06920400  0.29890300  1
  Cu  Cu29  1  0.31919300  0.93079600  0.20109700  1
  Cu  Cu30  1  0.18080700  0.93079600  0.70109700  1
  Cu  Cu31  1  0.68080700  0.06920400  0.79890300  1
  Cu  Cu32  1  0.05661800  0.97468100  0.21102300  1
  Cu  Cu33  1  0.44338200  0.97468100  0.71102300  1
  Cu  Cu34  1  0.94338200  0.02531900  0.78897700  1
  Cu  Cu35  1  0.55661800  0.02531900  0.28897700  1
