# generated using pymatgen
data_Cu2NiC8
_symmetry_space_group_name_H-M   'P 1'
_cell_length_a   5.70330000
_cell_length_b   5.70329891
_cell_length_c   5.57419900
_cell_angle_alpha   90.00000000
_cell_angle_beta   90.00000000
_cell_angle_gamma   119.99999474
_symmetry_Int_Tables_number   1
_chemical_formula_structural   Cu2NiC8
_chemical_formula_sum   'Cu2 Ni1 C8'
_cell_volume   157.02379655
_cell_formula_units_Z   1
loop_
 _symmetry_equiv_pos_site_id
 _symmetry_equiv_pos_as_xyz
  1  'x, y, z'
loop_
 _atom_site_type_symbol
 _atom_site_label
 _atom_site_symmetry_multiplicity
 _atom_site_fract_x
 _atom_site_fract_y
 _atom_site_fract_z
 _atom_site_occupancy
  C  C0  1  0.66666700  0.33333400  0.84253900  1
  C  C1  1  0.33333300  0.66666600  0.32288500  1
  Ni  Ni2  1  0.66666700  0.33333300  0.34595900  1
  Cu  Cu3  1  0.00000000  0.00000000  0.47017800  1
  Cu  Cu4  1  0.00000000  0.00000000  0.96314200  1
  C  C5  1  0.84532500  0.15467500  0.22768500  1
  C  C6  1  0.70279400  0.85139800  0.68500700  1
  C  C7  1  0.14860300  0.29720600  0.68500700  1
  C  C8  1  0.84532400  0.69064900  0.22768500  1
  C  C9  1  0.14860300  0.85139800  0.68500700  1
  C  C10  1  0.30934900  0.15467500  0.22768500  1
