# generated using pymatgen
data_Cu2Ni2C35
_symmetry_space_group_name_H-M   'P 1'
_cell_length_a   19.07272828
_cell_length_b   9.55187751
_cell_length_c   24.27955456
_cell_angle_alpha   89.85292892
_cell_angle_beta   89.59817267
_cell_angle_gamma   120.29016768
_symmetry_Int_Tables_number   1
_chemical_formula_structural   Cu2Ni2C35
_chemical_formula_sum   'Cu12 Ni12 C210'
_cell_volume   3819.21489949
_cell_formula_units_Z   6
loop_
 _symmetry_equiv_pos_site_id
 _symmetry_equiv_pos_as_xyz
  1  'x, y, z'
loop_
 _atom_site_type_symbol
 _atom_site_label
 _atom_site_symmetry_multiplicity
 _atom_site_fract_x
 _atom_site_fract_y
 _atom_site_fract_z
 _atom_site_occupancy
  C  C0  1  0.19729516  0.37113806  0.23935897  1
  C  C1  1  0.69708569  0.37581179  0.23924855  1
  C  C2  1  0.98562581  0.64256458  0.25621764  1
  C  C3  1  0.48794687  0.63535266  0.26464953  1
  C  C4  1  0.32676449  0.66561653  0.74319388  1
  C  C5  1  0.82359084  0.66059608  0.74227447  1
  C  C6  1  0.98600326  0.33170319  0.75337746  1
  C  C7  1  0.19419492  0.00954904  0.73479331  1
  C  C8  1  0.69759340  0.01278757  0.73657164  1
  C  C9  1  0.52815983  0.70881640  0.56769996  1
  C  C10  1  0.32265744  0.97185954  0.59200886  1
  C  C11  1  0.82150150  0.96420337  0.59120754  1
  C  C12  1  0.15420384  0.99126711  0.07837249  1
  C  C13  1  0.65434716  0.99048545  0.07787087  1
  C  C14  1  0.32391453  0.67187944  0.09488439  1
  C  C15  1  0.82360212  0.67264673  0.09596574  1
  C  C16  1  0.65337652  0.00097681  0.42725953  1
  C  C17  1  0.36255218  0.67964741  0.40586802  1
  C  C18  1  0.02487920  0.00245603  0.49750267  1
  C  C19  1  0.51551530  0.00516405  0.49308599  1
  C  C20  1  0.01430805  0.04197243  0.99659424  1
  C  C21  1  0.51473293  0.04282966  0.99535843  1
  C  C22  1  0.34799066  0.30584612  0.82559195  1
  C  C23  1  0.83312100  0.30349711  0.82949653  1
  C  C24  1  0.34672162  0.35382866  0.33258406  1
  C  C25  1  0.84069619  0.36077498  0.32663344  1
  C  C26  1  0.17648153  0.64364913  0.16106390  1
  C  C27  1  0.67834282  0.64566900  0.16457133  1
  C  C28  1  0.17047795  0.69325044  0.65384760  1
  C  C29  1  0.66971564  0.67815956  0.65478536  1
  Ni  Ni30  1  0.99204180  0.98722074  0.34895661  1
  Ni  Ni31  1  0.49558714  0.99420729  0.34758618  1
  Ni  Ni32  1  0.99596523  0.00268575  0.85028499  1
  Ni  Ni33  1  0.49465539  0.00559140  0.84945541  1
  Ni  Ni34  1  0.33175797  0.31815808  0.68119717  1
  Ni  Ni35  1  0.82997951  0.32337932  0.67738181  1
  Ni  Ni36  1  0.33345938  0.33515836  0.18131059  1
  Ni  Ni37  1  0.83276865  0.33462027  0.18064280  1
  Ni  Ni38  1  0.16282085  0.64817526  0.01564677  1
  Ni  Ni39  1  0.66301338  0.64860236  0.01611120  1
  Ni  Ni40  1  0.16060539  0.66842037  0.51643164  1
  Ni  Ni41  1  0.66384654  0.66327085  0.51147832  1
  Cu  Cu42  1  0.00583894  0.00155887  0.64825870  1
  Cu  Cu43  1  0.50406275  0.01372841  0.65169605  1
  Cu  Cu44  1  0.99352022  0.00560319  0.15395744  1
  Cu  Cu45  1  0.49490955  0.00636108  0.15273687  1
  Cu  Cu46  1  0.32969641  0.33374792  0.98338206  1
  Cu  Cu47  1  0.82963378  0.33463320  0.98302176  1
  Cu  Cu48  1  0.32814995  0.32527847  0.48283684  1
  Cu  Cu49  1  0.82984090  0.33413027  0.48751608  1
  Cu  Cu50  1  0.17568407  0.67759135  0.31621667  1
  Cu  Cu51  1  0.67099629  0.67251596  0.32109836  1
  Cu  Cu52  1  0.17382596  0.67979397  0.82228326  1
  Cu  Cu53  1  0.66705909  0.67002551  0.81988887  1
  C  C54  1  0.34762312  0.68479971  0.24942935  1
  C  C55  1  0.84758206  0.68733120  0.24687934  1
  C  C56  1  0.34772878  0.00053421  0.74845517  1
  C  C57  1  0.85082789  0.00416814  0.74742318  1
  C  C58  1  0.18133206  0.01933132  0.58690413  1
  C  C59  1  0.67874244  0.01600482  0.58478680  1
  C  C60  1  0.18127326  0.33301837  0.08812344  1
  C  C61  1  0.68161296  0.33369809  0.08767317  1
  C  C62  1  0.51389424  0.67366565  0.41625062  1
  C  C63  1  0.14838238  0.00315992  0.24926901  1
  C  C64  1  0.65040790  0.00361792  0.24999241  1
  C  C65  1  0.99908706  0.30776832  0.25367665  1
  C  C66  1  0.49970168  0.30819460  0.25269320  1
  C  C67  1  0.15229772  0.30201493  0.75279640  1
  C  C68  1  0.65700606  0.30430086  0.75281012  1
  C  C69  1  0.99729911  0.69443955  0.75356555  1
  C  C70  1  0.49741616  0.70118314  0.75120640  1
  C  C71  1  0.48440388  0.34085274  0.58336228  1
  C  C72  1  0.98489838  0.33720491  0.58605958  1
  C  C73  1  0.33235889  0.63707603  0.58583802  1
  C  C74  1  0.82963414  0.63899065  0.58704740  1
  C  C75  1  0.48689092  0.63771277  0.08484622  1
  C  C76  1  0.98715863  0.63812199  0.08490515  1
  C  C77  1  0.32717329  0.02423093  0.08278450  1
  C  C78  1  0.82770490  0.02540707  0.08251560  1
  C  C79  1  0.32260317  0.67483169  0.91836113  1
  C  C80  1  0.82052924  0.67375340  0.91712961  1
  C  C81  1  0.01519428  0.35863992  0.91489602  1
  C  C82  1  0.51523012  0.35765438  0.91793138  1
  C  C83  1  0.16163971  0.96912373  0.91909312  1
  C  C84  1  0.66228801  0.96798579  0.91822217  1
  C  C85  1  0.32016143  0.96341663  0.42022543  1
  C  C86  1  0.82158464  0.97459386  0.42072281  1
  C  C87  1  0.16246647  0.36484056  0.41657544  1
  C  C88  1  0.66506945  0.35506008  0.41593277  1
  C  C89  1  0.01615281  0.67182494  0.41463498  1
  C  C90  1  0.10566913  0.02528733  0.29634055  1
  C  C91  1  0.60915582  0.02336024  0.29879878  1
  C  C92  1  0.39990408  0.78251588  0.30339514  1
  C  C93  1  0.91140177  0.79555556  0.29450632  1
  C  C94  1  0.49398185  0.21108159  0.30106524  1
  C  C95  1  0.99359020  0.20931654  0.30160139  1
  C  C96  1  0.11320357  0.19595384  0.80075069  1
  C  C97  1  0.61387043  0.20168236  0.80059817  1
  C  C98  1  0.49195659  0.79111085  0.79848967  1
  C  C99  1  0.99083385  0.77971329  0.80174327  1
  C  C100  1  0.40122820  0.99816008  0.79916323  1
  C  C101  1  0.91255948  0.02816369  0.79690817  1
  C  C102  1  0.38491221  0.97504300  0.68918305  1
  C  C103  1  0.88585555  0.97002386  0.68927900  1
  C  C104  1  0.10309975  0.22814013  0.70258865  1
  C  C105  1  0.61102102  0.23378011  0.70151575  1
  C  C106  1  0.01342247  0.79519334  0.70301305  1
  C  C107  1  0.51052044  0.79629449  0.69911911  1
  C  C108  1  0.38865935  0.78427734  0.19096050  1
  C  C109  1  0.88409320  0.77633414  0.18571330  1
  C  C110  1  0.01279666  0.23837381  0.20238665  1
  C  C111  1  0.51022007  0.23360912  0.20166370  1
  C  C112  1  0.10245591  0.98276066  0.19720688  1
  C  C113  1  0.60228131  0.98680563  0.19941440  1
  C  C114  1  0.44472934  0.35980058  0.63281107  1
  C  C115  1  0.94844421  0.35382729  0.63813848  1
  C  C116  1  0.22766058  0.10110160  0.64508117  1
  C  C117  1  0.73011415  0.10712834  0.64019736  1
  C  C118  1  0.32748783  0.54655347  0.63670982  1
  C  C119  1  0.82816623  0.55572795  0.63920574  1
  C  C120  1  0.45057275  0.54362417  0.13585825  1
  C  C121  1  0.95119205  0.54486990  0.13621296  1
  C  C122  1  0.32517903  0.11014188  0.13249768  1
  C  C123  1  0.82571837  0.11091481  0.13237920  1
  C  C124  1  0.23090148  0.35069020  0.14498429  1
  C  C125  1  0.73088431  0.35024691  0.14451258  1
  C  C126  1  0.23198937  0.30863719  0.03636712  1
  C  C127  1  0.73213424  0.30860137  0.03582644  1
  C  C128  1  0.43610551  0.55019334  0.03676220  1
  C  C129  1  0.93612842  0.54933294  0.03703466  1
  C  C130  1  0.33880220  0.12256263  0.03276960  1
  C  C131  1  0.83911663  0.12424243  0.03260711  1
  C  C132  1  0.23423426  0.13710329  0.53467279  1
  C  C133  1  0.72560468  0.12401479  0.52845472  1
  C  C134  1  0.34193027  0.55634306  0.53636694  1
  C  C135  1  0.83701551  0.55129198  0.53915987  1
  C  C136  1  0.43616227  0.32405725  0.53371008  1
  C  C137  1  0.93299744  0.32639057  0.53877060  1
  C  C138  1  0.27596164  0.68056837  0.96638471  1
  C  C139  1  0.77539733  0.67907180  0.96598777  1
  C  C140  1  0.06543486  0.45664869  0.96106540  1
  C  C141  1  0.56206751  0.44833655  0.96627422  1
  C  C142  1  0.15881139  0.87356672  0.96808788  1
  C  C143  1  0.65993836  0.87516206  0.96788642  1
  C  C144  1  0.27719366  0.86761132  0.46984121  1
  C  C145  1  0.78147464  0.87877187  0.47109920  1
  C  C146  1  0.15761955  0.45518572  0.46401090  1
  C  C147  1  0.66376154  0.44727921  0.46359966  1
  C  C148  1  0.06558223  0.67573127  0.46147672  1
  C  C149  1  0.56794363  0.68805855  0.47061610  1
  C  C150  1  0.05361580  0.66062879  0.36131990  1
  C  C151  1  0.55932605  0.66282260  0.35877243  1
  C  C152  1  0.27121238  0.88144962  0.37037930  1
  C  C153  1  0.77041626  0.89133690  0.37183765  1
  C  C154  1  0.16924836  0.45556373  0.36412394  1
  C  C155  1  0.67248039  0.44260626  0.36347902  1
  C  C156  1  0.05213577  0.44260246  0.86105101  1
  C  C157  1  0.55572367  0.44932078  0.86635308  1
  C  C158  1  0.16640058  0.88720498  0.86752383  1
  C  C159  1  0.66716154  0.88420722  0.86727386  1
  C  C160  1  0.27637674  0.65784944  0.86646321  1
  C  C161  1  0.77417326  0.66006801  0.86574018  1
  C  C162  1  0.00992551  0.82083989  0.41484555  1
  C  C163  1  0.50960413  0.84327734  0.41540216  1
  C  C164  1  0.39935541  0.96966722  0.41578668  1
  C  C165  1  0.90337809  0.99796742  0.41460707  1
  C  C166  1  0.09205899  0.19867115  0.41457738  1
  C  C167  1  0.59150110  0.19008895  0.41557460  1
  C  C168  1  0.00898739  0.19746088  0.91639615  1
  C  C169  1  0.50896732  0.19640275  0.91727027  1
  C  C170  1  0.08883336  0.98614243  0.91735103  1
  C  C171  1  0.58965119  0.98540833  0.91617788  1
  C  C172  1  0.40332552  0.82179687  0.91610477  1
  C  C173  1  0.90183538  0.82054005  0.91479756  1
  C  C174  1  0.48859354  0.18859473  0.58675625  1
  C  C175  1  0.98466798  0.18010929  0.58628340  1
  C  C176  1  0.08877289  0.99507536  0.58407296  1
  C  C177  1  0.58444699  0.98444797  0.58472182  1
  C  C178  1  0.40710614  0.80363454  0.58677493  1
  C  C179  1  0.90102703  0.80759936  0.58496400  1
  C  C180  1  0.48994012  0.79862983  0.08685846  1
  C  C181  1  0.99075114  0.79931863  0.08656277  1
  C  C182  1  0.39464665  0.98676909  0.08425797  1
  C  C183  1  0.89552973  0.98904971  0.08382228  1
  C  C184  1  0.09155641  0.16082488  0.08652999  1
  C  C185  1  0.59218120  0.16116003  0.08585045  1
  C  C186  1  0.33183390  0.15393198  0.74950741  1
  C  C187  1  0.84066294  0.16683973  0.74611889  1
  C  C188  1  0.23632703  0.33231881  0.74592847  1
  C  C189  1  0.73927292  0.32096521  0.74841210  1
  C  C190  1  0.42093290  0.54214877  0.74723304  1
  C  C191  1  0.92070445  0.53483792  0.74773243  1
  C  C192  1  0.34260295  0.50656351  0.24995905  1
  C  C193  1  0.84168821  0.50740943  0.24865132  1
  C  C194  1  0.42750824  0.32818420  0.24875887  1
  C  C195  1  0.92646505  0.32564146  0.24900462  1
  C  C196  1  0.23133910  0.14445290  0.24522375  1
  C  C197  1  0.73263819  0.14830464  0.24559193  1
  C  C198  1  0.33085245  0.52769565  0.92053450  1
  C  C199  1  0.82873495  0.52596779  0.91845561  1
  C  C200  1  0.43244252  0.33820785  0.91885129  1
  C  C201  1  0.93264757  0.34002893  0.91770747  1
  C  C202  1  0.23721966  0.13191015  0.91862256  1
  C  C203  1  0.73819332  0.13166048  0.91709185  1
  C  C204  1  0.33159293  0.12842382  0.42054904  1
  C  C205  1  0.82472199  0.13500912  0.42260999  1
  C  C206  1  0.24052693  0.36176631  0.41829503  1
  C  C207  1  0.73751929  0.33059638  0.41755627  1
  C  C208  1  0.41914878  0.51814381  0.41678153  1
  C  C209  1  0.93299730  0.52415483  0.41787499  1
  C  C210  1  0.18052395  0.50374838  0.08050669  1
  C  C211  1  0.68085053  0.50420625  0.08051390  1
  C  C212  1  0.07195248  0.67192316  0.07798967  1
  C  C213  1  0.57181475  0.67298215  0.07796961  1
  C  C214  1  0.24853022  0.86611590  0.07962411  1
  C  C215  1  0.74917017  0.86736562  0.07935045  1
  C  C216  1  0.18098998  0.84715969  0.58151764  1
  C  C217  1  0.67412972  0.83840852  0.58188895  1
  C  C218  1  0.26016388  0.65721231  0.58138738  1
  C  C219  1  0.75482422  0.65054836  0.58316269  1
  C  C220  1  0.06795311  0.47506875  0.57981336  1
  C  C221  1  0.56702201  0.48470413  0.57867554  1
  C  C222  1  0.15058704  0.84905108  0.25522753  1
  C  C223  1  0.65443899  0.85203519  0.25385389  1
  C  C224  1  0.25191840  0.64999007  0.25005185  1
  C  C225  1  0.75319496  0.65455450  0.25211636  1
  C  C226  1  0.07194670  0.47634160  0.25686941  1
  C  C227  1  0.57398757  0.47439392  0.25449652  1
  C  C228  1  0.15681349  0.46319067  0.75895758  1
  C  C229  1  0.67031106  0.47263065  0.75725085  1
  C  C230  1  0.06696092  0.66336317  0.75826525  1
  C  C231  1  0.56995056  0.68022430  0.75579519  1
  C  C232  1  0.25362518  0.82891506  0.75157767  1
  C  C233  1  0.75719238  0.83999342  0.75492818  1
