# generated using pymatgen
data_Cu2NiC10
_symmetry_space_group_name_H-M   'P 1'
_cell_length_a   3.93181555
_cell_length_b   3.93526975
_cell_length_c   12.44070174
_cell_angle_alpha   108.09749160
_cell_angle_beta   90.36248263
_cell_angle_gamma   90.04722740
_symmetry_Int_Tables_number   1
_chemical_formula_structural   Cu2NiC10
_chemical_formula_sum   'Cu2 Ni1 C10'
_cell_volume   182.96477375
_cell_formula_units_Z   1
loop_
 _symmetry_equiv_pos_site_id
 _symmetry_equiv_pos_as_xyz
  1  'x, y, z'
loop_
 _atom_site_type_symbol
 _atom_site_label
 _atom_site_symmetry_multiplicity
 _atom_site_fract_x
 _atom_site_fract_y
 _atom_site_fract_z
 _atom_site_occupancy
  C  C0  1  0.20437280  0.38689959  0.59204085  1
  C  C1  1  0.70940861  0.36096109  0.06990016  1
  C  C2  1  0.71467130  0.65699187  0.37041050  1
  Ni  Ni3  1  0.19520727  0.67425649  0.87001939  1
  Cu  Cu4  1  0.21230177  0.00740441  0.21885797  1
  Cu  Cu5  1  0.69535202  0.06359616  0.75982942  1
  C  C6  1  0.69561073  0.58143873  0.78616944  1
  C  C7  1  0.73547451  0.85964099  0.58981666  1
  C  C8  1  0.20774085  0.82853237  0.03547194  1
  C  C9  1  0.71202262  0.00590073  0.21668236  1
  C  C10  1  0.21160166  0.50566141  0.21671668  1
  C  C11  1  0.20573674  0.09164165  0.78763554  1
  C  C12  1  0.21716613  0.17707452  0.39269910  1
