# generated using pymatgen
data_Cu5(NiC)7
_symmetry_space_group_name_H-M   'P 1'
_cell_length_a   8.43729396
_cell_length_b   5.84681957
_cell_length_c   6.03223904
_cell_angle_alpha   64.49888138
_cell_angle_beta   62.28256974
_cell_angle_gamma   64.34936302
_symmetry_Int_Tables_number   1
_chemical_formula_structural   Cu5(NiC)7
_chemical_formula_sum   'Cu5 Ni7 C7'
_cell_volume   227.46617875
_cell_formula_units_Z   1
loop_
 _symmetry_equiv_pos_site_id
 _symmetry_equiv_pos_as_xyz
  1  'x, y, z'
loop_
 _atom_site_type_symbol
 _atom_site_label
 _atom_site_symmetry_multiplicity
 _atom_site_fract_x
 _atom_site_fract_y
 _atom_site_fract_z
 _atom_site_occupancy
  C  C0  1  0.66983757  0.34766207  0.82758548  1
  C  C1  1  0.89591577  0.68699677  0.72214292  1
  C  C2  1  0.67880856  0.31821645  0.33125047  1
  C  C3  1  0.32130764  0.66115138  0.65931825  1
  C  C4  1  0.13790739  0.30658082  0.30550648  1
  C  C5  1  0.47823035  0.96844306  0.98611225  1
  C  C6  1  0.01663881  0.01700988  0.98161481  1
  Ni  Ni7  1  0.69119308  0.06829885  0.67524737  1
  Ni  Ni8  1  0.36155381  0.35187093  0.97108455  1
  Ni  Ni9  1  0.94702906  0.25373024  0.17953314  1
  Ni  Ni10  1  0.06241580  0.75657982  0.82620010  1
  Ni  Ni11  1  0.29812339  0.94386101  0.34396462  1
  Ni  Ni12  1  0.64476430  0.60063617  0.00648187  1
  Ni  Ni13  1  0.96600638  0.30729481  0.67359668  1
  Cu  Cu14  1  0.30973529  0.92343293  0.84814853  1
  Cu  Cu15  1  0.59986693  0.61258811  0.52782492  1
  Cu  Cu16  1  0.71313140  0.05587633  0.13371846  1
  Cu  Cu17  1  0.40765622  0.38272927  0.46286472  1
  Cu  Cu18  1  0.04094924  0.69894410  0.29971237  1
