# generated using pymatgen
data_Cu2Ni2C35
_symmetry_space_group_name_H-M   'P 1'
_cell_length_a   18.10525308
_cell_length_b   9.07076197
_cell_length_c   22.88670590
_cell_angle_alpha   90.05470969
_cell_angle_beta   89.96535181
_cell_angle_gamma   119.99566089
_symmetry_Int_Tables_number   1
_chemical_formula_structural   Cu2Ni2C35
_chemical_formula_sum   'Cu12 Ni12 C210'
_cell_volume   3255.22547475
_cell_formula_units_Z   6
loop_
 _symmetry_equiv_pos_site_id
 _symmetry_equiv_pos_as_xyz
  1  'x, y, z'
loop_
 _atom_site_type_symbol
 _atom_site_label
 _atom_site_symmetry_multiplicity
 _atom_site_fract_x
 _atom_site_fract_y
 _atom_site_fract_z
 _atom_site_occupancy
  C  C0  1  0.32115389  0.00011898  0.24980498  1
  C  C1  1  0.82101849  0.99987051  0.25019501  1
  C  C2  1  0.81894628  0.63670558  0.74957210  1
  C  C3  1  0.49829092  0.36323684  0.74942733  1
  C  C4  1  0.01664181  0.70077412  0.58390286  1
  C  C5  1  0.33320632  0.96864592  0.58475047  1
  C  C6  1  0.83285195  0.96534371  0.58327844  1
  C  C7  1  0.33250817  0.69707158  0.08473570  1
  C  C8  1  0.83273844  0.69736777  0.08526582  1
  C  C9  1  0.01678679  0.33371473  0.08461086  1
  C  C10  1  0.51467057  0.33116510  0.08469190  1
  C  C11  1  0.98507106  0.66471505  0.91497369  1
  C  C12  1  0.34946376  0.03283914  0.91612011  1
  C  C13  1  0.85118126  0.03431180  0.91622576  1
  C  C14  1  0.48383542  0.30300276  0.41513770  1
  C  C15  1  0.98412810  0.30324392  0.41475579  1
  C  C16  1  0.35001308  0.66725401  0.41528107  1
  C  C17  1  0.84955078  0.66770078  0.41528114  1
  C  C18  1  0.00680856  0.00689216  0.49934025  1
  C  C19  1  0.50650967  0.00093959  0.50057342  1
  C  C20  1  0.00771389  0.00767626  0.00047026  1
  C  C21  1  0.50529892  0.99854641  0.99955320  1
  C  C22  1  0.33186426  0.33914197  0.83361257  1
  C  C23  1  0.83207493  0.32846705  0.83194978  1
  C  C24  1  0.33444725  0.34033208  0.33142222  1
  C  C25  1  0.83435268  0.34036703  0.33110331  1
  C  C26  1  0.16436680  0.66020659  0.16831482  1
  C  C27  1  0.66397246  0.65969159  0.16914216  1
  C  C28  1  0.16751930  0.66689484  0.66982771  1
  C  C29  1  0.66374869  0.66719624  0.66494801  1
  Ni  Ni30  1  0.99641958  0.99634143  0.35396280  1
  Ni  Ni31  1  0.49652243  0.99686767  0.35395306  1
  Ni  Ni32  1  0.99837517  0.99824408  0.85393329  1
  Ni  Ni33  1  0.99914633  0.99485551  0.64605433  1
  Ni  Ni34  1  0.99845167  0.00317224  0.14603610  1
  Ni  Ni35  1  0.49753575  0.00277361  0.14599422  1
  Ni  Ni36  1  0.33494080  0.33422737  0.68507232  1
  Ni  Ni37  1  0.33861349  0.34621280  0.18527548  1
  Ni  Ni38  1  0.83860814  0.34665724  0.18555384  1
  Ni  Ni39  1  0.16524454  0.65353500  0.31456678  1
  Ni  Ni40  1  0.66533683  0.65346459  0.31466746  1
  Ni  Ni41  1  0.16820269  0.67566494  0.81431062  1
  Cu  Cu42  1  0.50067596  0.99884499  0.85359141  1
  Cu  Cu43  1  0.50058249  0.99781375  0.64631362  1
  Cu  Cu44  1  0.83466748  0.33117616  0.68779061  1
  Cu  Cu45  1  0.33295839  0.33965928  0.97951606  1
  Cu  Cu46  1  0.83062742  0.33218900  0.98035128  1
  Cu  Cu47  1  0.33160485  0.33047762  0.48131957  1
  Cu  Cu48  1  0.83024310  0.32704812  0.48022284  1
  Cu  Cu49  1  0.16747692  0.67021762  0.01897226  1
  Cu  Cu50  1  0.66541926  0.66981891  0.01945695  1
  Cu  Cu51  1  0.16696414  0.66284776  0.51968268  1
  Cu  Cu52  1  0.66271757  0.66230537  0.52035907  1
  Cu  Cu53  1  0.66574681  0.67137024  0.81280090  1
  C  C54  1  0.35259090  0.70387260  0.25012199  1
  C  C55  1  0.85263979  0.70446068  0.24999692  1
  C  C56  1  0.00053914  0.29543266  0.24996153  1
  C  C57  1  0.50056797  0.29571330  0.24995417  1
  C  C58  1  0.64455966  0.28634926  0.74997428  1
  C  C59  1  0.00241654  0.70755141  0.74955881  1
  C  C60  1  0.49832362  0.71080691  0.75037876  1
  C  C61  1  0.35328387  0.99628673  0.74978733  1
  C  C62  1  0.85462827  0.00253664  0.75009755  1
  C  C63  1  0.48007920  0.33496325  0.58365839  1
  C  C64  1  0.97905304  0.33392931  0.58307255  1
  C  C65  1  0.18761395  0.04390404  0.58360927  1
  C  C66  1  0.68726301  0.04411659  0.58416666  1
  C  C67  1  0.33342333  0.62186421  0.58373427  1
  C  C68  1  0.83037241  0.61795086  0.58353466  1
  C  C69  1  0.48024945  0.62739475  0.08241672  1
  C  C70  1  0.98080554  0.62735443  0.08183813  1
  C  C71  1  0.33029186  0.04402912  0.08352929  1
  C  C72  1  0.83033188  0.04261662  0.08419286  1
  C  C73  1  0.18789941  0.33054657  0.08311648  1
  C  C74  1  0.68717343  0.33077853  0.08352574  1
  C  C75  1  0.31134888  0.66398214  0.91557546  1
  C  C76  1  0.80914037  0.66168194  0.91619901  1
  C  C77  1  0.02284933  0.37620355  0.91685479  1
  C  C78  1  0.52224081  0.37755320  0.91646349  1
  C  C79  1  0.16747818  0.96148503  0.91715950  1
  C  C80  1  0.66475022  0.95656651  0.91664354  1
  C  C81  1  0.30907048  0.95825142  0.41564117  1
  C  C82  1  0.80840250  0.95532397  0.41635050  1
  C  C83  1  0.16703403  0.37176613  0.41740112  1
  C  C84  1  0.66664712  0.37333611  0.41788537  1
  C  C85  1  0.02253837  0.66940048  0.41754455  1
  C  C86  1  0.52219912  0.66952250  0.41670406  1
  C  C87  1  0.14521455  0.00003506  0.25006420  1
  C  C88  1  0.64532872  -0.00001493  0.24994468  1
  C  C89  1  0.14505985  0.28904355  0.74995414  1
  C  C90  1  0.10467036  0.02492446  0.30266265  1
  C  C91  1  0.60484626  0.02506904  0.30267418  1
  C  C92  1  0.41172854  0.79513828  0.30824264  1
  C  C93  1  0.91167922  0.79503240  0.30816900  1
  C  C94  1  0.48561457  0.17387000  0.30747420  1
  C  C95  1  0.98551926  0.17377820  0.30750672  1
  C  C96  1  0.10438277  0.18320545  0.80247066  1
  C  C97  1  0.59739323  0.16683332  0.80702099  1
  C  C98  1  0.48755793  0.80916033  0.80713300  1
  C  C99  1  0.98236582  0.79281441  0.80675500  1
  C  C100  1  0.41681084  0.03028515  0.80708325  1
  C  C101  1  0.91143493  0.03094556  0.80864524  1
  C  C102  1  0.40329964  0.97640167  0.69191645  1
  C  C103  1  0.89598120  0.96516055  0.69248286  1
  C  C104  1  0.09187126  0.20834862  0.69744501  1
  C  C105  1  0.58129260  0.19700369  0.69382242  1
  C  C106  1  0.01347157  0.82345859  0.69181998  1
  C  C107  1  0.51460444  0.83451409  0.69348807  1
  C  C108  1  0.39852309  0.82588623  0.19262846  1
  C  C109  1  0.89858389  0.82608895  0.19242456  1
  C  C110  1  0.01395519  0.20435765  0.19178316  1
  C  C111  1  0.51431822  0.20494324  0.19180841  1
  C  C112  1  0.09219217  0.97483458  0.19738985  1
  C  C113  1  0.59231989  0.97507966  0.19728620  1
  C  C114  1  0.43783923  0.36559880  0.64170066  1
  C  C115  1  0.93143948  0.36769082  0.63876957  1
  C  C116  1  0.25038491  0.12772127  0.63902688  1
  C  C117  1  0.75227110  0.13842494  0.63923364  1
  C  C118  1  0.31658670  0.50258254  0.63993350  1
  C  C119  1  0.81863986  0.50236170  0.64139496  1
  C  C120  1  0.43926731  0.50163125  0.13830698  1
  C  C121  1  0.93783747  0.50059866  0.13731215  1
  C  C122  1  0.31597777  0.12522789  0.14245745  1
  C  C123  1  0.81561204  0.12511508  0.14234958  1
  C  C124  1  0.25067120  0.37278469  0.13856730  1
  C  C125  1  0.75080371  0.37339244  0.13828394  1
  C  C126  1  0.23708117  0.30730530  0.02600370  1
  C  C127  1  0.73689554  0.30769043  0.02602088  1
  C  C128  1  0.41667685  0.53017305  0.02673763  1
  C  C129  1  0.91780795  0.53283562  0.02456006  1
  C  C130  1  0.34921257  0.16640516  0.02586258  1
  C  C131  1  0.84785409  0.16538481  0.02603946  1
  C  C132  1  0.23677824  0.16621465  0.52656460  1
  C  C133  1  0.73598282  0.16649228  0.52708476  1
  C  C134  1  0.34734141  0.53291225  0.52485411  1
  C  C135  1  0.84900492  0.53098976  0.52635004  1
  C  C136  1  0.41814554  0.30165848  0.52621185  1
  C  C137  1  0.91781788  0.30232868  0.52573090  1
  C  C138  1  0.26782325  0.69946231  0.97421424  1
  C  C139  1  0.76606998  0.69766437  0.97350136  1
  C  C140  1  0.08087701  0.46888054  0.97565740  1
  C  C141  1  0.58216910  0.47001094  0.97405202  1
  C  C142  1  0.15113629  0.83175472  0.97305045  1
  C  C143  1  0.65318434  0.83422603  0.97300952  1
  C  C144  1  0.26522388  0.83452399  0.47351164  1
  C  C145  1  0.76600308  0.83422689  0.47433369  1
  C  C146  1  0.15133119  0.47022362  0.47335271  1
  C  C147  1  0.65174391  0.47186728  0.47355115  1
  C  C148  1  0.08107502  0.69182043  0.47604680  1
  C  C149  1  0.58320616  0.69301034  0.47402946  1
  C  C150  1  0.06460831  0.62726002  0.36223873  1
  C  C151  1  0.56445508  0.62731466  0.36162410  1
  C  C152  1  0.25319169  0.87502141  0.35746859  1
  C  C153  1  0.75337615  0.87531556  0.35752173  1
  C  C154  1  0.18785422  0.49861080  0.36201493  1
  C  C155  1  0.68834943  0.49869452  0.36188866  1
  C  C156  1  0.06431395  0.50195967  0.86156923  1
  C  C157  1  0.56887722  0.49829857  0.85888059  1
  C  C158  1  0.18707726  0.87500710  0.86153756  1
  C  C159  1  0.68313886  0.86320068  0.86091977  1
  C  C160  1  0.25137256  0.63263725  0.85973876  1
  C  C161  1  0.75111942  0.63812709  0.85819614  1
  C  C162  1  0.00789955  0.83166851  0.41281863  1
  C  C163  1  0.50811708  0.83225615  0.41256237  1
  C  C164  1  0.40442534  0.97589489  0.41230939  1
  C  C165  1  0.90462880  0.97655325  0.41223112  1
  C  C166  1  0.08036037  0.19028999  0.41164919  1
  C  C167  1  0.58061953  0.19073002  0.41155966  1
  C  C168  1  0.00743027  0.18354030  0.91214627  1
  C  C169  1  0.50947091  0.18622082  0.90944131  1
  C  C170  1  0.08021850  0.96955076  0.91100971  1
  C  C171  1  0.58128401  0.97586906  0.90988417  1
  C  C172  1  0.40440980  0.84107335  0.90982835  1
  C  C173  1  0.90386292  0.83286657  0.91069649  1
  C  C174  1  0.48445960  0.15911736  0.58949692  1
  C  C175  1  0.98417409  0.16172411  0.59019749  1
  C  C176  1  0.09204981  0.01642444  0.58763153  1
  C  C177  1  0.59382530  0.02550917  0.59096317  1
  C  C178  1  0.41590407  0.81613060  0.58978159  1
  C  C179  1  0.91682500  0.80773492  0.58901047  1
  C  C180  1  0.48569326  0.81000611  0.08861575  1
  C  C181  1  0.98494938  0.80904553  0.08817524  1
  C  C182  1  0.41623837  0.02336529  0.08792358  1
  C  C183  1  0.91654196  0.02416836  0.08753994  1
  C  C184  1  0.09208686  0.16803381  0.08752156  1
  C  C185  1  0.59192765  0.16792397  0.08724739  1
  C  C186  1  0.35014907  0.17338856  0.74502872  1
  C  C187  1  0.84322585  0.16927181  0.74197961  1
  C  C188  1  0.23013203  0.30567534  0.74430590  1
  C  C189  1  0.74077733  0.31639619  0.74298061  1
  C  C190  1  0.41717498  0.51936752  0.74564447  1
  C  C191  1  0.91216135  0.52239575  0.74175268  1
  C  C192  1  0.34169494  0.51529589  0.24537877  1
  C  C193  1  0.84172067  0.51568696  0.24534918  1
  C  C194  1  0.40980008  0.29539460  0.24522069  1
  C  C195  1  0.90978948  0.29546687  0.24511970  1
  C  C196  1  0.23129685  0.15166400  0.24459433  1
  C  C197  1  0.73143417  0.15179213  0.24451867  1
  C  C198  1  0.32323769  0.49829287  0.92514657  1
  C  C199  1  0.82377990  0.49819513  0.92276212  1
  C  C200  1  0.42647868  0.35155904  0.92355641  1
  C  C201  1  0.92684273  0.35686401  0.92558250  1
  C  C202  1  0.25445192  0.14453008  0.92539877  1
  C  C203  1  0.75369224  0.13929881  0.92388648  1
  C  C204  1  0.32569696  0.15211880  0.42486348  1
  C  C205  1  0.82518732  0.15048134  0.42515188  1
  C  C206  1  0.25472551  0.36403320  0.42539032  1
  C  C207  1  0.75430445  0.36428444  0.42601734  1
  C  C208  1  0.42771582  0.49691806  0.42573201  1
  C  C209  1  0.92729403  0.49659197  0.42618645  1
  C  C210  1  0.17929282  0.50299502  0.07432585  1
  C  C211  1  0.67924688  0.50338691  0.07382700  1
  C  C212  1  0.07277474  0.63616231  0.07466608  1
  C  C213  1  0.57256827  0.63639448  0.07434904  1
  C  C214  1  0.24965162  0.84892636  0.07495109  1
  C  C215  1  0.74971408  0.84869743  0.07470327  1
  C  C216  1  0.17935681  0.85529380  0.57457222  1
  C  C217  1  0.68381663  0.86112885  0.57611027  1
  C  C218  1  0.25093999  0.65146766  0.57439557  1
  C  C219  1  0.74967275  0.64960483  0.57667307  1
  C  C220  1  0.07101419  0.50937257  0.57671378  1
  C  C221  1  0.57415605  0.50377973  0.57541774  1
  C  C222  1  0.15534174  0.84821911  0.25549127  1
  C  C223  1  0.65554475  0.84845674  0.25540592  1
  C  C224  1  0.26201135  0.70449031  0.25493999  1
  C  C225  1  0.76205587  0.70475440  0.25477274  1
  C  C226  1  0.08390287  0.48446021  0.25461503  1
  C  C227  1  0.58407417  0.48457429  0.25463795  1
  C  C228  1  0.15320725  0.45987893  0.75584191  1
  C  C229  1  0.65337556  0.47652167  0.75705520  1
  C  C230  1  0.08418564  0.68175779  0.75468894  1
  C  C231  1  0.58326901  0.68763272  0.75788493  1
  C  C232  1  0.26119957  0.82505663  0.75421019  1
  C  C233  1  0.76096175  0.82603859  0.75792473  1
