# generated using pymatgen
data_Cu19Ni5C7
_symmetry_space_group_name_H-M   'P 1'
_cell_length_a   5.51574842
_cell_length_b   5.27566421
_cell_length_c   15.42975259
_cell_angle_alpha   89.37186143
_cell_angle_beta   100.20705551
_cell_angle_gamma   91.50497910
_symmetry_Int_Tables_number   1
_chemical_formula_structural   Cu19Ni5C7
_chemical_formula_sum   'Cu19 Ni5 C7'
_cell_volume   441.72663474
_cell_formula_units_Z   1
loop_
 _symmetry_equiv_pos_site_id
 _symmetry_equiv_pos_as_xyz
  1  'x, y, z'
loop_
 _atom_site_type_symbol
 _atom_site_label
 _atom_site_symmetry_multiplicity
 _atom_site_fract_x
 _atom_site_fract_y
 _atom_site_fract_z
 _atom_site_occupancy
  C  C0  1  0.52546400  0.52130300  0.23034700  1
  C  C1  1  0.04609800  0.96072400  0.00244900  1
  C  C2  1  0.12742100  0.48878600  0.33933600  1
  C  C3  1  0.27095000  0.03172600  0.66494000  1
  C  C4  1  0.53426900  0.45768600  0.98912500  1
  C  C5  1  0.67991600  0.01493700  0.34239800  1
  C  C6  1  0.77592600  0.48391000  0.66482500  1
  Ni  Ni7  1  0.02878300  0.21393900  0.64451700  1
  Ni  Ni8  1  0.52766300  0.29638700  0.64173000  1
  Ni  Ni9  1  0.71084000  0.22905200  0.97227000  1
  Ni  Ni10  1  0.28117800  0.77684200  0.02493500  1
  Ni  Ni11  1  0.83452800  0.33153600  0.30316200  1
  Cu  Cu12  1  0.21911700  0.26537500  0.97257100  1
  Cu  Cu13  1  0.13638300  0.73129000  0.69446100  1
  Cu  Cu14  1  0.03946200  0.09642300  0.10762900  1
  Cu  Cu15  1  0.22540500  0.41462200  0.45109300  1
  Cu  Cu16  1  0.39905400  0.09335700  0.77639900  1
  Cu  Cu17  1  0.16571600  0.58753200  0.22282600  1
  Cu  Cu18  1  0.30094500  0.92040000  0.55944000  1
  Cu  Cu19  1  0.44833900  0.60563000  0.88474400  1
  Cu  Cu20  1  0.36720100  0.21856500  0.30562400  1
  Cu  Cu21  1  0.48552900  0.68985700  0.35465500  1
  Cu  Cu22  1  0.64284000  0.77558500  0.69105500  1
  Cu  Cu23  1  0.54007400  0.40938400  0.11368900  1
  Cu  Cu24  1  0.70485600  0.09508100  0.45504900  1
  Cu  Cu25  1  0.89005100  0.41004500  0.77650200  1
  Cu  Cu26  1  0.63352700  0.87963500  0.22420900  1
  Cu  Cu27  1  0.81802100  0.58824600  0.55870000  1
  Cu  Cu28  1  0.94513000  0.90975600  0.88852600  1
  Cu  Cu29  1  0.79240800  0.71889400  0.02566300  1
  Cu  Cu30  1  0.98623400  0.80849200  0.36267100  1
