# generated using pymatgen
data_Cu3Ni3C29
_symmetry_space_group_name_H-M   'P 1'
_cell_length_a   9.16796762
_cell_length_b   9.17675425
_cell_length_c   23.96741224
_cell_angle_alpha   90.12992524
_cell_angle_beta   89.95818860
_cell_angle_gamma   119.97659341
_symmetry_Int_Tables_number   1
_chemical_formula_structural   Cu3Ni3C29
_chemical_formula_sum   'Cu9 Ni9 C87'
_cell_volume   1746.68733322
_cell_formula_units_Z   3
loop_
 _symmetry_equiv_pos_site_id
 _symmetry_equiv_pos_as_xyz
  1  'x, y, z'
loop_
 _atom_site_type_symbol
 _atom_site_label
 _atom_site_symmetry_multiplicity
 _atom_site_fract_x
 _atom_site_fract_y
 _atom_site_fract_z
 _atom_site_occupancy
  C  C0  1  0.69204620  0.33736142  0.83598181  1
  C  C1  1  0.65933914  0.34818162  0.32909678  1
  C  C2  1  0.35681646  0.68437015  0.16606404  1
  C  C3  1  0.67600213  0.33545315  0.68720336  1
  C  C4  1  0.65002143  0.32699154  0.18447671  1
  C  C5  1  0.66622359  0.32288105  0.98925791  1
  C  C6  1  0.66423314  0.33892625  0.48384557  1
  C  C7  1  0.33550733  0.66732168  0.30740998  1
  C  C8  1  0.32740069  0.66792823  0.80245784  1
  C  C9  1  0.00680380  0.99294220  0.35619202  1
  C  C10  1  0.99304021  0.00118493  0.85830129  1
  C  C11  1  0.99361811  0.99325628  0.64889513  1
  C  C12  1  0.99884006  0.99816308  0.14612319  1
  C  C13  1  0.33194419  0.65785059  0.01603769  1
  C  C14  1  0.32595561  0.66015924  0.51161754  1
  Ni  Ni15  1  0.27732592  0.00300791  0.24997198  1
  Ni  Ni16  1  0.72969436  0.72289408  0.25067825  1
  Ni  Ni17  1  0.98688774  0.72412926  0.75221829  1
  Ni  Ni18  1  0.73251078  0.01021935  0.75183855  1
  Ni  Ni19  1  0.65982417  0.01288680  0.08440527  1
  Ni  Ni20  1  0.35236292  0.33595245  0.08333843  1
  Ni  Ni21  1  0.04639766  0.37305487  0.91438406  1
  Ni  Ni22  1  0.31973057  0.36698945  0.41497249  1
  Ni  Ni23  1  0.04542363  0.67442987  0.41558208  1
  Cu  Cu24  1  0.99352049  0.26917715  0.25029956  1
  Cu  Cu25  1  0.27515704  0.26367655  0.75086712  1
  Cu  Cu26  1  0.98574111  0.33524794  0.58292037  1
  Cu  Cu27  1  0.35188829  0.01459773  0.58376944  1
  Cu  Cu28  1  0.66043037  0.64814732  0.58371723  1
  Cu  Cu29  1  0.98652753  0.64755732  0.08373764  1
  Cu  Cu30  1  0.62891126  0.67488669  0.91579168  1
  Cu  Cu31  1  0.32073988  0.95346809  0.91582261  1
  Cu  Cu32  1  0.63381880  0.95320620  0.41778330  1
  C  C33  1  0.18205241  0.00320237  0.30446546  1
  C  C34  1  0.82224201  0.82135229  0.30494673  1
  C  C35  1  0.99511950  0.18006449  0.30189795  1
  C  C36  1  0.18823840  0.16970904  0.80212981  1
  C  C37  1  0.98280282  0.81921601  0.80513543  1
  C  C38  1  0.83552332  0.02242798  0.80513750  1
  C  C39  1  0.83003888  0.01395625  0.69791015  1
  C  C40  1  0.18386133  0.17390857  0.69905660  1
  C  C41  1  0.98752380  0.81897863  0.69792702  1
  C  C42  1  0.82936904  0.81933020  0.19828246  1
  C  C43  1  0.99151438  0.17723486  0.19910941  1
  C  C44  1  0.18351993  0.01102902  0.19778861  1
  C  C45  1  0.91508498  0.37892157  0.63164050  1
  C  C46  1  0.46590636  0.08883303  0.63229488  1
  C  C47  1  0.62045514  0.53504931  0.63209855  1
  C  C48  1  0.91625931  0.53486856  0.13205901  1
  C  C49  1  0.61307515  0.08763597  0.13422747  1
  C  C50  1  0.47299531  0.38734286  0.13360605  1
  C  C51  1  0.42717659  0.29608462  0.03241951  1
  C  C52  1  0.87816875  0.57941611  0.03390301  1
  C  C53  1  0.70567771  0.12797784  0.03323008  1
  C  C54  1  0.41936605  0.12837224  0.53525824  1
  C  C55  1  0.70992918  0.58257475  0.53534659  1
  C  C56  1  0.87058104  0.28819849  0.53486536  1
  C  C57  1  0.54161870  0.69415403  0.96608921  1
  C  C58  1  0.15876642  0.46861389  0.96634914  1
  C  C59  1  0.30491032  0.85042750  0.96610554  1
  C  C60  1  0.53946384  0.84365698  0.46736787  1
  C  C61  1  0.30530242  0.46634092  0.46728104  1
  C  C62  1  0.15970703  0.69250435  0.46778220  1
  C  C63  1  0.12165700  0.64394523  0.36377943  1
  C  C64  1  0.53177443  0.88585141  0.36716970  1
  C  C65  1  0.35856306  0.47733329  0.36358128  1
  C  C66  1  0.12660297  0.47858340  0.86242817  1
  C  C67  1  0.35110072  0.88085836  0.86560138  1
  C  C68  1  0.52870646  0.64931834  0.86557437  1
  C  C69  1  0.03651056  0.83831237  0.40981042  1
  C  C70  1  0.79707020  0.95896277  0.41259783  1
  C  C71  1  0.15418243  0.19782557  0.40761777  1
  C  C72  1  0.03870173  0.19942480  0.90734295  1
  C  C73  1  0.16210295  0.96071086  0.90931656  1
  C  C74  1  0.79581458  0.83449040  0.91068540  1
  C  C75  1  0.01377626  0.19322877  0.59687960  1
  C  C76  1  0.18210418  0.99046525  0.59753252  1
  C  C77  1  0.80638027  0.81886847  0.59680068  1
  C  C78  1  0.01205970  0.81699225  0.09560562  1
  C  C79  1  0.80819203  0.98544902  0.09911810  1
  C  C80  1  0.17794309  0.18718619  0.09800885  1
  C  C81  1  0.71419179  0.16923212  0.75123690  1
  C  C82  1  0.44407094  0.27907916  0.75012450  1
  C  C83  1  0.82561833  0.54872264  0.75169727  1
  C  C84  1  0.71683541  0.54852012  0.25233728  1
  C  C85  1  0.84116166  0.28619894  0.25146146  1
  C  C86  1  0.45384932  0.16239714  0.25322142  1
  C  C87  1  0.65919135  0.53234597  0.92313909  1
  C  C88  1  0.86645127  0.34339577  0.92161285  1
  C  C89  1  0.46413022  0.12822970  0.92154403  1
  C  C90  1  0.66106356  0.12436884  0.42706405  1
  C  C91  1  0.46794967  0.33539083  0.42527944  1
  C  C92  1  0.86698162  0.52465762  0.42498145  1
  C  C93  1  0.32809293  0.49068613  0.06951411  1
  C  C94  1  0.15798120  0.67027840  0.07127686  1
  C  C95  1  0.50431998  0.83685415  0.06920827  1
  C  C96  1  0.33286187  0.84777918  0.56975876  1
  C  C97  1  0.51432476  0.66890684  0.56934279  1
  C  C98  1  0.15285435  0.48468648  0.56915828  1
  C  C99  1  0.28769119  0.84116642  0.24592652  1
  C  C100  1  0.55524526  0.70928810  0.24661121  1
  C  C101  1  0.14854000  0.43642995  0.24685474  1
  C  C102  1  0.28664799  0.42837882  0.74966165  1
  C  C103  1  0.14689491  0.71341791  0.75031875  1
  C  C104  1  0.56554013  0.84723183  0.75178011  1
