# generated using pymatgen
data_Cu4Ni6C19
_symmetry_space_group_name_H-M   'P 1'
_cell_length_a   5.32530619
_cell_length_b   5.32641039
_cell_length_c   14.52334696
_cell_angle_alpha   90.31914751
_cell_angle_beta   89.96415914
_cell_angle_gamma   120.26432161
_symmetry_Int_Tables_number   1
_chemical_formula_structural   Cu4Ni6C19
_chemical_formula_sum   'Cu4 Ni6 C19'
_cell_volume   355.79965481
_cell_formula_units_Z   1
loop_
 _symmetry_equiv_pos_site_id
 _symmetry_equiv_pos_as_xyz
  1  'x, y, z'
loop_
 _atom_site_type_symbol
 _atom_site_label
 _atom_site_symmetry_multiplicity
 _atom_site_fract_x
 _atom_site_fract_y
 _atom_site_fract_z
 _atom_site_occupancy
  C  C0  1  0.33301900  0.66766300  0.30827500  1
  Ni  Ni1  1  0.66117700  0.32890200  0.68369200  1
  Ni  Ni2  1  0.66531700  0.33189700  0.98229800  1
  Ni  Ni3  1  0.66732700  0.33520100  0.47453400  1
  Ni  Ni4  1  0.33310100  0.66836500  0.51918100  1
  Ni  Ni5  1  0.33273700  0.66607700  0.00388300  1
  Ni  Ni6  1  0.66638900  0.33240800  0.19497200  1
  Cu  Cu7  1  0.99767700  0.99733600  0.85888600  1
  Cu  Cu8  1  0.99879900  0.99978900  0.14094600  1
  Cu  Cu9  1  0.99733600  0.00007000  0.64688200  1
  Cu  Cu10  1  0.99948100  0.99918100  0.35388300  1
  C  C11  1  0.33864200  0.31564700  0.08609400  1
  C  C12  1  0.67863600  0.69229300  0.92044000  1
  C  C13  1  0.01164800  0.29039700  0.25072300  1
  C  C14  1  0.27821800  0.98781800  0.25063300  1
  C  C15  1  0.97555300  0.65937000  0.08614300  1
  C  C16  1  0.68819800  0.65289900  0.58308200  1
  C  C17  1  0.76376900  0.06433400  0.74510900  1
  C  C18  1  0.01361600  0.31886900  0.92094800  1
  C  C19  1  0.03858000  0.69307500  0.41221300  1
  C  C20  1  0.35997400  0.04268900  0.58864000  1
  C  C21  1  0.31204200  0.24284400  0.74469700  1
  C  C22  1  0.96081600  0.31891400  0.58785600  1
  C  C23  1  0.70730600  0.71974700  0.25064300  1
  C  C24  1  0.30597300  0.98447700  0.91993400  1
  C  C25  1  0.68176400  0.02113000  0.08637500  1
  C  C26  1  0.65438300  0.96425800  0.41197600  1
  C  C27  1  0.30798500  0.34584200  0.41278400  1
  C  C28  1  0.92887400  0.68767200  0.74315200  1
