# generated using pymatgen
data_Cu(NiC12)2
_symmetry_space_group_name_H-M   'P 1'
_cell_length_a   8.68143619
_cell_length_b   8.68143591
_cell_length_c   22.73213702
_cell_angle_alpha   90.00000000
_cell_angle_beta   90.00000000
_cell_angle_gamma   120.00000103
_symmetry_Int_Tables_number   1
_chemical_formula_structural   Cu(NiC12)2
_chemical_formula_sum   'Cu4 Ni8 C96'
_cell_volume   1483.72711394
_cell_formula_units_Z   4
loop_
 _symmetry_equiv_pos_site_id
 _symmetry_equiv_pos_as_xyz
  1  'x, y, z'
loop_
 _atom_site_type_symbol
 _atom_site_label
 _atom_site_symmetry_multiplicity
 _atom_site_fract_x
 _atom_site_fract_y
 _atom_site_fract_z
 _atom_site_occupancy
  C  C0  1  -0.00000000  -0.00000000  0.49561452  1
  C  C1  1  -0.00000000  -0.00000000  0.99561452  1
  C  C2  1  0.66666700  0.33333300  0.82907166  1
  C  C3  1  0.66666700  0.33333300  0.32907166  1
  C  C4  1  0.33333300  0.66666700  0.16189174  1
  C  C5  1  0.33333300  0.66666700  0.66189174  1
  Ni  Ni6  1  -0.00000000  -0.00000000  0.35379168  1
  Ni  Ni7  1  -0.00000000  -0.00000000  0.85379168  1
  Ni  Ni8  1  -0.00000000  -0.00000000  0.64746978  1
  Ni  Ni9  1  -0.00000000  -0.00000000  0.14746978  1
  Ni  Ni10  1  0.66666700  0.33333300  0.68480525  1
  Ni  Ni11  1  0.66666700  0.33333300  0.18480525  1
  Ni  Ni12  1  0.33333300  0.66666700  0.01764529  1
  Ni  Ni13  1  0.33333300  0.66666700  0.51764529  1
  Cu  Cu14  1  0.66666700  0.33333300  0.97724724  1
  Cu  Cu15  1  0.66666700  0.33333300  0.47724724  1
  Cu  Cu16  1  0.33333300  0.66666700  0.31685332  1
  Cu  Cu17  1  0.33333300  0.66666700  0.81685332  1
  C  C18  1  0.62672777  0.67379559  0.91958354  1
  C  C19  1  0.04706682  0.37327223  0.91958354  1
  C  C20  1  0.32620441  0.95293318  0.91958354  1
  C  C21  1  0.62672777  0.95293318  0.41958354  1
  C  C22  1  0.32620441  0.37327223  0.41958354  1
  C  C23  1  0.04706682  0.67379559  0.41958354  1
  C  C24  1  0.29170475  0.00222240  0.25008847  1
  C  C25  1  0.71051765  0.70829525  0.25008847  1
  C  C26  1  0.99777760  0.28948235  0.25008847  1
  C  C27  1  0.29170475  0.28948235  0.75008847  1
  C  C28  1  0.99777760  0.70829525  0.75008847  1
  C  C29  1  0.71051765  0.00222240  0.75008847  1
  C  C30  1  0.95855540  0.33411282  0.58464970  1
  C  C31  1  0.37555842  0.04144460  0.58464970  1
  C  C32  1  0.66588718  0.62444158  0.58464970  1
  C  C33  1  0.95855540  0.62444158  0.08464970  1
  C  C34  1  0.66588718  0.04144460  0.08464970  1
  C  C35  1  0.37555842  0.33411282  0.08464970  1
  C  C36  1  0.21036064  0.02387734  0.30299159  1
  C  C37  1  0.81351671  0.78963936  0.30299159  1
  C  C38  1  0.97612266  0.18648329  0.30299159  1
  C  C39  1  0.21036064  0.18648329  0.80299159  1
  C  C40  1  0.97612266  0.78963936  0.80299159  1
  C  C41  1  0.81351671  0.02387734  0.80299159  1
  C  C42  1  0.78276205  0.96733738  0.69666563  1
  C  C43  1  0.18457533  0.21723795  0.69666563  1
  C  C44  1  0.03266262  0.81542467  0.69666563  1
  C  C45  1  0.78276205  0.81542467  0.19666563  1
  C  C46  1  0.03266262  0.21723795  0.19666563  1
  C  C47  1  0.18457533  0.96733738  0.19666563  1
  C  C48  1  0.87308715  0.35744170  0.63647848  1
  C  C49  1  0.48435556  0.12691285  0.63647848  1
  C  C50  1  0.64255830  0.51564444  0.63647848  1
  C  C51  1  0.87308715  0.51564444  0.13647848  1
  C  C52  1  0.64255830  0.12691285  0.13647848  1
  C  C53  1  0.48435556  0.35744170  0.13647848  1
  C  C54  1  0.46931368  0.31246965  0.03007367  1
  C  C55  1  0.84315698  0.53068632  0.03007367  1
  C  C56  1  0.68753035  0.15684302  0.03007367  1
  C  C57  1  0.46931368  0.15684302  0.53007367  1
  C  C58  1  0.68753035  0.53068632  0.53007367  1
  C  C59  1  0.84315698  0.31246965  0.53007367  1
  C  C60  1  0.54036539  0.69438566  0.97337504  1
  C  C61  1  0.15401926  0.45963461  0.97337504  1
  C  C62  1  0.30561434  0.84598074  0.97337504  1
  C  C63  1  0.54036539  0.84598074  0.47337504  1
  C  C64  1  0.30561434  0.45963461  0.47337504  1
  C  C65  1  0.15401926  0.69438566  0.47337504  1
  C  C66  1  0.13224312  0.63477458  0.36264075  1
  C  C67  1  0.50253046  0.86775688  0.36264075  1
  C  C68  1  0.36522542  0.49746954  0.36264075  1
  C  C69  1  0.13224312  0.49746954  0.86264075  1
  C  C70  1  0.36522542  0.86775688  0.86264075  1
  C  C71  1  0.50253046  0.63477458  0.86264075  1
  C  C72  1  0.01532928  0.82500264  0.40771935  1
  C  C73  1  0.80967336  0.98467072  0.40771935  1
  C  C74  1  0.17499736  0.19032664  0.40771935  1
  C  C75  1  0.01532928  0.19032664  0.90771935  1
  C  C76  1  0.17499736  0.98467072  0.90771935  1
  C  C77  1  0.80967336  0.82500264  0.90771935  1
  C  C78  1  0.96868756  0.16992022  0.58693305  1
  C  C79  1  0.20123266  0.03131244  0.58693305  1
  C  C80  1  0.83007978  0.79876734  0.58693305  1
  C  C81  1  0.96868756  0.79876734  0.08693305  1
  C  C82  1  0.83007978  0.03131244  0.08693305  1
  C  C83  1  0.20123266  0.16992022  0.08693305  1
  C  C84  1  0.68171960  0.15523480  0.74391899  1
  C  C85  1  0.47351619  0.31828040  0.74391899  1
  C  C86  1  0.84476520  0.52648381  0.74391899  1
  C  C87  1  0.68171960  0.52648381  0.24391899  1
  C  C88  1  0.84476520  0.31828040  0.24391899  1
  C  C89  1  0.47351619  0.15523480  0.24391899  1
  C  C90  1  0.63593647  0.49481824  0.92503440  1
  C  C91  1  0.85888278  0.36406353  0.92503440  1
  C  C92  1  0.50518176  0.14111722  0.92503440  1
  C  C93  1  0.63593647  0.14111722  0.42503440  1
  C  C94  1  0.50518176  0.36406353  0.42503440  1
  C  C95  1  0.85888278  0.49481824  0.42503440  1
  C  C96  1  0.35938604  0.49312335  0.07724291  1
  C  C97  1  0.13373631  0.64061396  0.07724291  1
  C  C98  1  0.50687665  0.86626369  0.07724291  1
  C  C99  1  0.35938604  0.86626369  0.57724291  1
  C  C100  1  0.50687665  0.64061396  0.57724291  1
  C  C101  1  0.13373631  0.49312335  0.57724291  1
  C  C102  1  0.31088861  0.83491497  0.25780758  1
  C  C103  1  0.52402536  0.68911139  0.25780758  1
  C  C104  1  0.16508503  0.47597464  0.25780758  1
  C  C105  1  0.31088861  0.47597464  0.75780758  1
  C  C106  1  0.16508503  0.68911139  0.75780758  1
  C  C107  1  0.52402536  0.83491497  0.75780758  1
