# generated using pymatgen
data_Cu5NiC8
_symmetry_space_group_name_H-M   'P 1'
_cell_length_a   5.87342861
_cell_length_b   5.86613333
_cell_length_c   5.87545332
_cell_angle_alpha   89.98310382
_cell_angle_beta   60.04652102
_cell_angle_gamma   60.02658589
_symmetry_Int_Tables_number   1
_chemical_formula_structural   Cu5NiC8
_chemical_formula_sum   'Cu5 Ni1 C8'
_cell_volume   143.32201094
_cell_formula_units_Z   1
loop_
 _symmetry_equiv_pos_site_id
 _symmetry_equiv_pos_as_xyz
  1  'x, y, z'
loop_
 _atom_site_type_symbol
 _atom_site_label
 _atom_site_symmetry_multiplicity
 _atom_site_fract_x
 _atom_site_fract_y
 _atom_site_fract_z
 _atom_site_occupancy
  Ni  Ni0  1  0.75244700  0.12362000  0.87058400  1
  Cu  Cu1  1  0.51240600  0.49234800  0.48089300  1
  Cu  Cu2  1  0.51057000  0.99530200  0.48089300  1
  Cu  Cu3  1  0.27216900  0.86399000  0.09090100  1
  Cu  Cu4  1  0.01354200  0.49412800  0.48088400  1
  Cu  Cu5  1  0.01405300  0.49298400  0.97812400  1
  C  C6  1  0.03156500  0.69504300  0.22440500  1
  C  C7  1  0.96909000  0.27336300  0.22450300  1
  C  C8  1  0.54945300  0.72508300  0.67560900  1
  C  C9  1  0.54865800  0.75709200  0.22375100  1
  C  C10  1  0.47621300  0.23048000  0.73519700  1
  C  C11  1  0.47519200  0.26261400  0.28569700  1
  C  C12  1  0.05788000  0.71207700  0.73431700  1
  C  C13  1  0.99533400  0.29258900  0.73447900  1
