# generated using pymatgen
data_Cu24Ni5C8
_symmetry_space_group_name_H-M   'P 1'
_cell_length_a   8.84479947
_cell_length_b   8.81937293
_cell_length_c   22.78173986
_cell_angle_alpha   90.13718570
_cell_angle_beta   90.26331346
_cell_angle_gamma   120.06367451
_symmetry_Int_Tables_number   1
_chemical_formula_structural   Cu24Ni5C8
_chemical_formula_sum   'Cu72 Ni15 C24'
_cell_volume   1537.98898281
_cell_formula_units_Z   3
loop_
 _symmetry_equiv_pos_site_id
 _symmetry_equiv_pos_as_xyz
  1  'x, y, z'
loop_
 _atom_site_type_symbol
 _atom_site_label
 _atom_site_symmetry_multiplicity
 _atom_site_fract_x
 _atom_site_fract_y
 _atom_site_fract_z
 _atom_site_occupancy
  C  C0  1  0.36299159  0.36275174  0.25090771  1
  C  C1  1  0.02966441  0.70008776  0.58623078  1
  C  C2  1  0.29875499  0.96478740  0.07957436  1
  C  C3  1  0.98923291  0.00506774  0.50069317  1
  C  C4  1  0.99709672  0.01052971  0.99094078  1
  C  C5  1  0.66596814  0.32630441  0.82435965  1
  C  C6  1  0.68363950  0.33016509  0.32823382  1
  C  C7  1  0.33262293  0.66553076  0.16711379  1
  C  C8  1  0.36000618  0.66323776  0.66150008  1
  C  C9  1  0.67116843  0.33160069  0.97783907  1
  C  C10  1  0.66545971  0.33781951  0.48179008  1
  C  C11  1  0.32726265  0.66768209  0.81488426  1
  C  C12  1  0.99401041  0.99490355  0.34806739  1
  C  C13  1  0.01308058  0.01298677  0.85110179  1
  C  C14  1  0.98535325  0.99715445  0.65195724  1
  C  C15  1  0.98721915  0.99543161  0.15432030  1
  C  C16  1  0.65799751  0.33801870  0.68266714  1
  C  C17  1  0.67879334  0.33703921  0.18277369  1
  C  C18  1  0.32469222  0.66014663  0.00761306  1
  C  C19  1  0.35588678  0.66621926  0.51591338  1
  C  C20  1  0.33259188  0.67740958  0.31909401  1
  C  C21  1  0.66667839  0.63397367  0.58662058  1
  C  C22  1  0.04272981  0.36536863  0.91836097  1
  C  C23  1  0.32216547  0.95702139  0.92092500  1
  Ni  Ni24  1  0.29544033  0.99880908  0.24844564  1
  Ni  Ni25  1  0.70135864  0.70152240  0.25037669  1
  Ni  Ni26  1  0.00060904  0.29607282  0.25074566  1
  Ni  Ni27  1  0.29431201  0.28945481  0.74854927  1
  Ni  Ni28  1  0.99422195  0.70531671  0.74860584  1
  Ni  Ni29  1  0.70880388  0.00567205  0.74997542  1
  Ni  Ni30  1  0.96323581  0.33342589  0.58462881  1
  Ni  Ni31  1  0.36988805  0.03573548  0.58468108  1
  Ni  Ni32  1  0.96362400  0.63186265  0.08635316  1
  Ni  Ni33  1  0.66757695  0.03600087  0.08562037  1
  Ni  Ni34  1  0.37154749  0.33663768  0.08671064  1
  Ni  Ni35  1  0.63010412  0.67340435  0.91827638  1
  Ni  Ni36  1  0.63130335  0.95991643  0.41556956  1
  Ni  Ni37  1  0.32551328  0.36729802  0.41381883  1
  Ni  Ni38  1  0.04413850  0.67224499  0.41782392  1
  Cu  Cu39  1  0.20803750  0.02702886  0.29912026  1
  Cu  Cu40  1  0.80586985  0.78384205  0.30340885  1
  Cu  Cu41  1  0.97688211  0.19119893  0.30369732  1
  Cu  Cu42  1  0.21400380  0.19077235  0.80219508  1
  Cu  Cu43  1  0.97888361  0.79513042  0.80026863  1
  Cu  Cu44  1  0.81121897  0.02396767  0.80298016  1
  Cu  Cu45  1  0.77927851  0.97430062  0.69595948  1
  Cu  Cu46  1  0.18996766  0.21246327  0.69515097  1
  Cu  Cu47  1  0.02154652  0.80201567  0.69311343  1
  Cu  Cu48  1  0.78021762  0.80236164  0.19640881  1
  Cu  Cu49  1  0.03056071  0.21633256  0.19741729  1
  Cu  Cu50  1  0.19733729  0.97664753  0.19249342  1
  Cu  Cu51  1  0.87956065  0.35840177  0.63657980  1
  Cu  Cu52  1  0.47682207  0.11581494  0.63730200  1
  Cu  Cu53  1  0.64423779  0.52423827  0.64060443  1
  Cu  Cu54  1  0.87959083  0.52934372  0.13892320  1
  Cu  Cu55  1  0.63910145  0.11973405  0.13740650  1
  Cu  Cu56  1  0.46971657  0.35476722  0.14190801  1
  Cu  Cu57  1  0.46882508  0.31454961  0.03573221  1
  Cu  Cu58  1  0.85742308  0.54065438  0.03267666  1
  Cu  Cu59  1  0.68634963  0.14557069  0.03201348  1
  Cu  Cu60  1  0.46325155  0.14322050  0.53117862  1
  Cu  Cu61  1  0.68823047  0.53483702  0.53105040  1
  Cu  Cu62  1  0.85171595  0.31146285  0.53065942  1
  Cu  Cu63  1  0.55167529  0.69503757  0.97180616  1
  Cu  Cu64  1  0.14588266  0.44298919  0.97455980  1
  Cu  Cu65  1  0.30937566  0.86489528  0.97927418  1
  Cu  Cu66  1  0.54927007  0.85961555  0.46886651  1
  Cu  Cu67  1  0.30626283  0.45381825  0.46595417  1
  Cu  Cu68  1  0.14040282  0.68855610  0.47274253  1
  Cu  Cu69  1  0.12238440  0.64243090  0.36542098  1
  Cu  Cu70  1  0.52656665  0.88492691  0.36190180  1
  Cu  Cu71  1  0.35628443  0.46876567  0.35913278  1
  Cu  Cu72  1  0.13404280  0.48285665  0.86395108  1
  Cu  Cu73  1  0.35321888  0.86333798  0.86796875  1
  Cu  Cu74  1  0.51826098  0.64350095  0.86534772  1
  Cu  Cu75  1  0.01978014  0.82565179  0.41190221  1
  Cu  Cu76  1  0.80845759  0.98281085  0.41107665  1
  Cu  Cu77  1  0.17252826  0.18885931  0.40969261  1
  Cu  Cu78  1  0.00847771  0.18024754  0.91017849  1
  Cu  Cu79  1  0.16225575  0.97515655  0.91186516  1
  Cu  Cu80  1  0.80494424  0.82278166  0.91057929  1
  Cu  Cu81  1  0.98185826  0.17733604  0.58675520  1
  Cu  Cu82  1  0.19745621  0.02469340  0.58612260  1
  Cu  Cu83  1  0.84101633  0.81124304  0.58700104  1
  Cu  Cu84  1  0.98035736  0.80898633  0.08810218  1
  Cu  Cu85  1  0.82787275  0.02456621  0.08910929  1
  Cu  Cu86  1  0.19942422  0.16995055  0.08745693  1
  Cu  Cu87  1  0.68460177  0.15985639  0.74466336  1
  Cu  Cu88  1  0.47205792  0.31174614  0.74509334  1
  Cu  Cu89  1  0.84252183  0.52498726  0.74569574  1
  Cu  Cu90  1  0.67790236  0.52035485  0.24614151  1
  Cu  Cu91  1  0.84454337  0.31657844  0.24463113  1
  Cu  Cu92  1  0.47177955  0.16262283  0.24519052  1
  Cu  Cu93  1  0.64105905  0.50788306  0.92278844  1
  Cu  Cu94  1  0.86153705  0.36050991  0.92217841  1
  Cu  Cu95  1  0.49315228  0.14323817  0.92328915  1
  Cu  Cu96  1  0.65007587  0.14033437  0.42172117  1
  Cu  Cu97  1  0.48758924  0.34910615  0.42144675  1
  Cu  Cu98  1  0.86233073  0.50818905  0.42174207  1
  Cu  Cu99  1  0.35376267  0.49216529  0.07933303  1
  Cu  Cu100  1  0.14116718  0.65375784  0.08190227  1
  Cu  Cu101  1  0.50750031  0.86226954  0.07889176  1
  Cu  Cu102  1  0.34234584  0.85579799  0.57752619  1
  Cu  Cu103  1  0.50528004  0.65301544  0.57828281  1
  Cu  Cu104  1  0.13373995  0.49760623  0.57681829  1
  Cu  Cu105  1  0.31570758  0.84253611  0.25495663  1
  Cu  Cu106  1  0.52105841  0.67758629  0.25471434  1
  Cu  Cu107  1  0.16358685  0.47257949  0.25587583  1
  Cu  Cu108  1  0.31649690  0.47218854  0.75438962  1
  Cu  Cu109  1  0.15766676  0.68787226  0.75473925  1
  Cu  Cu110  1  0.52774057  0.84290114  0.75597450  1
