# generated using pymatgen
data_Cu9Ni4C9
_symmetry_space_group_name_H-M   'P 1'
_cell_length_a   4.56106300
_cell_length_b   12.50655000
_cell_length_c   21.91858600
_cell_angle_alpha   90.00000000
_cell_angle_beta   90.00000000
_cell_angle_gamma   90.00000000
_symmetry_Int_Tables_number   1
_chemical_formula_structural   Cu9Ni4C9
_chemical_formula_sum   'Cu18 Ni8 C18'
_cell_volume   1250.30546215
_cell_formula_units_Z   2
loop_
 _symmetry_equiv_pos_site_id
 _symmetry_equiv_pos_as_xyz
  1  'x, y, z'
loop_
 _atom_site_type_symbol
 _atom_site_label
 _atom_site_symmetry_multiplicity
 _atom_site_fract_x
 _atom_site_fract_y
 _atom_site_fract_z
 _atom_site_occupancy
  C  C0  1  0.50000000  0.00000000  0.00000000  1
  C  C1  1  0.50000000  0.50000000  0.50000000  1
  C  C2  1  0.00000000  0.86594500  0.86278900  1
  C  C3  1  0.00000000  0.13405500  0.13721100  1
  C  C4  1  0.00000000  0.36594500  0.63721100  1
  C  C5  1  0.00000000  0.63405500  0.36278900  1
  C  C6  1  0.00000000  0.56391600  0.90930100  1
  C  C7  1  0.00000000  0.43608400  0.09069900  1
  C  C8  1  0.00000000  0.06391600  0.59069900  1
  C  C9  1  0.00000000  0.93608400  0.40930100  1
  C  C10  1  0.00000000  0.62162500  0.73668200  1
  C  C11  1  0.00000000  0.37837500  0.26331800  1
  C  C12  1  0.00000000  0.12162500  0.76331800  1
  C  C13  1  0.00000000  0.87837500  0.23668200  1
  C  C14  1  0.50000000  0.78730600  0.60214900  1
  C  C15  1  0.50000000  0.21269400  0.39785100  1
  C  C16  1  0.50000000  0.28730600  0.89785100  1
  C  C17  1  0.50000000  0.71269400  0.10214900  1
  Ni  Ni18  1  0.50000000  0.72331400  0.95400400  1
  Ni  Ni19  1  0.50000000  0.27668600  0.04599600  1
  Ni  Ni20  1  0.50000000  0.22331400  0.54599600  1
  Ni  Ni21  1  0.50000000  0.77668600  0.45400400  1
  Ni  Ni22  1  0.50000000  0.88318300  0.76251100  1
  Ni  Ni23  1  0.50000000  0.11681700  0.23748900  1
  Ni  Ni24  1  0.50000000  0.38318300  0.73748900  1
  Ni  Ni25  1  0.50000000  0.61681700  0.26251100  1
  Cu  Cu26  1  0.50000000  0.50000000  0.00000000  1
  Cu  Cu27  1  0.50000000  0.00000000  0.50000000  1
  Cu  Cu28  1  0.00000000  0.69372400  0.50603300  1
  Cu  Cu29  1  0.00000000  0.30627600  0.49396700  1
  Cu  Cu30  1  0.00000000  0.19372400  0.99396700  1
  Cu  Cu31  1  0.00000000  0.80627600  0.00603300  1
  Cu  Cu32  1  0.00000000  0.87962100  0.69474300  1
  Cu  Cu33  1  0.00000000  0.12037900  0.30525700  1
  Cu  Cu34  1  0.00000000  0.37962100  0.80525700  1
  Cu  Cu35  1  0.00000000  0.62037900  0.19474300  1
  Cu  Cu36  1  0.50000000  0.54058000  0.64680000  1
  Cu  Cu37  1  0.50000000  0.45942000  0.35320000  1
  Cu  Cu38  1  0.50000000  0.04058000  0.85320000  1
  Cu  Cu39  1  0.50000000  0.95942000  0.14680000  1
  Cu  Cu40  1  0.50000000  0.69030700  0.83190700  1
  Cu  Cu41  1  0.50000000  0.30969300  0.16809300  1
  Cu  Cu42  1  0.50000000  0.19030700  0.66809300  1
  Cu  Cu43  1  0.50000000  0.80969300  0.33190700  1
