# generated using pymatgen
data_Cu2Ni3C11
_symmetry_space_group_name_H-M   'P 1'
_cell_length_a   3.83396500
_cell_length_b   3.83396500
_cell_length_c   16.03081400
_cell_angle_alpha   90.00000000
_cell_angle_beta   90.00000000
_cell_angle_gamma   90.00000000
_symmetry_Int_Tables_number   1
_chemical_formula_structural   Cu2Ni3C11
_chemical_formula_sum   'Cu2 Ni3 C11'
_cell_volume   235.64154579
_cell_formula_units_Z   1
loop_
 _symmetry_equiv_pos_site_id
 _symmetry_equiv_pos_as_xyz
  1  'x, y, z'
loop_
 _atom_site_type_symbol
 _atom_site_label
 _atom_site_symmetry_multiplicity
 _atom_site_fract_x
 _atom_site_fract_y
 _atom_site_fract_z
 _atom_site_occupancy
  C  C0  1  0.00000000  0.00000000  0.77961600  1
  C  C1  1  0.00000000  0.00000000  0.22038400  1
  C  C2  1  0.00000000  0.00000000  0.00000000  1
  Ni  Ni3  1  0.00000000  0.00000000  0.50000000  1
  Ni  Ni4  1  0.50000000  0.50000000  0.89649500  1
  Ni  Ni5  1  0.50000000  0.50000000  0.10350500  1
  Cu  Cu6  1  0.50000000  0.50000000  0.38688600  1
  Cu  Cu7  1  0.50000000  0.50000000  0.61311400  1
  C  C8  1  0.00000000  0.50000000  0.90918300  1
  C  C9  1  0.50000000  0.00000000  0.09081700  1
  C  C10  1  0.00000000  0.50000000  0.09081700  1
  C  C11  1  0.50000000  0.00000000  0.90918300  1
  C  C12  1  0.00000000  0.00000000  0.38362900  1
  C  C13  1  0.50000000  0.50000000  0.74966000  1
  C  C14  1  0.50000000  0.50000000  0.25034000  1
  C  C15  1  0.00000000  0.00000000  0.61637100  1
