# generated using pymatgen
data_Cu6NiC12
_symmetry_space_group_name_H-M   'P 1'
_cell_length_a   7.15712373
_cell_length_b   5.91654116
_cell_length_c   5.72661684
_cell_angle_alpha   81.46538144
_cell_angle_beta   72.97659713
_cell_angle_gamma   71.46559413
_symmetry_Int_Tables_number   1
_chemical_formula_structural   Cu6NiC12
_chemical_formula_sum   'Cu6 Ni1 C12'
_cell_volume   219.43456355
_cell_formula_units_Z   1
loop_
 _symmetry_equiv_pos_site_id
 _symmetry_equiv_pos_as_xyz
  1  'x, y, z'
loop_
 _atom_site_type_symbol
 _atom_site_label
 _atom_site_symmetry_multiplicity
 _atom_site_fract_x
 _atom_site_fract_y
 _atom_site_fract_z
 _atom_site_occupancy
  Ni  Ni0  1  0.00281600  0.48619795  0.98903713  1
  Cu  Cu1  1  0.83276303  0.68901255  0.60082513  1
  Cu  Cu2  1  0.66220187  0.26837668  0.40095739  1
  Cu  Cu3  1  0.34193751  0.72895837  0.59867355  1
  Cu  Cu4  1  0.17666601  0.31086227  0.38149876  1
  Cu  Cu5  1  0.50699170  0.99439635  0.99999045  1
  Cu  Cu6  1  0.00727378  0.96031790  0.03482665  1
  C  C7  1  0.65887281  0.01273579  0.65486258  1
  C  C8  1  0.29938715  0.89901281  0.89030539  1
  C  C9  1  0.96485057  0.21661694  0.24123067  1
  C  C10  1  0.62853306  0.56311274  0.55372662  1
  C  C11  1  0.04529155  0.77661026  0.75564535  1
  C  C12  1  0.37387151  0.44206210  0.44073234  1
  C  C13  1  0.70998992  0.08924871  0.11249049  1
  C  C14  1  0.34814081  0.98331695  0.34340923  1
  C  C15  1  0.99118510  0.36129738  0.69096229  1
  C  C16  1  0.00659296  0.66666209  0.26832942  1
  C  C17  1  0.31056325  0.33641991  0.99349797  1
  C  C18  1  0.69688641  0.65525826  0.00137857  1
