# generated using pymatgen
data_Cu12Ni3C
_symmetry_space_group_name_H-M   'P 1'
_cell_length_a   9.36615419
_cell_length_b   9.36615419
_cell_length_c   9.36615323
_cell_angle_alpha   52.18689382
_cell_angle_beta   52.18689382
_cell_angle_gamma   52.18689282
_symmetry_Int_Tables_number   1
_chemical_formula_structural   Cu12Ni3C
_chemical_formula_sum   'Cu24 Ni6 C2'
_cell_volume   474.32499372
_cell_formula_units_Z   2
loop_
 _symmetry_equiv_pos_site_id
 _symmetry_equiv_pos_as_xyz
  1  'x, y, z'
loop_
 _atom_site_type_symbol
 _atom_site_label
 _atom_site_symmetry_multiplicity
 _atom_site_fract_x
 _atom_site_fract_y
 _atom_site_fract_z
 _atom_site_occupancy
  C  C0  1  0.94163900  0.94163900  0.94163900  1
  C  C1  1  0.44163900  0.44163900  0.44163900  1
  Ni  Ni2  1  0.53586200  0.15912900  0.80473600  1
  Ni  Ni3  1  0.15912900  0.80473600  0.53586200  1
  Ni  Ni4  1  0.80473600  0.53586200  0.15912900  1
  Ni  Ni5  1  0.65912900  0.03586200  0.30473600  1
  Ni  Ni6  1  0.03586200  0.30473600  0.65912900  1
  Ni  Ni7  1  0.30473600  0.65912900  0.03586200  1
  Cu  Cu8  1  0.72144100  0.11666300  0.79354800  1
  Cu  Cu9  1  0.11666300  0.79354800  0.72144100  1
  Cu  Cu10  1  0.79354800  0.72144100  0.11666300  1
  Cu  Cu11  1  0.61666300  0.22144100  0.29354800  1
  Cu  Cu12  1  0.22144100  0.29354800  0.61666300  1
  Cu  Cu13  1  0.29354800  0.61666300  0.22144100  1
  Cu  Cu14  1  0.42476300  0.37344900  0.74292000  1
  Cu  Cu15  1  0.37344900  0.74292000  0.42476300  1
  Cu  Cu16  1  0.49355600  0.55437500  0.92787100  1
  Cu  Cu17  1  0.92787100  0.49355600  0.55437500  1
  Cu  Cu18  1  0.55437500  0.92787100  0.49355600  1
  Cu  Cu19  1  0.99355600  0.42787100  0.05437500  1
  Cu  Cu20  1  0.05437500  0.99355600  0.42787100  1
  Cu  Cu21  1  0.42787100  0.05437500  0.99355600  1
  Cu  Cu22  1  0.14975800  0.61527600  0.08251400  1
  Cu  Cu23  1  0.08251400  0.14975800  0.61527600  1
  Cu  Cu24  1  0.61527600  0.08251400  0.14975800  1
  Cu  Cu25  1  0.64975800  0.58251400  0.11527600  1
  Cu  Cu26  1  0.11527600  0.64975800  0.58251400  1
  Cu  Cu27  1  0.58251400  0.11527600  0.64975800  1
  Cu  Cu28  1  0.24292000  0.87344900  0.92476300  1
  Cu  Cu29  1  0.92476300  0.24292000  0.87344900  1
  Cu  Cu30  1  0.87344900  0.92476300  0.24292000  1
  Cu  Cu31  1  0.74292000  0.42476300  0.37344900  1
