# generated using pymatgen
data_CuNiC3
_symmetry_space_group_name_H-M   'P 1'
_cell_length_a   4.31704500
_cell_length_b   6.83197000
_cell_length_c   8.59334752
_cell_angle_alpha   108.14503564
_cell_angle_beta   90.00000000
_cell_angle_gamma   90.00000000
_symmetry_Int_Tables_number   1
_chemical_formula_structural   CuNiC3
_chemical_formula_sum   'Cu2 Ni2 C6'
_cell_volume   240.84769090
_cell_formula_units_Z   2
loop_
 _symmetry_equiv_pos_site_id
 _symmetry_equiv_pos_as_xyz
  1  'x, y, z'
loop_
 _atom_site_type_symbol
 _atom_site_label
 _atom_site_symmetry_multiplicity
 _atom_site_fract_x
 _atom_site_fract_y
 _atom_site_fract_z
 _atom_site_occupancy
  C  C0  1  0.25000000  0.29089100  0.03544600  1
  C  C1  1  0.75000000  0.70910900  0.96455400  1
  C  C2  1  0.75000000  0.70576600  0.38376900  1
  C  C3  1  0.25000000  0.29423400  0.61623100  1
  C  C4  1  0.75000000  0.16381700  0.78866900  1
  C  C5  1  0.25000000  0.83618300  0.21133100  1
  Ni  Ni6  1  0.75000000  0.18057900  0.30009200  1
  Ni  Ni7  1  0.25000000  0.81942100  0.69990800  1
  Cu  Cu8  1  0.75000000  0.31418700  0.82719100  1
  Cu  Cu9  1  0.25000000  0.68581300  0.17280900  1
