# generated using pymatgen
data_Cu2Ni2C37
_symmetry_space_group_name_H-M   'P 1'
_cell_length_a   18.14667892
_cell_length_b   9.06364936
_cell_length_c   21.99978352
_cell_angle_alpha   90.29785981
_cell_angle_beta   89.46216057
_cell_angle_gamma   119.92969297
_symmetry_Int_Tables_number   1
_chemical_formula_structural   Cu2Ni2C37
_chemical_formula_sum   'Cu12 Ni12 C222'
_cell_volume   3135.72033982
_cell_formula_units_Z   6
loop_
 _symmetry_equiv_pos_site_id
 _symmetry_equiv_pos_as_xyz
  1  'x, y, z'
loop_
 _atom_site_type_symbol
 _atom_site_label
 _atom_site_symmetry_multiplicity
 _atom_site_fract_x
 _atom_site_fract_y
 _atom_site_fract_z
 _atom_site_occupancy
  C  C0  1  0.80780904  0.99693278  0.25679717  1
  C  C1  1  0.18290746  0.36917263  0.25684917  1
  C  C2  1  0.68069326  0.34581687  0.25207779  1
  C  C3  1  0.99920804  0.62867872  0.23988891  1
  C  C4  1  0.50687400  0.65398927  0.24590590  1
  C  C5  1  0.31040879  0.62264514  0.75691336  1
  C  C6  1  0.00503281  0.36046721  0.74515719  1
  C  C7  1  0.50683980  0.36517988  0.73813620  1
  C  C8  1  0.18156872  0.01646191  0.75145106  1
  C  C9  1  0.67834442  0.00637668  0.75994027  1
  C  C10  1  0.14749077  0.33104940  0.58607152  1
  C  C11  1  0.64301551  0.33456959  0.59241542  1
  C  C12  1  0.34239783  0.99121851  0.58433955  1
  C  C13  1  0.83095235  0.95684129  0.57875200  1
  C  C14  1  0.14494753  0.95261449  0.08155188  1
  C  C15  1  0.64804161  0.96273788  0.08007675  1
  C  C16  1  0.33237205  0.70813040  0.07329574  1
  C  C17  1  0.84095722  0.68984170  0.07848660  1
  C  C18  1  0.48463488  0.68401415  0.91532598  1
  C  C19  1  0.98182974  0.66084175  0.92500039  1
  C  C20  1  0.34864488  0.01283701  0.91771054  1
  C  C21  1  0.83838001  0.02635664  0.91144221  1
  C  C22  1  0.17316533  0.32338194  0.90381537  1
  C  C23  1  0.66484105  0.27996831  0.90680752  1
  C  C24  1  0.48361947  0.30412410  0.42959697  1
  C  C25  1  0.98368413  0.28447978  0.42166830  1
  C  C26  1  0.16757145  0.04775053  0.41957588  1
  C  C27  1  0.67272105  0.02497176  0.40887649  1
  C  C28  1  0.34091094  0.65126626  0.41764523  1
  C  C29  1  0.84455723  0.68137577  0.42395876  1
  C  C30  1  0.99844083  0.00177668  0.49808964  1
  C  C31  1  0.50173707  0.99576377  0.50982006  1
  C  C32  1  0.99874986  0.99982603  0.00507870  1
  C  C33  1  0.50075165  0.99877958  0.99321044  1
  C  C34  1  0.32868129  0.35096862  0.83111429  1
  C  C35  1  0.81957148  0.32553667  0.83096973  1
  C  C36  1  0.32833067  0.32623657  0.33568325  1
  C  C37  1  0.82406340  0.30152924  0.33380946  1
  C  C38  1  0.15851863  0.66080943  0.16021840  1
  C  C39  1  0.66104811  0.66812513  0.16521662  1
  C  C40  1  0.16171307  0.65552374  0.66801384  1
  C  C41  1  0.65690866  0.63997488  0.66732449  1
  Ni  Ni42  1  0.99930603  0.00755229  0.35476860  1
  Ni  Ni43  1  0.50387126  0.00286933  0.34377125  1
  Ni  Ni44  1  0.00391019  0.00589682  0.84307688  1
  Ni  Ni45  1  0.50565465  0.99755684  0.85263916  1
  Ni  Ni46  1  0.33783616  0.34047436  0.68085712  1
  Ni  Ni47  1  0.83533436  0.33488342  0.17976959  1
  Ni  Ni48  1  0.33428994  0.33953853  0.98308192  1
  Ni  Ni49  1  0.83377109  0.33260362  0.98568564  1
  Ni  Ni50  1  0.33398149  0.33663082  0.48735483  1
  Ni  Ni51  1  0.83434304  0.32913418  0.48454431  1
  Ni  Ni52  1  0.66849777  0.68582803  0.31737084  1
  Ni  Ni53  1  0.16851680  0.65244678  0.81701649  1
  Cu  Cu54  1  0.00470003  0.00031977  0.65911427  1
  Cu  Cu55  1  0.50619966  0.03555307  0.65359893  1
  Cu  Cu56  1  0.99898300  0.98850624  0.14804016  1
  Cu  Cu57  1  0.50598139  0.00884832  0.15710703  1
  Cu  Cu58  1  0.82403001  0.34170854  0.68598287  1
  Cu  Cu59  1  0.33588806  0.33055348  0.17990288  1
  Cu  Cu60  1  0.16245411  0.65689171  0.01534320  1
  Cu  Cu61  1  0.66324689  0.66625319  0.00611049  1
  Cu  Cu62  1  0.16155897  0.65302770  0.51235826  1
  Cu  Cu63  1  0.66285566  0.66829031  0.51769451  1
  Cu  Cu64  1  0.17111308  0.66044448  0.32608428  1
  Cu  Cu65  1  0.67128570  0.67025600  0.81733229  1
  C  C66  1  0.65157809  0.00063705  0.24693749  1
  C  C67  1  0.15168804  0.30239891  0.74696081  1
  C  C68  1  0.65160959  0.30866468  0.75341811  1
  C  C69  1  0.48365511  0.33750958  0.58072351  1
  C  C70  1  0.98419601  0.62909973  0.08290148  1
  C  C71  1  0.31475136  0.66580710  0.91918635  1
  C  C72  1  0.66920109  0.96592781  0.91828733  1
  C  C73  1  0.81432017  0.96444918  0.41915144  1
  C  C74  1  0.16942001  0.36580345  0.41716145  1
  C  C75  1  0.14942645  0.99816766  0.25132876  1
  C  C76  1  0.34977756  0.70370396  0.24791776  1
  C  C77  1  0.85185581  0.70366939  0.25155607  1
  C  C78  1  0.00070841  0.29111332  0.24876057  1
  C  C79  1  0.49766516  0.29691831  0.25237467  1
  C  C80  1  0.00095601  0.70192569  0.75277516  1
  C  C81  1  0.49716768  0.70759257  0.74808656  1
  C  C82  1  0.34949403  0.99846877  0.75145584  1
  C  C83  1  0.85270082  0.99949494  0.74770296  1
  C  C84  1  0.98001183  0.33615598  0.58490497  1
  C  C85  1  0.18302603  0.02800078  0.58164447  1
  C  C86  1  0.68676608  0.03953160  0.58335792  1
  C  C87  1  0.33294887  0.63275054  0.58341569  1
  C  C88  1  0.83893455  0.63314440  0.58201862  1
  C  C89  1  0.48088613  0.62705516  0.08527508  1
  C  C90  1  0.33732059  0.04370884  0.08436613  1
  C  C91  1  0.83375736  0.03496321  0.08398161  1
  C  C92  1  0.18759435  0.33132826  0.08643129  1
  C  C93  1  0.68332646  0.33797769  0.08284343  1
  C  C94  1  0.81880269  0.66987217  0.91764612  1
  C  C95  1  0.01646861  0.36373606  0.91523152  1
  C  C96  1  0.51563588  0.36751539  0.91782518  1
  C  C97  1  0.16409860  0.96229556  0.91638084  1
  C  C98  1  0.31671416  0.96477258  0.41528921  1
  C  C99  1  0.66404813  0.36691192  0.41462590  1
  C  C100  1  0.01860744  0.66692420  0.41485816  1
  C  C101  1  0.51607199  0.66937971  0.41403622  1
  C  C102  1  0.10559403  0.02006491  0.30508599  1
  C  C103  1  0.60776700  0.03358975  0.30704800  1
  C  C104  1  0.40099794  0.78931868  0.30269593  1
  C  C105  1  0.90594680  0.79043549  0.30484516  1
  C  C106  1  0.48444877  0.19257614  0.30747514  1
  C  C107  1  0.99284579  0.19523756  0.30524863  1
  C  C108  1  0.10804605  0.18242642  0.80694852  1
  C  C109  1  0.60471564  0.18358602  0.81102633  1
  C  C110  1  0.48512878  0.78238270  0.80527376  1
  C  C111  1  0.98714630  0.77981466  0.80830194  1
  C  C112  1  0.40174039  0.01719525  0.80514056  1
  C  C113  1  0.90309595  0.01070329  0.80273651  1
  C  C114  1  0.38511070  0.96360005  0.69548599  1
  C  C115  1  0.89347100  0.97865214  0.69162730  1
  C  C116  1  0.09207294  0.21701923  0.68647781  1
  C  C117  1  0.59771797  0.23319594  0.69019665  1
  C  C118  1  0.01215925  0.80627666  0.69813417  1
  C  C119  1  0.50442704  0.81236479  0.69498984  1
  C  C120  1  0.39158547  0.80035683  0.19199101  1
  C  C121  1  0.88843281  0.80909296  0.19586918  1
  C  C122  1  0.01274501  0.20529097  0.19536872  1
  C  C123  1  0.50776694  0.21440084  0.19735959  1
  C  C124  1  0.09942215  0.97568710  0.19514013  1
  C  C125  1  0.59139261  0.96442376  0.18668653  1
  C  C126  1  0.43708150  0.34862101  0.64266802  1
  C  C127  1  0.93676297  0.34508500  0.64085975  1
  C  C128  1  0.23405880  0.11056946  0.63687300  1
  C  C129  1  0.73963999  0.12323295  0.63788744  1
  C  C130  1  0.31959430  0.52177389  0.63641318  1
  C  C131  1  0.83196089  0.52816523  0.63473350  1
  C  C132  1  0.44031169  0.53601304  0.14333207  1
  C  C133  1  0.93995648  0.52676373  0.14557610  1
  C  C134  1  0.32643054  0.12888485  0.13889959  1
  C  C135  1  0.82275395  0.11918603  0.13849758  1
  C  C136  1  0.23783191  0.35113599  0.14281784  1
  C  C137  1  0.73389241  0.35866537  0.13886808  1
  C  C138  1  0.23071927  0.30788041  0.03248728  1
  C  C139  1  0.72635743  0.31427047  0.02893592  1
  C  C140  1  0.42890876  0.53225940  0.03238656  1
  C  C141  1  0.92375780  0.54395652  0.02373867  1
  C  C142  1  0.34363227  0.13956123  0.02807357  1
  C  C143  1  0.83977719  0.13088905  0.02821145  1
  C  C144  1  0.22505555  0.13558710  0.52696560  1
  C  C145  1  0.72834691  0.14654883  0.52809722  1
  C  C146  1  0.33856151  0.54976314  0.52640484  1
  C  C147  1  0.84552722  0.55219847  0.52417382  1
  C  C148  1  0.42495467  0.30637650  0.52063681  1
  C  C149  1  0.93184975  0.32850140  0.52956156  1
  C  C150  1  0.27026632  0.69835689  0.98010333  1
  C  C151  1  0.78201354  0.69554655  0.97537759  1
  C  C152  1  0.07099011  0.43924310  0.96866581  1
  C  C153  1  0.57154414  0.44356836  0.97160707  1
  C  C154  1  0.15069552  0.85962045  0.97174563  1
  C  C155  1  0.65260249  0.85308565  0.98085169  1
  C  C156  1  0.27889109  0.86362457  0.47152616  1
  C  C157  1  0.76897239  0.84062684  0.47837493  1
  C  C158  1  0.14927698  0.45139499  0.47621565  1
  C  C159  1  0.65158122  0.44597160  0.46939116  1
  C  C160  1  0.07528936  0.70161348  0.46740063  1
  C  C161  1  0.57052002  0.70161341  0.46703442  1
  C  C162  1  0.05545109  0.63480796  0.35848471  1
  C  C163  1  0.55471563  0.64155426  0.35820042  1
  C  C164  1  0.26075754  0.88384620  0.36216376  1
  C  C165  1  0.75621919  0.88441506  0.35852677  1
  C  C166  1  0.18966448  0.48437443  0.35558189  1
  C  C167  1  0.67389822  0.46913021  0.35934455  1
  C  C168  1  0.05570056  0.46966152  0.86004887  1
  C  C169  1  0.55153018  0.47474749  0.86327480  1
  C  C170  1  0.17380220  0.87730385  0.86171080  1
  C  C171  1  0.68681643  0.87427567  0.85932850  1
  C  C172  1  0.25394293  0.62820960  0.86025493  1
  C  C173  1  0.76395319  0.64415932  0.86577208  1
  C  C174  1  0.00864121  0.81913679  0.40807646  1
  C  C175  1  0.50325841  0.82018546  0.40751462  1
  C  C176  1  0.40222774  0.97917045  0.40741779  1
  C  C177  1  0.90899651  0.98046096  0.41421730  1
  C  C178  1  0.08572639  0.17605064  0.41146234  1
  C  C179  1  0.58728606  0.19173812  0.41066153  1
  C  C180  1  0.00385704  0.18764700  0.90811539  1
  C  C181  1  0.50442222  0.19422526  0.91120801  1
  C  C182  1  0.08778883  0.98512721  0.91215217  1
  C  C183  1  0.58417996  0.98396668  0.91421991  1
  C  C184  1  0.40875725  0.83771761  0.91295933  1
  C  C185  1  0.90524206  0.82676587  0.91112381  1
  C  C186  1  0.49095733  0.15876344  0.58293531  1
  C  C187  1  0.98628989  0.17668668  0.58338552  1
  C  C188  1  0.09687795  0.00932687  0.58545114  1
  C  C189  1  0.60113796  0.02077184  0.58732819  1
  C  C190  1  0.40924734  0.80260354  0.58789705  1
  C  C191  1  0.91487341  0.80816584  0.58570752  1
  C  C192  1  0.48542499  0.79723261  0.08428343  1
  C  C193  1  0.99438651  0.82640601  0.08579815  1
  C  C194  1  0.41370988  0.02300371  0.08844973  1
  C  C195  1  0.91129001  0.01790649  0.08730019  1
  C  C196  1  0.10232452  0.17653892  0.08979254  1
  C  C197  1  0.59731813  0.18366584  0.08667136  1
  C  C198  1  0.34357672  0.15660141  0.74621738  1
  C  C199  1  0.85172585  0.16389360  0.74613759  1
  C  C200  1  0.24693930  0.32178528  0.74173421  1
  C  C201  1  0.74375921  0.31173677  0.74893201  1
  C  C202  1  0.42074768  0.53183152  0.74499768  1
  C  C203  1  0.92974439  0.52484533  0.74742158  1
  C  C204  1  0.34269920  0.52973220  0.24643631  1
  C  C205  1  0.84548734  0.53326498  0.24652785  1
  C  C206  1  0.42455839  0.32932714  0.24795986  1
  C  C207  1  0.92237465  0.30519200  0.24532854  1
  C  C208  1  0.23458395  0.15724215  0.24754817  1
  C  C209  1  0.74695653  0.17248253  0.24183760  1
  C  C210  1  0.32688557  0.49633117  0.92425512  1
  C  C211  1  0.82929836  0.51716429  0.92134168  1
  C  C212  1  0.42905813  0.34657835  0.92737058  1
  C  C213  1  0.93121353  0.34836624  0.92222979  1
  C  C214  1  0.24280841  0.13347647  0.92126691  1
  C  C215  1  0.75488310  0.15830297  0.92240257  1
  C  C216  1  0.32730469  0.13824179  0.41928382  1
  C  C217  1  0.82791945  0.15929109  0.42427631  1
  C  C218  1  0.25529479  0.34812838  0.42341404  1
  C  C219  1  0.74260600  0.35192309  0.41914458  1
  C  C220  1  0.43038773  0.51437637  0.42043000  1
  C  C221  1  0.93263755  0.51496756  0.42324444  1
  C  C222  1  0.18160432  0.48750279  0.08249728  1
  C  C223  1  0.67853581  0.49733662  0.07720615  1
  C  C224  1  0.08246813  0.66149585  0.07685582  1
  C  C225  1  0.56748864  0.64969658  0.08322824  1
  C  C226  1  0.25939488  0.87189406  0.08347134  1
  C  C227  1  0.75762556  0.85874717  0.08257874  1
  C  C228  1  0.17874082  0.85907831  0.57561563  1
  C  C229  1  0.68150005  0.87130324  0.57932888  1
  C  C230  1  0.25544554  0.65494309  0.58178508  1
  C  C231  1  0.76039922  0.64686534  0.58206463  1
  C  C232  1  0.06786005  0.48755969  0.58364211  1
  C  C233  1  0.58231061  0.50067858  0.57610387  1
  C  C234  1  0.15678111  0.84238800  0.25680055  1
  C  C235  1  0.65870065  0.82586345  0.25058360  1
  C  C236  1  0.26265872  0.67956445  0.25082305  1
  C  C237  1  0.76390168  0.67545054  0.25814917  1
  C  C238  1  0.07667105  0.46757747  0.25133819  1
  C  C239  1  0.57781761  0.46580346  0.25741379  1
  C  C240  1  0.15839993  0.49073018  0.75074994  1
  C  C241  1  0.65670090  0.49585361  0.75887358  1
  C  C242  1  0.08215796  0.69647916  0.75803683  1
  C  C243  1  0.57482710  0.69131066  0.75122221  1
  C  C244  1  0.26063079  0.85158052  0.75768819  1
  C  C245  1  0.76474217  0.85659942  0.75000122  1
