# generated using pymatgen
data_CuNi2C17
_symmetry_space_group_name_H-M   'P 1'
_cell_length_a   9.19777880
_cell_length_b   9.17315297
_cell_length_c   22.95513820
_cell_angle_alpha   89.30124903
_cell_angle_beta   90.00000000
_cell_angle_gamma   120.08884417
_symmetry_Int_Tables_number   1
_chemical_formula_structural   CuNi2C17
_chemical_formula_sum   'Cu6 Ni12 C102'
_cell_volume   1675.63529187
_cell_formula_units_Z   6
loop_
 _symmetry_equiv_pos_site_id
 _symmetry_equiv_pos_as_xyz
  1  'x, y, z'
loop_
 _atom_site_type_symbol
 _atom_site_label
 _atom_site_symmetry_multiplicity
 _atom_site_fract_x
 _atom_site_fract_y
 _atom_site_fract_z
 _atom_site_occupancy
  C  C0  1  0.35397174  0.35170726  0.24483502  1
  C  C1  1  0.00122921  0.63085375  0.24377395  1
  C  C2  1  0.62962454  0.63085375  0.74377395  1
  C  C3  1  0.99773552  0.35170726  0.74483502  1
  C  C4  1  0.02063874  0.68504026  0.57816802  1
  C  C5  1  0.66789621  0.96418675  0.57710695  1
  C  C6  1  0.29629154  0.96418675  0.07710695  1
  C  C7  1  0.66440252  0.68504026  0.07816802  1
  C  C8  1  0.68730474  0.01837426  0.91150202  1
  C  C9  1  0.33456221  0.29752075  0.91044095  1
  C  C10  1  0.96295754  0.29752075  0.41044095  1
  C  C11  1  0.33106852  0.01837426  0.41150202  1
  C  C12  1  0.97559339  0.98073364  0.49268471  1
  C  C13  1  0.00514026  0.98073364  0.99268471  1
  C  C14  1  0.64226039  0.31406664  0.82601771  1
  C  C15  1  0.67180726  0.31406664  0.32601771  1
  C  C16  1  0.30892639  0.64740064  0.15935171  1
  C  C17  1  0.33847326  0.64740064  0.65935171  1
  C  C18  1  0.00845816  0.01387691  0.65010748  1
  C  C19  1  0.00541875  0.01387691  0.15010748  1
  C  C20  1  0.67512516  0.34720991  0.98344048  1
  C  C21  1  0.67208575  0.34720991  0.48344048  1
  C  C22  1  0.34179116  0.68054391  0.31677448  1
  C  C23  1  0.33875175  0.68054391  0.81677448  1
  C  C24  1  0.99068219  0.99457058  0.34986887  1
  C  C25  1  0.00388838  0.99457058  0.84986887  1
  C  C26  1  0.65734919  0.32790358  0.68320187  1
  C  C27  1  0.67055538  0.32790358  0.18320187  1
  C  C28  1  0.32401519  0.66123758  0.01653587  1
  C  C29  1  0.33722138  0.66123758  0.51653587  1
  Ni  Ni30  1  0.30194013  0.01046862  0.25129006  1
  Ni  Ni31  1  0.99378210  0.29805440  0.25501654  1
  Ni  Ni32  1  0.30427229  0.29805440  0.75501654  1
  Ni  Ni33  1  0.70852849  0.01046862  0.75129006  1
  Ni  Ni34  1  0.96860713  0.34380162  0.58462306  1
  Ni  Ni35  1  0.66044910  0.63138740  0.58834954  1
  Ni  Ni36  1  0.97093929  0.63138740  0.08834954  1
  Ni  Ni37  1  0.37519549  0.34380162  0.08462306  1
  Ni  Ni38  1  0.63527313  0.67713562  0.91795706  1
  Ni  Ni39  1  0.32711510  0.96472140  0.92168354  1
  Ni  Ni40  1  0.63760529  0.96472140  0.42168354  1
  Ni  Ni41  1  0.04186149  0.67713562  0.41795706  1
  Cu  Cu42  1  0.70602207  0.69778402  0.24995212  1
  Cu  Cu43  1  0.99176195  0.69778402  0.74995212  1
  Cu  Cu44  1  0.37268907  0.03111702  0.58328512  1
  Cu  Cu45  1  0.65842895  0.03111702  0.08328512  1
  Cu  Cu46  1  0.03935507  0.36445102  0.91661912  1
  Cu  Cu47  1  0.32509495  0.36445102  0.41661912  1
  C  C48  1  0.21230856  0.02968811  0.30539635  1
  C  C49  1  0.81230574  0.79093619  0.29922717  1
  C  C50  1  0.97825097  0.19700670  0.31108957  1
  C  C51  1  0.21875573  0.19700670  0.81108957  1
  C  C52  1  0.97863045  0.79093619  0.79922717  1
  C  C53  1  0.81737955  0.02968811  0.80539635  1
  C  C54  1  0.78929806  0.98139779  0.69626340  1
  C  C55  1  0.19315826  0.21242426  0.70152351  1
  C  C56  1  0.01754433  0.79150313  0.69423424  1
  C  C57  1  0.77395879  0.79150313  0.19423424  1
  C  C58  1  0.01926600  0.21242426  0.20152351  1
  C  C59  1  0.19209973  0.98139779  0.19626340  1
  C  C60  1  0.87897556  0.36302111  0.63872935  1
  C  C61  1  0.47897274  0.12426919  0.63256017  1
  C  C62  1  0.64491797  0.53033970  0.64442257  1
  C  C63  1  0.88542273  0.53033970  0.14442257  1
  C  C64  1  0.64529745  0.12426919  0.13256017  1
  C  C65  1  0.48404655  0.36302111  0.13872935  1
  C  C66  1  0.45596506  0.31473079  0.02959640  1
  C  C67  1  0.85982526  0.54575726  0.03485651  1
  C  C68  1  0.68421133  0.12483613  0.02756724  1
  C  C69  1  0.44062579  0.12483613  0.52756724  1
  C  C70  1  0.68593300  0.54575726  0.53485651  1
  C  C71  1  0.85876673  0.31473079  0.52959640  1
  C  C72  1  0.54564156  0.69635511  0.97206335  1
  C  C73  1  0.14563874  0.45760319  0.96589417  1
  C  C74  1  0.31158397  0.86367370  0.97775657  1
  C  C75  1  0.55208873  0.86367370  0.47775657  1
  C  C76  1  0.31196345  0.45760319  0.46589417  1
  C  C77  1  0.15071255  0.69635511  0.47206335  1
  C  C78  1  0.12263106  0.64806479  0.36293040  1
  C  C79  1  0.52649126  0.87909126  0.36819051  1
  C  C80  1  0.35087733  0.45817013  0.36090124  1
  C  C81  1  0.10729179  0.45817013  0.86090124  1
  C  C82  1  0.35259900  0.87909126  0.86819051  1
  C  C83  1  0.52543273  0.64806479  0.86293040  1
  C  C84  1  0.03011724  0.83936686  0.41113057  1
  C  C85  1  0.81728291  0.99259138  0.41473904  1
  C  C86  1  0.16794945  0.19637062  0.41454035  1
  C  C87  1  0.02842117  0.19637062  0.91454035  1
  C  C88  1  0.17530847  0.99259138  0.91473904  1
  C  C89  1  0.80924962  0.83936686  0.91113057  1
  C  C90  1  0.98334244  0.18189784  0.58753958  1
  C  C91  1  0.19672032  -0.00108950  0.58824079  1
  C  C92  1  0.82655853  0.80985746  0.58854668  1
  C  C93  1  0.98329893  0.80985746  0.08854668  1
  C  C94  1  0.80219018  -0.00108950  0.08824079  1
  C  C95  1  0.19855540  0.18189784  0.08753958  1
  C  C96  1  0.69678424  0.17269986  0.74446357  1
  C  C97  1  0.48394991  0.32592438  0.74807204  1
  C  C98  1  0.83461645  0.52970362  0.74787335  1
  C  C99  1  0.69508817  0.52970362  0.24787335  1
  C  C100  1  0.84197547  0.32592438  0.24807204  1
  C  C101  1  0.47591662  0.17269986  0.24446357  1
  C  C102  1  0.65000944  0.51523084  0.92087258  1
  C  C103  1  0.86338732  0.33224350  0.92157379  1
  C  C104  1  0.49322553  0.14319046  0.92187968  1
  C  C105  1  0.64996593  0.14319046  0.42187968  1
  C  C106  1  0.46885718  0.33224350  0.42157379  1
  C  C107  1  0.86522240  0.51523084  0.42087258  1
  C  C108  1  0.36345024  0.50603386  0.07779757  1
  C  C109  1  0.15061591  0.65925838  0.08140604  1
  C  C110  1  0.50128245  0.86303762  0.08120735  1
  C  C111  1  0.36175417  0.86303762  0.58120735  1
  C  C112  1  0.50864147  0.65925838  0.58140604  1
  C  C113  1  0.14258262  0.50603386  0.57779757  1
  C  C114  1  0.31667544  0.84856484  0.25420658  1
  C  C115  1  0.53005332  0.66557750  0.25490779  1
  C  C116  1  0.15989153  0.47652446  0.25521368  1
  C  C117  1  0.31663193  0.47652446  0.75521368  1
  C  C118  1  0.13552318  0.66557750  0.75490779  1
  C  C119  1  0.53188840  0.84856484  0.75420658  1
