# generated using pymatgen
data_CuNiC4
_symmetry_space_group_name_H-M   'P 1'
_cell_length_a   5.55590200
_cell_length_b   5.55590200
_cell_length_c   10.08406000
_cell_angle_alpha   90.00000000
_cell_angle_beta   90.00000000
_cell_angle_gamma   90.00000000
_symmetry_Int_Tables_number   1
_chemical_formula_structural   CuNiC4
_chemical_formula_sum   'Cu2 Ni2 C8'
_cell_volume   311.27523837
_cell_formula_units_Z   2
loop_
 _symmetry_equiv_pos_site_id
 _symmetry_equiv_pos_as_xyz
  1  'x, y, z'
loop_
 _atom_site_type_symbol
 _atom_site_label
 _atom_site_symmetry_multiplicity
 _atom_site_fract_x
 _atom_site_fract_y
 _atom_site_fract_z
 _atom_site_occupancy
  Ni  Ni0  1  0.00000000  0.50000000  0.25000000  1
  Ni  Ni1  1  0.50000000  0.00000000  0.75000000  1
  Cu  Cu2  1  0.00000000  0.00000000  0.00000000  1
  Cu  Cu3  1  0.00000000  0.00000000  0.50000000  1
  C  C4  1  0.27298800  0.22647900  0.87254700  1
  C  C5  1  0.72701200  0.77352100  0.87254700  1
  C  C6  1  0.22647900  0.27298800  0.37254700  1
  C  C7  1  0.27298800  0.77352100  0.62745300  1
  C  C8  1  0.72701200  0.22647900  0.62745300  1
  C  C9  1  0.22647900  0.72701200  0.12745300  1
  C  C10  1  0.77352100  0.27298800  0.12745300  1
  C  C11  1  0.77352100  0.72701200  0.37254700  1
