# generated using pymatgen
data_Cu7Ni2
_symmetry_space_group_name_H-M   'P 1'
_cell_length_a   7.32894122
_cell_length_b   7.32894122
_cell_length_c   14.68773946
_cell_angle_alpha   74.78956543
_cell_angle_beta   74.78956543
_cell_angle_gamma   59.64629480
_symmetry_Int_Tables_number   1
_chemical_formula_structural   Cu7Ni2
_chemical_formula_sum   'Cu28 Ni8'
_cell_volume   648.90677661
_cell_formula_units_Z   4
loop_
 _symmetry_equiv_pos_site_id
 _symmetry_equiv_pos_as_xyz
  1  'x, y, z'
loop_
 _atom_site_type_symbol
 _atom_site_label
 _atom_site_symmetry_multiplicity
 _atom_site_fract_x
 _atom_site_fract_y
 _atom_site_fract_z
 _atom_site_occupancy
  Ni  Ni0  1  0.28130000  0.28130000  0.42718200  1
  Ni  Ni1  1  0.71870000  0.71870000  0.57281800  1
  Ni  Ni2  1  0.38333000  0.38333000  0.79398200  1
  Ni  Ni3  1  0.61667000  0.61667000  0.20601800  1
  Ni  Ni4  1  0.15651400  0.15651400  0.03273300  1
  Ni  Ni5  1  0.84348600  0.84348600  0.96726700  1
  Ni  Ni6  1  0.03412400  0.03412400  0.64626000  1
  Ni  Ni7  1  0.96587600  0.96587600  0.35374000  1
  Cu  Cu8  1  0.95880500  0.44333600  0.37722300  1
  Cu  Cu9  1  0.55666400  0.04119500  0.62277700  1
  Cu  Cu10  1  0.04119500  0.55666400  0.62277700  1
  Cu  Cu11  1  0.44333600  0.95880500  0.37722300  1
  Cu  Cu12  1  0.97094400  0.44021000  0.22354500  1
  Cu  Cu13  1  0.55979000  0.02905600  0.77645500  1
  Cu  Cu14  1  0.02905600  0.55979000  0.77645500  1
  Cu  Cu15  1  0.44021000  0.97094400  0.22354500  1
  Cu  Cu16  1  0.77599500  0.77599500  0.40672500  1
  Cu  Cu17  1  0.22400500  0.22400500  0.59327500  1
  Cu  Cu18  1  0.89468800  0.89468800  0.79652800  1
  Cu  Cu19  1  0.10531200  0.10531200  0.20347200  1
  Cu  Cu20  1  0.65333800  0.65333800  0.04338700  1
  Cu  Cu21  1  0.34666200  0.34666200  0.95661300  1
  Cu  Cu22  1  0.52809000  0.52809000  0.64495100  1
  Cu  Cu23  1  0.47191000  0.47191000  0.35504900  1
  Cu  Cu24  1  0.64260500  0.17271400  0.01886800  1
  Cu  Cu25  1  0.82728600  0.35739500  0.98113200  1
  Cu  Cu26  1  0.35739500  0.82728600  0.98113200  1
  Cu  Cu27  1  0.17271400  0.64260500  0.01886800  1
  Cu  Cu28  1  0.27232700  0.76481500  0.42157500  1
  Cu  Cu29  1  0.23518500  0.72767300  0.57842500  1
  Cu  Cu30  1  0.72767300  0.23518500  0.57842500  1
  Cu  Cu31  1  0.76481500  0.27232700  0.42157500  1
  Cu  Cu32  1  0.53805900  0.22486400  0.17045400  1
  Cu  Cu33  1  0.77513600  0.46194100  0.82954600  1
  Cu  Cu34  1  0.46194100  0.77513600  0.82954600  1
  Cu  Cu35  1  0.22486400  0.53805900  0.17045400  1
