# generated using pymatgen
data_Cu3Ni6C73
_symmetry_space_group_name_H-M   'P 1'
_cell_length_a   18.13957612
_cell_length_b   8.99229199
_cell_length_c   21.96434189
_cell_angle_alpha   90.27703433
_cell_angle_beta   89.49105504
_cell_angle_gamma   120.17325845
_symmetry_Int_Tables_number   1
_chemical_formula_structural   Cu3Ni6C73
_chemical_formula_sum   'Cu9 Ni18 C219'
_cell_volume   3097.19333981
_cell_formula_units_Z   3
loop_
 _symmetry_equiv_pos_site_id
 _symmetry_equiv_pos_as_xyz
  1  'x, y, z'
loop_
 _atom_site_type_symbol
 _atom_site_label
 _atom_site_symmetry_multiplicity
 _atom_site_fract_x
 _atom_site_fract_y
 _atom_site_fract_z
 _atom_site_occupancy
  C  C0  1  0.19398653  0.36539318  0.24939758  1
  C  C1  1  0.68799701  0.35979825  0.24821876  1
  C  C2  1  0.99693122  0.63775465  0.25230839  1
  C  C3  1  0.49447182  0.62726892  0.24429216  1
  C  C4  1  0.32065307  0.63530445  0.74706110  1
  C  C5  1  0.82060224  0.63395628  0.73807342  1
  C  C6  1  0.18886055  0.02123042  0.74801414  1
  C  C7  1  0.69180512  0.02336251  0.74866185  1
  C  C8  1  0.15204735  0.32924478  0.57727455  1
  C  C9  1  0.66190657  0.34762792  0.57941013  1
  C  C10  1  0.01066015  0.69304374  0.58005267  1
  C  C11  1  0.51483182  0.69290755  0.58228352  1
  C  C12  1  0.32403912  0.96877405  0.59038736  1
  C  C13  1  0.82370042  0.96168214  0.59058381  1
  C  C14  1  0.15425646  0.97233530  0.07991746  1
  C  C15  1  0.64871511  0.95937549  0.07335901  1
  C  C16  1  0.82272280  0.67983561  0.08960996  1
  C  C17  1  0.01590412  0.33643724  0.08179310  1
  C  C18  1  0.51747201  0.34476844  0.08951541  1
  C  C19  1  0.48707510  0.67147097  0.92158001  1
  C  C20  1  0.98920866  0.67818933  0.91690348  1
  C  C21  1  0.84960812  0.03662478  0.90836219  1
  C  C22  1  0.16373776  0.28425479  0.90962808  1
  C  C23  1  0.66298535  0.27748681  0.91495810  1
  C  C24  1  0.48858667  0.30476109  0.41803115  1
  C  C25  1  0.98451981  0.29768594  0.42110289  1
  C  C26  1  0.16406264  0.05217945  0.41483731  1
  C  C27  1  0.66577251  0.05195132  0.41515749  1
  C  C28  1  0.35311008  0.66287034  0.40704220  1
  C  C29  1  0.85178112  0.66177785  0.41561559  1
  C  C30  1  0.00387753  0.99951895  0.50009821  1
  C  C31  1  0.51139902  0.01619004  0.49773600  1
  C  C32  1  0.00646077  0.00313305  0.99683787  1
  C  C33  1  0.49679360  0.99422425  0.99890458  1
  C  C34  1  0.33703155  0.31172490  0.83045120  1
  C  C35  1  0.83130739  0.31972766  0.82627791  1
  C  C36  1  0.32729701  0.32661063  0.32562662  1
  C  C37  1  0.82350066  0.32392915  0.32876804  1
  C  C38  1  0.18526066  0.67695557  0.16265875  1
  C  C39  1  0.66441143  0.66712306  0.16287197  1
  C  C40  1  0.16050170  0.66441320  0.66601050  1
  C  C41  1  0.66909514  0.66796427  0.66339304  1
  C  C42  1  0.00856433  0.00708937  0.34513274  1
  C  C43  1  0.50915506  0.00865510  0.34292622  1
  C  C44  1  0.00651132  0.01468040  0.84196550  1
  C  C45  1  0.50482993  0.01230086  0.84831716  1
  C  C46  1  0.32334150  0.30490662  0.68631119  1
  C  C47  1  0.82094711  0.31644056  0.68252381  1
  C  C48  1  0.32699180  0.34507071  0.18401632  1
  C  C49  1  0.82018924  0.33063369  0.18542916  1
  C  C50  1  0.80876062  0.29023213  0.98490170  1
  C  C51  1  0.31298307  0.32697485  0.48334503  1
  C  C52  1  0.80849165  0.34766917  0.49155432  1
  C  C53  1  0.17129610  0.66650671  0.01550465  1
  C  C54  1  0.65473906  0.65666085  0.01863062  1
  C  C55  1  0.16274328  0.66574481  0.51518368  1
  C  C56  1  0.67256662  0.66585483  0.51978201  1
  Ni  Ni57  1  0.15472247  0.99677302  0.25422920  1
  Ni  Ni58  1  0.65223870  0.99094767  0.25396886  1
  Ni  Ni59  1  0.35993412  0.72323689  0.25261985  1
  Ni  Ni60  1  0.85868200  0.71855484  0.25179427  1
  Ni  Ni61  1  0.14602361  0.30403748  0.75160933  1
  Ni  Ni62  1  0.64881007  0.30758975  0.75723871  1
  Ni  Ni63  1  0.35975910  0.00503889  0.75287411  1
  Ni  Ni64  1  0.85897109  0.00946768  0.75340825  1
  Ni  Ni65  1  0.17903212  0.02578866  0.58458915  1
  Ni  Ni66  1  0.67620007  0.02655230  0.58589742  1
  Ni  Ni67  1  0.83984830  0.64205417  0.58704683  1
  Ni  Ni68  1  0.47077854  0.61289224  0.08398790  1
  Ni  Ni69  1  0.18064166  0.33367170  0.08793536  1
  Ni  Ni70  1  0.67682278  0.32519504  0.08614250  1
  Ni  Ni71  1  0.17042754  0.95831222  0.92015696  1
  Ni  Ni72  1  0.66453652  0.95215420  0.91537293  1
  Ni  Ni73  1  0.16459904  0.38072892  0.41543284  1
  Ni  Ni74  1  0.66335387  0.37780151  0.41483214  1
  Cu  Cu75  1  0.00059040  0.00966306  0.65081349  1
  Cu  Cu76  1  0.51052900  0.03029601  0.65907109  1
  Cu  Cu77  1  0.01153745  0.99646072  0.15797367  1
  Cu  Cu78  1  0.50706731  0.96075994  0.14966364  1
  Cu  Cu79  1  0.31914499  0.31030928  0.99110838  1
  Cu  Cu80  1  0.18668387  0.68888152  0.31012724  1
  Cu  Cu81  1  0.68336707  0.67918122  0.30800909  1
  Cu  Cu82  1  0.18011051  0.68787865  0.81052594  1
  Cu  Cu83  1  0.68009114  0.68393620  0.81016612  1
  C  C84  1  0.00166475  0.29533557  0.24943068  1
  C  C85  1  0.50170260  0.29712791  0.25165892  1
  C  C86  1  0.00436993  0.70602628  0.75206408  1
  C  C87  1  0.50233343  0.70631455  0.74993184  1
  C  C88  1  0.47629436  0.32596657  0.58416490  1
  C  C89  1  0.97895932  0.32868313  0.58410625  1
  C  C90  1  0.33754720  0.63559109  0.58378888  1
  C  C91  1  0.97892081  0.62915487  0.08438358  1
  C  C92  1  0.33415582  0.04291682  0.08413210  1
  C  C93  1  0.84006648  0.04426823  0.08374367  1
  C  C94  1  0.31314069  0.66273369  0.91556569  1
  C  C95  1  0.81406221  0.66592773  0.91760629  1
  C  C96  1  0.02080045  0.38065066  0.91728469  1
  C  C97  1  0.51628709  0.37250703  0.91681947  1
  C  C98  1  0.31371061  0.96317510  0.41733422  1
  C  C99  1  0.81320604  0.96252740  0.41532395  1
  C  C100  1  0.01955856  0.66184124  0.41521977  1
  C  C101  1  0.51868348  0.66021974  0.41864908  1
  C  C102  1  0.11448018  0.03820100  0.31265010  1
  C  C103  1  0.61446127  0.03429889  0.31315490  1
  C  C104  1  0.40861895  0.80595078  0.31509616  1
  C  C105  1  0.91112820  0.80353266  0.31257213  1
  C  C106  1  0.49278420  0.20442283  0.30902355  1
  C  C107  1  0.98825390  0.19799256  0.30554570  1
  C  C108  1  0.11462493  0.18597692  0.81173491  1
  C  C109  1  0.61132620  0.18274398  0.81428683  1
  C  C110  1  0.48844051  0.77575702  0.80641914  1
  C  C111  1  0.99090548  0.78055521  0.80857540  1
  C  C112  1  0.40792253  0.99869623  0.81097534  1
  C  C113  1  0.90407583  0.00999572  0.81610324  1
  C  C114  1  0.40482668  0.96568030  0.68882350  1
  C  C115  1  0.90431729  0.96647516  0.69405155  1
  C  C116  1  0.08346641  0.20709376  0.69135227  1
  C  C117  1  0.58923027  0.22411196  0.69390503  1
  C  C118  1  0.01942303  0.82129185  0.69769752  1
  C  C119  1  0.51730127  0.82676675  0.69555127  1
  C  C120  1  0.40980818  0.84982029  0.19218175  1
  C  C121  1  0.90817909  0.84357833  0.18868377  1
  C  C122  1  0.01646458  0.20584572  0.19425476  1
  C  C123  1  0.51429782  0.21225958  0.19760675  1
  C  C124  1  0.08582496  0.94621026  0.19365216  1
  C  C125  1  0.58677312  0.94070376  0.19289951  1
  C  C126  1  0.43351979  0.35191253  0.63625505  1
  C  C127  1  0.93615173  0.34890499  0.63670282  1
  C  C128  1  0.24250923  0.10158643  0.64167724  1
  C  C129  1  0.73671554  0.10050169  0.64412636  1
  C  C130  1  0.33017530  0.53362630  0.63795854  1
  C  C131  1  0.82631724  0.51922503  0.64390194  1
  C  C132  1  0.43370982  0.49539237  0.14300978  1
  C  C133  1  0.93762445  0.52432159  0.13868618  1
  C  C134  1  0.32036102  0.12212222  0.13675254  1
  C  C135  1  0.83263769  0.13628385  0.13599120  1
  C  C136  1  0.23123059  0.35800645  0.14858185  1
  C  C137  1  0.74029150  0.37531396  0.14303078  1
  C  C138  1  0.22097834  0.28033823  0.02688878  1
  C  C139  1  0.70875434  0.26867788  0.02480294  1
  C  C140  1  0.40751022  0.51194044  0.02068660  1
  C  C141  1  0.93000776  0.54972995  0.02796401  1
  C  C142  1  0.34692840  0.15359734  0.02619977  1
  C  C143  1  0.85402084  0.14491572  0.02570532  1
  C  C144  1  0.21324466  0.14305602  0.52257759  1
  C  C145  1  0.70865174  0.14655324  0.52456663  1
  C  C146  1  0.34976301  0.55660447  0.52712281  1
  C  C147  1  0.86493221  0.57728608  0.52381924  1
  C  C148  1  0.42843299  0.30127849  0.52660640  1
  C  C149  1  0.93268637  0.30645427  0.52628886  1
  C  C150  1  0.27144970  0.68008003  0.96996089  1
  C  C151  1  0.77183231  0.68455678  0.97191666  1
  C  C152  1  0.06914435  0.45316232  0.97432046  1
  C  C153  1  0.56491997  0.44467559  0.97388230  1
  C  C154  1  0.15363235  0.84299883  0.97996520  1
  C  C155  1  0.65683835  0.84607508  0.97597294  1
  C  C156  1  0.27258921  0.86206778  0.47249887  1
  C  C157  1  0.77311195  0.86360808  0.47099672  1
  C  C158  1  0.15317831  0.46470357  0.47749327  1
  C  C159  1  0.64776381  0.45905232  0.47580977  1
  C  C160  1  0.06935924  0.68740004  0.47138916  1
  C  C161  1  0.56960174  0.68295331  0.47356005  1
  C  C162  1  0.06565770  0.64875551  0.36029157  1
  C  C163  1  0.56056452  0.64224684  0.36251494  1
  C  C164  1  0.25618117  0.88100492  0.36190404  1
  C  C165  1  0.75593290  0.87765604  0.36008407  1
  C  C166  1  0.17916584  0.51347221  0.35405846  1
  C  C167  1  0.67982398  0.51054455  0.35330037  1
  C  C168  1  0.06722821  0.49141831  0.86378952  1
  C  C169  1  0.56190435  0.48760625  0.86379839  1
  C  C170  1  0.18284441  0.86259062  0.85608277  1
  C  C171  1  0.67837352  0.85023463  0.85309679  1
  C  C172  1  0.25909203  0.63684954  0.85859223  1
  C  C173  1  0.76061884  0.64003709  0.86066807  1
  C  C174  1  0.00745361  0.81390662  0.41307987  1
  C  C175  1  0.50613656  0.81214414  0.41654894  1
  C  C176  1  0.39727293  0.97583927  0.41131073  1
  C  C177  1  0.89744543  0.97498189  0.40957839  1
  C  C178  1  0.07819554  0.19049958  0.41118189  1
  C  C179  1  0.57783199  0.18676024  0.41006895  1
  C  C180  1  0.00861493  0.20373976  0.91345642  1
  C  C181  1  0.50584919  0.19947045  0.91241703  1
  C  C182  1  0.08694547  0.98208542  0.91358314  1
  C  C183  1  0.57869914  0.96799616  0.91260465  1
  C  C184  1  0.39990709  0.80776863  0.91110891  1
  C  C185  1  0.90033593  0.82120669  0.91319009  1
  C  C186  1  0.48204573  0.16158988  0.58950047  1
  C  C187  1  0.98684081  0.16637279  0.58783129  1
  C  C188  1  0.08544480  0.02019744  0.59614242  1
  C  C189  1  0.57783582  0.01809750  0.59761639  1
  C  C190  1  0.41487768  0.81147362  0.58551268  1
  C  C191  1  0.92698574  0.84006774  0.59463491  1
  C  C192  1  0.48131671  0.81017713  0.08604347  1
  C  C193  1  0.98438492  0.80541135  0.08770188  1
  C  C194  1  0.41381248  0.03615372  0.08379718  1
  C  C195  1  0.91764369  0.02457813  0.08656182  1
  C  C196  1  0.08120774  0.14080787  0.09467883  1
  C  C197  1  0.57831863  0.14362860  0.09909737  1
  C  C198  1  0.34230156  0.16265891  0.74781648  1
  C  C199  1  0.84149424  0.16617442  0.74633867  1
  C  C200  1  0.24339427  0.34279557  0.74096482  1
  C  C201  1  0.74453120  0.34126027  0.74858013  1
  C  C202  1  0.42676640  0.53768488  0.73882482  1
  C  C203  1  0.93123521  0.53527515  0.74404908  1
  C  C204  1  0.34660305  0.53137840  0.24906259  1
  C  C205  1  0.84879290  0.52892092  0.24577091  1
  C  C206  1  0.42889161  0.32442346  0.24751311  1
  C  C207  1  0.92984878  0.32318367  0.23953209  1
  C  C208  1  0.24719871  0.15767021  0.24258664  1
  C  C209  1  0.74559871  0.15325898  0.24369453  1
  C  C210  1  0.31575709  0.49725736  0.91657056  1
  C  C211  1  0.82352749  0.51054526  0.91895253  1
  C  C212  1  0.43157462  0.36534762  0.91961400  1
  C  C213  1  0.93583059  0.36926649  0.91976754  1
  C  C214  1  0.25953439  0.16157401  0.92626891  1
  C  C215  1  0.75344571  0.14097286  0.91226668  1
  C  C216  1  0.32370524  0.13763588  0.41860617  1
  C  C217  1  0.82374947  0.13700002  0.41703091  1
  C  C218  1  0.25209359  0.36766292  0.41287485  1
  C  C219  1  0.75101984  0.36574872  0.41380378  1
  C  C220  1  0.43250374  0.49888759  0.42188759  1
  C  C221  1  0.93571620  0.50008400  0.41661371  1
  C  C222  1  0.16114663  0.48759297  0.07531719  1
  C  C223  1  0.66688248  0.49437247  0.07702097  1
  C  C224  1  0.06706572  0.65869019  0.08238851  1
  C  C225  1  0.56846234  0.65220311  0.07850396  1
  C  C226  1  0.25760148  0.86991488  0.07685507  1
  C  C227  1  0.76272015  0.87016940  0.08085511  1
  C  C228  1  0.16380136  0.82985303  0.57684791  1
  C  C229  1  0.65920533  0.83227321  0.57659158  1
  C  C230  1  0.25943703  0.65116222  0.58133833  1
  C  C231  1  0.75475465  0.66095116  0.58253019  1
  C  C232  1  0.06781359  0.47887384  0.58247877  1
  C  C233  1  0.56437071  0.47427555  0.58211153  1
  C  C234  1  0.15067459  0.80379357  0.26082612  1
  C  C235  1  0.64972206  0.80057217  0.26115308  1
  C  C236  1  0.26015388  0.69669490  0.25236364  1
  C  C237  1  0.75996823  0.69195259  0.25065448  1
  C  C238  1  0.08272401  0.46628245  0.25003242  1
  C  C239  1  0.58401458  0.47402403  0.25275025  1
  C  C240  1  0.15364958  0.49980731  0.76098352  1
  C  C241  1  0.65348106  0.49986684  0.76289308  1
  C  C242  1  0.08723671  0.70303602  0.75486857  1
  C  C243  1  0.58272086  0.69773382  0.75039514  1
  C  C244  1  0.25928646  0.82207681  0.75181263  1
  C  C245  1  0.75931529  0.82224355  0.75314613  1
