# generated using pymatgen
data_Cu6Ni4C7
_symmetry_space_group_name_H-M   'P 1'
_cell_length_a   3.83204800
_cell_length_b   5.36795071
_cell_length_c   10.04951345
_cell_angle_alpha   92.60758192
_cell_angle_beta   89.99912176
_cell_angle_gamma   110.90802591
_symmetry_Int_Tables_number   1
_chemical_formula_structural   Cu6Ni4C7
_chemical_formula_sum   'Cu6 Ni4 C7'
_cell_volume   192.88020892
_cell_formula_units_Z   1
loop_
 _symmetry_equiv_pos_site_id
 _symmetry_equiv_pos_as_xyz
  1  'x, y, z'
loop_
 _atom_site_type_symbol
 _atom_site_label
 _atom_site_symmetry_multiplicity
 _atom_site_fract_x
 _atom_site_fract_y
 _atom_site_fract_z
 _atom_site_occupancy
  C  C0  1  0.49475300  0.98992400  0.26596100  1
  C  C1  1  0.20036600  0.40173000  0.24503100  1
  C  C2  1  0.15199300  0.30424600  0.95310100  1
  C  C3  1  0.12815600  0.25678300  0.54966800  1
  C  C4  1  0.79432700  0.59015500  0.74774000  1
  C  C5  1  0.86337000  0.72700700  0.03312600  1
  C  C6  1  0.85640700  0.71321500  0.45451900  1
  Ni  Ni7  1  0.33092400  0.66230500  0.09679500  1
  Ni  Ni8  1  0.03219700  0.06517500  0.37270200  1
  Ni  Ni9  1  0.68958000  0.37971200  0.56795200  1
  Ni  Ni10  1  0.69273900  0.38595100  0.91736800  1
  Cu  Cu11  1  0.32644000  0.65335300  0.41468800  1
  Cu  Cu12  1  0.25010400  0.50096900  0.74412700  1
  Cu  Cu13  1  0.05015700  0.10068600  0.11756700  1
  Cu  Cu14  1  0.71209000  0.42497400  0.26717000  1
  Cu  Cu15  1  0.95483900  0.91054400  0.87591300  1
  Cu  Cu16  1  0.95369700  0.90827400  0.62032000  1
