# generated using pymatgen
data_CuNiC5
_symmetry_space_group_name_H-M   'P 1'
_cell_length_a   3.04774127
_cell_length_b   5.43762810
_cell_length_c   5.70127504
_cell_angle_alpha   107.91119557
_cell_angle_beta   90.00000000
_cell_angle_gamma   90.00000000
_symmetry_Int_Tables_number   1
_chemical_formula_structural   CuNiC5
_chemical_formula_sum   'Cu1 Ni1 C5'
_cell_volume   89.90504243
_cell_formula_units_Z   1
loop_
 _symmetry_equiv_pos_site_id
 _symmetry_equiv_pos_as_xyz
  1  'x, y, z'
loop_
 _atom_site_type_symbol
 _atom_site_label
 _atom_site_symmetry_multiplicity
 _atom_site_fract_x
 _atom_site_fract_y
 _atom_site_fract_z
 _atom_site_occupancy
  Ni  Ni0  1  0.47080551  0.50000000  0.00000000  1
  C  C1  1  0.97072666  0.00000000  0.00000000  1
  Cu  Cu2  1  0.46940170  0.50000000  0.50000000  1
  C  C3  1  0.96969590  0.60003340  0.77118504  1
  C  C4  1  0.47067067  0.88478934  0.18326835  1
  C  C5  1  0.47067067  0.11521066  0.81673165  1
  C  C6  1  0.96969590  0.39996660  0.22881496  1
