# generated using pymatgen
data_Cu(NiC4)2
_symmetry_space_group_name_H-M   'P 1'
_cell_length_a   7.40434463
_cell_length_b   7.40653285
_cell_length_c   7.40434424
_cell_angle_alpha   49.62141810
_cell_angle_beta   49.62738296
_cell_angle_gamma   49.62141915
_symmetry_Int_Tables_number   1
_chemical_formula_structural   Cu(NiC4)2
_chemical_formula_sum   'Cu1 Ni2 C8'
_cell_volume   216.67884474
_cell_formula_units_Z   1
loop_
 _symmetry_equiv_pos_site_id
 _symmetry_equiv_pos_as_xyz
  1  'x, y, z'
loop_
 _atom_site_type_symbol
 _atom_site_label
 _atom_site_symmetry_multiplicity
 _atom_site_fract_x
 _atom_site_fract_y
 _atom_site_fract_z
 _atom_site_occupancy
  Ni  Ni0  1  0.72321390  0.72220458  0.72321390  1
  Ni  Ni1  1  0.17481883  0.17392518  0.17481883  1
  Cu  Cu2  1  0.99673760  0.99629952  0.99673760  1
  C  C3  1  0.40130131  0.40039399  0.40130131  1
  C  C4  1  0.55033411  0.55025709  0.55033411  1
  C  C5  1  0.28833340  0.75856559  0.75748472  1
  C  C6  1  0.22978352  0.75886392  0.22978352  1
  C  C7  1  0.75808104  0.28985960  0.75808104  1
  C  C8  1  0.22989693  0.22912647  0.75980665  1
  C  C9  1  0.75980665  0.22912647  0.22989693  1
  C  C10  1  0.75748472  0.75856559  0.28833340  1
