# generated using pymatgen
data_Cu6NiC12
_symmetry_space_group_name_H-M   'P 1'
_cell_length_a   11.98609053
_cell_length_b   6.64259470
_cell_length_c   2.92149464
_cell_angle_alpha   89.99889276
_cell_angle_beta   89.99029342
_cell_angle_gamma   110.34991645
_symmetry_Int_Tables_number   1
_chemical_formula_structural   Cu6NiC12
_chemical_formula_sum   'Cu6 Ni1 C12'
_cell_volume   218.08794450
_cell_formula_units_Z   1
loop_
 _symmetry_equiv_pos_site_id
 _symmetry_equiv_pos_as_xyz
  1  'x, y, z'
loop_
 _atom_site_type_symbol
 _atom_site_label
 _atom_site_symmetry_multiplicity
 _atom_site_fract_x
 _atom_site_fract_y
 _atom_site_fract_z
 _atom_site_occupancy
  Ni  Ni0  1  0.49266025  0.01451166  0.01112617  1
  Cu  Cu1  1  0.00120383  0.00435633  0.01091898  1
  Cu  Cu2  1  0.28678998  0.21003251  0.51020934  1
  Cu  Cu3  1  0.00210045  0.50332630  0.51075683  1
  Cu  Cu4  1  0.71991023  0.30763726  0.01131968  1
  Cu  Cu5  1  0.28455340  0.69195470  0.01024508  1
  Cu  Cu6  1  0.71891397  0.77618493  0.51226378  1
  C  C7  1  0.11072111  0.06303281  0.51081196  1
  C  C8  1  0.01656463  0.32159218  0.01082541  1
  C  C9  1  0.29690754  0.40670470  0.01018112  1
  C  C10  1  0.98603479  0.68524716  0.01070958  1
  C  C11  1  0.59780696  0.20825562  0.51138910  1
  C  C12  1  0.17640335  0.65379381  0.51036514  1
  C  C13  1  0.40563003  0.78450705  0.51042709  1
  C  C14  1  0.82801731  0.34719373  0.51117217  1
  C  C15  1  0.70481276  0.59015931  0.01222506  1
  C  C16  1  0.32839047  0.05002394  0.01027023  1
  C  C17  1  0.88842222  0.94721332  0.51103027  1
  C  C18  1  0.66040772  0.93426968  0.01208600  1
