# generated using pymatgen
data_Cu7Ni7C3
_symmetry_space_group_name_H-M   'P 1'
_cell_length_a   11.16040400
_cell_length_b   11.23665141
_cell_length_c   12.43574854
_cell_angle_alpha   86.70143093
_cell_angle_beta   105.01387333
_cell_angle_gamma   118.10454740
_symmetry_Int_Tables_number   1
_chemical_formula_structural   Cu7Ni7C3
_chemical_formula_sum   'Cu14 Ni14 C6'
_cell_volume   1324.85697060
_cell_formula_units_Z   2
loop_
 _symmetry_equiv_pos_site_id
 _symmetry_equiv_pos_as_xyz
  1  'x, y, z'
loop_
 _atom_site_type_symbol
 _atom_site_label
 _atom_site_symmetry_multiplicity
 _atom_site_fract_x
 _atom_site_fract_y
 _atom_site_fract_z
 _atom_site_occupancy
  C  C0  1  0.93853200  0.11764500  0.91180100  1
  C  C1  1  0.06146800  0.88235500  0.08819900  1
  C  C2  1  0.84410500  0.84587500  0.90775900  1
  C  C3  1  0.15589500  0.15412500  0.09224100  1
  C  C4  1  0.11380100  0.01572300  0.90184100  1
  C  C5  1  0.88619900  0.98427700  0.09815900  1
  Ni  Ni6  1  0.84865300  0.28754400  0.80088100  1
  Ni  Ni7  1  0.15134700  0.71245600  0.19911900  1
  Ni  Ni8  1  0.62388100  0.61712500  0.79721500  1
  Ni  Ni9  1  0.37611900  0.38287500  0.20278500  1
  Ni  Ni10  1  0.29231000  0.04291200  0.77892400  1
  Ni  Ni11  1  0.70769000  0.95708800  0.22107600  1
  Ni  Ni12  1  0.66941500  0.94801400  0.91726700  1
  Ni  Ni13  1  0.33058500  0.05198600  0.08273300  1
  Ni  Ni14  1  0.01877600  0.74371000  0.89704900  1
  Ni  Ni15  1  0.98122400  0.25629000  0.10295100  1
  Ni  Ni16  1  0.89712400  0.97889200  0.72246600  1
  Ni  Ni17  1  0.10287600  0.02110800  0.27753400  1
  Ni  Ni18  1  0.20772700  0.28680900  0.90469400  1
  Ni  Ni19  1  0.79227300  0.71319100  0.09530600  1
  Cu  Cu20  1  0.39076900  0.87461000  0.36856900  1
  Cu  Cu21  1  0.60923100  0.12539000  0.63143100  1
  Cu  Cu22  1  0.98212900  0.59556100  0.35484100  1
  Cu  Cu23  1  0.01787100  0.40443900  0.64515900  1
  Cu  Cu24  1  0.35984000  0.68922200  0.05778100  1
  Cu  Cu25  1  0.64016000  0.31077800  0.94221900  1
  Cu  Cu26  1  0.70263200  0.54816500  0.62375800  1
  Cu  Cu27  1  0.29736800  0.45183500  0.37624200  1
  Cu  Cu28  1  0.14385100  0.82803000  0.61101100  1
  Cu  Cu29  1  0.85614900  0.17197000  0.38898900  1
  Cu  Cu30  1  0.28847900  0.23134300  0.62349900  1
  Cu  Cu31  1  0.71152100  0.76865700  0.37650100  1
  Cu  Cu32  1  0.43354700  0.69277700  0.65708700  1
  Cu  Cu33  1  0.56645300  0.30722300  0.34291300  1
