# generated using pymatgen
data_CuNi12C11
_symmetry_space_group_name_H-M   'P 1'
_cell_length_a   6.98999700
_cell_length_b   6.98999700
_cell_length_c   18.90028900
_cell_angle_alpha   90.00000000
_cell_angle_beta   90.00000000
_cell_angle_gamma   90.00000000
_symmetry_Int_Tables_number   1
_chemical_formula_structural   CuNi12C11
_chemical_formula_sum   'Cu4 Ni48 C44'
_cell_volume   923.46921789
_cell_formula_units_Z   4
loop_
 _symmetry_equiv_pos_site_id
 _symmetry_equiv_pos_as_xyz
  1  'x, y, z'
loop_
 _atom_site_type_symbol
 _atom_site_label
 _atom_site_symmetry_multiplicity
 _atom_site_fract_x
 _atom_site_fract_y
 _atom_site_fract_z
 _atom_site_occupancy
  C  C0  1  0.21626100  0.21626100  0.00000000  1
  C  C1  1  0.28373900  0.71626100  0.25000000  1
  C  C2  1  0.71626100  0.28373900  0.75000000  1
  C  C3  1  0.78373900  0.78373900  0.50000000  1
  Ni  Ni4  1  0.71903200  0.00536000  0.38268000  1
  Ni  Ni5  1  0.28096800  0.99464000  0.88268000  1
  Ni  Ni6  1  0.00536000  0.71903200  0.61732000  1
  Ni  Ni7  1  0.50536000  0.78096800  0.13268000  1
  Ni  Ni8  1  0.49464000  0.21903200  0.63268000  1
  Ni  Ni9  1  0.78096800  0.50536000  0.86732000  1
  Ni  Ni10  1  0.21903200  0.49464000  0.36732000  1
  Ni  Ni11  1  0.99464000  0.28096800  0.11732000  1
  Ni  Ni12  1  0.52535400  0.99367800  0.43045800  1
  Ni  Ni13  1  0.47464600  0.00632200  0.93045800  1
  Ni  Ni14  1  0.99367800  0.52535400  0.56954200  1
  Ni  Ni15  1  0.49367800  0.97464600  0.18045800  1
  Ni  Ni16  1  0.50632200  0.02535400  0.68045800  1
  Ni  Ni17  1  0.97464600  0.49367800  0.81954200  1
  Ni  Ni18  1  0.02535400  0.50632200  0.31954200  1
  Ni  Ni19  1  0.00632200  0.47464600  0.06954200  1
  Ni  Ni20  1  0.62186900  0.46555200  0.43965100  1
  Ni  Ni21  1  0.37813100  0.53444800  0.93965100  1
  Ni  Ni22  1  0.46555200  0.62186900  0.56034900  1
  Ni  Ni23  1  0.96555200  0.87813100  0.18965100  1
  Ni  Ni24  1  0.03444800  0.12186900  0.68965100  1
  Ni  Ni25  1  0.87813100  0.96555200  0.81034900  1
  Ni  Ni26  1  0.12186900  0.03444800  0.31034900  1
  Ni  Ni27  1  0.08950300  0.85708300  0.04013500  1
  Ni  Ni28  1  0.84573900  0.42640400  0.45709300  1
  Ni  Ni29  1  0.15426100  0.57359600  0.95709300  1
  Ni  Ni30  1  0.42640400  0.84573900  0.54290700  1
  Ni  Ni31  1  0.92640400  0.65426100  0.20709300  1
  Ni  Ni32  1  0.07359600  0.34573900  0.70709300  1
  Ni  Ni33  1  0.65426100  0.92640400  0.79290700  1
  Ni  Ni34  1  0.34573900  0.07359600  0.29290700  1
  Ni  Ni35  1  0.57359600  0.15426100  0.04290700  1
  Ni  Ni36  1  0.07506700  0.74189100  0.40567800  1
  Ni  Ni37  1  0.92493300  0.25810900  0.90567800  1
  Ni  Ni38  1  0.74189100  0.07506700  0.59432200  1
  Ni  Ni39  1  0.24189100  0.42493300  0.15567800  1
  Ni  Ni40  1  0.75810900  0.57506700  0.65567800  1
  Ni  Ni41  1  0.42493300  0.24189100  0.84432200  1
  Ni  Ni42  1  0.57506700  0.75810900  0.34432200  1
  Ni  Ni43  1  0.25810900  0.92493300  0.09432200  1
  Ni  Ni44  1  0.14291700  0.91049700  0.45986500  1
  Ni  Ni45  1  0.85708300  0.08950300  0.95986500  1
  Ni  Ni46  1  0.91049700  0.14291700  0.54013500  1
  Ni  Ni47  1  0.41049700  0.35708300  0.20986500  1
  Ni  Ni48  1  0.58950300  0.64291700  0.70986500  1
  Ni  Ni49  1  0.35708300  0.41049700  0.79013500  1
  Ni  Ni50  1  0.64291700  0.58950300  0.29013500  1
  Ni  Ni51  1  0.53444800  0.37813100  0.06034900  1
  Cu  Cu52  1  0.71270600  0.71270600  0.00000000  1
  Cu  Cu53  1  0.78729400  0.21270600  0.25000000  1
  Cu  Cu54  1  0.21270600  0.78729400  0.75000000  1
  Cu  Cu55  1  0.28729400  0.28729400  0.50000000  1
  C  C56  1  0.32648700  0.05043900  0.49224400  1
  C  C57  1  0.67351300  0.94956100  0.99224400  1
  C  C58  1  0.05043900  0.32648700  0.50775600  1
  C  C59  1  0.55043900  0.17351300  0.24224400  1
  C  C60  1  0.44956100  0.82648700  0.74224400  1
  C  C61  1  0.17351300  0.55043900  0.75775600  1
  C  C62  1  0.82648700  0.44956100  0.25775600  1
  C  C63  1  0.94956100  0.67351300  0.00775600  1
  C  C64  1  0.37557900  0.39502600  0.42786800  1
  C  C65  1  0.62442100  0.60497400  0.92786800  1
  C  C66  1  0.39502600  0.37557900  0.57213200  1
  C  C67  1  0.89502600  0.12442100  0.17786800  1
  C  C68  1  0.10497400  0.87557900  0.67786800  1
  C  C69  1  0.12442100  0.89502600  0.82213200  1
  C  C70  1  0.87557900  0.10497400  0.32213200  1
  C  C71  1  0.60497400  0.62442100  0.07213200  1
  C  C72  1  0.63471900  0.91938100  0.41141800  1
  C  C73  1  0.36528100  0.08061900  0.91141800  1
  C  C74  1  0.91938100  0.63471900  0.58858200  1
  C  C75  1  0.41938100  0.86528100  0.16141800  1
  C  C76  1  0.58061900  0.13471900  0.66141800  1
  C  C77  1  0.86528100  0.41938100  0.83858200  1
  C  C78  1  0.13471900  0.58061900  0.33858200  1
  C  C79  1  0.08061900  0.36528100  0.08858200  1
  C  C80  1  0.18352600  0.95893200  0.05147800  1
  C  C81  1  0.24887400  0.47591300  0.94337300  1
  C  C82  1  0.52408700  0.75112600  0.55662700  1
  C  C83  1  0.02408700  0.74887400  0.19337300  1
  C  C84  1  0.97591300  0.25112600  0.69337300  1
  C  C85  1  0.74887400  0.02408700  0.80662700  1
  C  C86  1  0.25112600  0.97591300  0.30662700  1
  C  C87  1  0.47591300  0.24887400  0.05662700  1
  C  C88  1  0.04106800  0.81647400  0.44852200  1
  C  C89  1  0.95893200  0.18352600  0.94852200  1
  C  C90  1  0.81647400  0.04106800  0.55147800  1
  C  C91  1  0.31647400  0.45893200  0.19852200  1
  C  C92  1  0.68352600  0.54106800  0.69852200  1
  C  C93  1  0.45893200  0.31647400  0.80147800  1
  C  C94  1  0.54106800  0.68352600  0.30147800  1
  C  C95  1  0.75112600  0.52408700  0.44337300  1
