# generated using pymatgen
data_Cu2NiC16
_symmetry_space_group_name_H-M   'P 1'
_cell_length_a   5.66842899
_cell_length_b   5.66842899
_cell_length_c   13.69016840
_cell_angle_alpha   89.94008616
_cell_angle_beta   89.94008616
_cell_angle_gamma   90.02549511
_symmetry_Int_Tables_number   1
_chemical_formula_structural   Cu2NiC16
_chemical_formula_sum   'Cu2 Ni1 C16'
_cell_volume   439.87947007
_cell_formula_units_Z   1
loop_
 _symmetry_equiv_pos_site_id
 _symmetry_equiv_pos_as_xyz
  1  'x, y, z'
loop_
 _atom_site_type_symbol
 _atom_site_label
 _atom_site_symmetry_multiplicity
 _atom_site_fract_x
 _atom_site_fract_y
 _atom_site_fract_z
 _atom_site_occupancy
  C  C0  1  0.76355000  0.76355000  0.01301100  1
  C  C1  1  0.25071600  0.76210400  0.49529800  1
  C  C2  1  0.76210400  0.25071600  0.49529800  1
  C  C3  1  0.25224700  0.25224700  0.01496300  1
  Ni  Ni4  1  0.01519500  0.01519500  0.75406600  1
  Cu  Cu5  1  0.50198300  0.50198300  0.75573000  1
  Cu  Cu6  1  0.50618400  0.50618400  0.25452400  1
  C  C7  1  0.00632700  0.51230100  0.75750400  1
  C  C8  1  0.51230100  0.00632700  0.75750400  1
  C  C9  1  0.00618800  0.50674000  0.25449400  1
  C  C10  1  0.50674000  0.00618800  0.25449400  1
  C  C11  1  0.75599200  0.75599200  0.65693000  1
  C  C12  1  0.26158700  0.26158700  0.64854400  1
  C  C13  1  0.74312100  0.74312100  0.34815600  1
  C  C14  1  0.74414800  0.26909700  0.16125000  1
  C  C15  1  0.26542100  0.76340100  0.85720300  1
  C  C16  1  0.26845900  0.26845900  0.34757900  1
  C  C17  1  0.26909700  0.74414800  0.16125000  1
  C  C18  1  0.76340100  0.26542100  0.85720300  1
