# generated using pymatgen
data_Cu2NiC14
_symmetry_space_group_name_H-M   'P 1'
_cell_length_a   6.14195400
_cell_length_b   7.76088224
_cell_length_c   12.76383750
_cell_angle_alpha   84.52537286
_cell_angle_beta   76.07090869
_cell_angle_gamma   66.69060395
_symmetry_Int_Tables_number   1
_chemical_formula_structural   Cu2NiC14
_chemical_formula_sum   'Cu2 Ni1 C14'
_cell_volume   542.32523725
_cell_formula_units_Z   1
loop_
 _symmetry_equiv_pos_site_id
 _symmetry_equiv_pos_as_xyz
  1  'x, y, z'
loop_
 _atom_site_type_symbol
 _atom_site_label
 _atom_site_symmetry_multiplicity
 _atom_site_fract_x
 _atom_site_fract_y
 _atom_site_fract_z
 _atom_site_occupancy
  C  C0  1  0.79857300  0.75028800  0.40197500  1
  C  C1  1  0.44348600  0.74982000  0.11320700  1
  C  C2  1  0.19827300  0.24990800  0.60254200  1
  C  C3  1  0.56987400  0.25016200  0.85919900  1
  Ni  Ni4  1  0.00100300  0.24994000  0.99730600  1
  C  C5  1  0.37851400  0.25004100  0.24203200  1
  C  C6  1  0.61870900  0.74999300  0.76233300  1
  Cu  Cu7  1  0.11982300  0.75039700  0.76024900  1
  Cu  Cu8  1  0.86655200  0.24959500  0.26591800  1
  C  C9  1  0.88288900  0.53689900  0.87137100  1
  C  C10  1  0.21672800  0.05287500  0.35203400  1
  C  C11  1  0.75674000  0.09034400  0.11853400  1
  C  C12  1  0.43046200  0.44703400  0.35202800  1
  C  C13  1  0.55083300  0.56554600  0.65038500  1
  C  C14  1  0.24543900  0.96290200  0.87151000  1
  C  C15  1  0.12378900  0.40956200  0.11853400  1
  C  C16  1  0.79831200  0.93469300  0.65042600  1
