# generated using pymatgen
data_Cu4NiC15
_symmetry_space_group_name_H-M   'P 1'
_cell_length_a   5.57739380
_cell_length_b   7.05776807
_cell_length_c   6.94044819
_cell_angle_alpha   106.19069972
_cell_angle_beta   89.86429599
_cell_angle_gamma   90.03838718
_symmetry_Int_Tables_number   1
_chemical_formula_structural   Cu4NiC15
_chemical_formula_sum   'Cu4 Ni1 C15'
_cell_volume   262.36719886
_cell_formula_units_Z   1
loop_
 _symmetry_equiv_pos_site_id
 _symmetry_equiv_pos_as_xyz
  1  'x, y, z'
loop_
 _atom_site_type_symbol
 _atom_site_label
 _atom_site_symmetry_multiplicity
 _atom_site_fract_x
 _atom_site_fract_y
 _atom_site_fract_z
 _atom_site_occupancy
  C  C0  1  0.00069500  0.67351500  0.19577800  1
  C  C1  1  0.99985000  0.32642800  0.80415700  1
  C  C2  1  0.50002500  0.99990700  0.00003100  1
  C  C3  1  0.50007100  0.49980000  0.49977900  1
  Ni  Ni4  1  0.99975100  0.99997400  0.50000600  1
  Cu  Cu5  1  0.49987100  0.99995900  0.50004100  1
  Cu  Cu6  1  0.50010400  0.49995400  0.99994800  1
  Cu  Cu7  1  0.99999900  0.26740200  0.26582700  1
  Cu  Cu8  1  0.99996500  0.73259000  0.73415000  1
  C  C9  1  0.23762800  0.91341000  0.66074200  1
  C  C10  1  0.23909000  0.08966600  0.34180000  1
  C  C11  1  0.75628700  0.65018700  0.89615000  1
  C  C12  1  0.75561700  0.35068500  0.10555800  1
  C  C13  1  0.76198400  0.08702800  0.33957300  1
  C  C14  1  0.76058900  0.91023100  0.65825600  1
  C  C15  1  0.24393700  0.34979800  0.10396400  1
  C  C16  1  0.24456700  0.64924200  0.89427400  1
  C  C17  1  0.00001600  0.50008500  0.49992400  1
  C  C18  1  0.49729400  0.71683200  0.26856300  1
  C  C19  1  0.50265200  0.28330300  0.73147300  1
