# generated using pymatgen
data_Cu3NiC11
_symmetry_space_group_name_H-M   'P 1'
_cell_length_a   4.20064417
_cell_length_b   3.67174435
_cell_length_c   15.63946990
_cell_angle_alpha   90.01391287
_cell_angle_beta   90.00299349
_cell_angle_gamma   89.99710911
_symmetry_Int_Tables_number   1
_chemical_formula_structural   Cu3NiC11
_chemical_formula_sum   'Cu3 Ni1 C11'
_cell_volume   241.21835123
_cell_formula_units_Z   1
loop_
 _symmetry_equiv_pos_site_id
 _symmetry_equiv_pos_as_xyz
  1  'x, y, z'
loop_
 _atom_site_type_symbol
 _atom_site_label
 _atom_site_symmetry_multiplicity
 _atom_site_fract_x
 _atom_site_fract_y
 _atom_site_fract_z
 _atom_site_occupancy
  C  C0  1  0.50000569  0.49983871  0.19048901  1
  C  C1  1  0.49996665  0.49956432  0.92788192  1
  C  C2  1  0.50004035  0.50023094  0.44791398  1
  Ni  Ni3  1  0.99989622  0.50031412  0.75690823  1
  Cu  Cu4  1  0.00002346  0.00000302  0.32964707  1
  Cu  Cu5  1  -0.00001137  -0.00032866  0.06362462  1
  Cu  Cu6  1  0.00007008  0.00030435  0.58558026  1
  C  C7  1  0.00003081  0.50005259  0.39755893  1
  C  C8  1  0.50002492  -0.00000475  0.33710517  1
  C  C9  1  0.49998615  -0.00033090  0.05180439  1
  C  C10  1  0.00000580  -0.00016497  0.19811736  1
  C  C11  1  0.00006748  0.50033695  0.63666705  1
  C  C12  1  0.50004166  0.00024699  0.52727477  1
  C  C13  1  0.99986935  0.00032146  0.81666423  1
  C  C14  1  0.99998074  0.49961584  0.02165402  1
