# generated using pymatgen
data_Cu3Ni3C35
_symmetry_space_group_name_H-M   'P 1'
_cell_length_a   8.81882176
_cell_length_b   8.78432009
_cell_length_c   21.69888696
_cell_angle_alpha   89.99641082
_cell_angle_beta   90.10745571
_cell_angle_gamma   120.07213343
_symmetry_Int_Tables_number   1
_chemical_formula_structural   Cu3Ni3C35
_chemical_formula_sum   'Cu9 Ni9 C105'
_cell_volume   1454.68743380
_cell_formula_units_Z   3
loop_
 _symmetry_equiv_pos_site_id
 _symmetry_equiv_pos_as_xyz
  1  'x, y, z'
loop_
 _atom_site_type_symbol
 _atom_site_label
 _atom_site_symmetry_multiplicity
 _atom_site_fract_x
 _atom_site_fract_y
 _atom_site_fract_z
 _atom_site_occupancy
  C  C0  1  0.63022183  0.99857422  0.25251399  1
  C  C1  1  0.36801668  0.37022575  0.25218513  1
  C  C2  1  0.00227206  0.63349553  0.25389890  1
  C  C3  1  0.63780589  0.62806709  0.74432382  1
  C  C4  1  0.99709364  0.35819021  0.74367216  1
  C  C5  1  0.29801372  0.33866844  0.58427760  1
  C  C6  1  0.03330105  0.69910252  0.58277130  1
  C  C7  1  0.66792256  0.96426568  0.58112327  1
  C  C8  1  0.30192619  0.96826836  0.08445160  1
  C  C9  1  0.66270228  0.69922352  0.08515469  1
  C  C10  1  0.03716312  0.33071032  0.08235581  1
  C  C11  1  0.32454830  0.29724642  0.91322489  1
  C  C12  1  0.97388260  0.29889114  0.41589255  1
  C  C13  1  0.32724715  0.02729147  0.41522670  1
  C  C14  1  0.69928649  0.67329024  0.41567893  1
  C  C15  1  0.99765815  0.00028491  0.49971227  1
  C  C16  1  0.99152057  0.99694891  0.99698899  1
  C  C17  1  0.66436780  0.32332312  0.82768669  1
  C  C18  1  0.66558565  0.33238580  0.33180648  1
  C  C19  1  0.33632451  0.66679873  0.16656333  1
  C  C20  1  0.33440698  0.67122180  0.66029935  1
  C  C21  1  0.66922217  0.32833274  0.97918371  1
  C  C22  1  0.67153893  0.33711678  0.47942760  1
  C  C23  1  0.32811553  0.66500179  0.81011399  1
  C  C24  1  0.99852451  0.99899716  0.35518431  1
  C  C25  1  0.00085899  0.00584126  0.85231544  1
  C  C26  1  0.99892465  0.00410157  0.64651441  1
  C  C27  1  0.00100880  0.00432581  0.14722092  1
  C  C28  1  0.65940824  0.33090684  0.68500797  1
  C  C29  1  0.66109661  0.33021994  0.18377760  1
  C  C30  1  0.33787830  0.66345631  0.01982512  1
  C  C31  1  0.33259133  0.66096098  0.51803773  1
  C  C32  1  0.33231056  0.66567104  0.31797493  1
  Ni  Ni33  1  0.29100089  0.27180842  0.74937044  1
  Ni  Ni34  1  0.96127437  0.33471394  0.58854384  1
  Ni  Ni35  1  0.66685998  0.63087261  0.58778614  1
  Ni  Ni36  1  0.66495134  0.03544733  0.08790040  1
  Ni  Ni37  1  0.37239536  0.33369524  0.08650779  1
  Ni  Ni38  1  0.04247613  0.37095470  0.91903498  1
  Ni  Ni39  1  0.61825811  0.94662469  0.41500973  1
  Ni  Ni40  1  0.32722158  0.37837508  0.41455045  1
  Ni  Ni41  1  0.05483901  0.67352940  0.41524811  1
  Cu  Cu42  1  0.28671506  -0.00003731  0.24915879  1
  Cu  Cu43  1  0.71434072  0.71222458  0.24874766  1
  Cu  Cu44  1  0.99952889  0.28925052  0.24926574  1
  Cu  Cu45  1  0.99801504  0.72188808  0.74961822  1
  Cu  Cu46  1  0.71837730  0.00601009  0.74926353  1
  Cu  Cu47  1  0.37611576  0.04219924  0.58643296  1
  Cu  Cu48  1  0.95752212  0.62423270  0.08683918  1
  Cu  Cu49  1  0.63036839  0.67808771  0.91783095  1
  Cu  Cu50  1  0.32392955  0.94700523  0.91953532  1
  C  C51  1  0.20152126  0.03117423  0.30627886  1
  C  C52  1  0.82968855  0.79733757  0.30635746  1
  C  C53  1  0.96610029  0.17152458  0.30633565  1
  C  C54  1  0.20079679  0.16972989  0.81267043  1
  C  C55  1  0.96878416  0.80775548  0.80636403  1
  C  C56  1  0.83335818  0.03330601  0.80607724  1
  C  C57  1  0.79041157  0.96165941  0.69149667  1
  C  C58  1  0.16146400  0.19780119  0.69028187  1
  C  C59  1  0.02715691  0.82850558  0.69096019  1
  C  C60  1  0.80161304  0.82847139  0.19147049  1
  C  C61  1  0.03040666  0.20367673  0.19180803  1
  C  C62  1  0.17012037  0.96927212  0.19167132  1
  C  C63  1  0.86330647  0.36707477  0.64595292  1
  C  C64  1  0.50079443  0.13265277  0.64018634  1
  C  C65  1  0.62841185  0.49862505  0.64507782  1
  C  C66  1  0.87266480  0.50300256  0.14298384  1
  C  C67  1  0.62803832  0.12960614  0.14566937  1
  C  C68  1  0.50538044  0.37533527  0.14427457  1
  C  C69  1  0.46350199  0.29754949  0.02490045  1
  C  C70  1  0.83380435  0.53725545  0.02949735  1
  C  C71  1  0.70772424  0.17220085  0.02799486  1
  C  C72  1  0.45672276  0.15824820  0.52651333  1
  C  C73  1  0.70172756  0.53849403  0.52557390  1
  C  C74  1  0.83309898  0.29620965  0.52626157  1
  C  C75  1  0.54391321  0.70043449  0.97544874  1
  C  C76  1  0.16890950  0.46804105  0.97741490  1
  C  C77  1  0.30820303  0.84136641  0.97694600  1
  C  C78  1  0.53421678  0.82945914  0.47647455  1
  C  C79  1  0.29139456  0.45993712  0.47616364  1
  C  C80  1  0.17184389  0.70722896  0.47673257  1
  C  C81  1  0.12990393  0.62556665  0.35426243  1
  C  C82  1  0.49583929  0.86928616  0.35367592  1
  C  C83  1  0.37466764  0.50318430  0.35378576  1
  C  C84  1  0.13603020  0.49618728  0.85736960  1
  C  C85  1  0.36047343  0.86555155  0.86181400  1
  C  C86  1  0.50810847  0.64103703  0.86014519  1
  C  C87  1  0.02292392  0.83980373  0.40753375  1
  C  C88  1  0.81548188  0.97585498  0.40750586  1
  C  C89  1  0.15823354  0.18157726  0.40668509  1
  C  C90  1  0.02551234  0.17989726  0.91106720  1
  C  C91  1  0.16435774  0.97112393  0.91254469  1
  C  C92  1  0.81255801  0.83559439  0.90831104  1
  C  C93  1  0.97736774  0.15790878  0.59026428  1
  C  C94  1  0.19392703  0.02549822  0.59124319  1
  C  C95  1  0.84693662  0.82044386  0.59174181  1
  C  C96  1  0.97332616  0.80642526  0.09209186  1
  C  C97  1  0.83907539  0.01668490  0.09213875  1
  C  C98  1  0.18129596  0.15520091  0.09203045  1
  C  C99  1  0.69906934  0.16949131  0.74328695  1
  C  C100  1  0.49191852  0.31261949  0.74429930  1
  C  C101  1  0.84119824  0.53112046  0.74666503  1
  C  C102  1  0.69651786  0.52545130  0.24388293  1
  C  C103  1  0.83381662  0.31071371  0.24344895  1
  C  C104  1  0.47356303  0.16830471  0.24465073  1
  C  C105  1  0.63578119  0.50202497  0.92230171  1
  C  C106  1  0.85047529  0.36020151  0.92084103  1
  C  C107  1  0.49153389  0.13853484  0.92254855  1
  C  C108  1  0.64003501  0.14584855  0.42114125  1
  C  C109  1  0.50262869  0.35481467  0.42149059  1
  C  C110  1  0.85465577  0.49537148  0.42099502  1
  C  C111  1  0.35354850  0.50792858  0.07807881  1
  C  C112  1  0.13851762  0.64294835  0.07792289  1
  C  C113  1  0.48871805  0.84715403  0.07608810  1
  C  C114  1  0.35897446  0.86035114  0.57924780  1
  C  C115  1  0.49365323  0.64952384  0.57879602  1
  C  C116  1  0.15066748  0.51201613  0.57939918  1
  C  C117  1  0.30711142  0.83363237  0.25292720  1
  C  C118  1  0.52851542  0.69200031  0.25235006  1
  C  C119  1  0.16679757  0.47549109  0.25352916  1
  C  C120  1  0.31450841  0.48122726  0.75566114  1
  C  C121  1  0.16654522  0.69923347  0.75512488  1
  C  C122  1  0.53124949  0.83731176  0.75690250  1
