# generated using pymatgen
data_Cu3NiC9
_symmetry_space_group_name_H-M   'P 1'
_cell_length_a   5.95385604
_cell_length_b   5.86592104
_cell_length_c   5.66355615
_cell_angle_alpha   60.55035248
_cell_angle_beta   61.72004074
_cell_angle_gamma   91.77594124
_symmetry_Int_Tables_number   1
_chemical_formula_structural   Cu3NiC9
_chemical_formula_sum   'Cu3 Ni1 C9'
_cell_volume   142.41596628
_cell_formula_units_Z   1
loop_
 _symmetry_equiv_pos_site_id
 _symmetry_equiv_pos_as_xyz
  1  'x, y, z'
loop_
 _atom_site_type_symbol
 _atom_site_label
 _atom_site_symmetry_multiplicity
 _atom_site_fract_x
 _atom_site_fract_y
 _atom_site_fract_z
 _atom_site_occupancy
  C  C0  1  0.50000000  0.50000000  0.00000000  1
  Ni  Ni1  1  0.00000000  0.00000000  0.00000000  1
  Cu  Cu2  1  0.00000000  0.00000000  0.50000000  1
  Cu  Cu3  1  0.00000000  0.50000000  0.00000000  1
  Cu  Cu4  1  0.00000000  0.50000000  0.50000000  1
  C  C5  1  0.21982000  0.21917400  0.04079100  1
  C  C6  1  0.21249200  0.25903600  0.51375500  1
  C  C7  1  0.21309200  0.73048800  0.02933400  1
  C  C8  1  0.19191100  0.71438200  0.54462800  1
  C  C9  1  0.80808900  0.28561800  0.45537200  1
  C  C10  1  0.78690800  0.26951200  0.97066600  1
  C  C11  1  0.78750800  0.74096400  0.48624500  1
  C  C12  1  0.78018000  0.78082600  0.95920900  1
