# generated using pymatgen
data_Cu6NiC13
_symmetry_space_group_name_H-M   'P 1'
_cell_length_a   6.42269033
_cell_length_b   6.42269081
_cell_length_c   6.42268997
_cell_angle_alpha   91.54400547
_cell_angle_beta   91.54401662
_cell_angle_gamma   91.54400536
_symmetry_Int_Tables_number   1
_chemical_formula_structural   Cu6NiC13
_chemical_formula_sum   'Cu6 Ni1 C13'
_cell_volume   264.64821340
_cell_formula_units_Z   1
loop_
 _symmetry_equiv_pos_site_id
 _symmetry_equiv_pos_as_xyz
  1  'x, y, z'
loop_
 _atom_site_type_symbol
 _atom_site_label
 _atom_site_symmetry_multiplicity
 _atom_site_fract_x
 _atom_site_fract_y
 _atom_site_fract_z
 _atom_site_occupancy
  Ni  Ni0  1  0.50000000  0.50000000  0.50000000  1
  Cu  Cu1  1  0.44523866  0.92622188  0.73973191  1
  Cu  Cu2  1  0.92622188  0.73973191  0.44523866  1
  Cu  Cu3  1  0.73973191  0.44523866  0.92622188  1
  Cu  Cu4  1  0.55476134  0.07377712  0.26026809  1
  Cu  Cu5  1  0.07377712  0.26026809  0.55476134  1
  Cu  Cu6  1  0.26026809  0.55476134  0.07377712  1
  C  C7  1  0.00000000  -0.00000000  -0.00000000  1
  C  C8  1  0.19050053  0.54554868  0.40084994  1
  C  C9  1  0.54554868  0.40084994  0.19050053  1
  C  C10  1  0.40084994  0.19050053  0.54554868  1
  C  C11  1  0.80949947  0.45445132  0.59915006  1
  C  C12  1  0.45445132  0.59915006  0.80949947  1
  C  C13  1  0.59915006  0.80949947  0.45445132  1
  C  C14  1  0.69656712  0.07811660  0.92964235  1
  C  C15  1  0.07035765  0.30343287  0.92188340  1
  C  C16  1  0.92188340  0.07035765  0.30343288  1
  C  C17  1  0.30343288  0.92188340  0.07035765  1
  C  C18  1  0.92964235  0.69656713  0.07811660  1
  C  C19  1  0.07811660  0.92964235  0.69656712  1
