# generated using pymatgen
data_CuNiC8
_symmetry_space_group_name_H-M   'P 1'
_cell_length_a   4.33969610
_cell_length_b   3.72962845
_cell_length_c   10.45842494
_cell_angle_alpha   90.00000878
_cell_angle_beta   90.00004036
_cell_angle_gamma   90.00000000
_symmetry_Int_Tables_number   1
_chemical_formula_structural   CuNiC8
_chemical_formula_sum   'Cu1 Ni1 C8'
_cell_volume   169.27435619
_cell_formula_units_Z   1
loop_
 _symmetry_equiv_pos_site_id
 _symmetry_equiv_pos_as_xyz
  1  'x, y, z'
loop_
 _atom_site_type_symbol
 _atom_site_label
 _atom_site_symmetry_multiplicity
 _atom_site_fract_x
 _atom_site_fract_y
 _atom_site_fract_z
 _atom_site_occupancy
  C  C0  1  0.00000100  0.99999900  0.10284405  1
  C  C1  1  1.00000000  0.00000000  0.43994589  1
  C  C2  1  0.50000000  1.00000000  0.85375962  1
  Ni  Ni3  1  0.49999900  0.49999800  0.30951364  1
  Cu  Cu4  1  0.50000000  0.50000000  0.58533116  1
  C  C5  1  0.00000000  0.50000000  0.54752346  1
  C  C6  1  0.50000000  -0.00000000  0.67659692  1
  C  C7  1  0.99999900  0.50000000  0.26774684  1
  C  C8  1  0.49999800  0.99999900  0.33577328  1
  C  C9  1  0.49999900  0.50000000  0.95221614  1
