# generated using pymatgen
data_CuNiC11
_symmetry_space_group_name_H-M   'P 1'
_cell_length_a   5.78733375
_cell_length_b   5.77776028
_cell_length_c   5.89245098
_cell_angle_alpha   60.64132454
_cell_angle_beta   119.41870575
_cell_angle_gamma   119.96504700
_symmetry_Int_Tables_number   1
_chemical_formula_structural   CuNiC11
_chemical_formula_sum   'Cu1 Ni1 C11'
_cell_volume   140.63295656
_cell_formula_units_Z   1
loop_
 _symmetry_equiv_pos_site_id
 _symmetry_equiv_pos_as_xyz
  1  'x, y, z'
loop_
 _atom_site_type_symbol
 _atom_site_label
 _atom_site_symmetry_multiplicity
 _atom_site_fract_x
 _atom_site_fract_y
 _atom_site_fract_z
 _atom_site_occupancy
  Ni  Ni0  1  0.00000000  0.00000000  0.00000000  1
  C  C1  1  0.50000000  0.50000000  0.00000000  1
  C  C2  1  0.50000000  0.00000000  0.00000000  1
  C  C3  1  0.00000000  0.50000000  0.00000000  1
  Cu  Cu4  1  0.50000000  0.50000000  0.50000000  1
  C  C5  1  0.75187300  0.70864500  0.79485500  1
  C  C6  1  0.75189400  0.24839900  0.79479300  1
  C  C7  1  0.26910700  0.73243100  0.80435800  1
  C  C8  1  0.29019700  0.24830200  0.79368600  1
  C  C9  1  0.70980300  0.75169800  0.20631400  1
  C  C10  1  0.73089300  0.26756900  0.19564200  1
  C  C11  1  0.24810600  0.75160100  0.20520700  1
  C  C12  1  0.24812700  0.29135500  0.20514500  1
