# generated using pymatgen
data_Cu2NiC16
_symmetry_space_group_name_H-M   'P 1'
_cell_length_a   5.78596782
_cell_length_b   5.87048159
_cell_length_c   8.85643108
_cell_angle_alpha   72.19209179
_cell_angle_beta   80.05656073
_cell_angle_gamma   68.93982512
_symmetry_Int_Tables_number   1
_chemical_formula_structural   Cu2NiC16
_chemical_formula_sum   'Cu2 Ni1 C16'
_cell_volume   266.60899788
_cell_formula_units_Z   1
loop_
 _symmetry_equiv_pos_site_id
 _symmetry_equiv_pos_as_xyz
  1  'x, y, z'
loop_
 _atom_site_type_symbol
 _atom_site_label
 _atom_site_symmetry_multiplicity
 _atom_site_fract_x
 _atom_site_fract_y
 _atom_site_fract_z
 _atom_site_occupancy
  C  C0  1  0.94480176  0.74482435  0.30979735  1
  C  C1  1  0.47186604  0.36982505  0.93570479  1
  C  C2  1  0.46044006  0.23668685  0.32586748  1
  C  C3  1  0.43250343  0.08360046  0.72754283  1
  C  C4  1  0.91462710  0.44489446  0.63504204  1
  C  C5  1  0.42835955  0.85632756  0.14302990  1
  C  C6  1  0.97711694  0.31713383  0.17925833  1
  C  C7  1  0.03504953  0.62662125  0.84372429  1
  Ni  Ni8  1  0.88788723  0.05700393  0.52990871  1
  Cu  Cu9  1  0.97774689  0.00204229  0.97369412  1
  Cu  Cu10  1  0.45392505  0.69498185  0.49438068  1
  C  C11  1  0.71462306  0.07879208  0.12097745  1
  C  C12  1  0.72018609  0.43439539  0.40744019  1
  C  C13  1  0.19460003  0.97499215  0.37936454  1
  C  C14  1  0.27462131  0.51656121  0.63104839  1
  C  C15  1  0.65961355  0.86100228  0.53887338  1
  C  C16  1  0.18162054  0.18766096  0.94666606  1
  C  C17  1  0.87174001  0.05710698  0.76081469  1
  C  C18  1  0.17360583  0.65337406  0.07126278  1
