# generated using pymatgen
data_Cu12Ni3C
_symmetry_space_group_name_H-M   'P 1'
_cell_length_a   11.35596300
_cell_length_b   11.35596300
_cell_length_c   11.35596300
_cell_angle_alpha   90.00000000
_cell_angle_beta   90.00000000
_cell_angle_gamma   90.00000000
_symmetry_Int_Tables_number   1
_chemical_formula_structural   Cu12Ni3C
_chemical_formula_sum   'Cu96 Ni24 C8'
_cell_volume   1464.44109164
_cell_formula_units_Z   8
loop_
 _symmetry_equiv_pos_site_id
 _symmetry_equiv_pos_as_xyz
  1  'x, y, z'
loop_
 _atom_site_type_symbol
 _atom_site_label
 _atom_site_symmetry_multiplicity
 _atom_site_fract_x
 _atom_site_fract_y
 _atom_site_fract_z
 _atom_site_occupancy
  C  C0  1  0.78262900  0.71737100  0.28262900  1
  C  C1  1  0.71737100  0.21737100  0.28262900  1
  C  C2  1  0.28262900  0.71737100  0.21737100  1
  C  C3  1  0.21737100  0.21737100  0.21737100  1
  C  C4  1  0.21737100  0.28262900  0.71737100  1
  C  C5  1  0.28262900  0.78262900  0.71737100  1
  C  C6  1  0.78262900  0.78262900  0.78262900  1
  C  C7  1  0.71737100  0.28262900  0.78262900  1
  Ni  Ni8  1  0.25315700  0.03298500  0.69173600  1
  Ni  Ni9  1  0.24684300  0.96701500  0.19173600  1
  Ni  Ni10  1  0.25315700  0.46701500  0.19173600  1
  Ni  Ni11  1  0.46701500  0.30826400  0.75315700  1
  Ni  Ni12  1  0.80826400  0.74684300  0.53298500  1
  Ni  Ni13  1  0.03298500  0.80826400  0.75315700  1
  Ni  Ni14  1  0.74684300  0.96701500  0.30826400  1
  Ni  Ni15  1  0.03298500  0.69173600  0.25315700  1
  Ni  Ni16  1  0.75315700  0.46701500  0.30826400  1
  Ni  Ni17  1  0.96701500  0.30826400  0.74684300  1
  Ni  Ni18  1  0.24684300  0.53298500  0.69173600  1
  Ni  Ni19  1  0.53298500  0.80826400  0.74684300  1
  Ni  Ni20  1  0.69173600  0.24684300  0.53298500  1
  Ni  Ni21  1  0.96701500  0.19173600  0.24684300  1
  Ni  Ni22  1  0.19173600  0.25315700  0.46701500  1
  Ni  Ni23  1  0.74684300  0.53298500  0.80826400  1
  Ni  Ni24  1  0.19173600  0.24684300  0.96701500  1
  Ni  Ni25  1  0.53298500  0.69173600  0.24684300  1
  Ni  Ni26  1  0.30826400  0.74684300  0.96701500  1
  Ni  Ni27  1  0.30826400  0.75315700  0.46701500  1
  Ni  Ni28  1  0.69173600  0.25315700  0.03298500  1
  Ni  Ni29  1  0.46701500  0.19173600  0.25315700  1
  Ni  Ni30  1  0.80826400  0.75315700  0.03298500  1
  Ni  Ni31  1  0.75315700  0.03298500  0.80826400  1
  Cu  Cu32  1  0.27374900  0.53224900  0.10751200  1
  Cu  Cu33  1  0.33473200  0.10392800  0.69938500  1
  Cu  Cu34  1  0.91938000  0.32614300  0.84265200  1
  Cu  Cu35  1  0.32614300  0.84265200  0.91938000  1
  Cu  Cu36  1  0.82614300  0.65734800  0.08062000  1
  Cu  Cu37  1  0.74662400  0.52044100  0.21400200  1
  Cu  Cu38  1  0.08062000  0.67385700  0.15734800  1
  Cu  Cu39  1  0.72625100  0.46775100  0.89248800  1
  Cu  Cu40  1  0.72625100  0.03224900  0.39248800  1
  Cu  Cu41  1  0.16526800  0.89607200  0.19938500  1
  Cu  Cu42  1  0.91938000  0.17385700  0.34265200  1
  Cu  Cu43  1  0.69938500  0.16526800  0.60392800  1
  Cu  Cu44  1  0.67385700  0.15734800  0.08062000  1
  Cu  Cu45  1  0.08062000  0.82614300  0.65734800  1
  Cu  Cu46  1  0.41938000  0.32614300  0.65734800  1
  Cu  Cu47  1  0.24662400  0.52044100  0.28599800  1
  Cu  Cu48  1  0.28599800  0.25337500  0.02044100  1
  Cu  Cu49  1  0.10392800  0.69938500  0.33473200  1
  Cu  Cu50  1  0.34265200  0.58062000  0.67385700  1
  Cu  Cu51  1  0.78599800  0.24662400  0.97955900  1
  Cu  Cu52  1  0.28599800  0.24662400  0.52044100  1
  Cu  Cu53  1  0.89248800  0.72625100  0.46775100  1
  Cu  Cu54  1  0.39248800  0.72625100  0.03224900  1
  Cu  Cu55  1  0.80061500  0.83473200  0.10392800  1
  Cu  Cu56  1  0.60392800  0.80061500  0.66526800  1
  Cu  Cu57  1  0.75337600  0.02044100  0.21400200  1
  Cu  Cu58  1  0.47955900  0.78599800  0.25337500  1
  Cu  Cu59  1  0.52044100  0.28599800  0.24662400  1
  Cu  Cu60  1  0.15734800  0.08062000  0.67385700  1
  Cu  Cu61  1  0.16526800  0.60392800  0.69938500  1
  Cu  Cu62  1  0.24662400  0.97955900  0.78599800  1
  Cu  Cu63  1  0.15734800  0.41938000  0.17385700  1
  Cu  Cu64  1  0.53224900  0.39248800  0.77374900  1
  Cu  Cu65  1  0.19938500  0.33473200  0.39607200  1
  Cu  Cu66  1  0.25337500  0.47955900  0.78599800  1
  Cu  Cu67  1  0.69938500  0.33473200  0.10392800  1
  Cu  Cu68  1  0.65734800  0.08062000  0.82614300  1
  Cu  Cu69  1  0.83473200  0.10392800  0.80061500  1
  Cu  Cu70  1  0.96775100  0.89248800  0.77374900  1
  Cu  Cu71  1  0.32614300  0.65734800  0.41938000  1
  Cu  Cu72  1  0.77374900  0.53224900  0.39248800  1
  Cu  Cu73  1  0.75337600  0.47955900  0.71400200  1
  Cu  Cu74  1  0.52044100  0.21400200  0.74662400  1
  Cu  Cu75  1  0.58062000  0.67385700  0.34265200  1
  Cu  Cu76  1  0.66526800  0.89607200  0.30061500  1
  Cu  Cu77  1  0.25337500  0.02044100  0.28599800  1
  Cu  Cu78  1  0.53224900  0.10751200  0.27374900  1
  Cu  Cu79  1  0.46775100  0.89248800  0.72625100  1
  Cu  Cu80  1  0.60751200  0.27374900  0.96775100  1
  Cu  Cu81  1  0.71400200  0.74662400  0.97955900  1
  Cu  Cu82  1  0.89607200  0.19938500  0.16526800  1
  Cu  Cu83  1  0.22625100  0.46775100  0.60751200  1
  Cu  Cu84  1  0.66526800  0.60392800  0.80061500  1
  Cu  Cu85  1  0.03224900  0.10751200  0.22625100  1
  Cu  Cu86  1  0.10392800  0.80061500  0.83473200  1
  Cu  Cu87  1  0.84265200  0.91938000  0.32614300  1
  Cu  Cu88  1  0.60751200  0.22625100  0.46775100  1
  Cu  Cu89  1  0.10751200  0.22625100  0.03224900  1
  Cu  Cu90  1  0.77374900  0.96775100  0.89248800  1
  Cu  Cu91  1  0.71400200  0.75337600  0.47955900  1
  Cu  Cu92  1  0.84265200  0.58062000  0.82614300  1
  Cu  Cu93  1  0.39607200  0.19938500  0.33473200  1
  Cu  Cu94  1  0.80061500  0.66526800  0.60392800  1
  Cu  Cu95  1  0.41938000  0.17385700  0.15734800  1
  Cu  Cu96  1  0.96775100  0.60751200  0.27374900  1
  Cu  Cu97  1  0.02044100  0.28599800  0.25337500  1
  Cu  Cu98  1  0.02044100  0.21400200  0.75337600  1
  Cu  Cu99  1  0.19938500  0.16526800  0.89607200  1
  Cu  Cu100  1  0.39248800  0.77374900  0.53224900  1
  Cu  Cu101  1  0.97955900  0.78599800  0.24662400  1
  Cu  Cu102  1  0.74662400  0.97955900  0.71400200  1
  Cu  Cu103  1  0.65734800  0.41938000  0.32614300  1
  Cu  Cu104  1  0.58062000  0.82614300  0.84265200  1
  Cu  Cu105  1  0.30061500  0.66526800  0.89607200  1
  Cu  Cu106  1  0.10751200  0.27374900  0.53224900  1
  Cu  Cu107  1  0.30061500  0.83473200  0.39607200  1
  Cu  Cu108  1  0.82614300  0.84265200  0.58062000  1
  Cu  Cu109  1  0.78599800  0.25337500  0.47955900  1
  Cu  Cu110  1  0.46775100  0.60751200  0.22625100  1
  Cu  Cu111  1  0.21400200  0.75337600  0.02044100  1
  Cu  Cu112  1  0.97955900  0.71400200  0.74662400  1
  Cu  Cu113  1  0.60392800  0.69938500  0.16526800  1
  Cu  Cu114  1  0.22625100  0.03224900  0.10751200  1
  Cu  Cu115  1  0.21400200  0.74662400  0.52044100  1
  Cu  Cu116  1  0.34265200  0.91938000  0.17385700  1
  Cu  Cu117  1  0.39607200  0.30061500  0.83473200  1
  Cu  Cu118  1  0.89607200  0.30061500  0.66526800  1
  Cu  Cu119  1  0.47955900  0.71400200  0.75337600  1
  Cu  Cu120  1  0.27374900  0.96775100  0.60751200  1
  Cu  Cu121  1  0.83473200  0.39607200  0.30061500  1
  Cu  Cu122  1  0.17385700  0.34265200  0.91938000  1
  Cu  Cu123  1  0.67385700  0.34265200  0.58062000  1
  Cu  Cu124  1  0.89248800  0.77374900  0.96775100  1
  Cu  Cu125  1  0.17385700  0.15734800  0.41938000  1
  Cu  Cu126  1  0.33473200  0.39607200  0.19938500  1
  Cu  Cu127  1  0.03224900  0.39248800  0.72625100  1
