# generated using pymatgen
data_CuNiC11
_symmetry_space_group_name_H-M   'P 1'
_cell_length_a   5.73597120
_cell_length_b   5.73597164
_cell_length_c   10.31033206
_cell_angle_alpha   90.00000000
_cell_angle_beta   90.00000000
_cell_angle_gamma   120.00000344
_symmetry_Int_Tables_number   1
_chemical_formula_structural   CuNiC11
_chemical_formula_sum   'Cu1 Ni1 C11'
_cell_volume   293.77661803
_cell_formula_units_Z   1
loop_
 _symmetry_equiv_pos_site_id
 _symmetry_equiv_pos_as_xyz
  1  'x, y, z'
loop_
 _atom_site_type_symbol
 _atom_site_label
 _atom_site_symmetry_multiplicity
 _atom_site_fract_x
 _atom_site_fract_y
 _atom_site_fract_z
 _atom_site_occupancy
  C  C0  1  0.00000000  -0.00000000  0.10754163  1
  Ni  Ni1  1  0.00000000  -0.00000000  0.73468673  1
  Cu  Cu2  1  0.00000000  -0.00000000  0.48762379  1
  C  C3  1  0.33333300  0.66666700  0.65747365  1
  C  C4  1  0.66666700  0.33333300  0.32920346  1
  C  C5  1  0.33333300  0.66666700  0.83644984  1
  C  C6  1  0.66666700  0.33333300  0.15762033  1
  C  C7  1  0.14717593  0.29435186  0.60513571  1
  C  C8  1  0.70564814  0.85282407  0.60513571  1
  C  C9  1  0.14717593  0.85282407  0.60513571  1
  C  C10  1  0.84184615  0.68369230  0.37726849  1
  C  C11  1  0.84184615  0.15815385  0.37726849  1
  C  C12  1  0.31630770  0.15815385  0.37726849  1
