# generated using pymatgen
data_Cu6NiC12
_symmetry_space_group_name_H-M   'P 1'
_cell_length_a   5.17406470
_cell_length_b   5.12519257
_cell_length_c   8.88620026
_cell_angle_alpha   91.15208433
_cell_angle_beta   90.66011986
_cell_angle_gamma   81.70363294
_symmetry_Int_Tables_number   1
_chemical_formula_structural   Cu6NiC12
_chemical_formula_sum   'Cu6 Ni1 C12'
_cell_volume   233.12292644
_cell_formula_units_Z   1
loop_
 _symmetry_equiv_pos_site_id
 _symmetry_equiv_pos_as_xyz
  1  'x, y, z'
loop_
 _atom_site_type_symbol
 _atom_site_label
 _atom_site_symmetry_multiplicity
 _atom_site_fract_x
 _atom_site_fract_y
 _atom_site_fract_z
 _atom_site_occupancy
  Ni  Ni0  1  0.53922231  0.99305244  0.32682916  1
  Cu  Cu1  1  0.95106314  0.90052884  0.00481651  1
  Cu  Cu2  1  0.04651830  0.06743331  0.31748941  1
  Cu  Cu3  1  0.08629643  0.05225106  0.67353285  1
  Cu  Cu4  1  0.47430536  0.51519952  0.82802746  1
  Cu  Cu5  1  0.49754826  0.49149765  0.15580817  1
  Cu  Cu6  1  0.45183093  0.52017910  0.50929740  1
  C  C7  1  0.24598158  0.84676527  0.16840684  1
  C  C8  1  0.25885669  0.89238988  0.47264035  1
  C  C9  1  0.18713200  0.79747056  0.83938921  1
  C  C10  1  0.31902919  0.34821685  0.32544986  1
  C  C11  1  0.29800752  0.34810433  0.66737678  1
  C  C12  1  0.67640303  0.63828736  0.99541345  1
  C  C13  1  0.63547401  0.64855097  0.67079596  1
  C  C14  1  0.76673716  0.13298773  0.16987400  1
  C  C15  1  0.29625194  0.33572705  0.98170681  1
  C  C16  1  0.71978149  0.63897908  0.34463282  1
  C  C17  1  0.77995115  0.14975879  0.48133671  1
  C  C18  1  0.78350151  0.16873222  0.83146124  1
