# generated using pymatgen
data_Cu4NiC4
_symmetry_space_group_name_H-M   'P 1'
_cell_length_a   7.92937100
_cell_length_b   7.92937100
_cell_length_c   7.00601600
_cell_angle_alpha   90.00000000
_cell_angle_beta   90.00000000
_cell_angle_gamma   90.00000000
_symmetry_Int_Tables_number   1
_chemical_formula_structural   Cu4NiC4
_chemical_formula_sum   'Cu8 Ni2 C8'
_cell_volume   440.50272674
_cell_formula_units_Z   2
loop_
 _symmetry_equiv_pos_site_id
 _symmetry_equiv_pos_as_xyz
  1  'x, y, z'
loop_
 _atom_site_type_symbol
 _atom_site_label
 _atom_site_symmetry_multiplicity
 _atom_site_fract_x
 _atom_site_fract_y
 _atom_site_fract_z
 _atom_site_occupancy
  C  C0  1  0.19820100  0.40638900  0.03088300  1
  C  C1  1  0.59361100  0.19820100  0.96911700  1
  C  C2  1  0.40638900  0.80179900  0.96911700  1
  C  C3  1  0.80179900  0.59361100  0.03088300  1
  C  C4  1  0.69820100  0.09361100  0.46911700  1
  C  C5  1  0.30179900  0.90638900  0.46911700  1
  C  C6  1  0.90638900  0.69820100  0.53088300  1
  C  C7  1  0.09361100  0.30179900  0.53088300  1
  Ni  Ni8  1  0.00000000  0.00000000  0.00000000  1
  Ni  Ni9  1  0.50000000  0.50000000  0.50000000  1
  Cu  Cu10  1  0.26077600  0.59248100  0.68945900  1
  Cu  Cu11  1  0.73922400  0.40751900  0.68945900  1
  Cu  Cu12  1  0.09248100  0.76077600  0.18945900  1
  Cu  Cu13  1  0.23922400  0.09248100  0.81054100  1
  Cu  Cu14  1  0.76077600  0.90751900  0.81054100  1
  Cu  Cu15  1  0.90751900  0.23922400  0.18945900  1
  Cu  Cu16  1  0.59248100  0.73922400  0.31054100  1
  Cu  Cu17  1  0.40751900  0.26077600  0.31054100  1
