# generated using pymatgen
data_CuNi3C16
_symmetry_space_group_name_H-M   'P 1'
_cell_length_a   9.26883468
_cell_length_b   9.24396013
_cell_length_c   22.62613662
_cell_angle_alpha   91.55063773
_cell_angle_beta   90.00000000
_cell_angle_gamma   120.08905415
_symmetry_Int_Tables_number   1
_chemical_formula_structural   CuNi3C16
_chemical_formula_sum   'Cu6 Ni18 C96'
_cell_volume   1676.56855433
_cell_formula_units_Z   6
loop_
 _symmetry_equiv_pos_site_id
 _symmetry_equiv_pos_as_xyz
  1  'x, y, z'
loop_
 _atom_site_type_symbol
 _atom_site_label
 _atom_site_symmetry_multiplicity
 _atom_site_fract_x
 _atom_site_fract_y
 _atom_site_fract_z
 _atom_site_occupancy
  Ni  Ni0  1  0.63778560  0.00320924  0.25302856  1
  Ni  Ni1  1  0.00416094  0.63387587  0.23959124  1
  Ni  Ni2  1  0.62971493  0.63387587  0.73959124  1
  Ni  Ni3  1  0.36542363  0.00320924  0.75302856  1
  Ni  Ni4  1  0.31916262  0.34600588  0.58721907  1
  Ni  Ni5  1  0.65979074  0.94917293  0.57766118  1
  Ni  Ni6  1  0.28938318  0.94917293  0.07766118  1
  Ni  Ni7  1  0.02684427  0.34600588  0.08721907  1
  Ni  Ni8  1  0.98876337  0.68065352  0.92491238  1
  Ni  Ni9  1  0.69724693  0.03699531  0.90768601  1
  Ni  Ni10  1  0.33974737  0.03699531  0.40768601  1
  Ni  Ni11  1  0.69188916  0.68065352  0.42491238  1
  Ni  Ni12  1  0.97875701  0.99525251  0.50082999  1
  Ni  Ni13  1  0.01649549  0.99525251  0.00082999  1
  Ni  Ni14  1  0.66510318  0.30812845  0.83492929  1
  Ni  Ni15  1  0.64302627  0.30812845  0.33492929  1
  Ni  Ni16  1  0.32519972  0.65809398  0.16736743  1
  Ni  Ni17  1  0.33289327  0.65809398  0.66736743  1
  Cu  Cu18  1  0.00577408  0.01640719  0.35040935  1
  Cu  Cu19  1  0.01063311  0.01640719  0.85040935  1
  Cu  Cu20  1  0.67388495  0.32957171  0.68375425  1
  Cu  Cu21  1  0.65568777  0.32957171  0.18375425  1
  Cu  Cu22  1  0.33627565  0.66924044  0.01661526  1
  Cu  Cu23  1  0.33296379  0.66924044  0.51661526  1
  C  C24  1  0.94510433  0.94089576  0.65522303  1
  C  C25  1  0.99579143  0.94089576  0.15522303  1
  C  C26  1  0.65030149  0.33596509  0.98767103  1
  C  C27  1  0.68566460  0.33596509  0.48767103  1
  C  C28  1  0.33139527  0.71236978  0.32260816  1
  C  C29  1  0.38097351  0.71236978  0.82260816  1
  C  C30  1  0.30049371  0.98988758  0.25470581  1
  C  C31  1  0.68939387  0.98988758  0.75470581  1
  C  C32  1  0.67389482  0.62537909  0.58359106  1
  C  C33  1  0.95148527  0.62537909  0.08359106  1
  C  C34  1  0.34806769  0.98382259  0.92339716  1
  C  C35  1  0.63575390  0.98382259  0.42339716  1
  C  C36  1  0.69760167  0.70982414  0.25072930  1
  C  C37  1  0.01264136  0.30432489  0.24639835  1
  C  C38  1  0.29168353  0.30432489  0.74639835  1
  C  C39  1  0.01222247  0.70982414  0.75072930  1
  C  C40  1  0.96282265  0.32148100  0.58226559  1
  C  C41  1  0.35487258  0.03897080  0.58332440  1
  C  C42  1  0.68409922  0.03897080  0.08332440  1
  C  C43  1  0.35865935  0.32148100  0.08226559  1
  C  C44  1  0.62862358  0.65539221  0.91350313  1
  C  C45  1  0.03475658  0.38030309  0.91521336  1
  C  C46  1  0.34554551  0.38030309  0.41521336  1
  C  C47  1  0.02676762  0.65539221  0.41350313  1
  C  C48  1  0.21810328  0.00061963  0.31529830  1
  C  C49  1  0.79207314  0.78750050  0.30596050  1
  C  C50  1  0.98158367  0.19744274  0.29745010  1
  C  C51  1  0.21585908  0.19744274  0.79745010  1
  C  C52  1  0.99542736  0.78750050  0.80596050  1
  C  C53  1  0.78251635  0.00061963  0.81529830  1
  C  C54  1  0.77959065  0.95673173  0.69447825  1
  C  C55  1  0.19333723  0.21888056  0.69102352  1
  C  C56  1  0.03658227  0.82496271  0.69904594  1
  C  C57  1  0.78838044  0.82496271  0.19904594  1
  C  C58  1  0.02554333  0.21888056  0.19102352  1
  C  C59  1  0.17714108  0.95673173  0.19447825  1
  C  C60  1  0.88897677  0.34398096  0.63631037  1
  C  C61  1  0.45865127  0.11363032  0.63743895  1
  C  C62  1  0.65316336  0.53036737  0.64385962  1
  C  C63  1  0.87720501  0.53036737  0.14385962  1
  C  C64  1  0.65498005  0.11363032  0.13743895  1
  C  C65  1  0.45500519  0.34398096  0.13631037  1
  C  C66  1  0.44476663  0.29877593  0.02876050  1
  C  C67  1  0.83083464  0.52312757  0.02288308  1
  C  C68  1  0.69948546  0.14361810  0.03092446  1
  C  C69  1  0.44413364  0.14361810  0.53092446  1
  C  C70  1  0.69229394  0.52312757  0.52288308  1
  C  C71  1  0.85401030  0.29877593  0.52876050  1
  C  C72  1  0.54514554  0.67556860  0.96546317  1
  C  C73  1  0.11884296  0.44898280  0.97294721  1
  C  C74  1  0.32435113  0.87452179  0.98026879  1
  C  C75  1  0.55016966  0.87452179  0.48026879  1
  C  C76  1  0.33013884  0.44898280  0.47294721  1
  C  C77  1  0.13042206  0.67556860  0.46546317  1
  C  C78  1  0.10925065  0.63601273  0.35761925  1
  C  C79  1  0.50781963  0.89514592  0.36168261  1
  C  C80  1  0.34973789  0.48604569  0.36556099  1
  C  C81  1  0.13630679  0.48604569  0.86556099  1
  C  C82  1  0.38732529  0.89514592  0.86168261  1
  C  C83  1  0.52676108  0.63601273  0.85761925  1
  C  C84  1  0.00862556  0.80589633  0.41102421  1
  C  C85  1  0.81283113  0.99106551  0.41542673  1
  C  C86  1  0.20696722  0.20490042  0.41150913  1
  C  C87  1  0.99793320  0.20490042  0.91150913  1
  C  C88  1  0.17823437  0.99106551  0.91542673  1
  C  C89  1  0.79727076  0.80589633  0.91102421  1
  C  C90  1  0.97231247  0.16486970  0.58323562  1
  C  C91  1  0.19386208  0.03886839  0.58764628  1
  C  C92  1  0.84586551  0.81954677  0.58587333  1
  C  C93  1  0.97368126  0.81954677  0.08587333  1
  C  C94  1  0.84500630  0.03886839  0.08764628  1
  C  C95  1  0.19255723  0.16486970  0.08323562  1
  C  C96  1  0.64817230  0.13974690  0.74939338  1
  C  C97  1  0.46511978  0.33052856  0.74354587  1
  C  C98  1  0.86138148  0.54666242  0.74301942  1
  C  C99  1  0.68528194  0.54666242  0.24301942  1
  C  C100  1  0.86540978  0.33052856  0.24354587  1
  C  C101  1  0.49157561  0.13974690  0.24939338  1
  C  C102  1  0.64426713  0.50355496  0.91487044  1
  C  C103  1  0.86999249  0.37647105  0.91356655  1
  C  C104  1  0.53056160  0.16890891  0.92928374  1
  C  C105  1  0.63834832  0.16890891  0.42928374  1
  C  C106  1  0.50647956  0.37647105  0.41356655  1
  C  C107  1  0.85928883  0.50355496  0.41487044  1
  C  C108  1  0.33377440  0.46658293  0.07704423  1
  C  C109  1  0.13994120  0.65199614  0.07892866  1
  C  C110  1  0.54061305  0.86704247  0.07769859  1
  C  C111  1  0.32642842  0.86704247  0.57769859  1
  C  C112  1  0.51205394  0.65199614  0.57892866  1
  C  C113  1  0.13280753  0.46658293  0.57704423  1
  C  C114  1  0.30341167  0.80519736  0.25366249  1
  C  C115  1  0.53272318  0.69997820  0.25108936  1
  C  C116  1  0.16669861  0.47174427  0.25357199  1
  C  C117  1  0.30504467  0.47174427  0.75357199  1
  C  C118  1  0.16725402  0.69997820  0.75108936  1
  C  C119  1  0.50178469  0.80519736  0.75366249  1
