# generated using pymatgen
data_Cu3(NiC15)2
_symmetry_space_group_name_H-M   'P 1'
_cell_length_a   8.67886849
_cell_length_b   8.70004404
_cell_length_c   22.56326373
_cell_angle_alpha   90.22444163
_cell_angle_beta   89.38190660
_cell_angle_gamma   120.04799504
_symmetry_Int_Tables_number   1
_chemical_formula_structural   Cu3(NiC15)2
_chemical_formula_sum   'Cu9 Ni6 C90'
_cell_volume   1474.62285011
_cell_formula_units_Z   3
loop_
 _symmetry_equiv_pos_site_id
 _symmetry_equiv_pos_as_xyz
  1  'x, y, z'
loop_
 _atom_site_type_symbol
 _atom_site_label
 _atom_site_symmetry_multiplicity
 _atom_site_fract_x
 _atom_site_fract_y
 _atom_site_fract_z
 _atom_site_occupancy
  C  C0  1  0.68169186  0.33585884  0.83469756  1
  C  C1  1  0.66192019  0.34231954  0.32954193  1
  C  C2  1  0.35064680  0.67755866  0.17370711  1
  C  C3  1  0.00491379  0.99241442  0.35518443  1
  C  C4  1  0.99255036  0.00171383  0.85503182  1
  C  C5  1  0.99385001  0.99287710  0.64801090  1
  C  C6  1  0.00048088  0.99876523  0.14472116  1
  C  C7  1  0.33464154  0.66383169  0.02333404  1
  C  C8  1  0.32873642  0.66346647  0.52076374  1
  Ni  Ni9  1  0.67451526  0.33234008  0.69016436  1
  Ni  Ni10  1  0.64435984  0.32551265  0.18731984  1
  Ni  Ni11  1  0.67195492  0.32365399  0.98374218  1
  Ni  Ni12  1  0.66462725  0.34208543  0.47560149  1
  Ni  Ni13  1  0.33409570  0.66274918  0.31409774  1
  Ni  Ni14  1  0.31939129  0.66888778  0.81093917  1
  Cu  Cu15  1  0.29901744  0.99394754  0.24999973  1
  Cu  Cu16  1  0.70023639  0.69856072  0.25021103  1
  Cu  Cu17  1  0.99692151  0.70034397  0.75065865  1
  Cu  Cu18  1  0.69423724  0.99512765  0.75147225  1
  Cu  Cu19  1  0.66631214  0.05511129  0.08517073  1
  Cu  Cu20  1  0.39095116  0.33324059  0.08229937  1
  Cu  Cu21  1  0.03870366  0.38880341  0.91489847  1
  Cu  Cu22  1  0.34224061  0.38344307  0.41447531  1
  Cu  Cu23  1  0.04018951  0.65210807  0.41510057  1
  C  C24  1  0.99817362  0.29666565  0.25024824  1
  C  C25  1  0.29852463  0.29757826  0.74959785  1
  C  C26  1  0.94272885  0.32997178  0.58306177  1
  C  C27  1  0.39229045  0.06006900  0.58371353  1
  C  C28  1  0.66615050  0.61039518  0.58430108  1
  C  C29  1  0.94467273  0.61133443  0.08413217  1
  C  C30  1  0.61515508  0.65239013  0.91427102  1
  C  C31  1  0.34334406  0.96323661  0.91485820  1
  C  C32  1  0.61990692  0.96426769  0.41627860  1
  C  C33  1  0.20688514  0.02187574  0.30520428  1
  C  C34  1  0.81549010  0.79342758  0.30528714  1
  C  C35  1  0.97395096  0.18638832  0.30343828  1
  C  C36  1  0.21363205  0.18043605  0.80190173  1
  C  C37  1  0.96713570  0.79352229  0.80443343  1
  C  C38  1  0.82277001  0.03455159  0.80420869  1
  C  C39  1  0.78930489  0.97219154  0.69554778  1
  C  C40  1  0.18586645  0.20993030  0.69651084  1
  C  C41  1  0.02328270  0.81880839  0.69508509  1
  C  C42  1  0.79142598  0.81623985  0.19510715  1
  C  C43  1  0.02343783  0.20956712  0.19696854  1
  C  C44  1  0.18475935  0.97278067  0.19521860  1
  C  C45  1  0.86744867  0.36282538  0.63716189  1
  C  C46  1  0.49919114  0.13775267  0.63704221  1
  C  C47  1  0.63475232  0.50187286  0.63747812  1
  C  C48  1  0.86837228  0.50380180  0.13718743  1
  C  C49  1  0.63378296  0.13785126  0.13987962  1
  C  C50  1  0.50347911  0.37627764  0.13768676  1
  C  C51  1  0.47425740  0.31112612  0.02506135  1
  C  C52  1  0.84677134  0.53818073  0.02903679  1
  C  C53  1  0.70089436  0.15817739  0.02692204  1
  C  C54  1  0.47052918  0.16674827  0.52986367  1
  C  C55  1  0.70009116  0.53643925  0.53032890  1
  C  C56  1  0.83556565  0.30009351  0.53018766  1
  C  C57  1  0.53646811  0.68399880  0.96858204  1
  C  C58  1  0.15218882  0.47450876  0.97033407  1
  C  C59  1  0.31687300  0.85603101  0.96868415  1
  C  C60  1  0.53850090  0.85448136  0.47082294  1
  C  C61  1  0.31912177  0.47067058  0.47201684  1
  C  C62  1  0.15339044  0.68386900  0.47181777  1
  C  C63  1  0.12968041  0.62545711  0.36085475  1
  C  C64  1  0.50913359  0.88446093  0.36408018  1
  C  C65  1  0.37968651  0.50464531  0.36111159  1
  C  C66  1  0.12640500  0.50287453  0.85939129  1
  C  C67  1  0.37541372  0.88263240  0.86197051  1
  C  C68  1  0.50702780  0.62898615  0.86191182  1
  C  C69  1  0.01786249  0.81638486  0.40914282  1
  C  C70  1  0.79694873  0.98251808  0.40987396  1
  C  C71  1  0.17219230  0.20291026  0.40719154  1
  C  C72  1  0.02197793  0.20398914  0.90611019  1
  C  C73  1  0.18029033  0.97640280  0.90738885  1
  C  C74  1  0.79459964  0.81574742  0.90874133  1
  C  C75  1  0.96614950  0.17345959  0.59129629  1
  C  C76  1  0.21228317  0.03960426  0.59179020  1
  C  C77  1  0.82686228  0.79032092  0.59138842  1
  C  C78  1  0.96653510  0.79064292  0.09015165  1
  C  C79  1  0.82740617  0.02878204  0.09416470  1
  C  C80  1  0.20606649  0.16802438  0.09121242  1
  C  C81  1  0.67453224  0.16079394  0.74379516  1
  C  C82  1  0.47428693  0.31209945  0.74215763  1
  C  C83  1  0.82592627  0.51773846  0.74362542  1
  C  C84  1  0.68945768  0.51674730  0.24426637  1
  C  C85  1  0.84013664  0.31529568  0.24454055  1
  C  C86  1  0.48423112  0.16174131  0.24633463  1
  C  C87  1  0.63735507  0.49700643  0.92120292  1
  C  C88  1  0.85144706  0.36669418  0.92227648  1
  C  C89  1  0.49925240  0.14332425  0.92063028  1
  C  C90  1  0.63850849  0.14111406  0.42479437  1
  C  C91  1  0.50457795  0.35729444  0.42210995  1
  C  C92  1  0.85638739  0.48435396  0.42321611  1
  C  C93  1  0.36270256  0.49733174  0.07583452  1
  C  C94  1  0.12912347  0.63727563  0.07825439  1
  C  C95  1  0.49696596  0.86698298  0.07802628  1
  C  C96  1  0.37119012  0.88053956  0.57623660  1
  C  C97  1  0.51013354  0.63488835  0.57722400  1
  C  C98  1  0.12337421  0.48978689  0.57652540  1
  C  C99  1  0.31178324  0.82500658  0.25738790  1
  C  C100  1  0.51440458  0.67984603  0.25681864  1
  C  C101  1  0.16158816  0.47212255  0.25443984  1
  C  C102  1  0.31430985  0.47103932  0.75709592  1
  C  C103  1  0.16224655  0.68468929  0.75631544  1
  C  C104  1  0.51847200  0.82672175  0.76183982  1
