# generated using pymatgen
data_Cu5Ni7C66
_symmetry_space_group_name_H-M   'P 1'
_cell_length_a   18.03100617
_cell_length_b   8.96034821
_cell_length_c   22.68702610
_cell_angle_alpha   89.71352105
_cell_angle_beta   91.23185281
_cell_angle_gamma   119.71501907
_symmetry_Int_Tables_number   1
_chemical_formula_structural   Cu5Ni7C66
_chemical_formula_sum   'Cu15 Ni21 C198'
_cell_volume   3182.61019158
_cell_formula_units_Z   3
loop_
 _symmetry_equiv_pos_site_id
 _symmetry_equiv_pos_as_xyz
  1  'x, y, z'
loop_
 _atom_site_type_symbol
 _atom_site_label
 _atom_site_symmetry_multiplicity
 _atom_site_fract_x
 _atom_site_fract_y
 _atom_site_fract_z
 _atom_site_occupancy
  C  C0  1  0.18481509  0.37065034  0.24391940  1
  C  C1  1  0.68472038  0.37103660  0.24426064  1
  C  C2  1  0.99387458  0.62766917  0.25247966  1
  C  C3  1  0.49408076  0.62747101  0.25246680  1
  C  C4  1  0.49415537  0.35863436  0.75543860  1
  C  C5  1  0.18434901  0.99754948  0.74694806  1
  C  C6  1  0.68636911  0.00082481  0.74573111  1
  C  C7  1  0.65612960  0.33827844  0.58033048  1
  C  C8  1  0.01892013  0.70460102  0.57989436  1
  C  C9  1  0.82738701  0.95950499  0.58829559  1
  C  C10  1  0.48851033  0.66879390  0.91275204  1
  C  C11  1  0.98965461  0.67097989  0.91214374  1
  C  C12  1  0.85239157  0.03672247  0.90934219  1
  C  C13  1  0.15945360  0.29211813  0.92042946  1
  C  C14  1  0.48934802  0.31043498  0.41233054  1
  C  C15  1  0.98755609  0.30768877  0.41219537  1
  C  C16  1  0.35388875  0.66900886  0.40925997  1
  C  C17  1  0.85316898  0.66844161  0.41195692  1
  C  C18  1  0.01449178  0.00476791  0.49665677  1
  C  C19  1  0.51123615  0.99478672  0.49532822  1
  C  C20  1  0.00980747  0.01516004  0.99831307  1
  C  C21  1  0.51056196  0.02746165  0.99441937  1
  C  C22  1  0.33823358  0.32704174  0.83115830  1
  C  C23  1  0.84042943  0.33735665  0.82627292  1
  C  C24  1  0.33491207  0.33358656  0.32851463  1
  C  C25  1  0.83419990  0.33280768  0.32974830  1
  C  C26  1  0.17318122  0.66416522  0.15989951  1
  C  C27  1  0.67297889  0.66440060  0.16018241  1
  C  C28  1  0.17335887  0.67479899  0.66581575  1
  C  C29  1  0.67198927  0.68195173  0.66400416  1
  C  C30  1  0.99912661  0.99025024  0.64844027  1
  C  C31  1  0.49551416  0.98274519  0.64801987  1
  C  C32  1  0.99993081  0.01244799  0.14531042  1
  C  C33  1  0.49956283  0.01148883  0.14536027  1
  C  C34  1  0.33041731  0.31859484  0.97969906  1
  C  C35  1  0.82440169  0.32231874  0.98096560  1
  C  C36  1  0.32665295  0.33018041  0.48060796  1
  C  C37  1  0.82745055  0.33795967  0.48106277  1
  C  C38  1  0.16463008  0.65475414  0.31305564  1
  C  C39  1  0.66412374  0.65495157  0.31355059  1
  C  C40  1  0.16225171  0.67225185  0.81332618  1
  C  C41  1  0.66556572  0.67553916  0.81390353  1
  C  C42  1  0.00178539  0.99941817  0.35068981  1
  C  C43  1  0.50314075  0.99959323  0.35032046  1
  C  C44  1  0.99851125  0.99860384  0.84860546  1
  C  C45  1  0.49814604  0.00279878  0.85294895  1
  C  C46  1  0.33374647  0.31732238  0.68813489  1
  C  C47  1  0.83423926  0.33327632  0.68628728  1
  C  C48  1  0.33666071  0.35578505  0.18474477  1
  C  C49  1  0.83641886  0.35577686  0.18518846  1
  C  C50  1  0.15843525  0.64345637  0.01536853  1
  C  C51  1  0.65499606  0.63969536  0.01562852  1
  C  C52  1  0.16169269  0.67450045  0.51384132  1
  C  C53  1  0.66178697  0.66760873  0.51878347  1
  Ni  Ni54  1  0.35648921  0.71389540  0.25072987  1
  Ni  Ni55  1  0.85633651  0.71398507  0.25063342  1
  Ni  Ni56  1  0.99102530  0.28181879  0.25171875  1
  Ni  Ni57  1  0.49109255  0.28197842  0.25168188  1
  Ni  Ni58  1  0.99181242  0.69656623  0.75219276  1
  Ni  Ni59  1  0.49155915  0.69903215  0.75293122  1
  Ni  Ni60  1  0.35553670  0.99794915  0.75110294  1
  Ni  Ni61  1  0.85584971  0.00755881  0.75045425  1
  Ni  Ni62  1  0.18995336  0.03423273  0.58564702  1
  Ni  Ni63  1  0.68663521  0.03590433  0.58539770  1
  Ni  Ni64  1  0.82871918  0.62078533  0.58487013  1
  Ni  Ni65  1  0.19002521  0.34568673  0.08339438  1
  Ni  Ni66  1  0.68831342  0.34605657  0.08549410  1
  Ni  Ni67  1  0.02004155  0.36687615  0.91658649  1
  Ni  Ni68  1  0.52083948  0.36334694  0.91535532  1
  Ni  Ni69  1  0.16272926  0.95011685  0.91923835  1
  Ni  Ni70  1  0.66092677  0.94970880  0.92021072  1
  Ni  Ni71  1  0.16122616  0.37140122  0.41975544  1
  Ni  Ni72  1  0.66065459  0.36588829  0.41909169  1
  Ni  Ni73  1  0.02109947  0.67639218  0.41633392  1
  Ni  Ni74  1  0.52340457  0.67708731  0.41756310  1
  Cu  Cu75  1  0.14708570  0.00511377  0.25073727  1
  Cu  Cu76  1  0.64719823  0.00506541  0.25051726  1
  Cu  Cu77  1  0.14836071  0.29342247  0.75092765  1
  Cu  Cu78  1  0.64645322  0.28879311  0.75046714  1
  Cu  Cu79  1  0.48048079  0.33714166  0.58467898  1
  Cu  Cu80  1  0.98215732  0.33888905  0.58347269  1
  Cu  Cu81  1  0.32812139  0.62059656  0.58374188  1
  Cu  Cu82  1  0.48174033  0.62541075  0.08445681  1
  Cu  Cu83  1  0.98188979  0.62510332  0.08422528  1
  Cu  Cu84  1  0.32851793  0.03723922  0.08577163  1
  Cu  Cu85  1  0.82889275  0.03875114  0.08477582  1
  Cu  Cu86  1  0.31292925  0.67280825  0.91888495  1
  Cu  Cu87  1  0.81243051  0.66932970  0.91886226  1
  Cu  Cu88  1  0.31184259  0.95529544  0.41862908  1
  Cu  Cu89  1  0.81311717  0.95742094  0.41838678  1
  C  C90  1  0.10863659  0.03562833  0.30305255  1
  C  C91  1  0.60875563  0.03573284  0.30297022  1
  C  C92  1  0.41646999  0.79503509  0.31043772  1
  C  C93  1  0.91671389  0.79497044  0.31003465  1
  C  C94  1  0.48261842  0.17397265  0.31163536  1
  C  C95  1  0.98311766  0.17452913  0.31167624  1
  C  C96  1  0.11056218  0.18731912  0.80443266  1
  C  C97  1  0.60622124  0.17958777  0.80170102  1
  C  C98  1  0.48317280  0.79151835  0.81137471  1
  C  C99  1  0.98565783  0.79478782  0.81114249  1
  C  C100  1  0.42172958  0.04315101  0.80605705  1
  C  C101  1  0.91292259  0.03070356  0.81053017  1
  C  C102  1  0.40109770  0.97962580  0.69162485  1
  C  C103  1  0.89994621  0.98303311  0.69116604  1
  C  C104  1  0.09416189  0.21365662  0.69782352  1
  C  C105  1  0.59282908  0.21493630  0.69521840  1
  C  C106  1  0.01607459  0.82325430  0.69406486  1
  C  C107  1  0.51758706  0.82870830  0.69583797  1
  C  C108  1  0.40459607  0.82727266  0.19355220  1
  C  C109  1  0.90479089  0.82801772  0.19334006  1
  C  C110  1  0.01850514  0.20432629  0.19646759  1
  C  C111  1  0.51826072  0.20383517  0.19655863  1
  C  C112  1  0.09194508  0.97070406  0.19722598  1
  C  C113  1  0.59196301  0.97066663  0.19723129  1
  C  C114  1  0.43979744  0.35911737  0.63734805  1
  C  C115  1  0.94095151  0.36597878  0.63431958  1
  C  C116  1  0.24729514  0.13194726  0.64489373  1
  C  C117  1  0.74747433  0.12439694  0.64405309  1
  C  C118  1  0.32142268  0.51634527  0.63590144  1
  C  C119  1  0.81381999  0.49130395  0.63864403  1
  C  C120  1  0.44187344  0.52066729  0.13808482  1
  C  C121  1  0.94165111  0.52094504  0.13770682  1
  C  C122  1  0.32161469  0.12556051  0.13750952  1
  C  C123  1  0.82253767  0.12881340  0.13611490  1
  C  C124  1  0.24652270  0.36098308  0.14410220  1
  C  C125  1  0.74565591  0.36213612  0.14563078  1
  C  C126  1  0.23490605  0.31638629  0.02531487  1
  C  C127  1  0.73504297  0.31497142  0.02916717  1
  C  C128  1  0.42856759  0.54351598  0.03075084  1
  C  C129  1  0.92897689  0.54349480  0.03021551  1
  C  C130  1  0.34393174  0.14420469  0.03147641  1
  C  C131  1  0.84420086  0.14347325  0.02961059  1
  C  C132  1  0.23612377  0.15532314  0.52836635  1
  C  C133  1  0.73339343  0.16203025  0.52866184  1
  C  C134  1  0.34365580  0.54537166  0.52912229  1
  C  C135  1  0.85253755  0.54898631  0.52514088  1
  C  C136  1  0.42880447  0.31321450  0.53022560  1
  C  C137  1  0.92912411  0.30706778  0.52819881  1
  C  C138  1  0.27310438  0.69553326  0.97096138  1
  C  C139  1  0.77280339  0.69622205  0.97036474  1
  C  C140  1  0.08361978  0.44829496  0.97348011  1
  C  C141  1  0.57914730  0.45313786  0.97345319  1
  C  C142  1  0.14897184  0.82322117  0.97485613  1
  C  C143  1  0.65135756  0.82505100  0.97560107  1
  C  C144  1  0.27190872  0.84898991  0.47068615  1
  C  C145  1  0.77468329  0.85356540  0.47151878  1
  C  C146  1  0.15072792  0.47554618  0.47470967  1
  C  C147  1  0.64787852  0.45876698  0.47675969  1
  C  C148  1  0.07634831  0.70165494  0.47694401  1
  C  C149  1  0.58347118  0.70010618  0.47440274  1
  C  C150  1  0.06557666  0.64370489  0.35885492  1
  C  C151  1  0.56231281  0.63955861  0.35764878  1
  C  C152  1  0.25963935  0.88269978  0.36451503  1
  C  C153  1  0.75951190  0.87998535  0.36491389  1
  C  C154  1  0.18446869  0.49118148  0.35991290  1
  C  C155  1  0.68257225  0.49054565  0.36071581  1
  C  C156  1  0.06471089  0.49235109  0.86043152  1
  C  C157  1  0.56233590  0.48621972  0.85669658  1
  C  C158  1  0.18158084  0.87746683  0.85874815  1
  C  C159  1  0.68474707  0.87803128  0.86023264  1
  C  C160  1  0.25879828  0.63586302  0.86509344  1
  C  C161  1  0.76066091  0.63780104  0.86438105  1
  C  C162  1  0.00495760  0.83993417  0.41001752  1
  C  C163  1  0.50491940  0.83809651  0.41066785  1
  C  C164  1  0.39735648  0.97196040  0.41449310  1
  C  C165  1  0.89840839  0.97248084  0.41344734  1
  C  C166  1  0.07528531  0.18615897  0.41085245  1
  C  C167  1  0.57394426  0.18149206  0.40958600  1
  C  C168  1  0.00849074  0.17333787  0.90909859  1
  C  C169  1  0.50910522  0.17315824  0.90895099  1
  C  C170  1  0.07727991  0.97212159  0.91126482  1
  C  C171  1  0.57498777  0.96238722  0.91084086  1
  C  C172  1  0.39941962  0.81995685  0.91344355  1
  C  C173  1  0.89874993  0.82361010  0.91412072  1
  C  C174  1  0.49083010  0.18207229  0.58857164  1
  C  C175  1  0.98955735  0.18134632  0.58882829  1
  C  C176  1  0.09369785  0.01281202  0.58890463  1
  C  C177  1  0.59426636  0.03375347  0.58841567  1
  C  C178  1  0.40756479  0.79446748  0.58699871  1
  C  C179  1  0.91354845  0.81599755  0.58816160  1
  C  C180  1  0.48881961  0.79704196  0.08924404  1
  C  C181  1  0.98879372  0.79717762  0.08869194  1
  C  C182  1  0.40712682  0.01965808  0.08869584  1
  C  C183  1  0.90794133  0.02137299  0.08787518  1
  C  C184  1  0.09501470  0.16958396  0.08863838  1
  C  C185  1  0.59429632  0.16983482  0.08957576  1
  C  C186  1  0.34386007  0.17109887  0.74588912  1
  C  C187  1  0.83822567  0.17025462  0.74448685  1
  C  C188  1  0.23299309  0.30451627  0.74502047  1
  C  C189  1  0.73073420  0.30399327  0.74490882  1
  C  C190  1  0.41000059  0.50666739  0.73949981  1
  C  C191  1  0.90841684  0.51077500  0.74236367  1
  C  C192  1  0.34397076  0.51682404  0.24578075  1
  C  C193  1  0.84427342  0.51723106  0.24577844  1
  C  C194  1  0.40981008  0.31309278  0.23943093  1
  C  C195  1  0.90989079  0.31289486  0.23934571  1
  C  C196  1  0.23201294  0.15761992  0.24459996  1
  C  C197  1  0.73206411  0.15757624  0.24452741  1
  C  C198  1  0.32283721  0.51391569  0.92420194  1
  C  C199  1  0.82685047  0.51862981  0.92408322  1
  C  C200  1  0.42896930  0.36612563  0.92299315  1
  C  C201  1  0.92653266  0.35622695  0.92414241  1
  C  C202  1  0.24473481  0.14876367  0.92224248  1
  C  C203  1  0.74959931  0.13904817  0.92394685  1
  C  C204  1  0.32573601  0.13436291  0.42379935  1
  C  C205  1  0.82663110  0.13509570  0.42290526  1
  C  C206  1  0.24999089  0.35978272  0.42327523  1
  C  C207  1  0.74923054  0.35485900  0.42047041  1
  C  C208  1  0.42787517  0.49755993  0.42435146  1
  C  C209  1  0.92784374  0.49404671  0.42069530  1
  C  C210  1  0.18177086  0.52057246  0.07670719  1
  C  C211  1  0.68137449  0.52125646  0.07701462  1
  C  C212  1  0.06722490  0.64278506  0.08026121  1
  C  C213  1  0.56723819  0.64328948  0.08060130  1
  C  C214  1  0.25266682  0.86742583  0.07819462  1
  C  C215  1  0.75349501  0.86851601  0.07803126  1
  C  C216  1  0.17669101  0.83796178  0.57743277  1
  C  C217  1  0.68088773  0.84905502  0.57688948  1
  C  C218  1  0.25330336  0.63971769  0.57669268  1
  C  C219  1  0.74333209  0.64013062  0.57556851  1
  C  C220  1  0.06710276  0.49310406  0.57846147  1
  C  C221  1  0.56690923  0.48867770  0.58114779  1
  C  C222  1  0.15415243  0.84723368  0.25664913  1
  C  C223  1  0.65421672  0.84728734  0.25659170  1
  C  C224  1  0.25939371  0.68670346  0.25469803  1
  C  C225  1  0.75914293  0.68640816  0.25479742  1
  C  C226  1  0.07771388  0.47873470  0.25549024  1
  C  C227  1  0.57785388  0.47874629  0.25537676  1
  C  C228  1  0.15891507  0.46625658  0.75601336  1
  C  C229  1  0.65342076  0.46082052  0.75543569  1
  C  C230  1  0.08182535  0.68797194  0.75430464  1
  C  C231  1  0.57840456  0.67666947  0.75494501  1
  C  C232  1  0.25941456  0.83138645  0.75429576  1
  C  C233  1  0.75940459  0.83318212  0.75475986  1
