# generated using pymatgen
data_CuNi4C11
_symmetry_space_group_name_H-M   'P 1'
_cell_length_a   3.80121000
_cell_length_b   5.61508905
_cell_length_c   11.41046500
_cell_angle_alpha   90.00000000
_cell_angle_beta   90.00000000
_cell_angle_gamma   109.78439924
_symmetry_Int_Tables_number   1
_chemical_formula_structural   CuNi4C11
_chemical_formula_sum   'Cu1 Ni4 C11'
_cell_volume   229.17065236
_cell_formula_units_Z   1
loop_
 _symmetry_equiv_pos_site_id
 _symmetry_equiv_pos_as_xyz
  1  'x, y, z'
loop_
 _atom_site_type_symbol
 _atom_site_label
 _atom_site_symmetry_multiplicity
 _atom_site_fract_x
 _atom_site_fract_y
 _atom_site_fract_z
 _atom_site_occupancy
  C  C0  1  0.54270900  0.08541800  0.75000000  1
  Ni  Ni1  1  0.20532300  0.41064700  0.59373700  1
  Ni  Ni2  1  0.79895700  0.59791300  0.40134400  1
  Ni  Ni3  1  0.79895700  0.59791300  0.09865600  1
  Ni  Ni4  1  0.20532300  0.41064700  0.90626300  1
  Cu  Cu5  1  0.86637900  0.73275600  0.75000000  1
  C  C6  1  0.74976300  0.49952400  0.25000000  1
  C  C7  1  0.32191400  0.64382900  0.75000000  1
  C  C8  1  0.24995300  0.49990400  0.06540800  1
  C  C9  1  0.75397300  0.50794500  0.91110700  1
  C  C10  1  0.75397300  0.50794500  0.58889300  1
  C  C11  1  0.24995300  0.49990400  0.43459100  1
  C  C12  1  0.04283500  0.08566900  0.64416400  1
  C  C13  1  0.95153900  0.90307800  0.39872500  1
  C  C14  1  0.04283500  0.08566900  0.85583600  1
  C  C15  1  0.95153900  0.90307800  0.10127600  1
