# generated using pymatgen
data_Cu2NiC14
_symmetry_space_group_name_H-M   'P 1'
_cell_length_a   5.57896496
_cell_length_b   7.56973148
_cell_length_c   12.26223262
_cell_angle_alpha   86.18665990
_cell_angle_beta   74.94917690
_cell_angle_gamma   66.24248131
_symmetry_Int_Tables_number   1
_chemical_formula_structural   Cu2NiC14
_chemical_formula_sum   'Cu2 Ni1 C14'
_cell_volume   457.28168769
_cell_formula_units_Z   1
loop_
 _symmetry_equiv_pos_site_id
 _symmetry_equiv_pos_as_xyz
  1  'x, y, z'
loop_
 _atom_site_type_symbol
 _atom_site_label
 _atom_site_symmetry_multiplicity
 _atom_site_fract_x
 _atom_site_fract_y
 _atom_site_fract_z
 _atom_site_occupancy
  C  C0  1  0.92402900  0.76456100  0.08080200  1
  C  C1  1  0.26247600  0.75899400  0.34749100  1
  C  C2  1  0.05917100  0.23211300  0.89384500  1
  C  C3  1  0.70672100  0.18984000  0.62134600  1
  Ni  Ni4  1  0.65890200  0.65371400  0.55302000  1
  C  C5  1  0.16871400  0.70469600  0.74013000  1
  C  C6  1  0.84783400  0.26501500  0.25164400  1
  Cu  Cu7  1  0.63318500  0.73725000  0.77537500  1
  Cu  Cu8  1  0.35380100  0.25733900  0.24921800  1
  C  C9  1  0.75961700  0.94766900  0.84733900  1
  C  C10  1  0.04167900  0.51342200  0.64282500  1
  C  C11  1  0.64473300  0.07759300  0.36274100  1
  C  C12  1  0.56717100  0.44370400  0.13988500  1
  C  C13  1  0.26205200  0.05926300  0.14050100  1
  C  C14  1  0.90869500  0.47853100  0.36269900  1
  C  C15  1  0.34123400  0.95158700  0.66342800  1
  C  C16  1  0.41951000  0.52952400  0.86104700  1
