# generated using pymatgen
data_Cu3Ni3C31
_symmetry_space_group_name_H-M   'P 1'
_cell_length_a   17.90317794
_cell_length_b   8.98964247
_cell_length_c   23.16726805
_cell_angle_alpha   90.04215644
_cell_angle_beta   90.15520098
_cell_angle_gamma   120.12334074
_symmetry_Int_Tables_number   1
_chemical_formula_structural   Cu3Ni3C31
_chemical_formula_sum   'Cu18 Ni18 C186'
_cell_volume   3225.03196898
_cell_formula_units_Z   6
loop_
 _symmetry_equiv_pos_site_id
 _symmetry_equiv_pos_as_xyz
  1  'x, y, z'
loop_
 _atom_site_type_symbol
 _atom_site_label
 _atom_site_symmetry_multiplicity
 _atom_site_fract_x
 _atom_site_fract_y
 _atom_site_fract_z
 _atom_site_occupancy
  Ni  Ni0  1  0.98890127  0.67628265  0.91294591  1
  Ni  Ni1  1  0.34871464  0.03000678  0.91546753  1
  Ni  Ni2  1  0.17004948  0.30318925  0.91425972  1
  Ni  Ni3  1  0.48845143  0.30342271  0.41855758  1
  Ni  Ni4  1  0.66956190  0.03505319  0.41660915  1
  Ni  Ni5  1  0.84739245  0.66706079  0.41779398  1
  Ni  Ni6  1  0.99935323  0.00118800  0.49599564  1
  Ni  Ni7  1  0.49844333  0.99809842  0.50030738  1
  Ni  Ni8  1  0.99944131  0.00215572  0.99780102  1
  Ni  Ni9  1  0.49907237  0.99747289  0.99419009  1
  Ni  Ni10  1  0.33575734  0.33989094  0.83559499  1
  Ni  Ni11  1  0.82991463  0.32652211  0.82453488  1
  Ni  Ni12  1  0.33068391  0.33543358  0.32749801  1
  Ni  Ni13  1  0.83497291  0.33034678  0.33952794  1
  Ni  Ni14  1  0.17020470  0.67096719  0.16702288  1
  Ni  Ni15  1  0.66490158  0.66552356  0.16798945  1
  Ni  Ni16  1  0.16704211  0.66552837  0.66718547  1
  Ni  Ni17  1  0.66346710  0.66038108  0.66210256  1
  Cu  Cu18  1  0.00443440  0.99896129  0.35734226  1
  Cu  Cu19  1  0.49664413  0.00362404  0.34856973  1
  Cu  Cu20  1  0.99700149  0.99051578  0.84697894  1
  Cu  Cu21  1  0.50369950  0.00995718  0.85478046  1
  Cu  Cu22  1  0.33736840  0.34457081  0.68017028  1
  Cu  Cu23  1  0.83379926  0.33444139  0.69245258  1
  Cu  Cu24  1  0.33490334  0.33366085  0.19325473  1
  Cu  Cu25  1  0.82962941  0.31842559  0.18313067  1
  Cu  Cu26  1  0.33999985  0.34553093  0.97415584  1
  Cu  Cu27  1  0.82945934  0.31036141  0.98363761  1
  Cu  Cu28  1  0.33630075  0.34637864  0.48869487  1
  Cu  Cu29  1  0.83868476  0.33175917  0.47513709  1
  Cu  Cu30  1  0.17283821  0.67981405  0.01355116  1
  Cu  Cu31  1  0.66501365  0.66576036  0.01953841  1
  Cu  Cu32  1  0.16535541  0.66423108  0.52124998  1
  Cu  Cu33  1  0.66729031  0.65640120  0.51709056  1
  Cu  Cu34  1  0.66882084  0.65890106  0.31662447  1
  Cu  Cu35  1  0.17069657  0.68164528  0.81389626  1
  C  C36  1  0.99560536  0.98898151  0.65162927  1
  C  C37  1  0.50015056  0.01457755  0.64242907  1
  C  C38  1  0.00082977  0.99676545  0.14707524  1
  C  C39  1  0.49439237  0.00034417  0.15189528  1
  C  C40  1  0.16586200  0.67476265  0.31187327  1
  C  C41  1  0.66236311  0.65413489  0.80814181  1
  C  C42  1  0.14413067  0.00220071  0.25153749  1
  C  C43  1  0.35306197  0.70492577  0.25299130  1
  C  C44  1  0.50349958  0.30258853  0.25205550  1
  C  C45  1  0.64358549  0.28107554  0.75087086  1
  C  C46  1  0.00265499  0.70364758  0.75166229  1
  C  C47  1  0.85375957  0.00159369  0.75261446  1
  C  C48  1  0.48168834  0.34585100  0.58232688  1
  C  C49  1  0.33101123  0.62541883  0.58485418  1
  C  C50  1  0.83150839  0.03525396  0.08416817  1
  C  C51  1  0.31331441  0.66893948  0.91479680  1
  C  C52  1  0.52499973  0.37902950  0.91771669  1
  C  C53  1  0.16432716  0.95915163  0.91760852  1
  C  C54  1  0.81183676  0.95478678  0.41613603  1
  C  C55  1  0.66486415  0.36942721  0.41698866  1
  C  C56  1  0.02410359  0.66857570  0.41845711  1
  C  C57  1  0.64509617  0.00068775  0.24924909  1
  C  C58  1  0.85623570  0.71022456  0.24914619  1
  C  C59  1  0.99967725  0.28702087  0.25060737  1
  C  C60  1  0.14597412  0.28997620  0.74954078  1
  C  C61  1  0.49901339  0.71193260  0.75092221  1
  C  C62  1  0.35621794  0.00224658  0.74919226  1
  C  C63  1  0.97869880  0.33032876  0.58473597  1
  C  C64  1  0.18558486  0.04121813  0.58421422  1
  C  C65  1  0.68822180  0.04265428  0.58437743  1
  C  C66  1  0.83470697  0.62595753  0.58439417  1
  C  C67  1  0.47888477  0.62716105  0.08469957  1
  C  C68  1  0.97905336  0.62456107  0.08412098  1
  C  C69  1  0.33378490  0.04214898  0.08449015  1
  C  C70  1  0.18722733  0.33362322  0.08473948  1
  C  C71  1  0.68637937  0.33055437  0.08392779  1
  C  C72  1  0.80987536  0.66527762  0.91653751  1
  C  C73  1  0.01983603  0.37544870  0.91707887  1
  C  C74  1  0.66734983  0.95395806  0.91582356  1
  C  C75  1  0.30971570  0.95458476  0.41678346  1
  C  C76  1  0.16835491  0.38142073  0.41593172  1
  C  C77  1  0.51943524  0.66527574  0.41644510  1
  C  C78  1  0.09760343  0.02755268  0.30546900  1
  C  C79  1  0.60768689  0.02742438  0.30172212  1
  C  C80  1  0.41357114  0.79661651  0.30717414  1
  C  C81  1  0.90762212  0.78721486  0.30085950  1
  C  C82  1  0.48678377  0.18105485  0.30783233  1
  C  C83  1  0.98561145  0.18527621  0.30107728  1
  C  C84  1  0.10668412  0.18812144  0.80242566  1
  C  C85  1  0.59954987  0.17065208  0.80698462  1
  C  C86  1  0.48767449  0.78825764  0.80289672  1
  C  C87  1  0.98655595  0.79010191  0.80862838  1
  C  C88  1  0.40705009  0.02598926  0.80180040  1
  C  C89  1  0.91320180  0.03048111  0.80771135  1
  C  C90  1  0.40060896  0.97793088  0.69714078  1
  C  C91  1  0.90318901  0.97064286  0.69430353  1
  C  C92  1  0.08815117  0.19700414  0.69728337  1
  C  C93  1  0.58065888  0.19030041  0.69374671  1
  C  C94  1  0.01351945  0.83770081  0.69451255  1
  C  C95  1  0.51418959  0.81684197  0.69869699  1
  C  C96  1  0.40272735  0.83498604  0.19414010  1
  C  C97  1  0.90203531  0.82521533  0.19623522  1
  C  C98  1  0.01289424  0.20436090  0.19730471  1
  C  C99  1  0.51341571  0.18874010  0.19402510  1
  C  C100  1  0.08041014  0.96940352  0.19326662  1
  C  C101  1  0.58862754  0.97977910  0.19665835  1
  C  C102  1  0.43313683  0.35605566  0.63929179  1
  C  C103  1  0.93898236  0.35591741  0.63546994  1
  C  C104  1  0.23795042  0.12029522  0.63608751  1
  C  C105  1  0.74080328  0.12570936  0.63485629  1
  C  C106  1  0.31625842  0.50711271  0.64082657  1
  C  C107  1  0.82435273  0.52308203  0.63481638  1
  C  C108  1  0.43906625  0.52224908  0.13540363  1
  C  C109  1  0.93604418  0.52114349  0.13543789  1
  C  C110  1  0.32318255  0.12357893  0.13487976  1
  C  C111  1  0.82110620  0.13407570  0.13976222  1
  C  C112  1  0.23963876  0.35706929  0.13498593  1
  C  C113  1  0.74010204  0.35686649  0.13577434  1
  C  C114  1  0.22007048  0.29817966  0.03135969  1
  C  C115  1  0.72633602  0.30434952  0.03204533  1
  C  C116  1  0.42619022  0.55405721  0.03232037  1
  C  C117  1  0.92729826  0.55441017  0.03087125  1
  C  C118  1  0.34926658  0.14121456  0.03102161  1
  C  C119  1  0.85177074  0.16085965  0.02823203  1
  C  C120  1  0.22310143  0.14584419  0.53183324  1
  C  C121  1  0.72183339  0.14547165  0.53115452  1
  C  C122  1  0.35119368  0.54624150  0.52749550  1
  C  C123  1  0.85050829  0.55751704  0.53094276  1
  C  C124  1  0.42296146  0.29688496  0.52331757  1
  C  C125  1  0.92623041  0.29835339  0.53220756  1
  C  C126  1  0.26960956  0.70231789  0.97244098  1
  C  C127  1  0.77123966  0.69127075  0.96864362  1
  C  C128  1  0.07328526  0.45288671  0.96974251  1
  C  C129  1  0.58405771  0.47139766  0.97354305  1
  C  C130  1  0.14313053  0.83160284  0.97321914  1
  C  C131  1  0.65670622  0.85313382  0.96849061  1
  C  C132  1  0.27096383  0.85119772  0.46767177  1
  C  C133  1  0.76831360  0.83405008  0.47271164  1
  C  C134  1  0.15634129  0.46099704  0.46762813  1
  C  C135  1  0.64339873  0.45412672  0.47174256  1
  C  C136  1  0.08467387  0.69659172  0.47294000  1
  C  C137  1  0.57302465  0.69555782  0.46848771  1
  C  C138  1  0.07442801  0.64205784  0.36037757  1
  C  C139  1  0.55836291  0.63556383  0.36457576  1
  C  C140  1  0.25530337  0.86526793  0.36319977  1
  C  C141  1  0.74936903  0.87349903  0.35913968  1
  C  C142  1  0.18002070  0.49076778  0.36307571  1
  C  C143  1  0.68468925  0.49297193  0.36070001  1
  C  C144  1  0.05756997  0.48152129  0.86558995  1
  C  C145  1  0.57500087  0.50768003  0.86098241  1
  C  C146  1  0.18361756  0.87267988  0.86218365  1
  C  C147  1  0.68132223  0.87374873  0.86389163  1
  C  C148  1  0.24817960  0.62380653  0.86005129  1
  C  C149  1  0.75609912  0.64213810  0.86414892  1
  C  C150  1  0.00998797  0.83204037  0.41004327  1
  C  C151  1  0.51198234  0.82150622  0.41014359  1
  C  C152  1  0.39694235  0.97550983  0.41014143  1
  C  C153  1  0.90644727  0.97251018  0.40832143  1
  C  C154  1  0.09014765  0.21190057  0.40934134  1
  C  C155  1  0.57996002  0.17382534  0.41122339  1
  C  C156  1  0.01111820  0.20323348  0.91161805  1
  C  C157  1  0.50992762  0.18640581  0.91054957  1
  C  C158  1  0.07937068  0.98503803  0.91271930  1
  C  C159  1  0.59038599  0.97116417  0.91032655  1
  C  C160  1  0.40704232  0.84164437  0.90957043  1
  C  C161  1  0.89779868  0.81895137  0.91111385  1
  C  C162  1  0.48897558  0.16347186  0.59239352  1
  C  C163  1  0.99010212  0.17350470  0.59264341  1
  C  C164  1  0.09713670  0.02563842  0.59169859  1
  C  C165  1  0.59761627  0.02167475  0.59293862  1
  C  C166  1  0.42061266  0.81699940  0.59720939  1
  C  C167  1  0.91648484  0.80803074  0.59202655  1
  C  C168  1  0.49033634  0.80695044  0.09269143  1
  C  C169  1  0.98738744  0.80270698  0.09197471  1
  C  C170  1  0.41502568  0.02233445  0.09180768  1
  C  C171  1  0.92084221  0.02106260  0.09635712  1
  C  C172  1  0.09597833  0.17121453  0.09386588  1
  C  C173  1  0.59918840  0.17002176  0.09118517  1
  C  C174  1  0.34591461  0.15392438  0.74215605  1
  C  C175  1  0.84167945  0.16200623  0.74103262  1
  C  C176  1  0.23052582  0.30189325  0.74246011  1
  C  C177  1  0.73904788  0.31725978  0.74160157  1
  C  C178  1  0.42475300  0.53495620  0.74477111  1
  C  C179  1  0.91630352  0.52379551  0.74134160  1
  C  C180  1  0.34148639  0.52130555  0.24050371  1
  C  C181  1  0.84800273  0.53962845  0.23933135  1
  C  C182  1  0.41674903  0.30824367  0.24110861  1
  C  C183  1  0.92534158  0.31503417  0.24092822  1
  C  C184  1  0.23825589  0.15947827  0.24026165  1
  C  C185  1  0.73069148  0.15947635  0.24142714  1
  C  C186  1  0.31769456  0.49345729  0.92468341  1
  C  C187  1  0.82140158  0.51224688  0.92205031  1
  C  C188  1  0.42812266  0.35332418  0.92097306  1
  C  C189  1  0.93345408  0.36433167  0.92450861  1
  C  C190  1  0.25085315  0.14728377  0.92601609  1
  C  C191  1  0.74544925  0.13003861  0.92198866  1
  C  C192  1  0.31853776  0.12728720  0.41880278  1
  C  C193  1  0.81802157  0.14203252  0.42397536  1
  C  C194  1  0.24558762  0.36193654  0.42028066  1
  C  C195  1  0.75129220  0.35350674  0.42476193  1
  C  C196  1  0.43291231  0.50564130  0.42202584  1
  C  C197  1  0.92730862  0.50154471  0.42066229  1
  C  C198  1  0.17182826  0.48051956  0.07835170  1
  C  C199  1  0.67636224  0.48214276  0.07819646  1
  C  C200  1  0.06575918  0.64617791  0.07950285  1
  C  C201  1  0.56643828  0.65036861  0.07772846  1
  C  C202  1  0.25810395  0.86501238  0.07966613  1
  C  C203  1  0.74940279  0.84586746  0.07677507  1
  C  C204  1  0.17459087  0.86869578  0.57791342  1
  C  C205  1  0.67529389  0.86841480  0.57791823  1
  C  C206  1  0.24969708  0.65473271  0.57601624  1
  C  C207  1  0.76037720  0.65343709  0.57954886  1
  C  C208  1  0.06606740  0.48203206  0.57777548  1
  C  C209  1  0.57776336  0.50872758  0.57896918  1
  C  C210  1  0.15162062  0.82200401  0.25901232  1
  C  C211  1  0.65299397  0.84740599  0.25141782  1
  C  C212  1  0.25713277  0.69000661  0.25999890  1
  C  C213  1  0.77153992  0.69865904  0.25063092  1
  C  C214  1  0.08041260  0.46221730  0.25511875  1
  C  C215  1  0.59023253  0.48810189  0.25235445  1
  C  C216  1  0.15172294  0.45761191  0.75226590  1
  C  C217  1  0.65151859  0.47803420  0.75934327  1
  C  C218  1  0.08959180  0.69199382  0.75322755  1
  C  C219  1  0.58082403  0.69644669  0.75757417  1
  C  C220  1  0.27132222  0.84306641  0.75183558  1
  C  C221  1  0.75796786  0.82457249  0.76140914  1
