# generated using pymatgen
data_Cu2NiC12
_symmetry_space_group_name_H-M   'P 1'
_cell_length_a   7.17311288
_cell_length_b   6.73278597
_cell_length_c   7.17162666
_cell_angle_alpha   61.93160549
_cell_angle_beta   57.88916865
_cell_angle_gamma   61.93712654
_symmetry_Int_Tables_number   1
_chemical_formula_structural   Cu2NiC12
_chemical_formula_sum   'Cu2 Ni1 C12'
_cell_volume   247.36138912
_cell_formula_units_Z   1
loop_
 _symmetry_equiv_pos_site_id
 _symmetry_equiv_pos_as_xyz
  1  'x, y, z'
loop_
 _atom_site_type_symbol
 _atom_site_label
 _atom_site_symmetry_multiplicity
 _atom_site_fract_x
 _atom_site_fract_y
 _atom_site_fract_z
 _atom_site_occupancy
  Ni  Ni0  1  0.64851000  0.10391100  0.64866900  1
  Cu  Cu1  1  0.92709800  0.82191200  0.92711400  1
  Cu  Cu2  1  0.09731700  0.15334400  0.09731700  1
  C  C3  1  0.47222000  0.53884000  0.47216400  1
  C  C4  1  0.49669000  0.50213600  0.99854900  1
  C  C5  1  0.99845300  0.50222600  0.49659500  1
  C  C6  1  0.47415700  0.01466600  0.47411400  1
  C  C7  1  0.77730100  0.69247000  0.77727000  1
  C  C8  1  0.24610600  0.28654700  0.68082400  1
  C  C9  1  0.24596200  0.72642000  0.24594700  1
  C  C10  1  0.68070600  0.28654500  0.24622700  1
  C  C11  1  0.77908000  0.25248300  0.77906000  1
  C  C12  1  0.32224900  0.72070300  0.73477500  1
  C  C13  1  0.24742500  0.27890800  0.24740900  1
  C  C14  1  0.73487500  0.72073700  0.32211500  1
