# generated using pymatgen
data_Cu4NiC10
_symmetry_space_group_name_H-M   'P 1'
_cell_length_a   6.20343090
_cell_length_b   6.16261634
_cell_length_c   5.86810207
_cell_angle_alpha   61.56869960
_cell_angle_beta   90.00000099
_cell_angle_gamma   112.61776041
_symmetry_Int_Tables_number   1
_chemical_formula_structural   Cu4NiC10
_chemical_formula_sum   'Cu4 Ni1 C10'
_cell_volume   177.41123328
_cell_formula_units_Z   1
loop_
 _symmetry_equiv_pos_site_id
 _symmetry_equiv_pos_as_xyz
  1  'x, y, z'
loop_
 _atom_site_type_symbol
 _atom_site_label
 _atom_site_symmetry_multiplicity
 _atom_site_fract_x
 _atom_site_fract_y
 _atom_site_fract_z
 _atom_site_occupancy
  C  C0  1  0.90391756  0.95291298  0.02354351  1
  C  C1  1  0.84608244  0.54708702  0.72645649  1
  Ni  Ni2  1  0.37500000  0.25000000  0.87500000  1
  Cu  Cu3  1  0.37500000  0.25000000  0.37500000  1
  Cu  Cu4  1  0.87500000  0.25000000  0.37500000  1
  Cu  Cu5  1  0.37500000  0.75000000  0.37500000  1
  Cu  Cu6  1  0.37500000  0.75000000  0.87500000  1
  C  C7  1  0.15807788  0.27552265  0.12859161  1
  C  C8  1  0.59192212  0.22447735  0.15411426  1
  C  C9  1  0.53541843  0.65007731  0.17496184  1
  C  C10  1  0.19237864  0.80338210  0.09830945  1
  C  C11  1  0.59192212  0.22447735  0.62140839  1
  C  C12  1  0.15807788  0.27552265  0.59588574  1
  C  C13  1  0.55762136  0.69661790  0.65169055  1
  C  C14  1  0.21458157  0.84992269  0.57503816  1
