# generated using pymatgen
data_Cu2NiC14
_symmetry_space_group_name_H-M   'P 1'
_cell_length_a   6.28547134
_cell_length_b   6.74232799
_cell_length_c   7.76961162
_cell_angle_alpha   66.65469545
_cell_angle_beta   118.35296828
_cell_angle_gamma   131.79674328
_symmetry_Int_Tables_number   1
_chemical_formula_structural   Cu2NiC14
_chemical_formula_sum   'Cu2 Ni1 C14'
_cell_volume   214.42320060
_cell_formula_units_Z   1
loop_
 _symmetry_equiv_pos_site_id
 _symmetry_equiv_pos_as_xyz
  1  'x, y, z'
loop_
 _atom_site_type_symbol
 _atom_site_label
 _atom_site_symmetry_multiplicity
 _atom_site_fract_x
 _atom_site_fract_y
 _atom_site_fract_z
 _atom_site_occupancy
  C  C0  1  0.28872571  0.50060370  0.74014048  1
  C  C1  1  0.28937299  0.60470755  0.24229569  1
  C  C2  1  0.71062701  0.39529245  0.75770431  1
  C  C3  1  0.71127429  0.49939630  0.25985952  1
  Ni  Ni4  1  0.50000000  0.00000000  0.50000000  1
  Cu  Cu5  1  0.00000000  0.00000000  0.50000000  1
  Cu  Cu6  1  0.00000000  0.00000000  0.00000000  1
  C  C7  1  0.05310463  0.69332188  0.57825778  1
  C  C8  1  0.29334461  0.95289373  0.21649482  1
  C  C9  1  0.58449571  0.72545083  0.55022173  1
  C  C10  1  0.22436688  0.12275972  0.77249160  1
  C  C11  1  0.77960167  0.58905897  0.97428963  1
  C  C12  1  0.22039833  0.41094103  0.02571037  1
  C  C13  1  0.77563312  0.87724028  0.22750840  1
  C  C14  1  0.41550429  0.27454917  0.44977827  1
  C  C15  1  0.70665539  0.04710627  0.78350518  1
  C  C16  1  0.94689537  0.30667812  0.42174222  1
