# generated using pymatgen
data_Cu3Ni3C29
_symmetry_space_group_name_H-M   'P 1'
_cell_length_a   9.30852888
_cell_length_b   9.30158462
_cell_length_c   24.39348784
_cell_angle_alpha   90.22199203
_cell_angle_beta   90.13994010
_cell_angle_gamma   120.21480495
_symmetry_Int_Tables_number   1
_chemical_formula_structural   Cu3Ni3C29
_chemical_formula_sum   'Cu9 Ni9 C87'
_cell_volume   1825.11208952
_cell_formula_units_Z   3
loop_
 _symmetry_equiv_pos_site_id
 _symmetry_equiv_pos_as_xyz
  1  'x, y, z'
loop_
 _atom_site_type_symbol
 _atom_site_label
 _atom_site_symmetry_multiplicity
 _atom_site_fract_x
 _atom_site_fract_y
 _atom_site_fract_z
 _atom_site_occupancy
  C  C0  1  0.00486676  0.03315433  0.99778880  1
  C  C1  1  0.69546891  0.34973831  0.83525836  1
  C  C2  1  0.66359681  0.34940527  0.33313769  1
  C  C3  1  0.99912911  0.99628350  0.36046283  1
  C  C4  1  0.99957280  0.00388591  0.85351024  1
  C  C5  1  0.99438249  0.00324250  0.15027239  1
  C  C6  1  0.67301770  0.33786790  0.67253432  1
  C  C7  1  0.66916213  0.32802473  0.97763322  1
  C  C8  1  0.66046061  0.33244037  0.49306102  1
  C  C9  1  0.33439167  0.66046433  0.02916993  1
  C  C10  1  0.34335175  0.66163032  0.30822234  1
  C  C11  1  0.31583573  0.65892025  0.80329920  1
  C  C12  1  0.00050484  0.99233622  0.64412931  1
  C  C13  1  0.65954667  0.33231788  0.18143490  1
  C  C14  1  0.33066337  0.65644211  0.52187703  1
  Ni  Ni15  1  0.71405419  0.68305143  0.24943139  1
  Ni  Ni16  1  0.99080828  0.71513947  0.74430864  1
  Ni  Ni17  1  0.98423331  0.32767881  0.58330189  1
  Ni  Ni18  1  0.34744458  0.00944263  0.58285192  1
  Ni  Ni19  1  0.66522221  0.65225483  0.58301123  1
  Ni  Ni20  1  0.66434000  0.04923568  0.08687829  1
  Ni  Ni21  1  0.37999392  0.32900040  0.08503957  1
  Ni  Ni22  1  0.04141583  0.37527988  0.91649354  1
  Ni  Ni23  1  0.33703384  0.38560363  0.42074509  1
  Cu  Cu24  1  0.32093099  0.02582045  0.24832575  1
  Cu  Cu25  1  0.96975009  0.29546624  0.24973893  1
  Cu  Cu26  1  0.28606122  0.27691394  0.74198636  1
  Cu  Cu27  1  0.72002049  0.00508705  0.74248280  1
  Cu  Cu28  1  0.94898743  0.61441353  0.08901556  1
  Cu  Cu29  1  0.62518360  0.66717662  0.91530913  1
  Cu  Cu30  1  0.33074255  0.95746862  0.91632578  1
  Cu  Cu31  1  0.61069968  0.94930298  0.42212239  1
  Cu  Cu32  1  0.05329104  0.66068644  0.42139943  1
  C  C33  1  0.25200802  0.06236777  0.29777289  1
  C  C34  1  0.82292803  0.75730667  0.30168663  1
  C  C35  1  0.94174613  0.19087210  0.29878675  1
  C  C36  1  0.21355176  0.18944555  0.79388533  1
  C  C37  1  0.97335158  0.79416026  0.79724475  1
  C  C38  1  0.81175472  0.02817288  0.79451808  1
  C  C39  1  0.82439154  0.00515402  0.69507622  1
  C  C40  1  0.17852261  0.17321272  0.69452238  1
  C  C41  1  0.99171958  0.82648278  0.69399197  1
  C  C42  1  0.79399850  0.79227435  0.19951408  1
  C  C43  1  0.00204232  0.22391667  0.20069398  1
  C  C44  1  0.21867238  0.99975361  0.19940351  1
  C  C45  1  0.92305674  0.38599425  0.63176487  1
  C  C46  1  0.46548419  0.07562049  0.63175120  1
  C  C47  1  0.61067436  0.53381660  0.63127341  1
  C  C48  1  0.84363461  0.51091674  0.13764430  1
  C  C49  1  0.66758280  0.16166093  0.13844454  1
  C  C50  1  0.49245602  0.33258515  0.13752651  1
  C  C51  1  0.46423964  0.31612889  0.03356516  1
  C  C52  1  0.85777137  0.54194694  0.03803241  1
  C  C53  1  0.68727506  0.14841502  0.03480445  1
  C  C54  1  0.41201616  0.12996149  0.53456962  1
  C  C55  1  0.71961020  0.58830269  0.53431367  1
  C  C56  1  0.86572048  0.27704568  0.53438450  1
  C  C57  1  0.53800919  0.66729651  0.96605423  1
  C  C58  1  0.13202774  0.47193700  0.96912703  1
  C  C59  1  0.33767623  0.87416818  0.96680053  1
  C  C60  1  0.51243852  0.84615633  0.47024517  1
  C  C61  1  0.33133820  0.49232537  0.47159679  1
  C  C62  1  0.15562188  0.66607281  0.47042700  1
  C  C63  1  0.12963767  0.64641948  0.37057853  1
  C  C64  1  0.51798824  0.87814573  0.37065908  1
  C  C65  1  0.35768491  0.48584676  0.36887515  1
  C  C66  1  0.13823440  0.46508928  0.86373682  1
  C  C67  1  0.32895938  0.86627960  0.86607991  1
  C  C68  1  0.53743317  0.67256436  0.86530932  1
  C  C69  1  0.04679198  0.81696414  0.42094131  1
  C  C70  1  0.77188917  0.95303903  0.42005199  1
  C  C71  1  0.17298708  0.21725152  0.41714702  1
  C  C72  1  0.02160944  0.19851063  0.91997203  1
  C  C73  1  0.17813796  0.97216821  0.91878083  1
  C  C74  1  0.79606162  0.81692023  0.91833209  1
  C  C75  1  0.01516062  0.18325655  0.60155354  1
  C  C76  1  0.16986727  0.98174984  0.60063697  1
  C  C77  1  0.81236871  0.83021398  0.60053598  1
  C  C78  1  0.97444969  0.78320821  0.09412124  1
  C  C79  1  0.81577729  0.02548862  0.09186598  1
  C  C80  1  0.20793384  0.17362793  0.09050154  1
  C  C81  1  0.69504552  0.14967673  0.73684762  1
  C  C82  1  0.45262911  0.29627973  0.73625336  1
  C  C83  1  0.83837233  0.53963135  0.73721646  1
  C  C84  1  0.69489889  0.50561769  0.23644831  1
  C  C85  1  0.81462712  0.30584898  0.24025755  1
  C  C86  1  0.49166713  0.17997473  0.23878080  1
  C  C87  1  0.64054749  0.51519477  0.91246734  1
  C  C88  1  0.86574922  0.35666073  0.91152930  1
  C  C89  1  0.47889460  0.12829836  0.91218073  1
  C  C90  1  0.63778851  0.11999750  0.42797788  1
  C  C91  1  0.48961045  0.36394698  0.42866794  1
  C  C92  1  0.88392203  0.51354306  0.42668640  1
  C  C93  1  0.37740343  0.49095950  0.08909079  1
  C  C94  1  0.10540155  0.61343441  0.09241331  1
  C  C95  1  0.49890984  0.88693074  0.08870245  1
  C  C96  1  0.31745439  0.83370308  0.56367451  1
  C  C97  1  0.51784339  0.68183233  0.56490299  1
  C  C98  1  0.16181009  0.47875949  0.56495163  1
  C  C99  1  0.34966114  0.88664998  0.25619226  1
  C  C100  1  0.53666902  0.64841696  0.25703925  1
  C  C101  1  0.10752390  0.46641268  0.25742049  1
  C  C102  1  0.29237713  0.43820338  0.74093005  1
  C  C103  1  0.15504982  0.71422750  0.74347117  1
  C  C104  1  0.56102030  0.84707422  0.74290287  1
