# generated using pymatgen
data_Cu9Ni2C71
_symmetry_space_group_name_H-M   'P 1'
_cell_length_a   18.35642428
_cell_length_b   9.20202803
_cell_length_c   22.55905006
_cell_angle_alpha   90.05641478
_cell_angle_beta   90.21997472
_cell_angle_gamma   120.06478119
_symmetry_Int_Tables_number   1
_chemical_formula_structural   Cu9Ni2C71
_chemical_formula_sum   'Cu27 Ni6 C213'
_cell_volume   3297.87019725
_cell_formula_units_Z   3
loop_
 _symmetry_equiv_pos_site_id
 _symmetry_equiv_pos_as_xyz
  1  'x, y, z'
loop_
 _atom_site_type_symbol
 _atom_site_label
 _atom_site_symmetry_multiplicity
 _atom_site_fract_x
 _atom_site_fract_y
 _atom_site_fract_z
 _atom_site_occupancy
  C  C0  1  0.31224415  0.00531526  0.24394458  1
  C  C1  1  0.81822434  0.02133485  0.24620033  1
  C  C2  1  0.18862953  0.36399992  0.25031897  1
  C  C3  1  0.69721425  0.36652306  0.24863697  1
  C  C4  1  0.98929883  0.61551158  0.25247835  1
  C  C5  1  0.49309802  0.63310320  0.24686437  1
  C  C6  1  0.31835783  0.61465470  0.73967182  1
  C  C7  1  0.81273654  0.62031487  0.73969743  1
  C  C8  1  0.99088043  0.34607735  0.74123348  1
  C  C9  1  0.49066511  0.36773569  0.74806408  1
  C  C10  1  0.19799611  0.03194012  0.74377332  1
  C  C11  1  0.69105904  0.01350696  0.74594194  1
  C  C12  1  0.15628446  0.33876317  0.58730564  1
  C  C13  1  0.65829120  0.35958739  0.57737553  1
  C  C14  1  0.00947602  0.69018262  0.57867390  1
  C  C15  1  0.51683090  0.69137100  0.57183824  1
  C  C16  1  0.32925805  0.96655389  0.58483288  1
  C  C17  1  0.82653342  0.94825149  0.57291695  1
  C  C18  1  0.15809922  0.96063024  0.08435974  1
  C  C19  1  0.65814752  0.97495345  0.09074330  1
  C  C20  1  0.33019828  0.70263175  0.08413352  1
  C  C21  1  0.82853370  0.69137963  0.08835485  1
  C  C22  1  0.01402508  0.33580885  0.07749363  1
  C  C23  1  0.51276765  0.33239788  0.08344142  1
  C  C24  1  0.98550429  0.67173289  0.91905531  1
  C  C25  1  0.34923706  0.03776386  0.91350624  1
  C  C26  1  0.16263613  0.29274063  0.91561747  1
  C  C27  1  0.48868060  0.30484469  0.41926735  1
  C  C28  1  0.66904568  0.03140943  0.41486607  1
  C  C29  1  0.84776281  0.67152013  0.41975637  1
  C  C30  1  0.99791812  0.99583091  0.49600891  1
  C  C31  1  0.49133262  0.98101611  0.49319546  1
  C  C32  1  0.98803750  0.99908757  0.99479835  1
  C  C33  1  0.50842137  0.01659554  0.00253170  1
  C  C34  1  0.33910500  0.33890856  0.82249150  1
  C  C35  1  0.82751888  0.32072964  0.82836771  1
  C  C36  1  0.32806844  0.33479256  0.32987683  1
  C  C37  1  0.83760895  0.33006637  0.32760103  1
  C  C38  1  0.17212084  0.67768259  0.16868069  1
  C  C39  1  0.67158260  0.68035443  0.16763747  1
  C  C40  1  0.17043119  0.66137031  0.66144411  1
  C  C41  1  0.67411320  0.66779286  0.66283295  1
  C  C42  1  0.99844774  0.99688160  0.35038228  1
  C  C43  1  0.49659988  0.97832508  0.35626651  1
  C  C44  1  0.99567456  0.01363952  0.85648747  1
  C  C45  1  0.50465312  0.00994241  0.84859815  1
  C  C46  1  0.99677051  0.00815808  0.64426987  1
  C  C47  1  0.49701206  0.99078277  0.65211088  1
  C  C48  1  0.99639451  0.00264380  0.15292405  1
  C  C49  1  0.49766067  0.98713904  0.14563169  1
  C  C50  1  0.34133324  0.32965160  0.98050641  1
  C  C51  1  0.82975350  0.32377643  0.97978669  1
  C  C52  1  0.32991184  0.33524387  0.48003040  1
  C  C53  1  0.84242725  0.34807225  0.47700394  1
  C  C54  1  0.66809136  0.65677481  0.01942622  1
  C  C55  1  0.16827848  0.67892412  0.51881589  1
  C  C56  1  0.16635951  0.67987188  0.31220384  1
  C  C57  1  0.67126508  0.67636940  0.31900461  1
  C  C58  1  0.16644633  0.67015559  0.81586683  1
  C  C59  1  0.66605870  0.65225614  0.81187227  1
  Ni  Ni60  1  0.32275944  0.33251857  0.68606415  1
  Ni  Ni61  1  0.83487534  0.33594035  0.67900207  1
  Ni  Ni62  1  0.33415237  0.33000231  0.18178752  1
  Ni  Ni63  1  0.82234860  0.31274460  0.18837490  1
  Ni  Ni64  1  0.16499207  0.68293728  0.00971558  1
  Ni  Ni65  1  0.67534724  0.66334127  0.50080641  1
  Cu  Cu66  1  0.14871954  0.00630431  0.24749368  1
  Cu  Cu67  1  0.64484054  0.99289546  0.25160412  1
  Cu  Cu68  1  0.35085222  0.69964453  0.24764345  1
  Cu  Cu69  1  0.84921190  0.69941954  0.25027735  1
  Cu  Cu70  1  0.00143152  0.29903937  0.25005606  1
  Cu  Cu71  1  0.14513053  0.29434786  0.75278815  1
  Cu  Cu72  1  0.65031026  0.29511712  0.74626101  1
  Cu  Cu73  1  0.50099689  0.70525440  0.75160825  1
  Cu  Cu74  1  0.35092209  0.99818444  0.75158827  1
  Cu  Cu75  1  0.85073731  0.00148176  0.74848292  1
  Cu  Cu76  1  0.98016183  0.33750408  0.58628517  1
  Cu  Cu77  1  0.18829936  0.04269379  0.58758816  1
  Cu  Cu78  1  0.33589826  0.63023439  0.58533443  1
  Cu  Cu79  1  0.82897490  0.62453065  0.58700583  1
  Cu  Cu80  1  0.47942803  0.62335810  0.08554882  1
  Cu  Cu81  1  0.32877244  0.02781510  0.08540142  1
  Cu  Cu82  1  0.83610135  0.04159682  0.08480734  1
  Cu  Cu83  1  0.68828208  0.33334651  0.08695343  1
  Cu  Cu84  1  0.81394722  0.66201017  0.91660176  1
  Cu  Cu85  1  0.02182201  0.38164768  0.92169502  1
  Cu  Cu86  1  0.52005277  0.36636637  0.91607640  1
  Cu  Cu87  1  0.16583579  0.96680377  0.91833447  1
  Cu  Cu88  1  0.31443850  0.96609129  0.41667909  1
  Cu  Cu89  1  0.81941341  0.97082085  0.41988842  1
  Cu  Cu90  1  0.66426495  0.36695288  0.41816782  1
  Cu  Cu91  1  0.02166820  0.67490338  0.41560672  1
  Cu  Cu92  1  0.52074281  0.66016678  0.42091318  1
  C  C93  1  0.50193133  0.29016939  0.25107011  1
  C  C94  1  0.00260098  0.71379218  0.75261118  1
  C  C95  1  0.47886244  0.33018640  0.58536769  1
  C  C96  1  0.68352777  0.03910289  0.58444709  1
  C  C97  1  0.97973140  0.62811027  0.08431034  1
  C  C98  1  0.18510509  0.33106621  0.08234653  1
  C  C99  1  0.31491785  0.66653714  0.91788150  1
  C  C100  1  0.66530226  0.95642515  0.91661881  1
  C  C101  1  0.16683418  0.37666221  0.41645527  1
  C  C102  1  0.09809283  0.02991693  0.30230082  1
  C  C103  1  0.59629655  0.01571648  0.30799660  1
  C  C104  1  0.41387013  0.80380623  0.30239019  1
  C  C105  1  0.90926569  0.79889473  0.30746270  1
  C  C106  1  0.49403012  0.18823596  0.30386178  1
  C  C107  1  0.98821474  0.17047862  0.30371745  1
  C  C108  1  0.09776895  0.17636419  0.80997948  1
  C  C109  1  0.59904265  0.17223737  0.80268803  1
  C  C110  1  0.48775728  0.80603565  0.80664968  1
  C  C111  1  0.99576223  0.80056502  0.80561268  1
  C  C112  1  0.40898630  0.01573611  0.81021524  1
  C  C113  1  0.91347531  0.02495147  0.80398780  1
  C  C114  1  0.39591524  0.96519747  0.69336076  1
  C  C115  1  0.89383457  0.96463948  0.69049520  1
  C  C116  1  0.08620880  0.20418547  0.69370353  1
  C  C117  1  0.58941597  0.20678564  0.68783464  1
  C  C118  1  0.01404729  0.81367051  0.69805978  1
  C  C119  1  0.51701218  0.82574752  0.69219869  1
  C  C120  1  0.39234451  0.81973161  0.18830180  1
  C  C121  1  0.89482234  0.82437052  0.19161104  1
  C  C122  1  0.01811361  0.21311663  0.18932013  1
  C  C123  1  0.51046148  0.20804668  0.19621830  1
  C  C124  1  0.09034116  0.97373368  0.18662914  1
  C  C125  1  0.58714305  0.97109266  0.19177585  1
  C  C126  1  0.43817455  0.34489602  0.63905608  1
  C  C127  1  0.94754780  0.37944282  0.64715404  1
  C  C128  1  0.24580362  0.10991442  0.64677415  1
  C  C129  1  0.73274399  0.11565736  0.63922526  1
  C  C130  1  0.31733441  0.52331084  0.64574721  1
  C  C131  1  0.81452517  0.51279357  0.64633372  1
  C  C132  1  0.44446541  0.51008663  0.14469681  1
  C  C133  1  0.93954248  0.53251846  0.13762052  1
  C  C134  1  0.30998177  0.10924086  0.14291746  1
  C  C135  1  0.81771604  0.11306482  0.14472623  1
  C  C136  1  0.23498379  0.35277644  0.13634483  1
  C  C137  1  0.74613779  0.38037912  0.14546626  1
  C  C138  1  0.22734078  0.31283101  0.02821521  1
  C  C139  1  0.73462222  0.30023136  0.03013593  1
  C  C140  1  0.41370146  0.52999315  0.02972600  1
  C  C141  1  0.92768372  0.54599601  0.02961329  1
  C  C142  1  0.34383147  0.15083364  0.02624334  1
  C  C143  1  0.85360010  0.16981601  0.02873175  1
  C  C144  1  0.23534529  0.17018054  0.53172262  1
  C  C145  1  0.72493042  0.14138090  0.53121490  1
  C  C146  1  0.35299893  0.53532091  0.53006893  1
  C  C147  1  0.84310991  0.53129407  0.52869114  1
  C  C148  1  0.42615553  0.30660932  0.53102742  1
  C  C149  1  0.91499821  0.30292570  0.53160836  1
  C  C150  1  0.27826592  0.69316354  0.97158848  1
  C  C151  1  0.76997595  0.69009094  0.97514802  1
  C  C152  1  0.08119546  0.45954269  0.97996489  1
  C  C153  1  0.57493005  0.46184596  0.97496906  1
  C  C154  1  0.14763873  0.85820158  0.97819627  1
  C  C155  1  0.65715716  0.85887698  0.97083709  1
  C  C156  1  0.27066810  0.85031482  0.47537134  1
  C  C157  1  0.78240882  0.85615155  0.47872437  1
  C  C158  1  0.15920050  0.45921158  0.47077348  1
  C  C159  1  0.64011221  0.43359444  0.47741543  1
  C  C160  1  0.07577137  0.68567725  0.47487501  1
  C  C161  1  0.57782748  0.69581337  0.47996045  1
  C  C162  1  0.06575462  0.64761826  0.35708477  1
  C  C163  1  0.56535867  0.63281664  0.36155077  1
  C  C164  1  0.25789445  0.87258508  0.35768460  1
  C  C165  1  0.75664233  0.87460911  0.36159865  1
  C  C166  1  0.17639100  0.47726010  0.36289316  1
  C  C167  1  0.68187039  0.49363951  0.36114652  1
  C  C168  1  0.06907025  0.50124576  0.86316935  1
  C  C169  1  0.56435670  0.47757158  0.85702234  1
  C  C170  1  0.18608385  0.87619436  0.86188792  1
  C  C171  1  0.67443935  0.87523732  0.86304756  1
  C  C172  1  0.26100138  0.64570650  0.86435519  1
  C  C173  1  0.75714231  0.64248449  0.85793198  1
  C  C174  1  0.01030764  0.84010220  0.41329640  1
  C  C175  1  0.51245838  0.83004807  0.41327319  1
  C  C176  1  0.41065204  0.99819266  0.41073101  1
  C  C177  1  0.91146698  0.98696270  0.41096063  1
  C  C178  1  0.09181300  0.20726868  0.41275037  1
  C  C179  1  0.58220659  0.17997239  0.40762816  1
  C  C180  1  0.01282238  0.19496585  0.91398398  1
  C  C181  1  0.50367818  0.17187099  0.91466025  1
  C  C182  1  0.08200858  0.98274307  0.90859830  1
  C  C183  1  0.58952693  0.97609265  0.91321036  1
  C  C184  1  0.39978588  0.81567615  0.91055742  1
  C  C185  1  0.91037348  0.82274084  0.91096145  1
  C  C186  1  0.48676810  0.17337834  0.58639575  1
  C  C187  1  0.98847048  0.16518562  0.58739746  1
  C  C188  1  0.09344105  0.01972284  0.59188286  1
  C  C189  1  0.59823761  0.03026808  0.58682382  1
  C  C190  1  0.42137392  0.82308165  0.58636332  1
  C  C191  1  0.91894453  0.80916565  0.58972020  1
  C  C192  1  0.48729666  0.81145315  0.08712762  1
  C  C193  1  0.98840904  0.80117647  0.08497964  1
  C  C194  1  0.41849981  0.02556105  0.08775042  1
  C  C195  1  0.92182287  0.01958383  0.08570121  1
  C  C196  1  0.10025871  0.17071591  0.08405797  1
  C  C197  1  0.59287361  0.16677599  0.09032194  1
  C  C198  1  0.34544496  0.16674087  0.75006960  1
  C  C199  1  0.84331587  0.16994520  0.74538256  1
  C  C200  1  0.23856791  0.31779192  0.75236194  1
  C  C201  1  0.74267021  0.31524356  0.74722867  1
  C  C202  1  0.41968227  0.52017122  0.74662643  1
  C  C203  1  0.92898209  0.54501872  0.75051822  1
  C  C204  1  0.34370038  0.51639679  0.24478946  1
  C  C205  1  0.84450845  0.52030025  0.24794669  1
  C  C206  1  0.42626796  0.30808058  0.24869786  1
  C  C207  1  0.92009385  0.32157563  0.24539976  1
  C  C208  1  0.24257085  0.16988240  0.24650337  1
  C  C209  1  0.73790434  0.15665540  0.25202250  1
  C  C210  1  0.31781389  0.50774634  0.92050557  1
  C  C211  1  0.82597048  0.49711342  0.92385324  1
  C  C212  1  0.42413679  0.34323071  0.92046169  1
  C  C213  1  0.93001111  0.37050282  0.92442587  1
  C  C214  1  0.24827729  0.15897334  0.92315469  1
  C  C215  1  0.74223793  0.12749679  0.92059565  1
  C  C216  1  0.32527500  0.15373394  0.42421088  1
  C  C217  1  0.81755918  0.14631440  0.42324007  1
  C  C218  1  0.24445481  0.36146805  0.42066660  1
  C  C219  1  0.74865872  0.34989163  0.42448632  1
  C  C220  1  0.42783695  0.48864874  0.42410229  1
  C  C221  1  0.92574182  0.51033047  0.41956938  1
  C  C222  1  0.17266787  0.47738260  0.07806657  1
  C  C223  1  0.67432279  0.49748746  0.07752287  1
  C  C224  1  0.06479267  0.64666255  0.07971910  1
  C  C225  1  0.57551243  0.65771275  0.07400121  1
  C  C226  1  0.24867604  0.83527495  0.07704362  1
  C  C227  1  0.75245849  0.85350993  0.07466082  1
  C  C228  1  0.17523678  0.85177516  0.57777473  1
  C  C229  1  0.66915054  0.86635083  0.58079453  1
  C  C230  1  0.25227709  0.65109284  0.57576250  1
  C  C231  1  0.74772826  0.65264540  0.58143463  1
  C  C232  1  0.07666281  0.49564988  0.57536319  1
  C  C233  1  0.56351823  0.48042841  0.58073714  1
  C  C234  1  0.15386205  0.83124813  0.25216949  1
  C  C235  1  0.64750868  0.81548142  0.25432674  1
  C  C236  1  0.25796711  0.68334309  0.25464425  1
  C  C237  1  0.75571274  0.68423245  0.25356937  1
  C  C238  1  0.08952243  0.47983526  0.25561986  1
  C  C239  1  0.57959685  0.45903053  0.25386497  1
  C  C240  1  0.15114195  0.48084846  0.75823898  1
  C  C241  1  0.65424759  0.47840377  0.75174133  1
  C  C242  1  0.08177634  0.70060970  0.75650229  1
  C  C243  1  0.58861394  0.69984412  0.75743707  1
  C  C244  1  0.25784307  0.82484164  0.75580733  1
  C  C245  1  0.75770830  0.83270064  0.75604426  1
