# generated using pymatgen
data_Cu5NiC8
_symmetry_space_group_name_H-M   'P 1'
_cell_length_a   8.22093592
_cell_length_b   8.22093592
_cell_length_c   8.22093592
_cell_angle_alpha   134.37643833
_cell_angle_beta   134.37643833
_cell_angle_gamma   66.50063288
_symmetry_Int_Tables_number   1
_chemical_formula_structural   Cu5NiC8
_chemical_formula_sum   'Cu10 Ni2 C16'
_cell_volume   279.37027924
_cell_formula_units_Z   2
loop_
 _symmetry_equiv_pos_site_id
 _symmetry_equiv_pos_as_xyz
  1  'x, y, z'
loop_
 _atom_site_type_symbol
 _atom_site_label
 _atom_site_symmetry_multiplicity
 _atom_site_fract_x
 _atom_site_fract_y
 _atom_site_fract_z
 _atom_site_occupancy
  C  C0  1  0.13883600  0.13516100  0.18831200  1
  C  C1  1  0.70052400  0.38883600  0.50367500  1
  C  C2  1  0.88516100  0.19684900  0.49632500  1
  C  C3  1  0.94684900  0.95052400  0.81168800  1
  C  C4  1  0.61116400  0.11483900  0.31168800  1
  C  C5  1  0.04947600  0.86116400  0.99632500  1
  C  C6  1  0.86483900  0.05315100  0.00367500  1
  C  C7  1  0.80315100  0.29947600  0.68831200  1
  C  C8  1  0.68454200  0.70513600  0.26801600  1
  C  C9  1  0.16652500  0.93454200  0.47940600  1
  C  C10  1  0.45513600  0.68711900  0.52059400  1
  C  C11  1  0.43712000  0.41652500  0.73198400  1
  C  C12  1  0.31288100  0.83347500  0.76801600  1
  C  C13  1  0.29486400  0.56288100  0.97940600  1
  C  C14  1  0.58347500  0.31545800  0.02059400  1
  C  C15  1  0.06545800  0.54486400  0.23198400  1
  Ni  Ni16  1  0.00000000  0.00000000  0.00000000  1
  Ni  Ni17  1  0.75000000  0.25000000  0.50000000  1
  Cu  Cu18  1  0.80692800  0.84381700  0.44871000  1
  Cu  Cu19  1  0.10821800  0.05692800  0.46311100  1
  Cu  Cu20  1  0.59381700  0.64510700  0.53688900  1
  Cu  Cu21  1  0.39510700  0.35821800  0.55129000  1
  Cu  Cu22  1  0.94307200  0.40618300  0.05129000  1
  Cu  Cu23  1  0.64178200  0.19307200  0.03688900  1
  Cu  Cu24  1  0.15618300  0.60489300  0.96311100  1
  Cu  Cu25  1  0.35489300  0.89178200  0.94871000  1
  Cu  Cu26  1  0.50000000  0.50000000  0.00000000  1
  Cu  Cu27  1  0.25000000  0.75000000  0.50000000  1
