# generated using pymatgen
data_CuNiC9
_symmetry_space_group_name_H-M   'P 1'
_cell_length_a   6.41223039
_cell_length_b   5.83330426
_cell_length_c   6.41223039
_cell_angle_alpha   62.94422359
_cell_angle_beta   54.25877337
_cell_angle_gamma   62.94422359
_symmetry_Int_Tables_number   1
_chemical_formula_structural   CuNiC9
_chemical_formula_sum   'Cu1 Ni1 C9'
_cell_volume   167.32816769
_cell_formula_units_Z   1
loop_
 _symmetry_equiv_pos_site_id
 _symmetry_equiv_pos_as_xyz
  1  'x, y, z'
loop_
 _atom_site_type_symbol
 _atom_site_label
 _atom_site_symmetry_multiplicity
 _atom_site_fract_x
 _atom_site_fract_y
 _atom_site_fract_z
 _atom_site_occupancy
  C  C0  1  0.18040300  0.31959700  0.18040300  1
  C  C1  1  0.81959700  0.68040300  0.81959700  1
  Ni  Ni2  1  0.50000000  0.00000000  0.50000000  1
  C  C3  1  0.00000000  0.00000000  0.00000000  1
  Cu  Cu4  1  0.50000000  0.50000000  0.50000000  1
  C  C5  1  0.74348300  0.24789700  0.25651700  1
  C  C6  1  0.77958800  0.22041200  0.77958800  1
  C  C7  1  0.74348300  0.75210300  0.25651700  1
  C  C8  1  0.25651700  0.75210300  0.74348300  1
  C  C9  1  0.22041200  0.77958800  0.22041200  1
  C  C10  1  0.25651700  0.24789700  0.74348300  1
