# generated using pymatgen
data_Cu8Ni2C5
_symmetry_space_group_name_H-M   'P 1'
_cell_length_a   6.66280162
_cell_length_b   6.66280157
_cell_length_c   7.14813314
_cell_angle_alpha   76.08613719
_cell_angle_beta   76.08613539
_cell_angle_gamma   61.76283624
_symmetry_Int_Tables_number   1
_chemical_formula_structural   Cu8Ni2C5
_chemical_formula_sum   'Cu8 Ni2 C5'
_cell_volume   268.36607719
_cell_formula_units_Z   1
loop_
 _symmetry_equiv_pos_site_id
 _symmetry_equiv_pos_as_xyz
  1  'x, y, z'
loop_
 _atom_site_type_symbol
 _atom_site_label
 _atom_site_symmetry_multiplicity
 _atom_site_fract_x
 _atom_site_fract_y
 _atom_site_fract_z
 _atom_site_occupancy
  C  C0  1  0.71246577  0.73195133  0.12424497  1
  C  C1  1  0.26804867  0.28753423  0.87575503  1
  C  C2  1  0.75626133  0.24373867  0.00000000  1
  C  C3  1  0.32866503  0.37545812  0.29168414  1
  C  C4  1  0.62454188  0.67133497  0.70831586  1
  Ni  Ni5  1  0.06367942  0.05105663  0.20155686  1
  Ni  Ni6  1  0.94894337  0.93632058  0.79844314  1
  Cu  Cu7  1  0.51890375  0.11985908  0.14288223  1
  Cu  Cu8  1  0.09848470  0.51946424  0.13585726  1
  Cu  Cu9  1  0.29622038  0.29794161  0.55193857  1
  Cu  Cu10  1  0.88014092  0.48109625  0.85711777  1
  Cu  Cu11  1  0.70205839  0.70377962  0.44806143  1
  Cu  Cu12  1  0.48053576  0.90151530  0.86414274  1
  Cu  Cu13  1  0.55186449  0.49123088  0.19750947  1
  Cu  Cu14  1  0.50876912  0.44813551  0.80249053  1
