# generated using pymatgen
data_Cu2NiC13
_symmetry_space_group_name_H-M   'P 1'
_cell_length_a   6.20395368
_cell_length_b   6.11423867
_cell_length_c   8.40500574
_cell_angle_alpha   67.56921915
_cell_angle_beta   68.26087083
_cell_angle_gamma   58.48057908
_symmetry_Int_Tables_number   1
_chemical_formula_structural   Cu2NiC13
_chemical_formula_sum   'Cu2 Ni1 C13'
_cell_volume   245.24138432
_cell_formula_units_Z   1
loop_
 _symmetry_equiv_pos_site_id
 _symmetry_equiv_pos_as_xyz
  1  'x, y, z'
loop_
 _atom_site_type_symbol
 _atom_site_label
 _atom_site_symmetry_multiplicity
 _atom_site_fract_x
 _atom_site_fract_y
 _atom_site_fract_z
 _atom_site_occupancy
  C  C0  1  0.48505500  0.54333000  0.49937900  1
  Ni  Ni1  1  0.48383500  0.51177700  0.00983300  1
  Cu  Cu2  1  0.98997100  0.50717200  0.99940900  1
  Cu  Cu3  1  0.51500700  0.01913600  0.98675500  1
  C  C4  1  0.07623900  0.10349000  0.74445600  1
  C  C5  1  0.90167400  0.91370900  0.25820300  1
  C  C6  1  0.67499200  0.73291100  0.90116400  1
  C  C7  1  0.29864100  0.28138500  0.09718600  1
  C  C8  1  0.14990600  0.15228300  0.51591500  1
  C  C9  1  0.80724400  0.84424900  0.48800100  1
  C  C10  1  0.77453100  0.27008900  0.16619800  1
  C  C11  1  0.72301900  0.24607200  0.82537200  1
  C  C12  1  0.20789800  0.75021500  0.84156500  1
  C  C13  1  0.25126900  0.75754800  0.19227100  1
  C  C14  1  0.21393300  0.25038400  0.80739500  1
  C  C15  1  0.76970200  0.78291600  0.17404000  1
