# generated using pymatgen
data_Cu3Ni3C29
_symmetry_space_group_name_H-M   'P 1'
_cell_length_a   8.43707467
_cell_length_b   8.42523704
_cell_length_c   21.84765473
_cell_angle_alpha   90.42109303
_cell_angle_beta   90.03495295
_cell_angle_gamma   120.17975508
_symmetry_Int_Tables_number   1
_chemical_formula_structural   Cu3Ni3C29
_chemical_formula_sum   'Cu9 Ni9 C87'
_cell_volume   1342.46464923
_cell_formula_units_Z   3
loop_
 _symmetry_equiv_pos_site_id
 _symmetry_equiv_pos_as_xyz
  1  'x, y, z'
loop_
 _atom_site_type_symbol
 _atom_site_label
 _atom_site_symmetry_multiplicity
 _atom_site_fract_x
 _atom_site_fract_y
 _atom_site_fract_z
 _atom_site_occupancy
  C  C0  1  0.66104150  0.33288710  0.83210048  1
  C  C1  1  0.67084043  0.33131486  0.33245271  1
  C  C2  1  0.33140560  0.67073008  0.16623716  1
  C  C3  1  0.65651848  0.33968028  0.68590107  1
  C  C4  1  0.67319593  0.33131912  0.18144394  1
  C  C5  1  0.33116347  0.67393713  0.31736594  1
  C  C6  1  0.99358457  0.99149156  0.35851546  1
  C  C7  1  0.00700466  0.00507451  0.85943316  1
  C  C8  1  0.99823008  0.00060246  0.64619920  1
  C  C9  1  0.99276757  0.99428497  0.14014672  1
  C  C10  1  0.67636745  0.33556609  0.97997908  1
  C  C11  1  0.67832118  0.34322751  0.48336465  1
  C  C12  1  0.33407373  0.67439782  0.01642355  1
  C  C13  1  0.34357661  0.67703023  0.51688844  1
  C  C14  1  0.33320203  0.65783964  0.81527663  1
  Ni  Ni15  1  0.28076960  0.28578319  0.75217101  1
  Ni  Ni16  1  0.66390045  0.62836519  0.58368818  1
  Ni  Ni17  1  0.96173643  0.62424701  0.08290705  1
  Ni  Ni18  1  0.66359970  0.03976372  0.08263011  1
  Ni  Ni19  1  0.62305155  0.66639324  0.91685539  1
  Ni  Ni20  1  0.04691231  0.38089754  0.91675045  1
  Ni  Ni21  1  0.33592219  0.95523400  0.91561827  1
  Ni  Ni22  1  0.62751364  0.96520131  0.41683258  1
  Ni  Ni23  1  0.04232434  0.66536120  0.41706022  1
  Cu  Cu24  1  0.28165344  0.00233238  0.24957531  1
  Cu  Cu25  1  0.71297359  0.71283805  0.24957116  1
  Cu  Cu26  1  0.00170989  0.28127304  0.25044871  1
  Cu  Cu27  1  0.00712986  0.71653026  0.75217499  1
  Cu  Cu28  1  0.71002670  0.99497597  0.75208619  1
  Cu  Cu29  1  0.96513180  0.33685203  0.58388173  1
  Cu  Cu30  1  0.37345708  0.03973394  0.58299593  1
  Cu  Cu31  1  0.37411238  0.33501717  0.08277695  1
  Cu  Cu32  1  0.33446696  0.37254473  0.41672787  1
  C  C33  1  0.19787604  0.03028169  0.30690434  1
  C  C34  1  0.82768529  0.79644395  0.30663905  1
  C  C35  1  0.97362882  0.16852594  0.30694966  1
  C  C36  1  0.19012428  0.16232633  0.80829443  1
  C  C37  1  0.96811510  0.79788456  0.80666252  1
  C  C38  1  0.82635164  0.02722543  0.80687565  1
  C  C39  1  0.78625108  0.95674833  0.69492840  1
  C  C40  1  0.16037847  0.20171852  0.69241445  1
  C  C41  1  0.03936215  0.82820583  0.69524641  1
  C  C42  1  0.79767337  0.82784342  0.19404186  1
  C  C43  1  0.02915936  0.19640631  0.19354618  1
  C  C44  1  0.16764702  0.97324002  0.19326026  1
  C  C45  1  0.88884230  0.37137634  0.63826453  1
  C  C46  1  0.48533176  0.11064784  0.63758753  1
  C  C47  1  0.62367077  0.51444243  0.63939105  1
  C  C48  1  0.89318355  0.51591078  0.14105572  1
  C  C49  1  0.61658812  0.10450775  0.14082209  1
  C  C50  1  0.48125309  0.37340752  0.13858957  1
  C  C51  1  0.45250211  0.29612156  0.02739162  1
  C  C52  1  0.83547260  0.54177479  0.02553639  1
  C  C53  1  0.70220043  0.16250202  0.02535643  1
  C  C54  1  0.45310202  0.15660302  0.52758663  1
  C  C55  1  0.70650451  0.54479533  0.52551701  1
  C  C56  1  0.84344676  0.29211074  0.52802476  1
  C  C57  1  0.54018947  0.70532770  0.97337146  1
  C  C58  1  0.16835710  0.46280620  0.97353369  1
  C  C59  1  0.29514367  0.83646471  0.97248949  1
  C  C60  1  0.54609393  0.84019059  0.47366880  1
  C  C61  1  0.29593525  0.45212208  0.47213179  1
  C  C62  1  0.16445566  0.70174198  0.47498164  1
  C  C63  1  0.10661413  0.61652716  0.35954675  1
  C  C64  1  0.51627546  0.89633419  0.35907355  1
  C  C65  1  0.37452810  0.48141870  0.36169484  1
  C  C66  1  0.12379708  0.50242166  0.85919285  1
  C  C67  1  0.37772917  0.87332001  0.85793029  1
  C  C68  1  0.50065206  0.62194437  0.85871091  1
  C  C69  1  0.02484194  0.83949290  0.41067062  1
  C  C70  1  0.82115144  0.98769149  0.41027434  1
  C  C71  1  0.16826782  0.18838342  0.41082237  1
  C  C72  1  0.02532971  0.19030138  0.90866973  1
  C  C73  1  0.16384839  0.97106999  0.90764812  1
  C  C74  1  0.81197976  0.83714563  0.90641737  1
  C  C75  1  0.98167660  0.16864181  0.58888586  1
  C  C76  1  0.18853608  0.02132378  0.58922839  1
  C  C77  1  0.84007846  0.82328784  0.59153138  1
  C  C78  1  0.98412309  0.81867297  0.08937693  1
  C  C79  1  0.83850657  0.02371555  0.08952775  1
  C  C80  1  0.18859383  0.16787957  0.08866738  1
  C  C81  1  0.69521411  0.15892042  0.74574760  1
  C  C82  1  0.46782436  0.30326723  0.74831698  1
  C  C83  1  0.84715849  0.53305543  0.74680084  1
  C  C84  1  0.69955324  0.53358691  0.24591438  1
  C  C85  1  0.83559100  0.29459640  0.24790537  1
  C  C86  1  0.46074602  0.16940380  0.24693019  1
  C  C87  1  0.63972420  0.49274009  0.92500727  1
  C  C88  1  0.85528776  0.36129023  0.92330564  1
  C  C89  1  0.50694348  0.14828260  0.92417979  1
  C  C90  1  0.64562130  0.15593208  0.42972662  1
  C  C91  1  0.49668682  0.34945587  0.42664317  1
  C  C92  1  0.84739319  0.49667377  0.42726360  1
  C  C93  1  0.35242969  0.49810954  0.07400799  1
  C  C94  1  0.15311696  0.64477908  0.07238625  1
  C  C95  1  0.49631666  0.84400443  0.07254275  1
  C  C96  1  0.35004178  0.85365740  0.57348675  1
  C  C97  1  0.49366407  0.64754101  0.57029486  1
  C  C98  1  0.14689042  0.49951268  0.57229061  1
  C  C99  1  0.29389487  0.83495192  0.25210485  1
  C  C100  1  0.53402044  0.70026144  0.25398225  1
  C  C101  1  0.16969025  0.46083517  0.25374807  1
  C  C102  1  0.29212329  0.47519282  0.75896371  1
  C  C103  1  0.17835843  0.70930128  0.75846788  1
  C  C104  1  0.52763560  0.82597798  0.75790248  1
