# generated using pymatgen
data_Cu(NiC5)2
_symmetry_space_group_name_H-M   'P 1'
_cell_length_a   4.18083800
_cell_length_b   5.62960700
_cell_length_c   11.24772500
_cell_angle_alpha   90.00000000
_cell_angle_beta   90.00000000
_cell_angle_gamma   90.00000000
_symmetry_Int_Tables_number   1
_chemical_formula_structural   Cu(NiC5)2
_chemical_formula_sum   'Cu2 Ni4 C20'
_cell_volume   264.73179681
_cell_formula_units_Z   2
loop_
 _symmetry_equiv_pos_site_id
 _symmetry_equiv_pos_as_xyz
  1  'x, y, z'
loop_
 _atom_site_type_symbol
 _atom_site_label
 _atom_site_symmetry_multiplicity
 _atom_site_fract_x
 _atom_site_fract_y
 _atom_site_fract_z
 _atom_site_occupancy
  Ni  Ni0  1  0.50000000  0.29088000  0.86874100  1
  Ni  Ni1  1  0.50000000  0.70912000  0.13125900  1
  Ni  Ni2  1  0.50000000  0.79088000  0.63125900  1
  Ni  Ni3  1  0.50000000  0.20912000  0.36874100  1
  Cu  Cu4  1  0.00000000  0.50000000  0.50000000  1
  Cu  Cu5  1  0.00000000  0.00000000  0.00000000  1
  C  C6  1  0.00000000  0.12687500  0.53998000  1
  C  C7  1  0.00000000  0.87312500  0.46002000  1
  C  C8  1  0.00000000  0.62687500  0.96002000  1
  C  C9  1  0.00000000  0.37312500  0.03998000  1
  C  C10  1  0.00000000  0.14770800  0.69703600  1
  C  C11  1  0.00000000  0.85229200  0.30296400  1
  C  C12  1  0.29952700  0.20501200  0.11383100  1
  C  C13  1  0.29952700  0.79498800  0.88616900  1
  C  C14  1  0.70047300  0.70501200  0.38616900  1
  C  C15  1  0.70047300  0.29498800  0.61383100  1
  C  C16  1  0.70047300  0.79498800  0.88616900  1
  C  C17  1  0.70047300  0.20501200  0.11383100  1
  C  C18  1  0.29952700  0.29498800  0.61383100  1
  C  C19  1  0.29952700  0.70501200  0.38616900  1
  C  C20  1  0.00000000  0.03964700  0.18746500  1
  C  C21  1  0.00000000  0.96035300  0.81253500  1
  C  C22  1  0.00000000  0.53964700  0.31253500  1
  C  C23  1  0.00000000  0.46035300  0.68746500  1
  C  C24  1  0.00000000  0.35229200  0.19703600  1
  C  C25  1  0.00000000  0.64770800  0.80296400  1
