# generated using pymatgen
data_Cu5Ni5C4
_symmetry_space_group_name_H-M   'P 1'
_cell_length_a   15.90948183
_cell_length_b   15.90948183
_cell_length_c   8.70568700
_cell_angle_alpha   90.00000000
_cell_angle_beta   90.00000000
_cell_angle_gamma   164.75005289
_symmetry_Int_Tables_number   1
_chemical_formula_structural   Cu5Ni5C4
_chemical_formula_sum   'Cu10 Ni10 C8'
_cell_volume   579.59007283
_cell_formula_units_Z   2
loop_
 _symmetry_equiv_pos_site_id
 _symmetry_equiv_pos_as_xyz
  1  'x, y, z'
loop_
 _atom_site_type_symbol
 _atom_site_label
 _atom_site_symmetry_multiplicity
 _atom_site_fract_x
 _atom_site_fract_y
 _atom_site_fract_z
 _atom_site_occupancy
  C  C0  1  0.19356500  0.80643500  0.50427700  1
  C  C1  1  0.80643500  0.19356500  0.49572300  1
  C  C2  1  0.80643500  0.19356500  0.00427700  1
  C  C3  1  0.19356500  0.80643500  0.99572300  1
  C  C4  1  0.42083800  0.57916200  0.00024400  1
  C  C5  1  0.57916200  0.42083800  0.50024400  1
  C  C6  1  0.57916200  0.42083800  0.99975600  1
  C  C7  1  0.42083800  0.57916200  0.49975600  1
  Ni  Ni8  1  0.72906000  0.27094000  0.25000000  1
  Ni  Ni9  1  0.95765100  0.04234900  0.25000000  1
  Ni  Ni10  1  0.95667900  0.04332100  0.75000000  1
  Ni  Ni11  1  0.04234900  0.95765100  0.75000000  1
  Ni  Ni12  1  0.04332100  0.95667900  0.25000000  1
  Ni  Ni13  1  0.34307000  0.65693000  0.75000000  1
  Ni  Ni14  1  0.65693000  0.34307000  0.25000000  1
  Ni  Ni15  1  0.65572500  0.34427500  0.75000000  1
  Ni  Ni16  1  0.27094000  0.72906000  0.75000000  1
  Ni  Ni17  1  0.34427500  0.65572500  0.25000000  1
  Cu  Cu18  1  0.26648100  0.73351900  0.25000000  1
  Cu  Cu19  1  0.73351900  0.26648100  0.75000000  1
  Cu  Cu20  1  0.00000000  0.00000000  0.50000000  1
  Cu  Cu21  1  0.12007300  0.87992700  0.25000000  1
  Cu  Cu22  1  0.87992700  0.12007300  0.75000000  1
  Cu  Cu23  1  0.88143900  0.11856100  0.25000000  1
  Cu  Cu24  1  0.11856100  0.88143900  0.75000000  1
  Cu  Cu25  1  0.49994200  0.50005800  0.25000000  1
  Cu  Cu26  1  0.50005800  0.49994200  0.75000000  1
  Cu  Cu27  1  0.00000000  0.00000000  0.00000000  1
