# generated using pymatgen
data_Cu(NiC7)2
_symmetry_space_group_name_H-M   'P 1'
_cell_length_a   8.77819893
_cell_length_b   8.80225756
_cell_length_c   22.68131975
_cell_angle_alpha   89.88926460
_cell_angle_beta   90.05734344
_cell_angle_gamma   119.93375868
_symmetry_Int_Tables_number   1
_chemical_formula_structural   Cu(NiC7)2
_chemical_formula_sum   'Cu6 Ni12 C84'
_cell_volume   1518.75294375
_cell_formula_units_Z   6
loop_
 _symmetry_equiv_pos_site_id
 _symmetry_equiv_pos_as_xyz
  1  'x, y, z'
loop_
 _atom_site_type_symbol
 _atom_site_label
 _atom_site_symmetry_multiplicity
 _atom_site_fract_x
 _atom_site_fract_y
 _atom_site_fract_z
 _atom_site_occupancy
  C  C0  1  0.00009606  0.00274880  0.35672855  1
  C  C1  1  0.99272194  0.00378776  0.64493838  1
  C  C2  1  0.01093398  0.00458443  0.13949215  1
  C  C3  1  0.66838466  0.33829956  0.69169343  1
  C  C4  1  0.67724481  0.33741941  0.47661152  1
  C  C5  1  0.32684976  0.67121402  0.30835401  1
  C  C6  1  0.00622898  0.00798739  0.85842646  1
  C  C7  1  0.67064400  0.33562868  0.18709019  1
  C  C8  1  0.65550191  0.34080540  0.97583966  1
  C  C9  1  0.33159845  0.67047439  0.02166920  1
  C  C10  1  0.33694202  0.67136772  0.52290171  1
  C  C11  1  0.35058626  0.67298684  0.81348330  1
  Ni  Ni12  1  0.29732733  0.01241676  0.24802579  1
  Ni  Ni13  1  0.99201341  0.28533429  0.24760707  1
  Ni  Ni14  1  0.28187665  0.29050944  0.75396584  1
  Ni  Ni15  1  0.71332986  0.99658718  0.75435454  1
  Ni  Ni16  1  0.96487138  0.34400822  0.58290567  1
  Ni  Ni17  1  0.65956733  0.62089842  0.58230940  1
  Ni  Ni18  1  0.94839560  0.60742759  0.08069489  1
  Ni  Ni19  1  0.39209252  0.34670778  0.08164252  1
  Ni  Ni20  1  0.62117691  0.67254012  0.91767921  1
  Ni  Ni21  1  0.33476419  0.95078679  0.91673582  1
  Ni  Ni22  1  0.61477099  0.94700658  0.41831019  1
  Ni  Ni23  1  0.05401978  0.67118091  0.41863821  1
  Cu  Cu24  1  0.71204804  0.70475373  0.24804670  1
  Cu  Cu25  1  0.00959255  0.71798213  0.75389163  1
  Cu  Cu26  1  0.37694455  0.03834899  0.58284788  1
  Cu  Cu27  1  0.65929360  0.04786201  0.08131818  1
  Cu  Cu28  1  0.04628666  0.38190412  0.91698187  1
  Cu  Cu29  1  0.33329933  0.38404588  0.41832778  1
  C  C30  1  0.21300720  0.04028307  0.30341994  1
  C  C31  1  0.82064631  0.78339816  0.30170685  1
  C  C32  1  0.95920156  0.17198162  0.30340286  1
  C  C33  1  0.18867197  0.16773830  0.80753242  1
  C  C34  1  0.97615777  0.80027121  0.80503847  1
  C  C35  1  0.83332350  0.02211261  0.80727687  1
  C  C36  1  0.78711200  0.95955744  0.69796211  1
  C  C37  1  0.17124706  0.20869825  0.69823978  1
  C  C38  1  0.03766657  0.82141167  0.69932207  1
  C  C39  1  0.79118515  0.81678765  0.19622796  1
  C  C40  1  0.02080927  0.19736772  0.19385001  1
  C  C41  1  0.17624610  0.97486323  0.19441796  1
  C  C42  1  0.87796869  0.37178509  0.63764693  1
  C  C43  1  0.48745584  0.11853530  0.63574794  1
  C  C44  1  0.62739827  0.50530333  0.63749204  1
  C  C45  1  0.86374881  0.49459351  0.13657944  1
  C  C46  1  0.63085303  0.12526166  0.13538662  1
  C  C47  1  0.50514976  0.36931076  0.13635679  1
  C  C48  1  0.47753313  0.31204799  0.02679557  1
  C  C49  1  0.83110996  0.51673873  0.02650820  1
  C  C50  1  0.69060866  0.15812407  0.02907342  1
  C  C51  1  0.45448131  0.14869207  0.53041521  1
  C  C52  1  0.68890660  0.53443846  0.52830583  1
  C  C53  1  0.84490586  0.30557488  0.52897603  1
  C  C54  1  0.52954095  0.69860529  0.97129313  1
  C  C55  1  0.15949056  0.45972077  0.96981361  1
  C  C56  1  0.30263489  0.83106505  0.97151637  1
  C  C57  1  0.52357902  0.83129042  0.47284878  1
  C  C58  1  0.30654262  0.46529809  0.47069535  1
  C  C59  1  0.16838908  0.69227130  0.47257129  1
  C  C60  1  0.13144272  0.63753207  0.36279306  1
  C  C61  1  0.50662379  0.86376321  0.36262292  1
  C  C62  1  0.36183465  0.48700753  0.36429093  1
  C  C63  1  0.12582490  0.49109105  0.86436239  1
  C  C64  1  0.36320206  0.86074212  0.86281463  1
  C  C65  1  0.50134815  0.63539713  0.86264673  1
  C  C66  1  0.03608998  0.83457150  0.41044268  1
  C  C67  1  0.79808108  0.96646926  0.41109537  1
  C  C68  1  0.17418791  0.20825088  0.41208342  1
  C  C69  1  0.02849999  0.20403453  0.90840857  1
  C  C70  1  0.17164991  0.97185123  0.90461773  1
  C  C71  1  0.80444754  0.83057386  0.90520313  1
  C  C72  1  0.98647817  0.18210818  0.59100787  1
  C  C73  1  0.20071585  0.01607463  0.59136551  1
  C  C74  1  0.82241640  0.80181312  0.59176467  1
  C  C75  1  0.96760658  0.78897235  0.09005479  1
  C  C76  1  0.81399370  0.02478815  0.08965575  1
  C  C77  1  0.20909463  0.18235477  0.08839470  1
  C  C78  1  0.69168576  0.15716267  0.74437400  1
  C  C79  1  0.46428040  0.30881702  0.74513786  1
  C  C80  1  0.84929182  0.54228580  0.74596272  1
  C  C81  1  0.69482186  0.53000432  0.23990076  1
  C  C82  1  0.82985625  0.30760088  0.23574335  1
  C  C83  1  0.47915431  0.17361800  0.23550790  1
  C  C84  1  0.64001182  0.50661092  0.92767575  1
  C  C85  1  0.86889585  0.35742432  0.92650386  1
  C  C86  1  0.49585178  0.13384431  0.92921273  1
  C  C87  1  0.63158456  0.12720247  0.42652333  1
  C  C88  1  0.48596248  0.35907064  0.42519120  1
  C  C89  1  0.86970373  0.51025677  0.42474122  1
  C  C90  1  0.37015430  0.50711070  0.06978046  1
  C  C91  1  0.13350712  0.63004822  0.06932795  1
  C  C92  1  0.50162490  0.87069808  0.07351187  1
  C  C93  1  0.36005548  0.86410933  0.57482860  1
  C  C94  1  0.49751556  0.64201302  0.57070685  1
  C  C95  1  0.14587308  0.50469960  0.57068161  1
  C  C96  1  0.31996188  0.85139609  0.25568870  1
  C  C97  1  0.53611037  0.68234244  0.25666738  1
  C  C98  1  0.15405037  0.46620750  0.25680310  1
  C  C99  1  0.30153085  0.47204102  0.76631367  1
  C  C100  1  0.16182166  0.69368595  0.76291865  1
  C  C101  1  0.52818082  0.83362133  0.76474006  1
