# generated using pymatgen
data_Cu5(Ni2C21)3
_symmetry_space_group_name_H-M   'P 1'
_cell_length_a   17.20580600
_cell_length_b   8.67423210
_cell_length_c   22.19508858
_cell_angle_alpha   90.01007317
_cell_angle_beta   90.32401759
_cell_angle_gamma   120.36123241
_symmetry_Int_Tables_number   1
_chemical_formula_structural   Cu5(Ni2C21)3
_chemical_formula_sum   'Cu15 Ni18 C189'
_cell_volume   2858.19311680
_cell_formula_units_Z   3
loop_
 _symmetry_equiv_pos_site_id
 _symmetry_equiv_pos_as_xyz
  1  'x, y, z'
loop_
 _atom_site_type_symbol
 _atom_site_label
 _atom_site_symmetry_multiplicity
 _atom_site_fract_x
 _atom_site_fract_y
 _atom_site_fract_z
 _atom_site_occupancy
  C  C0  1  0.98943082  0.67540334  0.91132213  1
  C  C1  1  0.34705768  0.03039738  0.91488604  1
  C  C2  1  0.16908610  0.30457119  0.91275956  1
  C  C3  1  0.48918344  0.30537433  0.42006120  1
  C  C4  1  0.66853834  0.03204577  0.41644457  1
  C  C5  1  0.84505341  0.66222669  0.41805445  1
  C  C6  1  0.99960322  0.00524448  0.49471228  1
  C  C7  1  0.49605506  0.99250906  0.49824147  1
  C  C8  1  0.99669426  0.00471150  0.99570622  1
  C  C9  1  0.49933528  0.99387356  0.99262158  1
  C  C10  1  0.33783870  0.34410215  0.83508869  1
  C  C11  1  0.82915428  0.32410613  0.82374752  1
  C  C12  1  0.33059582  0.33671765  0.32722223  1
  C  C13  1  0.83608615  0.32856844  0.33985102  1
  C  C14  1  0.17247250  0.67420754  0.16511891  1
  C  C15  1  0.66473024  0.66767295  0.16834022  1
  C  C16  1  0.16753346  0.66372945  0.66736030  1
  C  C17  1  0.66371516  0.66027706  0.65991524  1
  C  C18  1  0.99771472  0.98641636  0.64937734  1
  C  C19  1  0.49795458  0.01468225  0.63737082  1
  C  C20  1  0.99762508  0.99280493  0.14183067  1
  C  C21  1  0.49697854  0.00830604  0.14923840  1
  C  C22  1  0.16411616  0.67367009  0.31085906  1
  C  C23  1  0.66159969  0.65188289  0.80803315  1
  Ni  Ni24  1  0.00571394  0.99557235  0.36232910  1
  Ni  Ni25  1  0.49881243  0.01081840  0.34945460  1
  Ni  Ni26  1  0.00176444  0.98856275  0.84644406  1
  Ni  Ni27  1  0.50321310  0.01427987  0.85869140  1
  Ni  Ni28  1  0.33801215  0.34948697  0.67802884  1
  Ni  Ni29  1  0.83456066  0.33438332  0.69484585  1
  Ni  Ni30  1  0.33608149  0.33536733  0.19633601  1
  Ni  Ni31  1  0.82689990  0.31447741  0.18296032  1
  Ni  Ni32  1  0.33832550  0.34800074  0.97073519  1
  Ni  Ni33  1  0.83053231  0.31570229  0.98202679  1
  Ni  Ni34  1  0.33630268  0.34592363  0.48727996  1
  Ni  Ni35  1  0.83611425  0.32418618  0.47222558  1
  Ni  Ni36  1  0.17330254  0.68550148  0.00905063  1
  Ni  Ni37  1  0.66635866  0.67257445  0.02041070  1
  Ni  Ni38  1  0.16553590  0.66177215  0.52207283  1
  Ni  Ni39  1  0.66632977  0.64736821  0.51477953  1
  Ni  Ni40  1  0.66883181  0.65428950  0.31946740  1
  Ni  Ni41  1  0.17483405  0.69162358  0.81549481  1
  Cu  Cu42  1  0.14255020  0.01365636  0.25343900  1
  Cu  Cu43  1  0.35869833  0.70600117  0.25559624  1
  Cu  Cu44  1  0.50596743  0.31162705  0.25633662  1
  Cu  Cu45  1  0.64252871  0.26681653  0.75315696  1
  Cu  Cu46  1  0.00536934  0.69838457  0.75551959  1
  Cu  Cu47  1  0.86018254  0.01291871  0.75567517  1
  Cu  Cu48  1  0.48084192  0.36189413  0.57937002  1
  Cu  Cu49  1  0.32234937  0.60680495  0.58232646  1
  Cu  Cu50  1  0.82341935  0.03984143  0.08133720  1
  Cu  Cu51  1  0.31188256  0.67093318  0.91328187  1
  Cu  Cu52  1  0.52573531  0.37923217  0.92376093  1
  Cu  Cu53  1  0.16322753  0.95764967  0.91807736  1
  Cu  Cu54  1  0.80893340  0.94619022  0.41522308  1
  Cu  Cu55  1  0.66381225  0.36808324  0.41662895  1
  Cu  Cu56  1  0.02430440  0.66837982  0.42407586  1
  C  C57  1  0.64986805  0.00511377  0.25089221  1
  C  C58  1  0.85332867  0.69875763  0.24961730  1
  C  C59  1  0.99271502  0.28175741  0.25022950  1
  C  C60  1  0.15039188  0.29524939  0.75153783  1
  C  C61  1  0.49219756  0.70814553  0.75092729  1
  C  C62  1  0.35378370  0.00530905  0.75062665  1
  C  C63  1  0.97496284  0.33735138  0.58237367  1
  C  C64  1  0.19293669  0.04807000  0.58226963  1
  C  C65  1  0.69706111  0.05021659  0.58246464  1
  C  C66  1  0.83080387  0.60945367  0.58215436  1
  C  C67  1  0.47483707  0.61211443  0.08235578  1
  C  C68  1  0.97630249  0.60722105  0.08214613  1
  C  C69  1  0.32819303  0.04711847  0.08179412  1
  C  C70  1  0.19462721  0.34606849  0.08219092  1
  C  C71  1  0.69411996  0.33940859  0.08205795  1
  C  C72  1  0.81112864  0.66154640  0.92144988  1
  C  C73  1  0.01918239  0.37791074  0.91852990  1
  C  C74  1  0.66899515  0.96115423  0.91891534  1
  C  C75  1  0.31119335  0.95999772  0.42043040  1
  C  C76  1  0.16996871  0.37676121  0.41895961  1
  C  C77  1  0.51877417  0.66416699  0.41606539  1
  C  C78  1  0.09117915  0.03575693  0.30924143  1
  C  C79  1  0.60949880  0.03310989  0.30545368  1
  C  C80  1  0.42243372  0.80947415  0.31146603  1
  C  C81  1  0.90929039  0.77839894  0.30364309  1
  C  C82  1  0.48638372  0.17885772  0.31231413  1
  C  C83  1  0.97976727  0.17754448  0.30433406  1
  C  C84  1  0.10797427  0.18519367  0.80674803  1
  C  C85  1  0.59448806  0.15069157  0.81113134  1
  C  C86  1  0.48260803  0.78854321  0.80595362  1
  C  C87  1  0.98622435  0.78969652  0.81302264  1
  C  C88  1  0.40903320  0.03428609  0.80551769  1
  C  C89  1  0.92342303  0.03689544  0.81230531  1
  C  C90  1  0.39447554  0.97429489  0.69541934  1
  C  C91  1  0.90244059  0.96747069  0.69376902  1
  C  C92  1  0.09124034  0.20619568  0.69639702  1
  C  C93  1  0.57998119  0.19066007  0.69247228  1
  C  C94  1  0.02198108  0.83747886  0.69481053  1
  C  C95  1  0.50706597  0.81410696  0.69615217  1
  C  C96  1  0.40220414  0.83690412  0.19343045  1
  C  C97  1  0.89651057  0.81564714  0.19384572  1
  C  C98  1  0.00666789  0.19892982  0.19495732  1
  C  C99  1  0.52195646  0.20658858  0.19410817  1
  C  C100  1  0.07978149  0.96782277  0.19176138  1
  C  C101  1  0.59216749  0.97809446  0.19514930  1
  C  C102  1  0.43271988  0.36598898  0.64113898  1
  C  C103  1  0.93423685  0.36029278  0.63703252  1
  C  C104  1  0.24477935  0.13000832  0.63810026  1
  C  C105  1  0.74985121  0.13856656  0.63699689  1
  C  C106  1  0.30744828  0.49290298  0.64301335  1
  C  C107  1  0.82279845  0.50830287  0.63684023  1
  C  C108  1  0.43348356  0.50692421  0.13695031  1
  C  C109  1  0.93152979  0.50731058  0.13720239  1
  C  C110  1  0.31993269  0.13082574  0.13666351  1
  C  C111  1  0.81430988  0.13090867  0.14225981  1
  C  C112  1  0.24733018  0.36613055  0.13659487  1
  C  C113  1  0.74709309  0.36197180  0.13788702  1
  C  C114  1  0.23023528  0.31030823  0.02716294  1
  C  C115  1  0.73718477  0.31701512  0.02790121  1
  C  C116  1  0.41839557  0.52979265  0.02812229  1
  C  C117  1  0.92243357  0.53352203  0.02640763  1
  C  C118  1  0.34210571  0.15140234  0.02690257  1
  C  C119  1  0.84935093  0.16836155  0.02375160  1
  C  C120  1  0.23357247  0.15555151  0.52749364  1
  C  C121  1  0.73349773  0.15896787  0.52724712  1
  C  C122  1  0.34616772  0.53295915  0.52292889  1
  C  C123  1  0.84454331  0.53343430  0.52685056  1
  C  C124  1  0.41964600  0.30517107  0.51832192  1
  C  C125  1  0.91897305  0.30687792  0.52803633  1
  C  C126  1  0.27133016  0.71740472  0.97380713  1
  C  C127  1  0.76975563  0.69043650  0.97447748  1
  C  C128  1  0.07759929  0.45980843  0.97361430  1
  C  C129  1  0.59144231  0.48225895  0.97918391  1
  C  C130  1  0.13358998  0.81953976  0.97563466  1
  C  C131  1  0.65779900  0.85245583  0.97292258  1
  C  C132  1  0.26981244  0.84856447  0.47325447  1
  C  C133  1  0.76418744  0.81546579  0.47415159  1
  C  C134  1  0.15670345  0.46249388  0.47199658  1
  C  C135  1  0.63488419  0.44684350  0.47325938  1
  C  C136  1  0.09214178  0.69888778  0.47790243  1
  C  C137  1  0.57595478  0.69938917  0.47065659  1
  C  C138  1  0.06928691  0.63197685  0.36212682  1
  C  C139  1  0.55870856  0.62991984  0.36200026  1
  C  C140  1  0.25724123  0.87574695  0.36345920  1
  C  C141  1  0.74161264  0.86152577  0.35662977  1
  C  C142  1  0.18639957  0.48630102  0.36310445  1
  C  C143  1  0.68854963  0.49848966  0.35865937  1
  C  C144  1  0.05731030  0.48825491  0.86448328  1
  C  C145  1  0.57067336  0.50764050  0.86288603  1
  C  C146  1  0.18703896  0.87232668  0.86134991  1
  C  C147  1  0.68776026  0.88816337  0.86400472  1
  C  C148  1  0.24086853  0.62021475  0.85734727  1
  C  C149  1  0.75744015  0.62967943  0.86517605  1
  C  C150  1  0.01413789  0.84236326  0.41313293  1
  C  C151  1  0.51097500  0.82604508  0.40942592  1
  C  C152  1  0.40174476  0.97953261  0.41378899  1
  C  C153  1  0.90883209  0.96948131  0.40370759  1
  C  C154  1  0.08570650  0.20115618  0.41185707  1
  C  C155  1  0.57646290  0.16253200  0.40737789  1
  C  C156  1  0.00956288  0.19936471  0.91347314  1
  C  C157  1  0.51354468  0.18319617  0.91288023  1
  C  C158  1  0.07644796  0.99028274  0.90790171  1
  C  C159  1  0.58638979  0.97158445  0.91300401  1
  C  C160  1  0.41063489  0.84678773  0.90297352  1
  C  C161  1  0.90216968  0.82270010  0.91512264  1
  C  C162  1  0.48936092  0.17300195  0.58528330  1
  C  C163  1  0.98737133  0.17636732  0.58736934  1
  C  C164  1  0.10132329  0.03365859  0.58594853  1
  C  C165  1  0.60239757  0.02524155  0.58749407  1
  C  C166  1  0.41523612  0.80925652  0.59200305  1
  C  C167  1  0.91603796  0.79809463  0.58642852  1
  C  C168  1  0.48732091  0.79816495  0.08733413  1
  C  C169  1  0.98574339  0.79270845  0.08599133  1
  C  C170  1  0.41241884  0.02704257  0.08617492  1
  C  C171  1  0.91489460  0.01625461  0.09064919  1
  C  C172  1  0.09945926  0.17817999  0.08840590  1
  C  C173  1  0.60370071  0.16955287  0.08580110  1
  C  C174  1  0.34281008  0.16266645  0.74267803  1
  C  C175  1  0.84802426  0.17774595  0.74098135  1
  C  C176  1  0.23749540  0.30211137  0.74439579  1
  C  C177  1  0.74201413  0.30692900  0.74164654  1
  C  C178  1  0.41397186  0.52327994  0.74540846  1
  C  C179  1  0.91536582  0.51815979  0.73886242  1
  C  C180  1  0.34766894  0.51760869  0.24090648  1
  C  C181  1  0.84593744  0.52273390  0.23812023  1
  C  C182  1  0.41594370  0.31103950  0.23902977  1
  C  C183  1  0.91563904  0.31166368  0.24166079  1
  C  C184  1  0.24092271  0.17534003  0.24054076  1
  C  C185  1  0.73833178  0.17484904  0.24299200  1
  C  C186  1  0.31892801  0.49317740  0.92421764  1
  C  C187  1  0.82372491  0.50233855  0.92820186  1
  C  C188  1  0.42507984  0.34955761  0.92703539  1
  C  C189  1  0.92869983  0.36552254  0.92571806  1
  C  C190  1  0.25131703  0.15272091  0.92981169  1
  C  C191  1  0.74852998  0.14724670  0.92563683  1
  C  C192  1  0.31925620  0.13854829  0.42276736  1
  C  C193  1  0.81883081  0.14122138  0.42517756  1
  C  C194  1  0.24843198  0.34982891  0.42532264  1
  C  C195  1  0.75178293  0.34769759  0.42784951  1
  C  C196  1  0.42775172  0.49832780  0.42139606  1
  C  C197  1  0.92402014  0.49708908  0.42754870  1
  C  C198  1  0.17940863  0.49947444  0.07615255  1
  C  C199  1  0.68325935  0.49607437  0.07853180  1
  C  C200  1  0.06651870  0.62788912  0.07881964  1
  C  C201  1  0.56581980  0.63397532  0.07658534  1
  C  C202  1  0.24798883  0.86192386  0.07742029  1
  C  C203  1  0.74010513  0.83760190  0.07344303  1
  C  C204  1  0.18114603  0.86801900  0.57790777  1
  C  C205  1  0.68604901  0.87199160  0.57674020  1
  C  C206  1  0.23973946  0.64510988  0.57371901  1
  C  C207  1  0.75291388  0.63697091  0.57836006  1
  C  C208  1  0.06591374  0.49833261  0.57645836  1
  C  C209  1  0.58182230  0.53234271  0.57432964  1
  C  C210  1  0.15086658  0.82864927  0.25717287  1
  C  C211  1  0.65894570  0.84764735  0.25396723  1
  C  C212  1  0.25875942  0.68748064  0.25861420  1
  C  C213  1  0.76582051  0.68849890  0.25296459  1
  C  C214  1  0.07778339  0.46126741  0.25292293  1
  C  C215  1  0.59473944  0.50742198  0.25999927  1
  C  C216  1  0.15702076  0.46925672  0.75545760  1
  C  C217  1  0.65149074  0.47048511  0.75775524  1
  C  C218  1  0.09458584  0.68274639  0.76008162  1
  C  C219  1  0.57751941  0.69416473  0.75503186  1
  C  C220  1  0.26555898  0.83774871  0.75552304  1
  C  C221  1  0.76053483  0.83034788  0.76071959  1
