# generated using pymatgen
data_Cu8Ni21C94
_symmetry_space_group_name_H-M   'P 1'
_cell_length_a   18.78479469
_cell_length_b   9.42860010
_cell_length_c   22.73553150
_cell_angle_alpha   89.93962939
_cell_angle_beta   90.37922290
_cell_angle_gamma   120.11512159
_symmetry_Int_Tables_number   1
_chemical_formula_structural   Cu8Ni21C94
_chemical_formula_sum   'Cu16 Ni42 C188'
_cell_volume   3483.16010980
_cell_formula_units_Z   2
loop_
 _symmetry_equiv_pos_site_id
 _symmetry_equiv_pos_as_xyz
  1  'x, y, z'
loop_
 _atom_site_type_symbol
 _atom_site_label
 _atom_site_symmetry_multiplicity
 _atom_site_fract_x
 _atom_site_fract_y
 _atom_site_fract_z
 _atom_site_occupancy
  Ni  Ni0  1  0.32768028  0.04125334  0.24474742  1
  Ni  Ni1  1  0.82836420  0.01591122  0.24663784  1
  Ni  Ni2  1  0.98367702  0.63356637  0.25156197  1
  Ni  Ni3  1  0.32803619  0.63825427  0.74175205  1
  Ni  Ni4  1  0.82902593  0.61719181  0.73905946  1
  Ni  Ni5  1  0.48366010  0.33824834  0.74939170  1
  Ni  Ni6  1  0.16400472  0.35518826  0.58439308  1
  Ni  Ni7  1  0.66604568  0.35382907  0.59399732  1
  Ni  Ni8  1  0.01054343  0.65288509  0.58913254  1
  Ni  Ni9  1  0.50408706  0.68163736  0.56608550  1
  Ni  Ni10  1  0.31663854  0.95997121  0.57937631  1
  Ni  Ni11  1  0.83457167  0.97542910  0.56920585  1
  Ni  Ni12  1  0.16461611  0.97705029  0.09138659  1
  Ni  Ni13  1  0.66257585  0.95650395  0.08837208  1
  Ni  Ni14  1  0.33105487  0.68532018  0.06609541  1
  Ni  Ni15  1  0.83208197  0.70279634  0.07156765  1
  Ni  Ni16  1  0.00508446  0.32413428  0.06488052  1
  Ni  Ni17  1  0.49703219  0.35618092  0.08773549  1
  Ni  Ni18  1  0.46998348  0.66948181  0.91206544  1
  Ni  Ni19  1  0.97091859  0.65662429  0.89999299  1
  Ni  Ni20  1  0.35160602  0.01514941  0.91513442  1
  Ni  Ni21  1  0.86184456  0.04158368  0.92310882  1
  Ni  Ni22  1  0.16539937  0.31993773  0.91519203  1
  Ni  Ni23  1  0.67231387  0.30019900  0.90096087  1
  Ni  Ni24  1  0.46800868  0.28400956  0.40388208  1
  Ni  Ni25  1  0.97129040  0.27051236  0.41755876  1
  Ni  Ni26  1  0.17306142  0.04833285  0.41745439  1
  Ni  Ni27  1  0.66490686  0.00646035  0.42065350  1
  Ni  Ni28  1  0.36013765  0.67983974  0.42929957  1
  Ni  Ni29  1  0.85219327  0.68985466  0.42115035  1
  Ni  Ni30  1  0.98891029  0.00857056  0.49872910  1
  Ni  Ni31  1  0.48460659  0.96559343  0.49361471  1
  Ni  Ni32  1  0.98890007  0.00761283  0.98972830  1
  Ni  Ni33  1  0.48098345  0.95876045  0.99506234  1
  Ni  Ni34  1  0.33313460  0.33312063  0.82454470  1
  Ni  Ni35  1  0.84331812  0.35711001  0.82584249  1
  Ni  Ni36  1  0.34119621  0.32717160  0.33082569  1
  Ni  Ni37  1  0.83342263  0.33181099  0.32967314  1
  Ni  Ni38  1  0.17470146  0.67213042  0.16291979  1
  Ni  Ni39  1  0.66207326  0.66768150  0.16582935  1
  Ni  Ni40  1  0.16272021  0.67518824  0.65767977  1
  Ni  Ni41  1  0.67537958  0.67732319  0.66057155  1
  Cu  Cu42  1  0.99613922  0.99885332  0.34483171  1
  Cu  Cu43  1  0.49879853  0.99805927  0.34956616  1
  Cu  Cu44  1  0.99764415  0.99858485  0.84731776  1
  Cu  Cu45  1  0.49687325  0.99275156  0.84407121  1
  Cu  Cu46  1  0.32943018  0.32505208  0.68069476  1
  Cu  Cu47  1  0.83736271  0.33616874  0.68440670  1
  Cu  Cu48  1  0.33618576  0.33632966  0.18494423  1
  Cu  Cu49  1  0.83236315  0.33193668  0.18269775  1
  Cu  Cu50  1  0.34068541  0.35120252  0.98686481  1
  Cu  Cu51  1  0.84051585  0.33259612  0.97816371  1
  Cu  Cu52  1  0.33228296  0.33680880  0.48377813  1
  Cu  Cu53  1  0.84098597  0.33183755  0.48950984  1
  Cu  Cu54  1  0.16808330  0.66383524  0.01230399  1
  Cu  Cu55  1  0.67070691  0.67414246  0.01861357  1
  Cu  Cu56  1  0.16976318  0.66704084  0.52027919  1
  Cu  Cu57  1  0.66825500  0.67233317  0.51363930  1
  C  C58  1  0.00249799  0.98625605  0.64689308  1
  C  C59  1  0.49596587  0.98817904  0.66159917  1
  C  C60  1  0.99665615  0.00668546  0.16151613  1
  C  C61  1  0.49733450  0.00701341  0.15076012  1
  C  C62  1  0.16653459  0.67696953  0.31039971  1
  C  C63  1  0.66606191  0.66668437  0.31430917  1
  C  C64  1  0.16597241  0.66342896  0.81254683  1
  C  C65  1  0.66805127  0.65885776  0.80959888  1
  C  C66  1  0.14862789  0.99966915  0.25504135  1
  C  C67  1  0.84324525  0.69620343  0.25655042  1
  C  C68  1  0.00451296  0.31230137  0.25629618  1
  C  C69  1  0.50700628  0.30966651  0.25543198  1
  C  C70  1  0.64971926  0.29777644  0.75474460  1
  C  C71  1  0.00536148  0.70441433  0.75617232  1
  C  C72  1  0.50371290  0.69679990  0.75674443  1
  C  C73  1  0.34420437  0.99265498  0.75815897  1
  C  C74  1  0.98554776  0.31992377  0.58378238  1
  C  C75  1  0.17860859  0.02864244  0.57751456  1
  C  C76  1  0.34248834  0.65433387  0.58857243  1
  C  C77  1  0.83134652  0.63804017  0.58436159  1
  C  C78  1  0.48692093  0.65012824  0.08378428  1
  C  C79  1  0.33156739  0.02405522  0.08453528  1
  C  C80  1  0.83959937  0.02739264  0.08796547  1
  C  C81  1  0.31563136  0.66274749  0.91548185  1
  C  C82  1  0.81440212  0.66397926  0.91810485  1
  C  C83  1  0.01864992  0.37233779  0.91640641  1
  C  C84  1  0.31550146  0.96419618  0.41681382  1
  C  C85  1  0.81628429  0.96960675  0.41563038  1
  C  C86  1  0.51706308  0.66229348  0.41718479  1
  C  C87  1  0.64677137  0.98719795  0.25202533  1
  C  C88  1  0.34748197  0.71305815  0.24952561  1
  C  C89  1  0.14709825  0.30810443  0.75243850  1
  C  C90  1  0.84419678  0.98363039  0.75120590  1
  C  C91  1  0.48742277  0.31984059  0.58670866  1
  C  C92  1  0.67414597  0.03053063  0.58597643  1
  C  C93  1  0.98585301  0.65340576  0.08623261  1
  C  C94  1  0.17404360  0.31806448  0.08587711  1
  C  C95  1  0.67354393  0.31580517  0.08359037  1
  C  C96  1  0.52270556  0.38088884  0.91378444  1
  C  C97  1  0.17015400  0.96189534  0.91427043  1
  C  C98  1  0.66713464  0.95578839  0.91421691  1
  C  C99  1  0.16743096  0.38291010  0.41233703  1
  C  C100  1  0.67074780  0.38016666  0.41378058  1
  C  C101  1  0.02144288  0.66146639  0.41261038  1
  C  C102  1  0.10605738  0.99601364  0.31501627  1
  C  C103  1  0.61044889  0.00107314  0.30610876  1
  C  C104  1  0.39029672  0.77749773  0.30444723  1
  C  C105  1  0.89373572  0.76005306  0.31661048  1
  C  C106  1  0.49757172  0.20741097  0.31310834  1
  C  C107  1  0.98375337  0.20457201  0.31391146  1
  C  C108  1  0.11112236  0.22125762  0.80711116  1
  C  C109  1  0.60719256  0.21677507  0.81502595  1
  C  C110  1  0.48663320  0.76484190  0.81537343  1
  C  C111  1  0.99675736  0.78540214  0.81502271  1
  C  C112  1  0.39297601  0.01865579  0.81837876  1
  C  C113  1  0.88730575  0.00311621  0.80695254  1
  C  C114  1  0.40577780  0.96969105  0.70411138  1
  C  C115  1  0.88748508  0.95774062  0.70137242  1
  C  C116  1  0.09590299  0.21653052  0.70052737  1
  C  C117  1  0.58421383  0.19661853  0.69782292  1
  C  C118  1  0.01207616  0.83498653  0.70024554  1
  C  C119  1  0.51326942  0.83224575  0.70141672  1
  C  C120  1  0.39753734  0.82997687  0.19973720  1
  C  C121  1  0.90615579  0.84479286  0.20332866  1
  C  C122  1  0.01358252  0.19672164  0.20036487  1
  C  C123  1  0.51502854  0.19127145  0.19791426  1
  C  C124  1  0.08346962  0.97227343  0.19688572  1
  C  C125  1  0.59506738  0.97679105  0.19945871  1
  C  C126  1  0.44863796  0.34302220  0.63876035  1
  C  C127  1  0.93528076  0.36268925  0.62967445  1
  C  C128  1  0.24644374  0.12175866  0.62733587  1
  C  C129  1  0.72915258  0.11625357  0.63489762  1
  C  C130  1  0.33612152  0.55185560  0.64665474  1
  C  C131  1  0.81384061  0.51764851  0.63901101  1
  C  C132  1  0.43564242  0.51265336  0.13122303  1
  C  C133  1  0.94553637  0.55266326  0.13806224  1
  C  C134  1  0.31558507  0.11024879  0.13931253  1
  C  C135  1  0.82689334  0.11379100  0.14477861  1
  C  C136  1  0.22863168  0.34305787  0.13529542  1
  C  C137  1  0.72807812  0.34510765  0.13349430  1
  C  C138  1  0.20856908  0.29760929  0.02982450  1
  C  C139  1  0.70619110  0.28660857  0.02899403  1
  C  C140  1  0.43626604  0.60893803  0.02104114  1
  C  C141  1  0.93603468  0.57700121  0.03253149  1
  C  C142  1  0.35843513  0.13419153  0.02474908  1
  C  C143  1  0.85966053  0.13719987  0.02775981  1
  C  C144  1  0.20325375  0.13423627  0.51671474  1
  C  C145  1  0.70836237  0.11829314  0.52940608  1
  C  C146  1  0.36464050  0.58705431  0.52872171  1
  C  C147  1  0.85355464  0.57753111  0.52335311  1
  C  C148  1  0.43846999  0.29690567  0.53274863  1
  C  C149  1  0.93460963  0.26187859  0.52076420  1
  C  C150  1  0.27422334  0.67006769  0.97648296  1
  C  C151  1  0.77465371  0.67475968  0.97897309  1
  C  C152  1  0.05960374  0.44808310  0.97953205  1
  C  C153  1  0.56600885  0.46386837  0.96775710  1
  C  C154  1  0.15908181  0.87523346  0.97050602  1
  C  C155  1  0.65956736  0.87233624  0.97048078  1
  C  C156  1  0.27353642  0.86315356  0.47499810  1
  C  C157  1  0.77303198  0.87680034  0.47562713  1
  C  C158  1  0.15960772  0.45103187  0.46797268  1
  C  C159  1  0.65986001  0.44712947  0.46903049  1
  C  C160  1  0.06517343  0.66147331  0.46527765  1
  C  C161  1  0.56113901  0.67294876  0.47924413  1
  C  C162  1  0.07042834  0.65660301  0.35810735  1
  C  C163  1  0.58252957  0.66033665  0.36259194  1
  C  C164  1  0.25183285  0.83718934  0.35774372  1
  C  C165  1  0.75450561  0.84402538  0.35876021  1
  C  C166  1  0.16580981  0.48883142  0.36202391  1
  C  C167  1  0.67396494  0.49004981  0.36306297  1
  C  C168  1  0.08331841  0.50341172  0.86320148  1
  C  C169  1  0.57174163  0.48558151  0.86079831  1
  C  C170  1  0.17359991  0.85835256  0.86470464  1
  C  C171  1  0.66818058  0.85124328  0.86444569  1
  C  C172  1  0.25339041  0.66405282  0.86002347  1
  C  C173  1  0.74959122  0.66383655  0.86158741  1
  C  C174  1  0.01461161  0.80948152  0.41086960  1
  C  C175  1  0.51354929  0.83100411  0.41200815  1
  C  C176  1  0.40699604  0.98617623  0.41358403  1
  C  C177  1  0.90730205  0.98606472  0.41591614  1
  C  C178  1  0.09728854  0.21419795  0.40739344  1
  C  C179  1  0.60131621  0.21276695  0.40680345  1
  C  C180  1  0.01297677  0.19424604  0.91219467  1
  C  C181  1  0.51573297  0.21877935  0.91158734  1
  C  C182  1  0.10067082  0.99145961  0.90737568  1
  C  C183  1  0.59655020  0.98349849  0.90976363  1
  C  C184  1  0.40672736  0.82727968  0.91492609  1
  C  C185  1  0.90524934  0.82655724  0.91414446  1
  C  C186  1  0.49466032  0.16772036  0.59354933  1
  C  C187  1  0.98943839  0.15136278  0.60607402  1
  C  C188  1  0.08796527  0.02313148  0.59732892  1
  C  C189  1  0.59245185  0.02541641  0.59322969  1
  C  C190  1  0.42956385  0.84855508  0.59682046  1
  C  C191  1  0.91852716  0.82485377  0.59864287  1
  C  C192  1  0.49805339  0.83564509  0.10437947  1
  C  C193  1  0.99271718  0.81983379  0.09218962  1
  C  C194  1  0.41992474  0.00940068  0.09908411  1
  C  C195  1  0.92778755  0.01336254  0.09671683  1
  C  C196  1  0.09201657  0.15973207  0.09302348  1
  C  C197  1  0.59145281  0.15513680  0.09391358  1
  C  C198  1  0.33849184  0.15198963  0.74428877  1
  C  C199  1  0.82530510  0.11274671  0.74227585  1
  C  C200  1  0.23252684  0.34339225  0.74723424  1
  C  C201  1  0.74211231  0.33980375  0.74776783  1
  C  C202  1  0.43145883  0.51285047  0.74437902  1
  C  C203  1  0.92518873  0.52816982  0.74717252  1
  C  C204  1  0.32988300  0.54776953  0.23777806  1
  C  C205  1  0.83440571  0.52513151  0.23823318  1
  C  C206  1  0.42595163  0.32151141  0.24511828  1
  C  C207  1  0.93185668  0.35132579  0.24288283  1
  C  C208  1  0.24073363  0.14326583  0.24685455  1
  C  C209  1  0.73154878  0.12512588  0.24595724  1
  C  C210  1  0.31602059  0.48940654  0.90830282  1
  C  C211  1  0.81359330  0.49127765  0.90965508  1
  C  C212  1  0.44118804  0.36924005  0.90948173  1
  C  C213  1  0.93008346  0.36281160  0.90740504  1
  C  C214  1  0.24913833  0.11984446  0.91327315  1
  C  C215  1  0.74547482  0.11525362  0.91185523  1
  C  C216  1  0.31516171  0.13511983  0.40818115  1
  C  C217  1  0.81560060  0.14210282  0.40745997  1
  C  C218  1  0.24700954  0.38663835  0.40824231  1
  C  C219  1  0.74975867  0.38124060  0.41231722  1
  C  C220  1  0.42889368  0.49537412  0.40884086  1
  C  C221  1  0.94005075  0.51035500  0.40744223  1
  C  C222  1  0.15735661  0.45626339  0.08358399  1
  C  C223  1  0.65314695  0.44738664  0.07926066  1
  C  C224  1  0.07054046  0.67871306  0.08244235  1
  C  C225  1  0.57983980  0.67761211  0.08207789  1
  C  C226  1  0.25772960  0.83307840  0.08341852  1
  C  C227  1  0.76197882  0.84051742  0.08619137  1
  C  C228  1  0.15015265  0.83559012  0.57781191  1
  C  C229  1  0.65732254  0.85872603  0.58431988  1
  C  C230  1  0.26365650  0.67998641  0.58545149  1
  C  C231  1  0.75677238  0.68012587  0.58374839  1
  C  C232  1  0.08017753  0.46778635  0.58119952  1
  C  C233  1  0.57265054  0.46346138  0.58249371  1
  C  C234  1  0.15127008  0.81512839  0.25562033  1
  C  C235  1  0.65148852  0.83048642  0.25194571  1
  C  C236  1  0.26683137  0.71679361  0.24855639  1
  C  C237  1  0.75763849  0.70742934  0.25488247  1
  C  C238  1  0.09426149  0.48988931  0.25766177  1
  C  C239  1  0.59366783  0.49238963  0.25735801  1
  C  C240  1  0.15126236  0.47466546  0.75337497  1
  C  C241  1  0.65241577  0.48827917  0.75690517  1
  C  C242  1  0.09212578  0.69437906  0.75964405  1
  C  C243  1  0.59339118  0.69709344  0.75993419  1
  C  C244  1  0.25715670  0.81192507  0.75612539  1
  C  C245  1  0.76079328  0.81844239  0.75376137  1
