# generated using pymatgen
data_Cu2NiC9
_symmetry_space_group_name_H-M   'P 1'
_cell_length_a   5.10163400
_cell_length_b   9.09699800
_cell_length_c   15.17579300
_cell_angle_alpha   62.58045219
_cell_angle_beta   90.00000000
_cell_angle_gamma   90.00000000
_symmetry_Int_Tables_number   1
_chemical_formula_structural   Cu2NiC9
_chemical_formula_sum   'Cu8 Ni4 C36'
_cell_volume   625.17934673
_cell_formula_units_Z   4
loop_
 _symmetry_equiv_pos_site_id
 _symmetry_equiv_pos_as_xyz
  1  'x, y, z'
loop_
 _atom_site_type_symbol
 _atom_site_label
 _atom_site_symmetry_multiplicity
 _atom_site_fract_x
 _atom_site_fract_y
 _atom_site_fract_z
 _atom_site_occupancy
  C  C0  1  0.70701400  0.50405900  0.92722100  1
  C  C1  1  0.22859700  0.09062700  0.78945500  1
  C  C2  1  0.72859700  0.90937300  0.71054500  1
  C  C3  1  0.20701400  0.49594100  0.57277900  1
  C  C4  1  0.79298600  0.50405900  0.42722100  1
  C  C5  1  0.27140300  0.09062700  0.28945500  1
  C  C6  1  0.77140300  0.90937300  0.21054500  1
  C  C7  1  0.29298600  0.49594100  0.07277900  1
  Ni  Ni8  1  0.75314200  0.79998400  0.98295200  1
  Ni  Ni9  1  0.74685800  0.79998400  0.48295200  1
  Ni  Ni10  1  0.25314200  0.20001600  0.51704800  1
  Ni  Ni11  1  0.24685800  0.20001600  0.01704800  1
  Cu  Cu12  1  0.74768200  0.20340400  0.86976400  1
  Cu  Cu13  1  0.21475500  0.70735700  0.83962300  1
  Cu  Cu14  1  0.24768200  0.79659600  0.63023600  1
  Cu  Cu15  1  0.71475500  0.29264300  0.66037700  1
  Cu  Cu16  1  0.28524500  0.70735700  0.33962300  1
  Cu  Cu17  1  0.75231800  0.20340400  0.36976400  1
  Cu  Cu18  1  0.78524500  0.29264300  0.16037700  1
  Cu  Cu19  1  0.25231800  0.79659600  0.13023600  1
  C  C20  1  0.84105300  0.29653100  0.92714500  1
  C  C21  1  0.45921000  0.15091900  0.88755100  1
  C  C22  1  0.32109600  0.55247200  0.92804300  1
  C  C23  1  0.91307800  0.71981200  0.84362100  1
  C  C24  1  0.92975200  0.05406900  0.89197000  1
  C  C25  1  0.78460500  0.33187800  0.75413400  1
  C  C26  1  0.35751400  0.86709200  0.81942500  1
  C  C27  1  0.28460500  0.66812200  0.74586600  1
  C  C28  1  0.82109600  0.44752800  0.57195700  1
  C  C29  1  0.85751400  0.13290800  0.68057500  1
  C  C30  1  0.95921000  0.84908100  0.61244900  1
  C  C31  1  0.34105300  0.70346900  0.57285500  1
  C  C32  1  0.42975200  0.94593100  0.60803000  1
  C  C33  1  0.41307800  0.28018800  0.65637900  1
  C  C34  1  0.58692200  0.71981200  0.34362100  1
  C  C35  1  0.57024800  0.05406900  0.39197000  1
  C  C36  1  0.65894700  0.29653100  0.42714500  1
  C  C37  1  0.04079000  0.15091900  0.38755100  1
  C  C38  1  0.14248600  0.86709200  0.31942500  1
  C  C39  1  0.17890400  0.55247200  0.42804300  1
  C  C40  1  0.71539500  0.33187800  0.25413400  1
  C  C41  1  0.64248600  0.13290800  0.18057500  1
  C  C42  1  0.21539500  0.66812200  0.24586600  1
  C  C43  1  0.07024800  0.94593100  0.10803000  1
  C  C44  1  0.08692200  0.28018800  0.15637900  1
  C  C45  1  0.67890400  0.44752800  0.07195700  1
  C  C46  1  0.54079000  0.84908100  0.11244900  1
  C  C47  1  0.15894700  0.70346900  0.07285500  1
