# generated using pymatgen
data_Cu3Ni3C32
_symmetry_space_group_name_H-M   'P 1'
_cell_length_a   8.84351737
_cell_length_b   8.83790884
_cell_length_c   22.47125601
_cell_angle_alpha   90.24595471
_cell_angle_beta   88.53690793
_cell_angle_gamma   119.91012629
_symmetry_Int_Tables_number   1
_chemical_formula_structural   Cu3Ni3C32
_chemical_formula_sum   'Cu9 Ni9 C96'
_cell_volume   1521.81870657
_cell_formula_units_Z   3
loop_
 _symmetry_equiv_pos_site_id
 _symmetry_equiv_pos_as_xyz
  1  'x, y, z'
loop_
 _atom_site_type_symbol
 _atom_site_label
 _atom_site_symmetry_multiplicity
 _atom_site_fract_x
 _atom_site_fract_y
 _atom_site_fract_z
 _atom_site_occupancy
  C  C0  1  0.00340881  0.64896013  0.25368996  1
  C  C1  1  0.00042874  0.35751856  0.73916412  1
  C  C2  1  0.66609672  0.97547279  0.58837334  1
  C  C3  1  0.67140732  0.69742356  0.08202615  1
  C  C4  1  0.33743653  0.30626831  0.90233479  1
  C  C5  1  0.32558181  0.02658576  0.42214526  1
  C  C6  1  0.01132366  0.00334055  0.50069933  1
  C  C7  1  0.98749045  0.97950666  0.99320587  1
  C  C8  1  0.65567947  0.32991213  0.82019841  1
  C  C9  1  0.66547329  0.34620483  0.33151028  1
  C  C10  1  0.33646365  0.67920148  0.16766608  1
  C  C11  1  0.33531038  0.66684842  0.65924568  1
  C  C12  1  0.00987117  0.01165453  0.64530888  1
  C  C13  1  0.00326333  0.98807700  0.14882923  1
  C  C14  1  0.67567928  0.34797256  0.97990197  1
  C  C15  1  0.67492194  0.33833560  0.48304071  1
  C  C16  1  0.33729162  0.67187204  0.31279063  1
  C  C17  1  0.34937145  0.66936223  0.80973055  1
  C  C18  1  0.00303647  0.96654968  0.34817025  1
  C  C19  1  0.97648061  0.99021838  0.84280179  1
  C  C20  1  0.64335659  0.29100484  0.68524765  1
  C  C21  1  0.68077975  0.34676566  0.19291469  1
  C  C22  1  0.33249374  0.67518793  0.01718482  1
  C  C23  1  0.28400664  0.66539300  0.52449601  1
  Ni  Ni24  1  0.30808219  0.01850872  0.25118917  1
  Ni  Ni25  1  0.70872334  0.70270745  0.24988437  1
  Ni  Ni26  1  0.29521276  0.27606404  0.75419211  1
  Ni  Ni27  1  0.71260839  0.00827374  0.74862330  1
  Ni  Ni28  1  0.95705863  0.34309333  0.58828106  1
  Ni  Ni29  1  0.37518209  0.03403831  0.58048537  1
  Ni  Ni30  1  0.97107927  0.61741133  0.08577697  1
  Ni  Ni31  1  0.63282154  0.68717835  0.91956462  1
  Ni  Ni32  1  0.03623629  0.67016044  0.41572053  1
  Cu  Cu33  1  0.99483896  0.28237995  0.25167391  1
  Cu  Cu34  1  0.99474522  0.71055024  0.75363740  1
  Cu  Cu35  1  0.65958266  0.61886734  0.58614579  1
  Cu  Cu36  1  0.66163182  0.04365515  0.08455219  1
  Cu  Cu37  1  0.37635959  0.33861962  0.08399609  1
  Cu  Cu38  1  0.04985786  0.37897122  0.91919968  1
  Cu  Cu39  1  0.32887324  0.95211380  0.92031212  1
  Cu  Cu40  1  0.63595251  0.95575867  0.41680711  1
  Cu  Cu41  1  0.32455674  0.37596461  0.41908006  1
  C  C42  1  0.21309016  0.04069870  0.31112153  1
  C  C43  1  0.84122143  0.80454090  0.30328871  1
  C  C44  1  0.97478705  0.17701687  0.30401220  1
  C  C45  1  0.19758165  0.15992157  0.81564060  1
  C  C46  1  0.97734269  0.80008069  0.80718040  1
  C  C47  1  0.83641882  0.03827914  0.80482786  1
  C  C48  1  0.78789691  0.96489999  0.68849283  1
  C  C49  1  0.16570060  0.19282696  0.69832046  1
  C  C50  1  0.02892021  0.81460782  0.69910832  1
  C  C51  1  0.78520396  0.81702877  0.18730156  1
  C  C52  1  0.02100182  0.20700541  0.19571936  1
  C  C53  1  0.17276155  0.97277240  0.19541868  1
  C  C54  1  0.86039491  0.36465227  0.64743244  1
  C  C55  1  0.50285544  0.12825139  0.63550857  1
  C  C56  1  0.63780466  0.51158262  0.63839694  1
  C  C57  1  0.86808829  0.49790204  0.14418534  1
  C  C58  1  0.64186209  0.12892231  0.13738832  1
  C  C59  1  0.48789240  0.36065848  0.13425425  1
  C  C60  1  0.45047099  0.30650219  0.02767690  1
  C  C61  1  0.83796024  0.52890764  0.02934745  1
  C  C62  1  0.67759381  0.14283997  0.02934537  1
  C  C63  1  0.45108004  0.14660625  0.51799618  1
  C  C64  1  0.68866343  0.54149331  0.53024006  1
  C  C65  1  0.83510525  0.30828084  0.52995868  1
  C  C66  1  0.53173337  0.70109272  0.98061073  1
  C  C67  1  0.16015883  0.47482917  0.97022306  1
  C  C68  1  0.31083708  0.84521903  0.97383272  1
  C  C69  1  0.55717449  0.85398360  0.47131710  1
  C  C70  1  0.31484105  0.46928012  0.47182704  1
  C  C71  1  0.16841704  0.70422701  0.46997263  1
  C  C72  1  0.12257224  0.64221957  0.35412154  1
  C  C73  1  0.51923270  0.86793910  0.36491427  1
  C  C74  1  0.35266350  0.48070436  0.36363839  1
  C  C75  1  0.11710310  0.47953405  0.86377732  1
  C  C76  1  0.35100731  0.87368366  0.86603591  1
  C  C77  1  0.49778717  0.63702785  0.86512987  1
  C  C78  1  0.02733128  0.85173027  0.41022673  1
  C  C79  1  0.81196337  0.98299385  0.40510802  1
  C  C80  1  0.16563231  0.20214649  0.41431132  1
  C  C81  1  0.04051784  0.20762377  0.91668302  1
  C  C82  1  0.17688499  0.97728842  0.91917327  1
  C  C83  1  0.82698079  0.85324542  0.90614629  1
  C  C84  1  0.97013652  0.16276468  0.58883509  1
  C  C85  1  0.17724867  0.99839303  0.58712542  1
  C  C86  1  0.81945000  0.79590931  0.58809362  1
  C  C87  1  0.98146772  0.81156903  0.08710444  1
  C  C88  1  0.82227063  0.02613404  0.08526179  1
  C  C89  1  0.19794307  0.18824865  0.08904693  1
  C  C90  1  0.70165889  0.18577874  0.74375993  1
  C  C91  1  0.48918512  0.30836683  0.74055928  1
  C  C92  1  0.83946472  0.53771295  0.75056047  1
  C  C93  1  0.70660822  0.51792258  0.24300616  1
  C  C94  1  0.83931644  0.30492161  0.24626126  1
  C  C95  1  0.49868640  0.18270434  0.23639130  1
  C  C96  1  0.64068289  0.50070561  0.92505860  1
  C  C97  1  0.86822607  0.34775541  0.92647178  1
  C  C98  1  0.48929633  0.13042308  0.92475601  1
  C  C99  1  0.64138694  0.12921986  0.41876959  1
  C  C100  1  0.47956460  0.34823522  0.41977063  1
  C  C101  1  0.84144853  0.49987957  0.41978987  1
  C  C102  1  0.36761899  0.50179594  0.07737182  1
  C  C103  1  0.16350800  0.64086301  0.07194429  1
  C  C104  1  0.50714953  0.86285331  0.08033440  1
  C  C105  1  0.37314783  0.84814469  0.57278615  1
  C  C106  1  0.50841902  0.64331284  0.57847314  1
  C  C107  1  0.15074411  0.50894410  0.57823331  1
  C  C108  1  0.31454442  0.83439053  0.25547568  1
  C  C109  1  0.51202448  0.67051573  0.25509846  1
  C  C110  1  0.15138503  0.46304921  0.25435786  1
  C  C111  1  0.29941346  0.46704554  0.76029774  1
  C  C112  1  0.14942319  0.68507415  0.76045918  1
  C  C113  1  0.51398679  0.84236647  0.75553529  1
