# generated using pymatgen
data_Cu2NiC16
_symmetry_space_group_name_H-M   'P 1'
_cell_length_a   5.91277093
_cell_length_b   5.78789193
_cell_length_c   13.40529348
_cell_angle_alpha   90.00000000
_cell_angle_beta   90.00000000
_cell_angle_gamma   83.84814378
_symmetry_Int_Tables_number   1
_chemical_formula_structural   Cu2NiC16
_chemical_formula_sum   'Cu2 Ni1 C16'
_cell_volume   456.12052939
_cell_formula_units_Z   1
loop_
 _symmetry_equiv_pos_site_id
 _symmetry_equiv_pos_as_xyz
  1  'x, y, z'
loop_
 _atom_site_type_symbol
 _atom_site_label
 _atom_site_symmetry_multiplicity
 _atom_site_fract_x
 _atom_site_fract_y
 _atom_site_fract_z
 _atom_site_occupancy
  C  C0  1  0.75888593  0.75984345  0.00000000  1
  C  C1  1  0.31173355  0.84004380  0.50000000  1
  C  C2  1  0.68826645  0.15995620  0.50000000  1
  C  C3  1  0.24111407  0.24015655  0.00000000  1
  Ni  Ni4  1  -0.00000000  0.50000000  0.50000000  1
  Cu  Cu5  1  0.50000000  0.50000000  0.75405480  1
  Cu  Cu6  1  0.50000000  0.50000000  0.24594520  1
  C  C7  1  -0.00000000  0.50000000  0.75479819  1
  C  C8  1  0.50000000  -0.00000000  0.75475982  1
  C  C9  1  -0.00000000  0.50000000  0.24520181  1
  C  C10  1  0.50000000  -0.00000000  0.24524018  1
  C  C11  1  0.72734853  0.71471537  0.65542347  1
  C  C12  1  0.27265147  0.28528463  0.65542347  1
  C  C13  1  0.72734853  0.71471537  0.34457653  1
  C  C14  1  0.74559114  0.25154712  0.15603146  1
  C  C15  1  0.25440886  0.74845288  0.84396854  1
  C  C16  1  0.27265147  0.28528463  0.34457653  1
  C  C17  1  0.25440886  0.74845288  0.15603146  1
  C  C18  1  0.74559114  0.25154712  0.84396854  1
