# generated using pymatgen
data_Cu2Ni2C
_symmetry_space_group_name_H-M   'P 1'
_cell_length_a   10.93124125
_cell_length_b   10.93124125
_cell_length_c   10.93124111
_cell_angle_alpha   22.64577158
_cell_angle_beta   22.64577158
_cell_angle_gamma   22.64577102
_symmetry_Int_Tables_number   1
_chemical_formula_structural   Cu2Ni2C
_chemical_formula_sum   'Cu2 Ni2 C1'
_cell_volume   169.88262919
_cell_formula_units_Z   1
loop_
 _symmetry_equiv_pos_site_id
 _symmetry_equiv_pos_as_xyz
  1  'x, y, z'
loop_
 _atom_site_type_symbol
 _atom_site_label
 _atom_site_symmetry_multiplicity
 _atom_site_fract_x
 _atom_site_fract_y
 _atom_site_fract_z
 _atom_site_occupancy
  Ni  Ni0  1  0.38788600  0.38788600  0.38788600  1
  Ni  Ni1  1  0.61211400  0.61211400  0.61211400  1
  Cu  Cu2  1  0.77733500  0.77733500  0.77733500  1
  Cu  Cu3  1  0.22266500  0.22266500  0.22266500  1
  C  C4  1  0.00000000  0.00000000  0.00000000  1
