# generated using pymatgen
data_Cu3Ni3C7
_symmetry_space_group_name_H-M   'P 1'
_cell_length_a   8.11713100
_cell_length_b   12.40566700
_cell_length_c   12.62765420
_cell_angle_alpha   75.64631972
_cell_angle_beta   90.00000000
_cell_angle_gamma   90.00000000
_symmetry_Int_Tables_number   1
_chemical_formula_structural   Cu3Ni3C7
_chemical_formula_sum   'Cu12 Ni12 C28'
_cell_volume   1231.89094987
_cell_formula_units_Z   4
loop_
 _symmetry_equiv_pos_site_id
 _symmetry_equiv_pos_as_xyz
  1  'x, y, z'
loop_
 _atom_site_type_symbol
 _atom_site_label
 _atom_site_symmetry_multiplicity
 _atom_site_fract_x
 _atom_site_fract_y
 _atom_site_fract_z
 _atom_site_occupancy
  C  C0  1  0.20896500  0.50061500  0.73096600  1
  C  C1  1  0.79103500  0.49938500  0.26903400  1
  C  C2  1  0.29103500  0.00061500  0.73096600  1
  C  C3  1  0.70896500  0.99938500  0.26903400  1
  Ni  Ni4  1  0.34867700  0.36630500  0.16332500  1
  Ni  Ni5  1  0.62858400  0.20941700  0.89295400  1
  Ni  Ni6  1  0.87141600  0.70941700  0.89295400  1
  Ni  Ni7  1  0.37141600  0.79058300  0.10704600  1
  Ni  Ni8  1  0.12858400  0.29058300  0.10704600  1
  Ni  Ni9  1  0.84867700  0.13369500  0.83667500  1
  Ni  Ni10  1  0.65132300  0.63369500  0.83667500  1
  Ni  Ni11  1  0.15132300  0.86630500  0.16332500  1
  Ni  Ni12  1  0.41412200  0.22841200  0.35414300  1
  Ni  Ni13  1  0.91412200  0.27158800  0.64585700  1
  Ni  Ni14  1  0.58587800  0.77158800  0.64585700  1
  Ni  Ni15  1  0.08587800  0.72841200  0.35414300  1
  Cu  Cu16  1  0.20836700  0.12158800  0.35463500  1
  Cu  Cu17  1  0.17216800  0.82345700  0.46510800  1
  Cu  Cu18  1  0.70836700  0.37841200  0.64536500  1
  Cu  Cu19  1  0.67216800  0.67654300  0.53489200  1
  Cu  Cu20  1  0.72190200  0.33042100  0.98192300  1
  Cu  Cu21  1  0.77809800  0.83042100  0.98192300  1
  Cu  Cu22  1  0.27809800  0.66957900  0.01807700  1
  Cu  Cu23  1  0.82783200  0.17654300  0.53489200  1
  Cu  Cu24  1  0.79163300  0.87841200  0.64536500  1
  Cu  Cu25  1  0.29163300  0.62158800  0.35463500  1
  Cu  Cu26  1  0.32783200  0.32345700  0.46510800  1
  Cu  Cu27  1  0.22190200  0.16957900  0.01807700  1
  C  C28  1  0.08665900  0.58259400  0.79720900  1
  C  C29  1  0.58665900  0.91740600  0.20279100  1
  C  C30  1  0.91334100  0.41740600  0.20279100  1
  C  C31  1  0.41334100  0.08259400  0.79720900  1
  C  C32  1  0.33261000  0.41957000  0.66477800  1
  C  C33  1  0.83261000  0.08043000  0.33522200  1
  C  C34  1  0.66739000  0.58043000  0.33522200  1
  C  C35  1  0.16739000  0.91957000  0.66477800  1
  C  C36  1  0.07145000  0.38555900  0.77686100  1
  C  C37  1  0.57145000  0.11444100  0.22313900  1
  C  C38  1  0.92855000  0.61444100  0.22313900  1
  C  C39  1  0.42855000  0.88555900  0.77686100  1
  C  C40  1  0.67163300  0.54408000  0.14889900  1
  C  C41  1  0.17163300  0.95592000  0.85110100  1
  C  C42  1  0.34649100  0.61664000  0.68494700  1
  C  C43  1  0.84649100  0.88336000  0.31505300  1
  C  C44  1  0.65350900  0.38336000  0.31505300  1
  C  C45  1  0.82836700  0.04408000  0.14889900  1
  C  C46  1  0.09057800  0.54608900  0.61060500  1
  C  C47  1  0.32836700  0.45592000  0.85110100  1
  C  C48  1  0.59057800  0.95391100  0.38939500  1
  C  C49  1  0.90942200  0.45391100  0.38939500  1
  C  C50  1  0.40942200  0.04608900  0.61060500  1
  C  C51  1  0.15350900  0.11664000  0.68494700  1
