# generated using pymatgen
data_Cu(NiC8)2
_symmetry_space_group_name_H-M   'P 1'
_cell_length_a   8.97344691
_cell_length_b   8.96133323
_cell_length_c   23.01514897
_cell_angle_alpha   90.38231428
_cell_angle_beta   89.61298075
_cell_angle_gamma   119.77354649
_symmetry_Int_Tables_number   1
_chemical_formula_structural   Cu(NiC8)2
_chemical_formula_sum   'Cu6 Ni12 C96'
_cell_volume   1606.38545778
_cell_formula_units_Z   6
loop_
 _symmetry_equiv_pos_site_id
 _symmetry_equiv_pos_as_xyz
  1  'x, y, z'
loop_
 _atom_site_type_symbol
 _atom_site_label
 _atom_site_symmetry_multiplicity
 _atom_site_fract_x
 _atom_site_fract_y
 _atom_site_fract_z
 _atom_site_occupancy
  Ni  Ni0  1  0.99646787  0.63007639  0.25253516  1
  Ni  Ni1  1  0.37127780  0.00594380  0.75174095  1
  Ni  Ni2  1  0.66216328  0.96205720  0.58535749  1
  Ni  Ni3  1  0.03722643  0.33666044  0.08564547  1
  Ni  Ni4  1  0.32777200  0.29579143  0.91896199  1
  Ni  Ni5  1  0.70383890  0.67200052  0.41878607  1
  Ni  Ni6  1  0.01858357  0.99630063  0.50035534  1
  Ni  Ni7  1  0.00377475  0.98282809  0.00030997  1
  Ni  Ni8  1  0.68564599  0.32929042  0.83374710  1
  Ni  Ni9  1  0.66996500  0.31506214  0.33381620  1
  Ni  Ni10  1  0.35118412  0.66340143  0.16725998  1
  Ni  Ni11  1  0.33651517  0.64979619  0.66683614  1
  Cu  Cu12  1  0.99230721  0.00242499  0.34996950  1
  Cu  Cu13  1  0.00195467  0.00084226  0.64839549  1
  Cu  Cu14  1  0.65945831  0.33670213  0.68339398  1
  Cu  Cu15  1  0.66379511  0.34175239  0.18456786  1
  Cu  Cu16  1  0.66603948  0.33102624  0.48209269  1
  Cu  Cu17  1  0.33494863  0.66673112  0.31644723  1
  C  C18  1  0.99728714  0.00668221  0.84863361  1
  C  C19  1  0.00189898  0.99848383  0.15116881  1
  C  C20  1  0.66836514  0.33216729  0.98364135  1
  C  C21  1  0.32616209  0.67001644  0.01737769  1
  C  C22  1  0.33056519  0.67359713  0.51642035  1
  C  C23  1  0.33375616  0.66473200  0.81565307  1
  C  C24  1  0.70305613  0.70606655  0.25091557  1
  C  C25  1  0.99993225  0.29769787  0.24860119  1
  C  C26  1  0.29507604  0.29617181  0.74979811  1
  C  C27  1  0.70283174  0.00142339  0.74774824  1
  C  C28  1  0.37267435  0.04209773  0.58420115  1
  C  C29  1  0.66585080  0.62825327  0.58165631  1
  C  C30  1  0.95996078  0.62992307  0.08471302  1
  C  C31  1  0.37016910  0.33405099  0.08203331  1
  C  C32  1  0.03513791  0.37015998  0.91740759  1
  C  C33  1  0.33255457  0.96553004  0.91473797  1
  C  C34  1  0.62836948  0.96289273  0.41709156  1
  C  C35  1  0.03557864  0.66751680  0.41509006  1
  C  C36  1  0.29702511  0.00057377  0.25142183  1
  C  C37  1  0.99655299  0.70428183  0.74958200  1
  C  C38  1  0.95965115  0.33471701  0.58398594  1
  C  C39  1  0.66542595  0.03723907  0.08472121  1
  C  C40  1  0.63152178  0.66867323  0.91742929  1
  C  C41  1  0.33098953  0.37031022  0.41710909  1
  C  C42  1  0.21168921  0.02528141  0.30251077  1
  C  C43  1  0.81891105  0.78850422  0.30510606  1
  C  C44  1  0.98096920  0.18104776  0.30026528  1
  C  C45  1  0.22836294  0.19042278  0.80695596  1
  C  C46  1  0.97006076  0.77725529  0.80377551  1
  C  C47  1  0.80581151  0.02279396  0.80332353  1
  C  C48  1  0.79021521  0.97820456  0.69278658  1
  C  C49  1  0.17739253  0.19597219  0.69827897  1
  C  C50  1  0.02105264  0.81623449  0.69878294  1
  C  C51  1  0.78452245  0.81510038  0.19629900  1
  C  C52  1  0.03075851  0.22675820  0.19081699  1
  C  C53  1  0.19128846  0.96505754  0.19815986  1
  C  C54  1  0.87684923  0.35592809  0.63624243  1
  C  C55  1  0.48285715  0.12387484  0.63938595  1
  C  C56  1  0.64920425  0.51721462  0.63463041  1
  C  C57  1  0.87331459  0.51772428  0.13941935  1
  C  C58  1  0.64585359  0.12494968  0.13625597  1
  C  C59  1  0.48297453  0.34788153  0.13430881  1
  C  C60  1  0.44310909  0.30859161  0.02393095  1
  C  C61  1  0.85565884  0.54545743  0.02944865  1
  C  C62  1  0.69334207  0.13871622  0.03084445  1
  C  C63  1  0.46693097  0.15216625  0.53042171  1
  C  C64  1  0.68776632  0.54611846  0.52501416  1
  C  C65  1  0.85358144  0.30973859  0.53141444  1
  C  C66  1  0.55206541  0.69346924  0.97034883  1
  C  C67  1  0.14396494  0.44427169  0.97363529  1
  C  C68  1  0.31346206  0.85869844  0.96910355  1
  C  C69  1  0.56182107  0.85353552  0.47367198  1
  C  C70  1  0.30161503  0.44369913  0.47063735  1
  C  C71  1  0.14251468  0.69305904  0.47004584  1
  C  C72  1  0.12090048  0.64252304  0.35994081  1
  C  C73  1  0.51068695  0.86525919  0.36539461  1
  C  C74  1  0.35897247  0.48280180  0.36611605  1
  C  C75  1  0.12388024  0.48026281  0.86340192  1
  C  C76  1  0.35893158  0.88864656  0.85759147  1
  C  C77  1  0.52521256  0.64018538  0.86478448  1
  C  C78  1  0.01236191  0.82814264  0.40922331  1
  C  C79  1  0.80836128  0.97890204  0.40868980  1
  C  C80  1  0.18231222  0.19652314  0.40893757  1
  C  C81  1  0.02307721  0.19063015  0.91287115  1
  C  C82  1  0.16920568  0.98512758  0.91159365  1
  C  C83  1  0.80548622  0.81995350  0.91175437  1
  C  C84  1  0.97038498  0.17329159  0.58832868  1
  C  C85  1  0.19200142  0.02221555  0.58947246  1
  C  C86  1  0.82476203  0.81320638  0.58789124  1
  C  C87  1  0.98261543  0.81200160  0.08917751  1
  C  C88  1  0.82476427  0.02442007  0.08892394  1
  C  C89  1  0.18397518  0.17698166  0.08748087  1
  C  C90  1  0.68047911  0.16242314  0.74244312  1
  C  C91  1  0.47501390  0.31209408  0.74208318  1
  C  C92  1  0.84779670  0.53027994  0.74221482  1
  C  C93  1  0.69255242  0.52688340  0.24490915  1
  C  C94  1  0.83678347  0.31721288  0.24484348  1
  C  C95  1  0.46937889  0.15340958  0.24499372  1
  C  C96  1  0.64224022  0.50791807  0.92132546  1
  C  C97  1  0.85473748  0.35127438  0.92165514  1
  C  C98  1  0.49044714  0.15183177  0.91953237  1
  C  C99  1  0.64573581  0.14240445  0.42288739  1
  C  C100  1  0.49261342  0.36090787  0.42150726  1
  C  C101  1  0.85095766  0.50768740  0.42083903  1
  C  C102  1  0.35297615  0.49939828  0.08042781  1
  C  C103  1  0.13818204  0.63772727  0.08219362  1
  C  C104  1  0.51154072  0.86412274  0.08056483  1
  C  C105  1  0.36203746  0.86255721  0.58064560  1
  C  C106  1  0.50259462  0.64885303  0.57932965  1
  C  C107  1  0.13371635  0.48605135  0.57896835  1
  C  C108  1  0.31154462  0.84244163  0.25791346  1
  C  C109  1  0.52168979  0.68204744  0.25864640  1
  C  C110  1  0.15672300  0.48266235  0.25653892  1
  C  C111  1  0.31070311  0.47563952  0.75319620  1
  C  C112  1  0.15929819  0.69646172  0.75221969  1
  C  C113  1  0.51703464  0.84106235  0.75136899  1
