# generated using pymatgen
data_Cu11NiC62
_symmetry_space_group_name_H-M   'P 1'
_cell_length_a   17.51458236
_cell_length_b   8.76122550
_cell_length_c   22.58591564
_cell_angle_alpha   90.00780323
_cell_angle_beta   89.95358177
_cell_angle_gamma   119.96646377
_symmetry_Int_Tables_number   1
_chemical_formula_structural   Cu11NiC62
_chemical_formula_sum   'Cu33 Ni3 C186'
_cell_volume   3002.47553855
_cell_formula_units_Z   3
loop_
 _symmetry_equiv_pos_site_id
 _symmetry_equiv_pos_as_xyz
  1  'x, y, z'
loop_
 _atom_site_type_symbol
 _atom_site_label
 _atom_site_symmetry_multiplicity
 _atom_site_fract_x
 _atom_site_fract_y
 _atom_site_fract_z
 _atom_site_occupancy
  C  C0  1  0.31793969  0.99841334  0.25233938  1
  C  C1  1  0.81822787  0.99940898  0.24884320  1
  C  C2  1  0.18112404  0.36565302  0.25736293  1
  C  C3  1  0.68319351  0.36789892  0.25401577  1
  C  C4  1  0.68131250  0.99904102  0.75137433  1
  C  C5  1  0.98355210  0.67359490  0.92206824  1
  C  C6  1  0.00614480  0.01530873  0.49610051  1
  C  C7  1  0.50499680  0.01303359  0.49660072  1
  C  C8  1  0.99701875  0.99834554  0.00062769  1
  C  C9  1  0.50846975  0.00824444  0.00009244  1
  C  C10  1  0.33593387  0.33772233  0.82754627  1
  C  C11  1  0.82833571  0.32790237  0.83470027  1
  C  C12  1  0.33641131  0.34594755  0.33401044  1
  C  C13  1  0.83687597  0.34615050  0.33263562  1
  C  C14  1  0.15688520  0.66299665  0.16457126  1
  C  C15  1  0.66549374  0.66710704  0.16208352  1
  C  C16  1  0.16626590  0.66357109  0.65986869  1
  C  C17  1  0.66521187  0.65377772  0.66566578  1
  C  C18  1  0.00256569  0.00346283  0.35434132  1
  C  C19  1  0.50286834  0.00282237  0.35466565  1
  C  C20  1  0.99849125  0.00357391  0.85138694  1
  C  C21  1  0.50451915  0.00101786  0.85058083  1
  C  C22  1  0.99908514  0.00409796  0.64628955  1
  C  C23  1  0.50058416  0.00161378  0.64656231  1
  C  C24  1  0.99737139  0.99247313  0.14717184  1
  C  C25  1  0.50387530  0.00245447  0.14818393  1
  C  C26  1  0.33471373  0.33665083  0.68342424  1
  C  C27  1  0.83523904  0.33588978  0.68335908  1
  C  C28  1  0.33672286  0.34108886  0.18399596  1
  C  C29  1  0.83565028  0.33871513  0.17954614  1
  C  C30  1  0.82673228  0.32400853  0.98515076  1
  C  C31  1  0.16217299  0.66662970  0.01989605  1
  C  C32  1  0.67183267  0.67365069  0.01789810  1
  C  C33  1  0.16499436  0.65777309  0.51697243  1
  C  C34  1  0.66454073  0.65817156  0.51748939  1
  C  C35  1  0.16432275  0.65806228  0.32115734  1
  C  C36  1  0.66526546  0.65963715  0.32090933  1
  C  C37  1  0.66789377  0.66394447  0.81639517  1
  C  C38  1  0.33337606  0.32882882  0.97950051  1
  C  C39  1  0.33009752  0.33448675  0.47866367  1
  C  C40  1  0.83044234  0.33521583  0.47838738  1
  C  C41  1  0.16745948  0.67492124  0.81242761  1
  Ni  Ni42  1  0.16198913  0.95717247  0.91999040  1
  Ni  Ni43  1  0.15818694  0.37196979  0.41520974  1
  Ni  Ni44  1  0.65807140  0.37321407  0.41522533  1
  Cu  Cu45  1  0.14541508  0.99695382  0.24882314  1
  Cu  Cu46  1  0.64548160  0.99590520  0.24931135  1
  Cu  Cu47  1  0.35560160  0.71046626  0.24892183  1
  Cu  Cu48  1  0.85519760  0.70874286  0.24983259  1
  Cu  Cu49  1  0.99940030  0.29254361  0.24859590  1
  Cu  Cu50  1  0.49901289  0.29220895  0.24904001  1
  Cu  Cu51  1  0.14635005  0.28820168  0.75022913  1
  Cu  Cu52  1  0.64603017  0.29435626  0.74942351  1
  Cu  Cu53  1  0.99698586  0.70740286  0.75020345  1
  Cu  Cu54  1  0.49854408  0.70589832  0.75019099  1
  Cu  Cu55  1  0.35740023  0.00532011  0.75035276  1
  Cu  Cu56  1  0.85423963  0.00007593  0.74974910  1
  Cu  Cu57  1  0.47979785  0.33414413  0.58524559  1
  Cu  Cu58  1  0.98031840  0.33504307  0.58509624  1
  Cu  Cu59  1  0.18722305  0.03892009  0.58525275  1
  Cu  Cu60  1  0.68680472  0.03787728  0.58516059  1
  Cu  Cu61  1  0.33330733  0.62735764  0.58539066  1
  Cu  Cu62  1  0.83354986  0.62738793  0.58534441  1
  Cu  Cu63  1  0.48081181  0.62754643  0.08388159  1
  Cu  Cu64  1  0.98067128  0.62730182  0.08246533  1
  Cu  Cu65  1  0.33331516  0.03750081  0.08545047  1
  Cu  Cu66  1  0.83368252  0.03936218  0.08387423  1
  Cu  Cu67  1  0.18674278  0.33522702  0.08487866  1
  Cu  Cu68  1  0.68475460  0.33363947  0.08420606  1
  Cu  Cu69  1  0.31355246  0.67290518  0.91831801  1
  Cu  Cu70  1  0.81173858  0.66433338  0.91650386  1
  Cu  Cu71  1  0.02092145  0.37259865  0.91786335  1
  Cu  Cu72  1  0.52435782  0.37555948  0.91750184  1
  Cu  Cu73  1  0.66641339  0.95938279  0.91615221  1
  Cu  Cu74  1  0.31232521  0.95499543  0.41678922  1
  Cu  Cu75  1  0.81240512  0.95505468  0.41712666  1
  Cu  Cu76  1  0.02261163  0.67043824  0.41783917  1
  Cu  Cu77  1  0.52205620  0.66952249  0.41780811  1
  C  C78  1  0.10591420  0.02773013  0.30185732  1
  C  C79  1  0.60472409  0.02625631  0.30188949  1
  C  C80  1  0.40738073  0.79020184  0.30276908  1
  C  C81  1  0.90728439  0.79005630  0.30367956  1
  C  C82  1  0.48250706  0.17956690  0.30196068  1
  C  C83  1  0.98383532  0.18100688  0.30183868  1
  C  C84  1  0.10524025  0.18564017  0.80371793  1
  C  C85  1  0.60603922  0.18220805  0.80279303  1
  C  C86  1  0.48557014  0.78782514  0.80374250  1
  C  C87  1  0.98869435  0.78584215  0.80547339  1
  C  C88  1  0.40644691  0.02205066  0.80473759  1
  C  C89  1  0.90725986  0.02568072  0.80325925  1
  C  C90  1  0.39337567  0.97111049  0.69678205  1
  C  C91  1  0.89517067  0.97428061  0.69640928  1
  C  C92  1  0.09297637  0.21677331  0.69666232  1
  C  C93  1  0.59205843  0.21030522  0.69623873  1
  C  C94  1  0.01565844  0.81821377  0.69771814  1
  C  C95  1  0.51424662  0.81900794  0.69724209  1
  C  C96  1  0.39730143  0.81975677  0.19573383  1
  C  C97  1  0.89633236  0.81818697  0.19691905  1
  C  C98  1  0.01548578  0.21102850  0.19600363  1
  C  C99  1  0.51343010  0.21027531  0.19604114  1
  C  C100  1  0.09385097  0.97487302  0.19494762  1
  C  C101  1  0.59335938  0.97141310  0.19534840  1
  C  C102  1  0.43639335  0.35479540  0.63792889  1
  C  C103  1  0.93712384  0.35643308  0.63776901  1
  C  C104  1  0.24199020  0.12429590  0.63752637  1
  C  C105  1  0.73952769  0.12104297  0.63880951  1
  C  C106  1  0.32040083  0.51626785  0.63735810  1
  C  C107  1  0.82118683  0.51642316  0.63728140  1
  C  C108  1  0.43812018  0.51712264  0.13619030  1
  C  C109  1  0.93702535  0.51883036  0.13532637  1
  C  C110  1  0.32107828  0.12353567  0.13811063  1
  C  C111  1  0.82098449  0.11750506  0.13939285  1
  C  C112  1  0.24103973  0.35929022  0.13795249  1
  C  C113  1  0.73632374  0.35752783  0.13963580  1
  C  C114  1  0.23514777  0.31287936  0.03041073  1
  C  C115  1  0.72778961  0.30895649  0.03193457  1
  C  C116  1  0.42247668  0.53359898  0.02985315  1
  C  C117  1  0.92968130  0.54709863  0.02731558  1
  C  C118  1  0.34463129  0.15635079  0.03074002  1
  C  C119  1  0.84612887  0.15060623  0.03162463  1
  C  C120  1  0.23259896  0.15382592  0.53062560  1
  C  C121  1  0.73391021  0.15558391  0.53165177  1
  C  C122  1  0.34455586  0.53489397  0.53084432  1
  C  C123  1  0.84475394  0.53461542  0.53060453  1
  C  C124  1  0.42411586  0.31139087  0.53107631  1
  C  C125  1  0.92448513  0.31184486  0.53072623  1
  C  C126  1  0.27033351  0.68938803  0.97090999  1
  C  C127  1  0.77155828  0.68841959  0.97023612  1
  C  C128  1  0.07641219  0.45463184  0.96973253  1
  C  C129  1  0.57507014  0.45676880  0.97108692  1
  C  C130  1  0.14975340  0.83177387  0.97341635  1
  C  C131  1  0.65362789  0.84758724  0.96838933  1
  C  C132  1  0.26920454  0.85276071  0.46943553  1
  C  C133  1  0.76929781  0.85294840  0.46970412  1
  C  C134  1  0.15362712  0.46637856  0.47353038  1
  C  C135  1  0.65330858  0.46676245  0.47239225  1
  C  C136  1  0.07475783  0.69747791  0.47096117  1
  C  C137  1  0.57450582  0.69773018  0.47095260  1
  C  C138  1  0.05833720  0.63583268  0.36373552  1
  C  C139  1  0.55804565  0.63507563  0.36373295  1
  C  C140  1  0.25992176  0.88968464  0.36143901  1
  C  C141  1  0.76003950  0.89038860  0.36186778  1
  C  C142  1  0.18686424  0.48027363  0.35312529  1
  C  C143  1  0.68634674  0.48000563  0.35371551  1
  C  C144  1  0.06715111  0.49348420  0.86328467  1
  C  C145  1  0.55854619  0.48062931  0.86360964  1
  C  C146  1  0.18262980  0.86302296  0.85896531  1
  C  C147  1  0.67825010  0.88097232  0.86068678  1
  C  C148  1  0.25704969  0.63681090  0.86322608  1
  C  C149  1  0.75801717  0.63663282  0.86309310  1
  C  C150  1  0.00477916  0.81597718  0.41053217  1
  C  C151  1  0.50399587  0.81501612  0.41031425  1
  C  C152  1  0.40056783  0.97649140  0.40989514  1
  C  C153  1  0.90057488  0.97649749  0.41025058  1
  C  C154  1  0.08069220  0.17052635  0.41113648  1
  C  C155  1  0.58159380  0.17282628  0.41145740  1
  C  C156  1  0.01004574  0.19878404  0.90756689  1
  C  C157  1  0.50694165  0.19344405  0.91111496  1
  C  C158  1  0.07843272  0.97816261  0.90755142  1
  C  C159  1  0.58632222  0.97920912  0.91116996  1
  C  C160  1  0.40109525  0.82578051  0.90933117  1
  C  C161  1  0.90172565  0.82335969  0.91022047  1
  C  C162  1  0.48693091  0.17257326  0.58891007  1
  C  C163  1  0.98781803  0.17421525  0.58887588  1
  C  C164  1  0.10002454  0.02705704  0.58862902  1
  C  C165  1  0.60001767  0.02725935  0.58789399  1
  C  C166  1  0.41515887  0.79994785  0.58811311  1
  C  C167  1  0.91579221  0.79978753  0.58812923  1
  C  C168  1  0.48541699  0.79991242  0.08682765  1
  C  C169  1  0.99073111  0.80597199  0.08797456  1
  C  C170  1  0.41467914  0.02816463  0.08747180  1
  C  C171  1  0.91381240  0.02107189  0.08913607  1
  C  C172  1  0.10037536  0.17391779  0.08691750  1
  C  C173  1  0.59573264  0.17274466  0.08929369  1
  C  C174  1  0.34046216  0.15331170  0.74500927  1
  C  C175  1  0.84174703  0.15794125  0.74421521  1
  C  C176  1  0.23634397  0.31560770  0.74443360  1
  C  C177  1  0.73511573  0.30787697  0.74353052  1
  C  C178  1  0.42021119  0.52740537  0.74378847  1
  C  C179  1  0.92197231  0.52754460  0.74403050  1
  C  C180  1  0.34114877  0.52717538  0.24266959  1
  C  C181  1  0.84126930  0.52627289  0.24359008  1
  C  C182  1  0.41755564  0.30735191  0.24222616  1
  C  C183  1  0.91823746  0.30790249  0.24178312  1
  C  C184  1  0.23680714  0.16028300  0.24317731  1
  C  C185  1  0.73609490  0.15890909  0.24369343  1
  C  C186  1  0.32247284  0.50788210  0.92311200  1
  C  C187  1  0.82577676  0.50839567  0.92219466  1
  C  C188  1  0.43096713  0.35842681  0.92603745  1
  C  C189  1  0.93515101  0.36835960  0.92061259  1
  C  C190  1  0.25575707  0.15481542  0.92561616  1
  C  C191  1  0.74650841  0.13758006  0.92240408  1
  C  C192  1  0.32412236  0.14070016  0.42459168  1
  C  C193  1  0.82453421  0.14113189  0.42519643  1
  C  C194  1  0.25416332  0.35260077  0.42861625  1
  C  C195  1  0.75338462  0.35234984  0.42862800  1
  C  C196  1  0.43108826  0.50116835  0.42552606  1
  C  C197  1  0.93093046  0.50102517  0.42559589  1
  C  C198  1  0.18033616  0.49428473  0.07554121  1
  C  C199  1  0.67524420  0.49241791  0.07805080  1
  C  C200  1  0.06945796  0.64223674  0.07940535  1
  C  C201  1  0.56757216  0.64360351  0.07523821  1
  C  C202  1  0.25486199  0.86465152  0.07699142  1
  C  C203  1  0.75360400  0.86197880  0.07794015  1
  C  C204  1  0.17948160  0.86533608  0.57624759  1
  C  C205  1  0.67945772  0.86498126  0.57642191  1
  C  C206  1  0.25517982  0.64717802  0.57809698  1
  C  C207  1  0.75558800  0.64693952  0.57798280  1
  C  C208  1  0.06759051  0.49532919  0.57960735  1
  C  C209  1  0.56693204  0.49419799  0.57942005  1
  C  C210  1  0.15979947  0.84306498  0.25533817  1
  C  C211  1  0.65927524  0.84164281  0.25605263  1
  C  C212  1  0.26549427  0.69426404  0.25248341  1
  C  C213  1  0.76513915  0.69356938  0.25361553  1
  C  C214  1  0.07889299  0.47163751  0.25475256  1
  C  C215  1  0.57821350  0.47047002  0.25497863  1
  C  C216  1  0.15671494  0.47342966  0.75894473  1
  C  C217  1  0.65640764  0.47173632  0.75646140  1
  C  C218  1  0.08090788  0.68539139  0.75700245  1
  C  C219  1  0.58058874  0.69198123  0.75655261  1
  C  C220  1  0.26410169  0.83397561  0.75724205  1
  C  C221  1  0.76299953  0.84296620  0.75551330  1
