# generated using pymatgen
data_Cu4Ni4C9
_symmetry_space_group_name_H-M   'P 1'
_cell_length_a   3.09659345
_cell_length_b   3.09659345
_cell_length_c   26.88789689
_cell_angle_alpha   91.35305955
_cell_angle_beta   88.64694045
_cell_angle_gamma   121.15698789
_symmetry_Int_Tables_number   1
_chemical_formula_structural   Cu4Ni4C9
_chemical_formula_sum   'Cu4 Ni4 C9'
_cell_volume   220.55349816
_cell_formula_units_Z   1
loop_
 _symmetry_equiv_pos_site_id
 _symmetry_equiv_pos_as_xyz
  1  'x, y, z'
loop_
 _atom_site_type_symbol
 _atom_site_label
 _atom_site_symmetry_multiplicity
 _atom_site_fract_x
 _atom_site_fract_y
 _atom_site_fract_z
 _atom_site_occupancy
  C  C0  1  0.15213746  0.84786254  0.31338272  1
  Ni  Ni1  1  0.30739126  0.69260874  0.09870724  1
  Ni  Ni2  1  0.66683855  0.33316145  0.86755495  1
  Ni  Ni3  1  0.69319545  0.30680455  0.63746877  1
  Ni  Ni4  1  0.47490851  0.52509149  0.41515538  1
  Cu  Cu5  1  -0.01373698  0.01373698  0.98307477  1
  Cu  Cu6  1  0.10141517  0.89858483  0.52311769  1
  Cu  Cu7  1  0.66226335  0.33773665  0.21794351  1
  Cu  Cu8  1  0.33066975  0.66933025  0.75201733  1
  C  C9  1  -0.02287425  0.02287425  0.06099893  1
  C  C10  1  -0.00358502  0.00358502  0.90462556  1
  C  C11  1  0.05464488  -0.05464488  0.60094853  1
  C  C12  1  0.14139735  0.85860265  0.44398653  1
  C  C13  1  0.64153672  0.35846328  0.13540284  1
  C  C14  1  0.33586053  0.66413947  0.83009408  1
  C  C15  1  0.33339125  0.66660875  0.67378122  1
  C  C16  1  0.47787901  0.52212099  0.34121893  1
