# generated using pymatgen
data_Cu4Ni4C5
_symmetry_space_group_name_H-M   'P 1'
_cell_length_a   3.94609974
_cell_length_b   7.21771092
_cell_length_c   6.70388167
_cell_angle_alpha   70.15179408
_cell_angle_beta   90.30240387
_cell_angle_gamma   66.96001622
_symmetry_Int_Tables_number   1
_chemical_formula_structural   Cu4Ni4C5
_chemical_formula_sum   'Cu4 Ni4 C5'
_cell_volume   163.15103823
_cell_formula_units_Z   1
loop_
 _symmetry_equiv_pos_site_id
 _symmetry_equiv_pos_as_xyz
  1  'x, y, z'
loop_
 _atom_site_type_symbol
 _atom_site_label
 _atom_site_symmetry_multiplicity
 _atom_site_fract_x
 _atom_site_fract_y
 _atom_site_fract_z
 _atom_site_occupancy
  C  C0  1  0.42864434  0.91848052  0.97575870  1
  C  C1  1  0.05641608  0.78237725  0.69973621  1
  C  C2  1  0.16524312  0.61793648  0.33756458  1
  C  C3  1  0.86623833  0.37961522  0.67133480  1
  C  C4  1  0.91678297  0.21748043  0.28349420  1
  Ni  Ni5  1  0.95368481  0.90773533  0.37745649  1
  Ni  Ni6  1  0.30127410  0.47718286  0.69295161  1
  Ni  Ni7  1  0.71205569  0.54944968  0.31641522  1
  Ni  Ni8  1  0.06140008  0.10870623  0.62617080  1
  Cu  Cu9  1  0.62322102  0.70892757  0.77177380  1
  Cu  Cu10  1  0.00090953  0.81954973  0.99879850  1
  Cu  Cu11  1  0.04991977  0.19353579  0.01138670  1
  Cu  Cu12  1  0.37657216  0.31731691  0.25678839  1
