# generated using pymatgen
data_Cu12Ni3C2
_symmetry_space_group_name_H-M   'P 1'
_cell_length_a   8.82604427
_cell_length_b   8.82604398
_cell_length_c   23.56399431
_cell_angle_alpha   90.00000000
_cell_angle_beta   90.00000000
_cell_angle_gamma   120.00000105
_symmetry_Int_Tables_number   1
_chemical_formula_structural   Cu12Ni3C2
_chemical_formula_sum   'Cu72 Ni18 C12'
_cell_volume   1589.68737411
_cell_formula_units_Z   6
loop_
 _symmetry_equiv_pos_site_id
 _symmetry_equiv_pos_as_xyz
  1  'x, y, z'
loop_
 _atom_site_type_symbol
 _atom_site_label
 _atom_site_symmetry_multiplicity
 _atom_site_fract_x
 _atom_site_fract_y
 _atom_site_fract_z
 _atom_site_occupancy
  C  C0  1  0.00000000  0.00000000  0.84547488  1
  C  C1  1  0.66666700  0.33333300  0.98785812  1
  C  C2  1  0.33333300  0.66666700  0.03279267  1
  C  C3  1  0.33333300  0.66666700  0.52144765  1
  C  C4  1  0.33333300  0.66666700  0.31188635  1
  C  C5  1  0.33333300  0.66666700  0.80054133  1
  C  C6  1  0.00000000  0.00000000  0.34940789  1
  C  C7  1  0.00000000  0.00000000  0.64312725  1
  C  C8  1  0.00000000  0.00000000  0.15380208  1
  C  C9  1  0.66666700  0.33333300  0.67953092  1
  C  C10  1  0.66666700  0.33333300  0.19020575  1
  C  C11  1  0.66666700  0.33333300  0.48392511  1
  Ni  Ni12  1  0.28692529  0.02359807  0.24738459  1
  Ni  Ni13  1  0.73667277  0.71307471  0.24738459  1
  Ni  Ni14  1  0.97640193  0.26332723  0.24738459  1
  Ni  Ni15  1  0.30656063  0.27959176  0.73570289  1
  Ni  Ni16  1  0.97303113  0.69343937  0.73570289  1
  Ni  Ni17  1  0.72040824  0.02696887  0.73570289  1
  Ni  Ni18  1  0.92999423  0.30973493  0.58594841  1
  Ni  Ni19  1  0.37974171  0.07000577  0.58594841  1
  Ni  Ni20  1  0.69026507  0.62025829  0.58594841  1
  Ni  Ni21  1  0.94625876  0.63989363  0.09763011  1
  Ni  Ni22  1  0.69363587  0.05374124  0.09763011  1
  Ni  Ni23  1  0.36010637  0.30636413  0.09763011  1
  Ni  Ni24  1  0.62970497  0.66666700  0.91666700  1
  Ni  Ni25  1  0.03696103  0.37029503  0.91666700  1
  Ni  Ni26  1  0.33333300  0.96303897  0.91666700  1
  Ni  Ni27  1  0.65817261  0.99150661  0.41666700  1
  Ni  Ni28  1  0.33333300  0.34182739  0.41666700  1
  Ni  Ni29  1  0.00849339  0.66666700  0.41666700  1
  Cu  Cu30  1  0.20488090  0.04697122  0.29973936  1
  Cu  Cu31  1  0.84209032  0.79511910  0.29973936  1
  Cu  Cu32  1  0.95302878  0.15790968  0.29973936  1
  Cu  Cu33  1  0.24905015  0.19121934  0.79153991  1
  Cu  Cu34  1  0.94216919  0.75094985  0.79153991  1
  Cu  Cu35  1  0.80878066  0.05783081  0.79153991  1
  Cu  Cu36  1  0.82431234  0.00133660  0.69105651  1
  Cu  Cu37  1  0.17702426  0.17568766  0.69105651  1
  Cu  Cu38  1  -0.00133660  0.82297574  0.69105651  1
  Cu  Cu39  1  0.81842412  0.82584989  0.19752767  1
  Cu  Cu40  1  0.00742577  0.18157588  0.19752767  1
  Cu  Cu41  1  0.17415011  0.99257423  0.19752767  1
  Cu  Cu42  1  0.84824288  0.34075877  0.63580533  1
  Cu  Cu43  1  0.49251689  0.15175712  0.63580533  1
  Cu  Cu44  1  0.65924123  0.50748311  0.63580533  1
  Cu  Cu45  1  0.84235466  0.51035726  0.14227649  1
  Cu  Cu46  1  0.66800360  0.15764534  0.14227649  1
  Cu  Cu47  1  0.48964274  0.33199640  0.14227649  1
  Cu  Cu48  1  0.41761685  0.27550219  0.04179309  1
  Cu  Cu49  1  0.85788634  0.58238315  0.04179309  1
  Cu  Cu50  1  0.72449781  0.14211366  0.04179309  1
  Cu  Cu51  1  0.46178610  0.17542332  0.53359364  1
  Cu  Cu52  1  0.71363822  0.53821390  0.53359364  1
  Cu  Cu53  1  0.82457668  0.28636178  0.53359364  1
  Cu  Cu54  1  0.53897964  0.67467615  0.96859755  1
  Cu  Cu55  1  0.13569551  0.46102036  0.96859755  1
  Cu  Cu56  1  0.32532385  0.86430449  0.96859755  1
  Cu  Cu57  1  0.58376713  0.86922415  0.46555695  1
  Cu  Cu58  1  0.28545602  0.41623287  0.46555695  1
  Cu  Cu59  1  0.13077585  0.71454398  0.46555695  1
  Cu  Cu60  1  0.08289887  0.61879002  0.36777705  1
  Cu  Cu61  1  0.53589015  0.91710113  0.36777705  1
  Cu  Cu62  1  0.38120998  0.46410985  0.36777705  1
  Cu  Cu63  1  0.12768636  0.46902951  0.86473645  1
  Cu  Cu64  1  0.34134215  0.87231364  0.86473645  1
  Cu  Cu65  1  0.53097049  0.65865785  0.86473645  1
  Cu  Cu66  1  0.98865072  0.81933155  0.40062620  1
  Cu  Cu67  1  0.83068083  0.01134928  0.40062620  1
  Cu  Cu68  1  0.18066845  0.16931917  0.40062620  1
  Cu  Cu69  1  0.02144906  0.19693337  0.91556447  1
  Cu  Cu70  1  0.17548431  0.97855094  0.91556447  1
  Cu  Cu71  1  0.80306663  0.82451569  0.91556447  1
  Cu  Cu72  1  0.94920454  0.15248762  0.59408365  1
  Cu  Cu73  1  0.20328308  0.05079546  0.59408365  1
  Cu  Cu74  1  0.84751238  0.79671692  0.59408365  1
  Cu  Cu75  1  0.96988615  0.81472139  0.10735344  1
  Cu  Cu76  1  0.84483524  0.03011385  0.10735344  1
  Cu  Cu77  1  0.18527861  0.15516476  0.10735344  1
  Cu  Cu78  1  0.69678085  0.17816824  0.72597956  1
  Cu  Cu79  1  0.48138839  0.30321915  0.72597956  1
  Cu  Cu80  1  0.82183176  0.51861161  0.72597956  1
  Cu  Cu81  1  0.71746246  0.53661608  0.23924935  1
  Cu  Cu82  1  0.81915462  0.28253754  0.23924935  1
  Cu  Cu83  1  0.46338392  0.18084538  0.23924935  1
  Cu  Cu84  1  0.64521794  0.50881731  0.91776853  1
  Cu  Cu85  1  0.86360037  0.35478206  0.91776853  1
  Cu  Cu86  1  0.49118269  0.13639963  0.91776853  1
  Cu  Cu87  1  0.67801628  0.16401383  0.43270680  1
  Cu  Cu88  1  0.48599855  0.32198372  0.43270680  1
  Cu  Cu89  1  0.83598617  0.51400145  0.43270680  1
  Cu  Cu90  1  0.34879531  0.46720788  0.09574784  1
  Cu  Cu91  1  0.11841157  0.65120469  0.09574784  1
  Cu  Cu92  1  0.53279212  0.88158843  0.09574784  1
  Cu  Cu93  1  0.36066431  0.89442579  0.58047304  1
  Cu  Cu94  1  0.53376048  0.63933569  0.58047304  1
  Cu  Cu95  1  0.10557421  0.46623952  0.58047304  1
  Cu  Cu96  1  0.30600169  0.86709448  0.25286096  1
  Cu  Cu97  1  0.56109179  0.69399831  0.25286096  1
  Cu  Cu98  1  0.13290552  0.43890821  0.25286096  1
  Cu  Cu99  1  0.31787069  0.45174557  0.73758616  1
  Cu  Cu100  1  0.13387388  0.68212931  0.73758616  1
  Cu  Cu101  1  0.54825443  0.86612612  0.73758616  1
