# generated using pymatgen
data_Cu2Ni5C32
_symmetry_space_group_name_H-M   'P 1'
_cell_length_a   18.57088210
_cell_length_b   9.22579504
_cell_length_c   23.00144533
_cell_angle_alpha   90.15519571
_cell_angle_beta   88.79115123
_cell_angle_gamma   119.84495337
_symmetry_Int_Tables_number   1
_chemical_formula_structural   Cu2Ni5C32
_chemical_formula_sum   'Cu12 Ni30 C192'
_cell_volume   3417.30941363
_cell_formula_units_Z   6
loop_
 _symmetry_equiv_pos_site_id
 _symmetry_equiv_pos_as_xyz
  1  'x, y, z'
loop_
 _atom_site_type_symbol
 _atom_site_label
 _atom_site_symmetry_multiplicity
 _atom_site_fract_x
 _atom_site_fract_y
 _atom_site_fract_z
 _atom_site_occupancy
  Ni  Ni0  1  0.18252545  0.35669376  0.24216368  1
  Ni  Ni1  1  0.68246823  0.35744785  0.24162762  1
  Ni  Ni2  1  0.18247520  0.00858260  0.74120956  1
  Ni  Ni3  1  0.68123115  0.00625653  0.74126475  1
  Ni  Ni4  1  0.65262563  0.34597938  0.58097102  1
  Ni  Ni5  1  0.02078019  0.70165138  0.57428937  1
  Ni  Ni6  1  0.51636365  0.67960906  0.58075871  1
  Ni  Ni7  1  0.32416468  0.97729198  0.58671532  1
  Ni  Ni8  1  0.15318985  0.96367466  0.08116334  1
  Ni  Ni9  1  0.65322155  0.96357178  0.08079804  1
  Ni  Ni10  1  0.32454408  0.67602758  0.08457746  1
  Ni  Ni11  1  0.82484323  0.67692035  0.08442808  1
  Ni  Ni12  1  0.01994668  0.35566131  0.08059333  1
  Ni  Ni13  1  0.51984558  0.35591028  0.08044187  1
  Ni  Ni14  1  0.49062439  0.67987626  0.91329277  1
  Ni  Ni15  1  0.99049143  0.67976046  0.91443888  1
  Ni  Ni16  1  0.35028214  0.66166975  0.40923763  1
  Ni  Ni17  1  0.84986457  0.67358724  0.40771442  1
  Ni  Ni18  1  0.01957708  0.03146789  0.49478500  1
  Ni  Ni19  1  0.51707066  0.01394962  0.49307786  1
  Ni  Ni20  1  0.01316957  0.03343527  0.99142783  1
  Ni  Ni21  1  0.51347134  0.03383613  0.99095079  1
  Ni  Ni22  1  0.34549583  0.33296056  0.82968245  1
  Ni  Ni23  1  0.84421372  0.33037208  0.83169707  1
  Ni  Ni24  1  0.34882517  0.33970969  0.33234650  1
  Ni  Ni25  1  0.85111699  0.33863709  0.32798882  1
  Ni  Ni26  1  0.16661300  0.67949914  0.16339173  1
  Ni  Ni27  1  0.66684953  0.67948549  0.16234605  1
  Ni  Ni28  1  0.17688112  0.65338713  0.66534414  1
  Ni  Ni29  1  0.67419464  0.67144583  0.65950112  1
  Cu  Cu30  1  0.00259023  0.99899420  0.35326786  1
  Cu  Cu31  1  0.50077738  0.99727572  0.35316393  1
  Cu  Cu32  1  0.99703473  0.00929835  0.85233021  1
  Cu  Cu33  1  0.49772779  0.01074300  0.85178689  1
  Cu  Cu34  1  0.33813293  0.34077842  0.68624191  1
  Cu  Cu35  1  0.83629339  0.33441266  0.68756241  1
  Cu  Cu36  1  0.33898604  0.33948970  0.18701616  1
  Cu  Cu37  1  0.83891643  0.33950730  0.18647076  1
  Cu  Cu38  1  0.16635978  0.66496915  0.01483500  1
  Cu  Cu39  1  0.66644004  0.66509172  0.01456126  1
  Cu  Cu40  1  0.16524807  0.66343565  0.51686254  1
  Cu  Cu41  1  0.66634163  0.67344722  0.51801634  1
  C  C42  1  0.99378560  0.97975746  0.64780060  1
  C  C43  1  0.49114070  0.98132014  0.64350732  1
  C  C44  1  0.99213458  0.99985719  0.14521654  1
  C  C45  1  0.49176533  0.99984276  0.14492756  1
  C  C46  1  0.33413921  0.32233637  0.98195152  1
  C  C47  1  0.83397510  0.32216647  0.98203254  1
  C  C48  1  0.33447251  0.34020517  0.48345289  1
  C  C49  1  0.82840089  0.34284828  0.47831188  1
  C  C50  1  0.15985494  0.63939951  0.31404988  1
  C  C51  1  0.65914072  0.64342309  0.31312684  1
  C  C52  1  0.16241793  0.68126007  0.81420873  1
  C  C53  1  0.66098962  0.68077219  0.81311012  1
  C  C54  1  0.34765807  0.70866984  0.25440244  1
  C  C55  1  0.84814373  0.70864427  0.25484024  1
  C  C56  1  -0.00000623  0.29298327  0.25106563  1
  C  C57  1  0.49971893  0.29281285  0.25121224  1
  C  C58  1  0.00017368  0.70318238  0.75468051  1
  C  C59  1  0.49875550  0.70626802  0.75352621  1
  C  C60  1  0.34800474  0.98924496  0.75083096  1
  C  C61  1  0.84801179  0.98805583  0.75164558  1
  C  C62  1  0.47905489  0.32461098  0.58162425  1
  C  C63  1  0.18368270  0.04659497  0.58667554  1
  C  C64  1  0.68452780  0.04415742  0.58775362  1
  C  C65  1  0.33157318  0.62741806  0.58451306  1
  C  C66  1  0.83500539  0.63112726  0.58379273  1
  C  C67  1  0.47951744  0.63325405  0.08017963  1
  C  C68  1  0.97954980  0.63352340  0.08012001  1
  C  C69  1  0.33373586  0.03911917  0.08446127  1
  C  C70  1  0.83386770  0.03891410  0.08451407  1
  C  C71  1  0.18528521  0.32454970  0.08707854  1
  C  C72  1  0.68521584  0.32471763  0.08715083  1
  C  C73  1  0.01554684  0.37337952  0.92036430  1
  C  C74  1  0.51582167  0.37391246  0.92032433  1
  C  C75  1  0.17070782  0.97664716  0.91950968  1
  C  C76  1  0.67059268  0.97626335  0.91927175  1
  C  C77  1  0.17123145  0.36318292  0.41857154  1
  C  C78  1  0.66682461  0.36800859  0.41929370  1
  C  C79  1  0.01642210  0.65632450  0.42085299  1
  C  C80  1  0.51533374  0.65586646  0.42037896  1
  C  C81  1  0.14361522  0.98537954  0.24670022  1
  C  C82  1  0.64385143  0.98569274  0.24724345  1
  C  C83  1  0.14215720  0.29803637  0.74785405  1
  C  C84  1  0.64455846  0.30309310  0.74758473  1
  C  C85  1  0.97732800  0.31971763  0.58149207  1
  C  C86  1  0.31214939  0.65355824  0.91519915  1
  C  C87  1  0.81219838  0.65330061  0.91529276  1
  C  C88  1  0.30967263  0.96497242  0.41548671  1
  C  C89  1  0.81115370  0.96873725  0.41452252  1
  C  C90  1  0.10304257  0.00544582  0.29892682  1
  C  C91  1  0.60312334  0.00547111  0.29943824  1
  C  C92  1  0.39870480  0.78491263  0.31188192  1
  C  C93  1  0.89859215  0.78433114  0.31259785  1
  C  C94  1  0.50185364  0.19336897  0.30609178  1
  C  C95  1  0.00065012  0.19136352  0.30575937  1
  C  C96  1  0.10498558  0.19925466  0.80120504  1
  C  C97  1  0.60522020  0.19786094  0.79929672  1
  C  C98  1  0.50027584  0.79880543  0.81218972  1
  C  C99  1  0.99729284  0.79294258  0.81267408  1
  C  C100  1  0.40476981  0.01735533  0.80445074  1
  C  C101  1  0.90374702  0.01839114  0.80602007  1
  C  C102  1  0.40009719  0.97211307  0.69041164  1
  C  C103  1  0.90437863  0.97528480  0.69302937  1
  C  C104  1  0.08941410  0.21025371  0.69673673  1
  C  C105  1  0.59538598  0.22342090  0.69462772  1
  C  C106  1  0.01341798  0.83204963  0.69574712  1
  C  C107  1  0.51248179  0.83347087  0.69476997  1
  C  C108  1  0.40378643  0.83414330  0.19530699  1
  C  C109  1  0.90415162  0.83374795  0.19575700  1
  C  C110  1  0.01371562  0.19846590  0.19114333  1
  C  C111  1  0.51404519  0.19872976  0.19136450  1
  C  C112  1  0.09363785  0.96861300  0.19380203  1
  C  C113  1  0.59423741  0.96772171  0.19422183  1
  C  C114  1  0.44002150  0.36580723  0.63690925  1
  C  C115  1  0.93975324  0.34302351  0.63498464  1
  C  C116  1  0.23666468  0.11263940  0.64435401  1
  C  C117  1  0.73261290  0.12067936  0.64628377  1
  C  C118  1  0.31701619  0.51892543  0.64061139  1
  C  C119  1  0.82575004  0.51497596  0.63694057  1
  C  C120  1  0.43911446  0.50958874  0.13430278  1
  C  C121  1  0.93913017  0.50981000  0.13422045  1
  C  C122  1  0.31028145  0.11464568  0.13828870  1
  C  C123  1  0.81020518  0.11444138  0.13827002  1
  C  C124  1  0.23631656  0.35915232  0.14537061  1
  C  C125  1  0.73607263  0.35909642  0.14555872  1
  C  C126  1  0.24063397  0.30201377  0.03118846  1
  C  C127  1  0.74068956  0.30214639  0.03135063  1
  C  C128  1  0.41806497  0.54000475  0.02271372  1
  C  C129  1  0.91815179  0.53984450  0.02265508  1
  C  C130  1  0.35196060  0.16820718  0.02629544  1
  C  C131  1  0.85195296  0.16820127  0.02638399  1
  C  C132  1  0.23912567  0.17237421  0.52970680  1
  C  C133  1  0.74167457  0.17628841  0.53051653  1
  C  C134  1  0.34776875  0.53456225  0.52554865  1
  C  C135  1  0.85047168  0.53700749  0.52339108  1
  C  C136  1  0.41491796  0.30095016  0.52619460  1
  C  C137  1  0.92634927  0.30293899  0.53026624  1
  C  C138  1  0.27850069  0.67301805  0.97147193  1
  C  C139  1  0.77858619  0.67248182  0.97173786  1
  C  C140  1  0.06145939  0.44955259  0.98024429  1
  C  C141  1  0.56154528  0.44912382  0.98038441  1
  C  C142  1  0.16014546  0.86952572  0.97667095  1
  C  C143  1  0.66059721  0.87010069  0.97664304  1
  C  C144  1  0.27396374  0.87522870  0.47093466  1
  C  C145  1  0.77484240  0.87067271  0.46816397  1
  C  C146  1  0.16542686  0.46631515  0.47185436  1
  C  C147  1  0.66613534  0.46100878  0.47703489  1
  C  C148  1  0.06362893  0.68258695  0.48044359  1
  C  C149  1  0.56481171  0.68393161  0.47899843  1
  C  C150  1  0.07458401  0.64365916  0.36426774  1
  C  C151  1  0.57453096  0.64640708  0.36293828  1
  C  C152  1  0.25674315  0.87047017  0.36598885  1
  C  C153  1  0.75885743  0.88300603  0.36386034  1
  C  C154  1  0.17994187  0.48897313  0.35778889  1
  C  C155  1  0.67976209  0.49572499  0.36061455  1
  C  C156  1  0.07499763  0.50891370  0.86444970  1
  C  C157  1  0.57493603  0.50932342  0.86448874  1
  C  C158  1  0.18035305  0.86724334  0.86022026  1
  C  C159  1  0.67997315  0.86752327  0.85992885  1
  C  C160  1  0.25942623  0.64654615  0.86638238  1
  C  C161  1  0.76019412  0.64650892  0.86653448  1
  C  C162  1  0.99116711  0.79899419  0.41389901  1
  C  C163  1  0.49250945  0.80261133  0.41404851  1
  C  C164  1  0.39266027  0.97970351  0.41078870  1
  C  C165  1  0.89448483  0.98700977  0.40920093  1
  C  C166  1  0.09366979  0.17955872  0.41412945  1
  C  C167  1  0.59236578  0.18229846  0.41431129  1
  C  C168  1  0.99840899  0.18663173  0.91503457  1
  C  C169  1  0.49862957  0.18721151  0.91480001  1
  C  C170  1  0.08694979  0.98465123  0.91249376  1
  C  C171  1  0.58701270  0.98545663  0.91290061  1
  C  C172  1  0.39794379  0.79657967  0.91043684  1
  C  C173  1  0.89832578  0.79645181  0.91110147  1
  C  C174  1  0.47971066  0.14468162  0.58842941  1
  C  C175  1  0.98608718  0.16765894  0.58614296  1
  C  C176  1  0.09029161  0.03480342  0.59319112  1
  C  C177  1  0.59419608  0.04759064  0.59070015  1
  C  C178  1  0.42641433  0.80642997  0.58946314  1
  C  C179  1  0.92589499  0.81260710  0.59072599  1
  C  C180  1  0.48081030  0.81529084  0.09037181  1
  C  C181  1  0.98060809  0.81518138  0.09023362  1
  C  C182  1  0.42522720  0.04321945  0.09088256  1
  C  C183  1  0.92517880  0.04276539  0.09102880  1
  C  C184  1  0.09395987  0.14546804  0.09158822  1
  C  C185  1  0.59403177  0.14549371  0.09166059  1
  C  C186  1  0.32287335  0.13242518  0.74650172  1
  C  C187  1  0.82315065  0.13159389  0.74619594  1
  C  C188  1  0.22432888  0.31294839  0.74231570  1
  C  C189  1  0.72785642  0.31933593  0.74358094  1
  C  C190  1  0.42260387  0.52144938  0.75047130  1
  C  C191  1  0.92570117  0.51777271  0.74799928  1
  C  C192  1  0.32420449  0.51653396  0.24707821  1
  C  C193  1  0.82450225  0.51592598  0.24769223  1
  C  C194  1  0.42340453  0.32445388  0.24954638  1
  C  C195  1  0.92358639  0.32456869  0.24894710  1
  C  C196  1  0.22551864  0.13660244  0.24309485  1
  C  C197  1  0.72597280  0.13619534  0.24369336  1
  C  C198  1  0.31683550  0.49650633  0.91606880  1
  C  C199  1  0.81727734  0.49635234  0.91637474  1
  C  C200  1  0.42713511  0.38159660  0.92147108  1
  C  C201  1  0.92708598  0.38160510  0.92126128  1
  C  C202  1  0.25827647  0.15878085  0.92379517  1
  C  C203  1  0.75831198  0.15892541  0.92373944  1
  C  C204  1  0.31712497  0.13326042  0.41751244  1
  C  C205  1  0.81844520  0.13739246  0.42013979  1
  C  C206  1  0.26196272  0.36719414  0.42140478  1
  C  C207  1  0.75982082  0.36945574  0.42182838  1
  C  C208  1  0.42447906  0.47652187  0.42291783  1
  C  C209  1  0.92478727  0.47308794  0.42492699  1
  C  C210  1  0.16924402  0.47989563  0.07751347  1
  C  C211  1  0.66932346  0.48024854  0.07766530  1
  C  C212  1  0.07524984  0.67430086  0.07693843  1
  C  C213  1  0.57527549  0.67415984  0.07691730  1
  C  C214  1  0.26400331  0.84682651  0.07619664  1
  C  C215  1  0.76390998  0.84669094  0.07627126  1
  C  C216  1  0.16568509  0.85627030  0.57799216  1
  C  C217  1  0.66107277  0.85218107  0.58106678  1
  C  C218  1  0.26499723  0.68935723  0.57809675  1
  C  C219  1  0.75676669  0.65641624  0.57846405  1
  C  C220  1  0.06065685  0.47093442  0.57725772  1
  C  C221  1  0.57361000  0.47553292  0.57614900  1
  C  C222  1  0.15102787  0.83209878  0.25139299  1
  C  C223  1  0.65151031  0.83200914  0.25212864  1
  C  C224  1  0.25602761  0.70698020  0.25905171  1
  C  C225  1  0.75627028  0.70617762  0.25939620  1
  C  C226  1  0.09131916  0.48092683  0.25554472  1
  C  C227  1  0.59164824  0.48138943  0.25578370  1
  C  C228  1  0.14922291  0.46627546  0.75249811  1
  C  C229  1  0.65234320  0.47098880  0.75433340  1
  C  C230  1  0.09307992  0.70512871  0.75643044  1
  C  C231  1  0.59165125  0.70339284  0.75616209  1
  C  C232  1  0.25663415  0.80604557  0.75850149  1
  C  C233  1  0.75660916  0.80723650  0.75827501  1
