# generated using pymatgen
data_Cu(NiC11)3
_symmetry_space_group_name_H-M   'P 1'
_cell_length_a   8.99481581
_cell_length_b   9.03846718
_cell_length_c   23.14905666
_cell_angle_alpha   89.63235202
_cell_angle_beta   90.43344412
_cell_angle_gamma   120.15241645
_symmetry_Int_Tables_number   1
_chemical_formula_structural   Cu(NiC11)3
_chemical_formula_sum   'Cu3 Ni9 C99'
_cell_volume   1627.29957806
_cell_formula_units_Z   3
loop_
 _symmetry_equiv_pos_site_id
 _symmetry_equiv_pos_as_xyz
  1  'x, y, z'
loop_
 _atom_site_type_symbol
 _atom_site_label
 _atom_site_symmetry_multiplicity
 _atom_site_fract_x
 _atom_site_fract_y
 _atom_site_fract_z
 _atom_site_occupancy
  Ni  Ni0  1  0.35501353  0.35627297  0.24181846  1
  Ni  Ni1  1  0.63318931  0.62231715  0.75795303  1
  Ni  Ni2  1  0.96876245  0.28774590  0.41840757  1
  Ni  Ni3  1  0.99509854  0.00916574  0.49966590  1
  Ni  Ni4  1  0.99904524  0.98875759  0.00431735  1
  Ni  Ni5  1  0.66078498  0.34305775  0.83306389  1
  Ni  Ni6  1  0.66955754  0.31622968  0.33228577  1
  Ni  Ni7  1  0.30578919  0.65007409  0.16070484  1
  Ni  Ni8  1  0.28889580  0.63755588  0.66803210  1
  Cu  Cu9  1  0.99564230  0.00182203  0.35599443  1
  Cu  Cu10  1  0.67473408  0.33460996  0.68678566  1
  Cu  Cu11  1  0.68792643  0.34601712  0.17977445  1
  C  C12  1  0.00276072  0.30123824  0.25331133  1
  C  C13  1  0.28699628  0.29120553  0.75407972  1
  C  C14  1  0.00865126  0.72072751  0.75049274  1
  C  C15  1  0.96834903  0.33174182  0.58132611  1
  C  C16  1  0.97570983  0.64369442  0.08081879  1
  C  C17  1  0.36771865  0.33339155  0.08467186  1
  C  C18  1  0.62760008  0.67381213  0.91471760  1
  C  C19  1  0.61305004  0.95199106  0.41895909  1
  C  C20  1  0.34529596  0.37546481  0.41814837  1
  C  C21  1  0.00226370  0.99333241  0.85356955  1
  C  C22  1  0.01487880  0.01654039  0.64883811  1
  C  C23  1  0.01109064  0.01305007  0.14521113  1
  C  C24  1  0.66422113  0.36101986  0.98433060  1
  C  C25  1  0.66149847  0.31696570  0.48110669  1
  C  C26  1  0.33849099  0.66119251  0.01907435  1
  C  C27  1  0.33395279  0.65515172  0.51814847  1
  C  C28  1  0.33981668  0.65985209  0.31675087  1
  C  C29  1  0.32152309  0.65617396  0.81426704  1
  C  C30  1  0.29150816  0.98782691  0.25013715  1
  C  C31  1  0.70281316  0.71021114  0.24812647  1
  C  C32  1  0.70873467  0.99354069  0.75195881  1
  C  C33  1  0.36379694  0.02879029  0.58171176  1
  C  C34  1  0.67176463  0.63440150  0.58302330  1
  C  C35  1  0.66773186  0.04071549  0.07895048  1
  C  C36  1  0.03031544  0.36784566  0.91745470  1
  C  C37  1  0.34039520  0.96149302  0.91740287  1
  C  C38  1  0.04163860  0.65881784  0.41879107  1
  C  C39  1  0.20614867  0.00538074  0.30135315  1
  C  C40  1  0.80244938  0.78502666  0.30087619  1
  C  C41  1  0.99304579  0.20528528  0.31320634  1
  C  C42  1  0.19469771  0.18184743  0.81255733  1
  C  C43  1  0.95894019  0.79534982  0.80683533  1
  C  C44  1  0.81318169  0.02189763  0.80471248  1
  C  C45  1  0.78599581  0.96472017  0.69942700  1
  C  C46  1  0.17476111  0.21676727  0.69453855  1
  C  C47  1  0.03187620  0.83262471  0.69113983  1
  C  C48  1  0.78920503  0.81031357  0.19547426  1
  C  C49  1  0.03935527  0.20424586  0.19757422  1
  C  C50  1  0.18569725  0.96156190  0.19677007  1
  C  C51  1  0.87978289  0.35623158  0.63699216  1
  C  C52  1  0.46450982  0.10987187  0.63396563  1
  C  C53  1  0.64376156  0.53481484  0.63655215  1
  C  C54  1  0.90824014  0.52482012  0.13710841  1
  C  C55  1  0.64140856  0.11232985  0.13187937  1
  C  C56  1  0.46440712  0.35370969  0.14545603  1
  C  C57  1  0.45453795  0.29336119  0.02832974  1
  C  C58  1  0.85733577  0.55817414  0.02230913  1
  C  C59  1  0.69551079  0.15039745  0.02710625  1
  C  C60  1  0.44326633  0.13892291  0.52950007  1
  C  C61  1  0.69011218  0.54646883  0.53187037  1
  C  C62  1  0.85531089  0.30728804  0.52074322  1
  C  C63  1  0.53350329  0.70032966  0.96999385  1
  C  C64  1  0.13965556  0.45050914  0.96859802  1
  C  C65  1  0.31130271  0.85306546  0.96868122  1
  C  C66  1  0.52071082  0.84838630  0.47781779  1
  C  C67  1  0.29144256  0.45993165  0.47024096  1
  C  C68  1  0.14477841  0.68644294  0.47171347  1
  C  C69  1  0.11911994  0.62994128  0.36621015  1
  C  C70  1  0.49675866  0.86915192  0.35992114  1
  C  C71  1  0.37545472  0.48160872  0.35651726  1
  C  C72  1  0.10274552  0.47565157  0.86416545  1
  C  C73  1  0.35796528  0.88039256  0.86381398  1
  C  C74  1  0.51504214  0.64822813  0.85489396  1
  C  C75  1  0.01750017  0.80591766  0.41332595  1
  C  C76  1  0.80365028  0.97454052  0.41806947  1
  C  C77  1  0.17990448  0.18429905  0.41648526  1
  C  C78  1  0.01906271  0.19916377  0.91165866  1
  C  C79  1  0.18606875  0.98368930  0.91375668  1
  C  C80  1  0.82139378  0.84844729  0.91195665  1
  C  C81  1  0.98301335  0.15470456  0.58600646  1
  C  C82  1  0.18867070  0.00881919  0.58443576  1
  C  C83  1  0.82920069  0.80626634  0.58682793  1
  C  C84  1  0.97649498  0.82514852  0.09067153  1
  C  C85  1  0.82154424  0.01990976  0.08479318  1
  C  C86  1  0.17139465  0.16776846  0.08492051  1
  C  C87  1  0.68434116  0.14155688  0.74690906  1
  C  C88  1  0.47833913  0.31657110  0.75054243  1
  C  C89  1  0.84106642  0.53086939  0.74652149  1
  C  C90  1  0.66905365  0.53215389  0.24510519  1
  C  C91  1  0.83635178  0.32251314  0.24935061  1
  C  C92  1  0.46013021  0.14723964  0.24582432  1
  C  C93  1  0.64227146  0.49754103  0.91839844  1
  C  C94  1  0.85444875  0.34280340  0.92359976  1
  C  C95  1  0.49954975  0.13161127  0.92220208  1
  C  C96  1  0.64521420  0.15030543  0.42020154  1
  C  C97  1  0.52723884  0.37768234  0.42798396  1
  C  C98  1  0.87150267  0.49812353  0.42297512  1
  C  C99  1  0.35767093  0.50898948  0.07649493  1
  C  C100  1  0.17131148  0.67843230  0.06968151  1
  C  C101  1  0.51352256  0.86893870  0.07271582  1
  C  C102  1  0.34803474  0.85861537  0.57649404  1
  C  C103  1  0.51820255  0.65675730  0.57802777  1
  C  C104  1  0.16096762  0.50717628  0.57701287  1
  C  C105  1  0.31218116  0.83491605  0.25432482  1
  C  C106  1  0.53173426  0.70217964  0.25041681  1
  C  C107  1  0.18793516  0.49342946  0.25441645  1
  C  C108  1  0.31356846  0.48767927  0.75668043  1
  C  C109  1  0.18788467  0.71393160  0.75843085  1
  C  C110  1  0.53858869  0.83381099  0.75642166  1
