# generated using pymatgen
data_CuNi2C11
_symmetry_space_group_name_H-M   'P 1'
_cell_length_a   3.79504055
_cell_length_b   4.00857842
_cell_length_c   14.63409685
_cell_angle_alpha   90.00000000
_cell_angle_beta   90.00000000
_cell_angle_gamma   90.00000000
_symmetry_Int_Tables_number   1
_chemical_formula_structural   CuNi2C11
_chemical_formula_sum   'Cu1 Ni2 C11'
_cell_volume   222.62438347
_cell_formula_units_Z   1
loop_
 _symmetry_equiv_pos_site_id
 _symmetry_equiv_pos_as_xyz
  1  'x, y, z'
loop_
 _atom_site_type_symbol
 _atom_site_label
 _atom_site_symmetry_multiplicity
 _atom_site_fract_x
 _atom_site_fract_y
 _atom_site_fract_z
 _atom_site_occupancy
  Ni  Ni0  1  0.50000000  0.50000000  0.08332292  1
  Ni  Ni1  1  0.50000000  0.50000000  0.78133836  1
  Cu  Cu2  1  0.50000000  0.50000000  0.52104479  1
  C  C3  1  0.50000000  0.00000000  0.27140299  1
  C  C4  1  0.00000000  0.00000000  0.93591781  1
  C  C5  1  0.00000000  0.00000000  0.40916393  1
  C  C6  1  0.00000000  0.00000000  0.64555932  1
  C  C7  1  0.50000000  0.00000000  0.40385603  1
  C  C8  1  0.50000000  0.00000000  0.62102467  1
  C  C9  1  0.00000000  0.50000000  0.41743885  1
  C  C10  1  0.00000000  0.50000000  0.63460958  1
  C  C11  1  0.00000000  0.00000000  0.20504790  1
  C  C12  1  0.00000000  0.00000000  0.80417855  1
  C  C13  1  0.00000000  0.50000000  0.97165030  1
