# generated using pymatgen
data_Cu2Ni2C9
_symmetry_space_group_name_H-M   'P 1'
_cell_length_a   3.33772000
_cell_length_b   3.33734735
_cell_length_c   45.46402000
_cell_angle_alpha   90.00140564
_cell_angle_beta   90.00000000
_cell_angle_gamma   120.00369379
_symmetry_Int_Tables_number   1
_chemical_formula_structural   Cu2Ni2C9
_chemical_formula_sum   'Cu2 Ni2 C9'
_cell_volume   438.56463742
_cell_formula_units_Z   1
loop_
 _symmetry_equiv_pos_site_id
 _symmetry_equiv_pos_as_xyz
  1  'x, y, z'
loop_
 _atom_site_type_symbol
 _atom_site_label
 _atom_site_symmetry_multiplicity
 _atom_site_fract_x
 _atom_site_fract_y
 _atom_site_fract_z
 _atom_site_occupancy
  C  C0  1  0.99994700  0.99989500  0.37757600  1
  C  C1  1  0.66678600  0.33357000  0.05203400  1
  C  C2  1  0.66663500  0.33326700  0.13552200  1
  Ni  Ni3  1  0.33334900  0.66669900  0.09378200  1
  Ni  Ni4  1  0.33329500  0.66659000  0.47570500  1
  Cu  Cu5  1  0.66678500  0.33357000  0.27366800  1
  Cu  Cu6  1  0.66659900  0.33319600  0.65788600  1
  C  C7  1  0.33321200  0.66642500  0.69477200  1
  C  C8  1  0.66654900  0.33309900  0.43848600  1
  C  C9  1  0.66673300  0.33346400  0.51233600  1
  C  C10  1  0.33328500  0.66656900  0.62096500  1
  C  C11  1  0.33344500  0.66689200  0.30727400  1
  C  C12  1  0.33338200  0.66676700  0.24026900  1
