# generated using pymatgen
data_CuNiC19
_symmetry_space_group_name_H-M   'P 1'
_cell_length_a   9.17981383
_cell_length_b   9.16227173
_cell_length_c   22.34290558
_cell_angle_alpha   90.03198977
_cell_angle_beta   90.23356054
_cell_angle_gamma   120.07573358
_symmetry_Int_Tables_number   1
_chemical_formula_structural   CuNiC19
_chemical_formula_sum   'Cu6 Ni6 C114'
_cell_volume   1626.18450412
_cell_formula_units_Z   6
loop_
 _symmetry_equiv_pos_site_id
 _symmetry_equiv_pos_as_xyz
  1  'x, y, z'
loop_
 _atom_site_type_symbol
 _atom_site_label
 _atom_site_symmetry_multiplicity
 _atom_site_fract_x
 _atom_site_fract_y
 _atom_site_fract_z
 _atom_site_occupancy
  C  C0  1  0.64291427  0.02637335  0.24434164  1
  C  C1  1  0.36988055  0.34966847  0.25047665  1
  C  C2  1  0.98335270  0.62054265  0.24398091  1
  C  C3  1  0.62380230  0.64085518  0.76235762  1
  C  C4  1  0.01320548  0.37434949  0.76170843  1
  C  C5  1  0.36054740  0.98588267  0.75564368  1
  C  C6  1  0.29408426  0.35010805  0.57918297  1
  C  C7  1  0.04844609  0.70078644  0.58498055  1
  C  C8  1  0.64841462  0.94644411  0.57862749  1
  C  C9  1  0.31101826  0.95634852  0.08435897  1
  C  C10  1  0.65941647  0.70507276  0.07057591  1
  C  C11  1  0.03289096  0.34913855  0.07551360  1
  C  C12  1  0.97702622  0.68065043  0.90252090  1
  C  C13  1  0.71775139  0.01950574  0.91007317  1
  C  C14  1  0.32384373  0.31140689  0.90560576  1
  C  C15  1  0.97324586  0.28068409  0.41130021  1
  C  C16  1  0.32313881  0.03462266  0.40572927  1
  C  C17  1  0.70134224  0.68252508  0.41211212  1
  C  C18  1  0.99952014  0.01174934  0.49636792  1
  C  C19  1  0.98586055  0.99797251  0.99112158  1
  C  C20  1  0.66990089  0.34141037  0.83133341  1
  C  C21  1  0.66404442  0.32923287  0.32292591  1
  C  C22  1  0.33115966  0.67819855  0.15914759  1
  C  C23  1  0.33315114  0.66505882  0.67029653  1
  Ni  Ni24  1  -0.00033951  0.00604619  0.34988829  1
  Ni  Ni25  1  0.99328377  0.00182118  0.84822579  1
  Ni  Ni26  1  0.67425717  0.33155542  0.18639580  1
  Ni  Ni27  1  0.33669705  0.66887663  0.01446101  1
  Ni  Ni28  1  0.34029844  0.66418379  0.52262558  1
  Ni  Ni29  1  0.32957986  0.65014786  0.81210734  1
  Cu  Cu30  1  0.99671811  0.99920164  0.64816450  1
  Cu  Cu31  1  0.98980235  0.99447602  0.15099472  1
  Cu  Cu32  1  0.66815135  0.33494108  0.68755808  1
  Cu  Cu33  1  0.69168795  0.34654336  0.98053011  1
  Cu  Cu34  1  0.65460057  0.32373828  0.48082802  1
  Cu  Cu35  1  0.34967191  0.67170234  0.31029261  1
  C  C36  1  0.29083454  -0.00055418  0.25371149  1
  C  C37  1  0.70993630  0.70269425  0.25472614  1
  C  C38  1  0.00029489  0.29539082  0.25383136  1
  C  C39  1  0.29279387  0.28939510  0.75244519  1
  C  C40  1  0.00146423  0.70877041  0.75212759  1
  C  C41  1  0.70469903  0.00045955  0.75207629  1
  C  C42  1  0.95782177  0.33285584  0.58261526  1
  C  C43  1  0.36746862  0.03717787  0.58448909  1
  C  C44  1  0.66920465  0.62704217  0.58268829  1
  C  C45  1  0.96889988  0.63494948  0.08828009  1
  C  C46  1  0.66292961  0.03668893  0.08717669  1
  C  C47  1  0.62604200  0.66618078  0.91807376  1
  C  C48  1  0.05010600  0.37470916  0.91774347  1
  C  C49  1  0.62890827  0.95987107  0.42079057  1
  C  C50  1  0.33086459  0.37220174  0.42038436  1
  C  C51  1  0.37388903  0.32864185  0.08514985  1
  C  C52  1  0.33769915  0.96372434  0.91848700  1
  C  C53  1  0.04268537  0.66271935  0.41777107  1
  C  C54  1  0.20434019  0.02195100  0.31195457  1
  C  C55  1  0.82109126  0.78620457  0.31305106  1
  C  C56  1  0.97344332  0.18337047  0.31164624  1
  C  C57  1  0.21938690  0.17015751  0.81003284  1
  C  C58  1  0.95956269  0.78637055  0.80932995  1
  C  C59  1  0.82432912  0.04738547  0.80990867  1
  C  C60  1  0.80693873  0.98059000  0.69182223  1
  C  C61  1  0.17087811  0.18527603  0.69217320  1
  C  C62  1  0.01574038  0.82664832  0.69121940  1
  C  C63  1  0.80157108  0.83351284  0.19502330  1
  C  C64  1  0.03319825  0.19972011  0.19366925  1
  C  C65  1  0.16364718  0.96933562  0.19322433  1
  C  C66  1  0.85525010  0.35038181  0.63979281  1
  C  C67  1  0.49358264  0.14041688  0.64025950  1
  C  C68  1  0.65220213  0.50498180  0.63934084  1
  C  C69  1  0.87352735  0.52033916  0.14435361  1
  C  C70  1  0.63502623  0.12164063  0.14487990  1
  C  C71  1  0.47235170  0.34719596  0.13907101  1
  C  C72  1  0.45593514  0.30795611  0.03058100  1
  C  C73  1  0.84237051  0.53525114  0.02738028  1
  C  C74  1  0.68898316  0.16426926  0.02811087  1
  C  C75  1  0.46601137  0.16431414  0.52465540  1
  C  C76  1  0.69641127  0.52915412  0.52358357  1
  C  C77  1  0.83088952  0.30390126  0.52351233  1
  C  C78  1  0.54263340  0.69079934  0.97780289  1
  C  C79  1  0.14705615  0.46138633  0.97941399  1
  C  C80  1  0.32100759  0.86590513  0.97294871  1
  C  C81  1  0.53441110  0.85048259  0.47841980  1
  C  C82  1  0.30316383  0.45910038  0.47792100  1
  C  C83  1  0.14045366  0.68116573  0.47208838  1
  C  C84  1  0.12471996  0.64217715  0.36316651  1
  C  C85  1  0.50206391  0.86416717  0.35993281  1
  C  C86  1  0.36000547  0.50136996  0.36026948  1
  C  C87  1  0.11327555  0.49256570  0.85867825  1
  C  C88  1  0.36645854  0.89018063  0.86437877  1
  C  C89  1  0.50963761  0.62241894  0.85823753  1
  C  C90  1  0.01850969  0.81092085  0.41349725  1
  C  C91  1  0.81409463  0.98162711  0.41457061  1
  C  C92  1  0.17647795  0.18109532  0.41364937  1
  C  C93  1  0.02100551  0.18446136  0.91414420  1
  C  C94  1  0.18745962  0.98323892  0.91449403  1
  C  C95  1  0.82057281  0.82116778  0.91461454  1
  C  C96  1  0.96593119  0.15731577  0.58620506  1
  C  C97  1  0.18735828  0.03384107  0.58613679  1
  C  C98  1  0.84472629  0.81067176  0.58553409  1
  C  C99  1  0.97663386  0.82236705  0.08825434  1
  C  C100  1  0.84607622  0.03323502  0.08891439  1
  C  C101  1  0.20225058  0.17112056  0.08691632  1
  C  C102  1  0.68664357  0.17128569  0.74173773  1
  C  C103  1  0.48367317  0.31249263  0.74187563  1
  C  C104  1  0.83078389  0.51753758  0.74253007  1
  C  C105  1  0.66834099  0.51358500  0.24298281  1
  C  C106  1  0.84205908  0.32447428  0.24619174  1
  C  C107  1  0.47693816  0.15982799  0.24477618  1
  C  C108  1  0.63616374  0.48181658  0.92726271  1
  C  C109  1  0.84594746  0.34668755  0.92435905  1
  C  C110  1  0.49255272  0.14075417  0.92425081  1
  C  C111  1  0.64088740  0.15104529  0.42004318  1
  C  C112  1  0.51494412  0.36988499  0.42029051  1
  C  C113  1  0.87068154  0.50385026  0.41897692  1
  C  C114  1  0.35071213  0.47822523  0.08074949  1
  C  C115  1  0.15481708  0.66040115  0.07917098  1
  C  C116  1  0.50549965  0.84646185  0.07903166  1
  C  C117  1  0.34732955  0.85442358  0.57919629  1
  C  C118  1  0.50419480  0.64376040  0.58229510  1
  C  C119  1  0.13837888  0.49977055  0.57979885  1
  C  C120  1  0.29812653  0.81954942  0.25619416  1
  C  C121  1  0.52557076  0.70261174  0.25478957  1
  C  C122  1  0.17855888  0.48314099  0.25674729  1
  C  C123  1  0.30683248  0.47184302  0.74968351  1
  C  C124  1  0.16870281  0.69335864  0.75101046  1
  C  C125  1  0.52009969  0.83536511  0.75236786  1
