# generated using pymatgen
data_Cu2NiC10
_symmetry_space_group_name_H-M   'P 1'
_cell_length_a   3.96357611
_cell_length_b   3.96357654
_cell_length_c   11.88975789
_cell_angle_alpha   99.59485192
_cell_angle_beta   99.59485602
_cell_angle_gamma   89.99999646
_symmetry_Int_Tables_number   1
_chemical_formula_structural   Cu2NiC10
_chemical_formula_sum   'Cu2 Ni1 C10'
_cell_volume   181.52381009
_cell_formula_units_Z   1
loop_
 _symmetry_equiv_pos_site_id
 _symmetry_equiv_pos_as_xyz
  1  'x, y, z'
loop_
 _atom_site_type_symbol
 _atom_site_label
 _atom_site_symmetry_multiplicity
 _atom_site_fract_x
 _atom_site_fract_y
 _atom_site_fract_z
 _atom_site_occupancy
  C  C0  1  0.65813500  0.65813700  0.31627100  1
  C  C1  1  0.34186300  0.34186300  0.68372900  1
  C  C2  1  0.49999900  0.50000100  0.00000000  1
  Ni  Ni3  1  0.25000000  0.75000000  0.50000000  1
  Cu  Cu4  1  0.91736900  0.91737200  0.83474000  1
  Cu  Cu5  1  0.08263000  0.08262900  0.16526000  1
  C  C6  1  0.90835700  0.40835800  0.81671600  1
  C  C7  1  0.40537700  0.90537500  0.81075200  1
  C  C8  1  0.09462300  0.59462300  0.18924700  1
  C  C9  1  0.59164300  0.09164400  0.18328400  1
  C  C10  1  0.78845900  0.78845900  0.57692000  1
  C  C11  1  0.00000000  0.00000000  0.00000000  1
  C  C12  1  0.21154000  0.21154100  0.42307900  1
