# generated using pymatgen
data_Cu4NiC12
_symmetry_space_group_name_H-M   'P 1'
_cell_length_a   5.96109779
_cell_length_b   7.48539759
_cell_length_c   6.07888550
_cell_angle_alpha   66.75127099
_cell_angle_beta   92.48983204
_cell_angle_gamma   112.11336531
_symmetry_Int_Tables_number   1
_chemical_formula_structural   Cu4NiC12
_chemical_formula_sum   'Cu4 Ni1 C12'
_cell_volume   229.12094003
_cell_formula_units_Z   1
loop_
 _symmetry_equiv_pos_site_id
 _symmetry_equiv_pos_as_xyz
  1  'x, y, z'
loop_
 _atom_site_type_symbol
 _atom_site_label
 _atom_site_symmetry_multiplicity
 _atom_site_fract_x
 _atom_site_fract_y
 _atom_site_fract_z
 _atom_site_occupancy
  C  C0  1  0.50030276  0.44975417  0.97356733  1
  C  C1  1  0.94761036  0.93573141  0.54119548  1
  C  C2  1  0.49208775  0.98004843  0.51874711  1
  C  C3  1  0.40876752  0.31458333  0.57007010  1
  Ni  Ni4  1  0.66507963  0.69636441  0.25793780  1
  Cu  Cu5  1  0.00932967  0.09029641  0.96859842  1
  Cu  Cu6  1  0.45794595  0.96357871  0.03368927  1
  Cu  Cu7  1  0.06063924  0.59227940  0.94260123  1
  Cu  Cu8  1  0.01628713  0.51577445  0.47206558  1
  C  C9  1  0.28267272  0.06171943  0.18724391  1
  C  C10  1  0.79962091  0.50010525  0.22666866  1
  C  C11  1  0.29261285  0.56688006  0.25740348  1
  C  C12  1  0.71473451  0.97918647  0.24371389  1
  C  C13  1  0.22231861  0.94696864  0.80515651  1
  C  C14  1  0.78994059  0.57487344  0.61737971  1
  C  C15  1  0.15779139  0.42573363  0.76783427  1
  C  C16  1  0.68225842  0.90612236  0.86612725  1
