# generated using pymatgen
data_CuNiC5
_symmetry_space_group_name_H-M   'P 1'
_cell_length_a   6.72144100
_cell_length_b   6.72144100
_cell_length_c   6.72144100
_cell_angle_alpha   90.00000000
_cell_angle_beta   90.00000000
_cell_angle_gamma   90.00000000
_symmetry_Int_Tables_number   1
_chemical_formula_structural   CuNiC5
_chemical_formula_sum   'Cu4 Ni4 C20'
_cell_volume   303.65970963
_cell_formula_units_Z   4
loop_
 _symmetry_equiv_pos_site_id
 _symmetry_equiv_pos_as_xyz
  1  'x, y, z'
loop_
 _atom_site_type_symbol
 _atom_site_label
 _atom_site_symmetry_multiplicity
 _atom_site_fract_x
 _atom_site_fract_y
 _atom_site_fract_z
 _atom_site_occupancy
  C  C0  1  0.67347000  0.82653000  0.17347000  1
  C  C1  1  0.82653000  0.17347000  0.67347000  1
  C  C2  1  0.17347000  0.67347000  0.82653000  1
  C  C3  1  0.32653000  0.32653000  0.32653000  1
  Ni  Ni4  1  0.33797500  0.16202500  0.83797500  1
  Ni  Ni5  1  0.16202500  0.83797500  0.33797500  1
  Ni  Ni6  1  0.83797500  0.33797500  0.16202500  1
  Ni  Ni7  1  0.66202500  0.66202500  0.66202500  1
  Cu  Cu8  1  0.95280900  0.54719100  0.45280900  1
  Cu  Cu9  1  0.54719100  0.45280900  0.95280900  1
  Cu  Cu10  1  0.45280900  0.95280900  0.54719100  1
  Cu  Cu11  1  0.04719100  0.04719100  0.04719100  1
  C  C12  1  0.44986800  0.43603200  0.73792100  1
  C  C13  1  0.94986800  0.06396800  0.26207900  1
  C  C14  1  0.55013200  0.93603200  0.76207900  1
  C  C15  1  0.06396800  0.26207900  0.94986800  1
  C  C16  1  0.76207900  0.55013200  0.93603200  1
  C  C17  1  0.26207900  0.94986800  0.06396800  1
  C  C18  1  0.43603200  0.73792100  0.44986800  1
  C  C19  1  0.73792100  0.44986800  0.43603200  1
  C  C20  1  0.93603200  0.76207900  0.55013200  1
  C  C21  1  0.56396800  0.23792100  0.05013200  1
  C  C22  1  0.23792100  0.05013200  0.56396800  1
  C  C23  1  0.05013200  0.56396800  0.23792100  1
  C  C24  1  0.91030400  0.91030400  0.91030400  1
  C  C25  1  0.58969600  0.08969600  0.41030400  1
  C  C26  1  0.41030400  0.58969600  0.08969600  1
  C  C27  1  0.08969600  0.41030400  0.58969600  1
