# generated using pymatgen
data_CuNiC9
_symmetry_space_group_name_H-M   'P 1'
_cell_length_a   6.30594763
_cell_length_b   6.23340514
_cell_length_c   6.30594780
_cell_angle_alpha   60.37982478
_cell_angle_beta   55.89571523
_cell_angle_gamma   60.37981396
_symmetry_Int_Tables_number   1
_chemical_formula_structural   CuNiC9
_chemical_formula_sum   'Cu1 Ni1 C9'
_cell_volume   170.11072428
_cell_formula_units_Z   1
loop_
 _symmetry_equiv_pos_site_id
 _symmetry_equiv_pos_as_xyz
  1  'x, y, z'
loop_
 _atom_site_type_symbol
 _atom_site_label
 _atom_site_symmetry_multiplicity
 _atom_site_fract_x
 _atom_site_fract_y
 _atom_site_fract_z
 _atom_site_occupancy
  C  C0  1  0.68984700  0.81015300  0.68984700  1
  C  C1  1  0.31015300  0.18984700  0.31015300  1
  C  C2  1  0.50000000  0.50000000  0.50000000  1
  Ni  Ni3  1  0.00000000  0.50000000  0.00000000  1
  Cu  Cu4  1  0.00000000  0.00000000  0.00000000  1
  C  C5  1  0.23301800  0.73540800  0.76698200  1
  C  C6  1  0.23777800  0.76222200  0.23777800  1
  C  C7  1  0.76222200  0.23777800  0.76222200  1
  C  C8  1  0.23301800  0.26459200  0.76698200  1
  C  C9  1  0.76698200  0.26459200  0.23301800  1
  C  C10  1  0.76698200  0.73540800  0.23301800  1
