# generated using pymatgen
data_Cu5NiC29
_symmetry_space_group_name_H-M   'P 1'
_cell_length_a   8.85103286
_cell_length_b   8.84988713
_cell_length_c   22.86740741
_cell_angle_alpha   89.88667973
_cell_angle_beta   89.98377708
_cell_angle_gamma   120.02379919
_symmetry_Int_Tables_number   1
_chemical_formula_structural   Cu5NiC29
_chemical_formula_sum   'Cu15 Ni3 C87'
_cell_volume   1550.86404100
_cell_formula_units_Z   3
loop_
 _symmetry_equiv_pos_site_id
 _symmetry_equiv_pos_as_xyz
  1  'x, y, z'
loop_
 _atom_site_type_symbol
 _atom_site_label
 _atom_site_symmetry_multiplicity
 _atom_site_fract_x
 _atom_site_fract_y
 _atom_site_fract_z
 _atom_site_occupancy
  C  C0  1  0.00136964  0.00171791  0.00336374  1
  C  C1  1  0.66737460  0.33425599  0.84001411  1
  C  C2  1  0.66736840  0.33408944  0.34155601  1
  C  C3  1  0.66818504  0.33400401  0.97868483  1
  C  C4  1  0.66797886  0.33502717  0.47811157  1
  C  C5  1  0.99409002  0.99784185  0.35879322  1
  C  C6  1  0.99816182  0.99559296  0.85570533  1
  C  C7  1  0.00101779  0.99667384  0.64591341  1
  C  C8  1  0.99755348  0.00076130  0.15052211  1
  C  C9  1  0.66857093  0.33543144  0.68450428  1
  C  C10  1  0.66800277  0.33489681  0.18752053  1
  C  C11  1  0.33315881  0.66558541  0.02475023  1
  C  C12  1  0.33198215  0.66627945  0.52136557  1
  C  C13  1  0.33249736  0.66540539  0.30695456  1
  C  C14  1  0.33205760  0.66583060  0.80760169  1
  Ni  Ni15  1  0.71605409  0.71048338  0.25271192  1
  Ni  Ni16  1  0.99386802  0.28312665  0.25219578  1
  Ni  Ni17  1  0.99270733  0.70757732  0.75088397  1
  Cu  Cu18  1  0.28667100  0.00561871  0.25196375  1
  Cu  Cu19  1  0.28805711  0.28191993  0.75068963  1
  Cu  Cu20  1  0.71733131  0.00557438  0.75084636  1
  Cu  Cu21  1  0.96038300  0.33329395  0.58335924  1
  Cu  Cu22  1  0.37507132  0.04020459  0.58323126  1
  Cu  Cu23  1  0.66499359  0.62673835  0.58318257  1
  Cu  Cu24  1  0.95872637  0.62945174  0.08328591  1
  Cu  Cu25  1  0.67034860  0.04173843  0.08310576  1
  Cu  Cu26  1  0.37142486  0.32813957  0.08286120  1
  Cu  Cu27  1  0.61772698  0.67361066  0.91456576  1
  Cu  Cu28  1  0.05617022  0.38159017  0.91449595  1
  Cu  Cu29  1  0.32770289  0.94461114  0.91438659  1
  Cu  Cu30  1  0.61642215  0.94578278  0.41415582  1
  Cu  Cu31  1  0.32758557  0.38212745  0.41394171  1
  Cu  Cu32  1  0.05543580  0.67421942  0.41392145  1
  C  C33  1  0.20547731  0.04052077  0.30577168  1
  C  C34  1  0.84290960  0.80022151  0.30885222  1
  C  C35  1  0.96236539  0.15776184  0.30839878  1
  C  C36  1  0.20018552  0.16658937  0.80572289  1
  C  C37  1  0.96345734  0.80335653  0.80820358  1
  C  C38  1  0.83390652  0.03783212  0.80589432  1
  C  C39  1  0.80375030  0.97652371  0.69790797  1
  C  C40  1  0.17110743  0.19901014  0.69769140  1
  C  C41  1  0.02291037  0.83387777  0.69602603  1
  C  C42  1  0.80962710  0.83087115  0.19550278  1
  C  C43  1  0.02734326  0.19398727  0.19512305  1
  C  C44  1  0.17271634  0.97449019  0.19727052  1
  C  C45  1  0.86526460  0.36472112  0.63771776  1
  C  C46  1  0.49702923  0.13237442  0.63789612  1
  C  C47  1  0.63478735  0.50179165  0.63779612  1
  C  C48  1  0.86552513  0.50571639  0.13664514  1
  C  C49  1  0.63937516  0.13184196  0.13631785  1
  C  C50  1  0.49250236  0.35857112  0.13628791  1
  C  C51  1  0.43299544  0.28694124  0.02735783  1
  C  C52  1  0.85378011  0.57002797  0.02821819  1
  C  C53  1  0.71531911  0.14566572  0.02764154  1
  C  C54  1  0.43697391  0.15008113  0.52990971  1
  C  C55  1  0.71667300  0.56681726  0.53039025  1
  C  C56  1  0.85008140  0.28438224  0.53027301  1
  C  C57  1  0.52881505  0.69296297  0.97066622  1
  C  C58  1  0.16457815  0.47116639  0.97049402  1
  C  C59  1  0.30621488  0.83580352  0.97056473  1
  C  C60  1  0.52592451  0.83648178  0.47101756  1
  C  C61  1  0.30900681  0.47348119  0.47062892  1
  C  C62  1  0.16380032  0.68999328  0.47080349  1
  C  C63  1  0.15534284  0.66390128  0.36032067  1
  C  C64  1  0.50717302  0.84707614  0.36055164  1
  C  C65  1  0.33825052  0.49400524  0.36017126  1
  C  C66  1  0.15793324  0.48894083  0.85966961  1
  C  C67  1  0.33401959  0.84379748  0.85976613  1
  C  C68  1  0.51252516  0.66777088  0.85990204  1
  C  C69  1  0.05165760  0.84751509  0.40819830  1
  C  C70  1  0.79573686  0.95107352  0.40889873  1
  C  C71  1  0.15715236  0.20318668  0.40767317  1
  C  C72  1  0.04633851  0.19969282  0.90877601  1
  C  C73  1  0.15510124  0.95613651  0.90870080  1
  C  C74  1  0.80047753  0.84893061  0.90932798  1
  C  C75  1  0.99198807  0.18343408  0.60272832  1
  C  C76  1  0.19138582  0.01136462  0.60068522  1
  C  C77  1  0.81534483  0.81117643  0.60146373  1
  C  C78  1  0.99909046  0.81719154  0.09751680  1
  C  C79  1  0.82207223  0.00469285  0.09641132  1
  C  C80  1  0.18444373  0.17640288  0.09618744  1
  C  C81  1  0.69328601  0.16565878  0.74161038  1
  C  C82  1  0.46913352  0.29868258  0.74158787  1
  C  C83  1  0.82085814  0.51530953  0.74079751  1
  C  C84  1  0.69037214  0.51685450  0.23941580  1
  C  C85  1  0.82070204  0.29985277  0.23914101  1
  C  C86  1  0.46938610  0.16660340  0.23974800  1
  C  C87  1  0.64210245  0.51791902  0.91375885  1
  C  C88  1  0.87812921  0.36247872  0.91318304  1
  C  C89  1  0.48514397  0.12370215  0.91317708  1
  C  C90  1  0.63989171  0.12527647  0.41463903  1
  C  C91  1  0.48742463  0.36484223  0.41420765  1
  C  C92  1  0.87698848  0.51622590  0.41440176  1
  C  C93  1  0.35638355  0.49732355  0.07391756  1
  C  C94  1  0.14067905  0.64048314  0.07419364  1
  C  C95  1  0.50185091  0.85768758  0.07381385  1
  C  C96  1  0.35612476  0.85706927  0.57504322  1
  C  C97  1  0.49838839  0.64067631  0.57515246  1
  C  C98  1  0.14139429  0.50049559  0.57528146  1
  C  C99  1  0.30934230  0.84576536  0.26024048  1
  C  C100  1  0.52632171  0.69240641  0.26102036  1
  C  C101  1  0.15977534  0.47685657  0.26094876  1
  C  C102  1  0.31398509  0.46618852  0.76065124  1
  C  C103  1  0.16324674  0.68617934  0.76095525  1
  C  C104  1  0.53593739  0.84277295  0.76069314  1
