# generated using pymatgen
data_Cu3Ni5C62
_symmetry_space_group_name_H-M   'P 1'
_cell_length_a   17.41470478
_cell_length_b   8.71050473
_cell_length_c   22.72783985
_cell_angle_alpha   90.05713116
_cell_angle_beta   89.94281699
_cell_angle_gamma   120.00628425
_symmetry_Int_Tables_number   1
_chemical_formula_structural   Cu3Ni5C62
_chemical_formula_sum   'Cu9 Ni15 C186'
_cell_volume   2985.52310398
_cell_formula_units_Z   3
loop_
 _symmetry_equiv_pos_site_id
 _symmetry_equiv_pos_as_xyz
  1  'x, y, z'
loop_
 _atom_site_type_symbol
 _atom_site_label
 _atom_site_symmetry_multiplicity
 _atom_site_fract_x
 _atom_site_fract_y
 _atom_site_fract_z
 _atom_site_occupancy
  C  C0  1  0.99994467  0.99990609  0.50162142  1
  C  C1  1  0.50248005  0.00369431  0.99770621  1
  C  C2  1  0.33440574  0.33509936  0.83028411  1
  C  C3  1  0.83226930  0.33138592  0.83058880  1
  C  C4  1  0.33198884  0.33323417  0.33845482  1
  C  C5  1  0.83461834  0.33343276  0.33351052  1
  Ni  Ni6  1  0.99813868  0.99981924  0.35285938  1
  Ni  Ni7  1  0.50081702  0.00079409  0.84849970  1
  Ni  Ni8  1  0.99980861  0.99979934  0.64909322  1
  Ni  Ni9  1  0.50569903  0.00536867  0.14880652  1
  Ni  Ni10  1  0.33183992  0.33043192  0.68480626  1
  Ni  Ni11  1  0.83480931  0.33644426  0.68437298  1
  Ni  Ni12  1  0.83192874  0.33342834  0.18459720  1
  Ni  Ni13  1  0.33484827  0.33518031  0.97889394  1
  Ni  Ni14  1  0.83148450  0.33094901  0.98280256  1
  Ni  Ni15  1  0.33177676  0.33308297  0.48604847  1
  Ni  Ni16  1  0.83509229  0.33431261  0.48543927  1
  Ni  Ni17  1  0.16220660  0.65781155  0.31415072  1
  Ni  Ni18  1  0.67114443  0.67458715  0.31254898  1
  Ni  Ni19  1  0.16807374  0.66751685  0.80821298  1
  Ni  Ni20  1  0.66504704  0.66593891  0.80891640  1
  Cu  Cu21  1  0.50098356  0.99944776  0.35330958  1
  Cu  Cu22  1  0.99931349  0.99948708  0.84933191  1
  Cu  Cu23  1  0.50019663  0.00020996  0.64955217  1
  Cu  Cu24  1  0.99557918  0.99634802  0.14938804  1
  Cu  Cu25  1  0.33425864  0.33338603  0.18388657  1
  Cu  Cu26  1  0.16470551  0.66665722  0.01676498  1
  Cu  Cu27  1  0.66853183  0.66640240  0.01750641  1
  Cu  Cu28  1  0.16535869  0.66552098  0.52061258  1
  Cu  Cu29  1  0.66791309  0.66764400  0.52074017  1
  C  C30  1  0.14607668  0.99823181  0.25045440  1
  C  C31  1  0.64667003  0.99877504  0.24934662  1
  C  C32  1  0.35288924  0.70960081  0.24876250  1
  C  C33  1  0.85258950  0.70358479  0.25207511  1
  C  C34  1  0.99964244  0.29355402  0.25133712  1
  C  C35  1  0.50152808  0.29423156  0.24936511  1
  C  C36  1  0.14737074  0.29438430  0.74910233  1
  C  C37  1  0.64784956  0.29396369  0.75141639  1
  C  C38  1  0.00020369  0.70517660  0.74900476  1
  C  C39  1  0.49892926  0.70462904  0.75143067  1
  C  C40  1  0.35340415  0.00164088  0.75153548  1
  C  C41  1  0.85216936  -0.00015798  0.74889403  1
  C  C42  1  0.47842966  0.33203682  0.58320417  1
  C  C43  1  0.97806973  0.32949673  0.58311008  1
  C  C44  1  0.18694357  0.04339613  0.58268908  1
  C  C45  1  0.68732083  0.04354129  0.58349731  1
  C  C46  1  0.33417537  0.62557428  0.58356106  1
  C  C47  1  0.83499739  0.62580470  0.58269076  1
  C  C48  1  0.47974618  0.62764692  0.08151494  1
  C  C49  1  0.97915730  0.62521288  0.08329472  1
  C  C50  1  0.33401956  0.04000481  0.08139638  1
  C  C51  1  0.83287698  0.04252912  0.08321780  1
  C  C52  1  0.18640220  0.33185175  0.08205468  1
  C  C53  1  0.68696627  0.33197322  0.08260895  1
  C  C54  1  0.31315265  0.66654633  0.91574476  1
  C  C55  1  0.81363734  0.66590163  0.91446508  1
  C  C56  1  0.01950119  0.37346914  0.91474517  1
  C  C57  1  0.51985353  0.37305856  0.91539726  1
  C  C58  1  0.16683906  0.96067341  0.91454905  1
  C  C59  1  0.66690463  0.96002457  0.91572418  1
  C  C60  1  0.31196599  0.95919994  0.41455830  1
  C  C61  1  0.81294041  0.96132342  0.41578062  1
  C  C62  1  0.16768281  0.37423046  0.41556445  1
  C  C63  1  0.66792847  0.37676196  0.41494180  1
  C  C64  1  0.01957122  0.66622118  0.41532772  1
  C  C65  1  0.52012823  0.66241533  0.41514737  1
  C  C66  1  0.10872664  0.03814782  0.30181829  1
  C  C67  1  0.60756082  0.03833471  0.30479760  1
  C  C68  1  0.40981396  0.78062414  0.30355340  1
  C  C69  1  0.91145970  0.78845357  0.30255129  1
  C  C70  1  0.47975267  0.17884918  0.30374235  1
  C  C71  1  0.98385273  0.17814223  0.30234573  1
  C  C72  1  0.11002356  0.18126288  0.80584402  1
  C  C73  1  0.60699520  0.17943844  0.80311196  1
  C  C74  1  0.48257457  0.78608992  0.80325712  1
  C  C75  1  0.98094412  0.77978428  0.80585255  1
  C  C76  1  0.41026291  0.03399591  0.80330977  1
  C  C77  1  0.90915137  0.03940878  0.80562654  1
  C  C78  1  0.39176217  0.96738913  0.69564197  1
  C  C79  1  0.89470774  0.97119375  0.69792582  1
  C  C80  1  0.09103762  0.21044295  0.69796817  1
  C  C81  1  0.59192984  0.21672349  0.69566251  1
  C  C82  1  0.01442174  0.81802487  0.69795500  1
  C  C83  1  0.51609916  0.81578696  0.69560919  1
  C  C84  1  0.39481944  0.81474642  0.19619157  1
  C  C85  1  0.89027195  0.81355711  0.19555379  1
  C  C86  1  0.01796063  0.21699636  0.19502064  1
  C  C87  1  0.51138595  0.21089138  0.19637649  1
  C  C88  1  0.09461433  0.97342760  0.19431221  1
  C  C89  1  0.59026257  0.96925041  0.19785639  1
  C  C90  1  0.44169491  0.36572294  0.63616843  1
  C  C91  1  0.94090684  0.36478192  0.63578592  1
  C  C92  1  0.24164809  0.11762017  0.63540109  1
  C  C93  1  0.74057375  0.11648739  0.63652287  1
  C  C94  1  0.31785260  0.51867799  0.63648840  1
  C  C95  1  0.81733547  0.51719451  0.63552649  1
  C  C96  1  0.44277588  0.51619928  0.13733643  1
  C  C97  1  0.94264961  0.51939771  0.13663225  1
  C  C98  1  0.31495548  0.11356639  0.13706702  1
  C  C99  1  0.81784829  0.11639907  0.13697168  1
  C  C100  1  0.24142187  0.36889173  0.13760606  1
  C  C101  1  0.74064257  0.36541062  0.13591516  1
  C  C102  1  0.22623248  0.30073415  0.03102350  1
  C  C103  1  0.72580415  0.30409649  0.02893589  1
  C  C104  1  0.42329847  0.54335303  0.03055718  1
  C  C105  1  0.92723280  0.55240336  0.02963697  1
  C  C106  1  0.34743026  0.15122842  0.03013716  1
  C  C107  1  0.84943698  0.14821987  0.02983245  1
  C  C108  1  0.22558186  0.14707961  0.52834450  1
  C  C109  1  0.72367008  0.14667243  0.52939714  1
  C  C110  1  0.35020240  0.55308739  0.52947774  1
  C  C111  1  0.84729915  0.54846795  0.52816082  1
  C  C112  1  0.42671765  0.30132409  0.52905236  1
  C  C113  1  0.92657249  0.30316393  0.52872206  1
  C  C114  1  0.27468770  0.70072007  0.97315554  1
  C  C115  1  0.77806419  0.70355820  0.97057436  1
  C  C116  1  0.07445709  0.44483955  0.97124411  1
  C  C117  1  0.57445108  0.44968732  0.97231259  1
  C  C118  1  0.14866222  0.85268596  0.97111152  1
  C  C119  1  0.64980561  0.84926122  0.97271779  1
  C  C120  1  0.27576650  0.84949237  0.46926450  1
  C  C121  1  0.77360495  0.84779420  0.47102175  1
  C  C122  1  0.15143835  0.45314632  0.47092543  1
  C  C123  1  0.64870901  0.44959991  0.46967072  1
  C  C124  1  0.07606072  0.70067161  0.47044255  1
  C  C125  1  0.57529212  0.69998930  0.46994848  1
  C  C126  1  0.06074517  0.63797136  0.36321036  1
  C  C127  1  0.56073615  0.63702087  0.36271852  1
  C  C128  1  0.25871646  0.87843699  0.36197370  1
  C  C129  1  0.75754041  0.87884241  0.36395498  1
  C  C130  1  0.18261817  0.48513338  0.36349806  1
  C  C131  1  0.67994157  0.48275544  0.36246098  1
  C  C132  1  0.06200425  0.48624862  0.86416362  1
  C  C133  1  0.56164728  0.48602531  0.86457548  1
  C  C134  1  0.18113036  0.87673716  0.86390390  1
  C  C135  1  0.68128938  0.87583496  0.86483372  1
  C  C136  1  0.25629083  0.63711107  0.86516299  1
  C  C137  1  0.75779212  0.63799862  0.86356859  1
  C  C138  1  0.01280839  0.82890157  0.41113783  1
  C  C139  1  0.51219563  0.82780547  0.41049106  1
  C  C140  1  0.40253091  0.97386589  0.40935035  1
  C  C141  1  0.90099495  0.97465358  0.41208669  1
  C  C142  1  0.08650764  0.19775154  0.41146759  1
  C  C143  1  0.58436969  0.19650642  0.41033581  1
  C  C144  1  0.01244695  0.19485966  0.91014517  1
  C  C145  1  0.51178441  0.19598850  0.91227824  1
  C  C146  1  0.08490471  0.97559575  0.91011299  1
  C  C147  1  0.58591523  0.97468507  0.91268885  1
  C  C148  1  0.40126651  0.82782673  0.91282268  1
  C  C149  1  0.90330650  0.83081912  0.91007287  1
  C  C150  1  0.49029485  0.17318905  0.58993136  1
  C  C151  1  0.99040548  0.17402555  0.58848202  1
  C  C152  1  0.09697712  0.01882753  0.58823916  1
  C  C153  1  0.59583419  0.01997890  0.58991749  1
  C  C154  1  0.41402012  0.80800637  0.59008765  1
  C  C155  1  0.91254599  0.80614915  0.58809349  1
  C  C156  1  0.48819483  0.80292008  0.08979852  1
  C  C157  1  0.99186665  0.80936894  0.09039613  1
  C  C158  1  0.41225166  0.02051603  0.09000543  1
  C  C159  1  0.91372226  0.02050833  0.08919001  1
  C  C160  1  0.09768992  0.17216718  0.09167669  1
  C  C161  1  0.59649948  0.17527761  0.08817861  1
  C  C162  1  0.34624686  0.16267668  0.74365887  1
  C  C163  1  0.84544648  0.16209142  0.74469247  1
  C  C164  1  0.23540904  0.30825067  0.74512530  1
  C  C165  1  0.73526144  0.30728158  0.74330848  1
  C  C166  1  0.41829293  0.52952915  0.74339176  1
  C  C167  1  0.91892293  0.52934673  0.74511121  1
  C  C168  1  0.34593981  0.52603157  0.24438129  1
  C  C169  1  0.84610132  0.52913915  0.24363727  1
  C  C170  1  0.41653154  0.30751545  0.24511035  1
  C  C171  1  0.91894606  0.30659840  0.24283553  1
  C  C172  1  0.23769313  0.16814021  0.24326708  1
  C  C173  1  0.73423367  0.16151648  0.24501557  1
  C  C174  1  0.31976629  0.50519770  0.92407357  1
  C  C175  1  0.82372484  0.50879572  0.92300600  1
  C  C176  1  0.43192423  0.35855803  0.92330828  1
  C  C177  1  0.93149104  0.35505598  0.92377412  1
  C  C178  1  0.24571972  0.13706378  0.92336847  1
  C  C179  1  0.74757232  0.13568093  0.92371991  1
  C  C180  1  0.32403170  0.13828104  0.42212713  1
  C  C181  1  0.82033574  0.13670519  0.42330844  1
  C  C182  1  0.24817253  0.35851313  0.42273378  1
  C  C183  1  0.74547468  0.35390264  0.42256451  1
  C  C184  1  0.43088079  0.50685527  0.42280094  1
  C  C185  1  0.93163442  0.50554297  0.42264642  1
  C  C186  1  0.17724508  0.49309689  0.07685077  1
  C  C187  1  0.67809387  0.49680025  0.07620306  1
  C  C188  1  0.07120494  0.64724974  0.07662161  1
  C  C189  1  0.56846807  0.64144545  0.07679945  1
  C  C190  1  0.25137967  0.86151166  0.07648752  1
  C  C191  1  0.75303166  0.85982785  0.07669276  1
  C  C192  1  0.17972718  0.86214786  0.57597547  1
  C  C193  1  0.67568423  0.85989955  0.57668155  1
  C  C194  1  0.25390341  0.64700031  0.57627508  1
  C  C195  1  0.75133797  0.64115190  0.57667368  1
  C  C196  1  0.06925947  0.49563532  0.57700595  1
  C  C197  1  0.56970277  0.49370093  0.57603475  1
  C  C198  1  0.15775014  0.84532897  0.25593083  1
  C  C199  1  0.65239483  0.83950387  0.25863699  1
  C  C200  1  0.26566399  0.68786108  0.25785800  1
  C  C201  1  0.76600434  0.69071271  0.25706695  1
  C  C202  1  0.07996055  0.46715007  0.25623300  1
  C  C203  1  0.57772001  0.46838670  0.25830339  1
  C  C204  1  0.15355561  0.46561969  0.75871945  1
  C  C205  1  0.65414611  0.46673491  0.75718636  1
  C  C206  1  0.07967790  0.69323911  0.75881828  1
  C  C207  1  0.57920343  0.69230202  0.75682577  1
  C  C208  1  0.26686122  0.84134959  0.75691722  1
  C  C209  1  0.76684499  0.84067633  0.75876543  1
