# generated using pymatgen
data_Cu2Ni5C32
_symmetry_space_group_name_H-M   'P 1'
_cell_length_a   18.44919805
_cell_length_b   9.21449360
_cell_length_c   23.40494943
_cell_angle_alpha   89.95949825
_cell_angle_beta   89.75331031
_cell_angle_gamma   119.96648820
_symmetry_Int_Tables_number   1
_chemical_formula_structural   Cu2Ni5C32
_chemical_formula_sum   'Cu12 Ni30 C192'
_cell_volume   3446.89039190
_cell_formula_units_Z   6
loop_
 _symmetry_equiv_pos_site_id
 _symmetry_equiv_pos_as_xyz
  1  'x, y, z'
loop_
 _atom_site_type_symbol
 _atom_site_label
 _atom_site_symmetry_multiplicity
 _atom_site_fract_x
 _atom_site_fract_y
 _atom_site_fract_z
 _atom_site_occupancy
  Ni  Ni0  1  0.32831204  0.00133735  0.24949816  1
  Ni  Ni1  1  0.82684860  0.99723994  0.25242382  1
  Ni  Ni2  1  0.18355945  0.37991742  0.24236441  1
  Ni  Ni3  1  0.68036599  0.37508349  0.24489660  1
  Ni  Ni4  1  0.99241187  0.62640991  0.26043225  1
  Ni  Ni5  1  0.49557824  0.62386931  0.25794089  1
  Ni  Ni6  1  0.83060284  0.65368800  0.74481627  1
  Ni  Ni7  1  0.99146876  0.36146641  0.75584747  1
  Ni  Ni8  1  0.49429503  0.35013776  0.75744926  1
  Ni  Ni9  1  0.17910999  0.98858124  0.74218250  1
  Ni  Ni10  1  0.01943063  0.71223582  0.58534615  1
  Ni  Ni11  1  0.32951096  0.97393499  0.59224446  1
  Ni  Ni12  1  0.02382879  0.33023193  0.08328159  1
  Ni  Ni13  1  0.51987698  0.33056349  0.08553374  1
  Ni  Ni14  1  0.15974915  0.30268501  0.92671157  1
  Ni  Ni15  1  0.66254261  0.30349207  0.92796908  1
  Ni  Ni16  1  0.16150170  0.01679324  0.42601104  1
  Ni  Ni17  1  0.66152892  0.02326025  0.42501285  1
  Ni  Ni18  1  0.99893004  0.99494724  0.50313219  1
  Ni  Ni19  1  0.51221974  0.99183825  0.49712076  1
  Ni  Ni20  1  0.00537453  0.01324010  0.99984082  1
  Ni  Ni21  1  0.50557665  0.00726388  0.00437533  1
  Ni  Ni22  1  0.34711108  0.33220571  0.83602743  1
  Ni  Ni23  1  0.85096137  0.32806280  0.83047959  1
  Ni  Ni24  1  0.35293973  0.36599186  0.33581497  1
  Ni  Ni25  1  0.85052161  0.36620684  0.33769903  1
  Ni  Ni26  1  0.17585306  0.65371743  0.16781902  1
  Ni  Ni27  1  0.67609355  0.65577293  0.16643977  1
  Ni  Ni28  1  0.17180699  0.68032860  0.67133078  1
  Ni  Ni29  1  0.68152592  0.71580692  0.65983768  1
  C  C30  1  0.98956930  0.98773059  0.35262545  1
  C  C31  1  0.99060162  0.99389549  0.84866934  1
  C  C32  1  0.49372414  0.00745598  0.85073541  1
  C  C33  1  0.50658176  0.99964097  0.64533624  1
  C  C34  1  0.99967031  0.00368927  0.15262722  1
  C  C35  1  0.82804854  0.33820003  0.18170110  1
  C  C36  1  0.33650632  0.33417477  0.98470165  1
  C  C37  1  0.83403684  0.33229508  0.98303777  1
  C  C38  1  0.16844815  0.65691845  0.01900434  1
  C  C39  1  0.16361471  0.66503451  0.51804554  1
  C  C40  1  0.16281279  0.66650267  0.81407292  1
  C  C41  1  0.66795348  0.68062958  0.81587210  1
  Cu  Cu42  1  0.49001882  0.98363288  0.34959366  1
  Cu  Cu43  1  0.99815385  0.98973164  0.64865808  1
  Cu  Cu44  1  0.50034551  0.01024398  0.15268937  1
  Cu  Cu45  1  0.32931171  0.32034070  0.68091498  1
  Cu  Cu46  1  0.82749259  0.31005463  0.68302143  1
  Cu  Cu47  1  0.33342816  0.34920515  0.18469207  1
  Cu  Cu48  1  0.33691352  0.34278736  0.48136912  1
  Cu  Cu49  1  0.83410686  0.33924333  0.48240225  1
  Cu  Cu50  1  0.66159446  0.64733302  0.01837219  1
  Cu  Cu51  1  0.66036054  0.68265766  0.51822335  1
  Cu  Cu52  1  0.15947488  0.65206114  0.31719118  1
  Cu  Cu53  1  0.65626662  0.64402725  0.31779169  1
  C  C54  1  0.35332672  0.70967214  0.24965379  1
  C  C55  1  0.84521483  0.69786965  0.25119153  1
  C  C56  1  0.00094935  0.30492218  0.24974535  1
  C  C57  1  0.49775002  0.29017905  0.25018785  1
  C  C58  1  0.99591376  0.69647065  0.74511428  1
  C  C59  1  0.35099925  0.00744243  0.74323851  1
  C  C60  1  0.85172854  0.99964249  0.74494235  1
  C  C61  1  0.18532957  0.04508420  0.58070799  1
  C  C62  1  0.68919530  0.04222352  0.57840612  1
  C  C63  1  0.18335576  0.32971817  0.08401022  1
  C  C64  1  0.67598612  0.32649178  0.08156587  1
  C  C65  1  0.01466858  0.35954011  0.91658701  1
  C  C66  1  0.51836476  0.37047470  0.91547237  1
  C  C67  1  0.01529502  0.66242693  0.41738215  1
  C  C68  1  0.51762175  0.66864426  0.41553948  1
  C  C69  1  0.15207646  0.00113391  0.25213592  1
  C  C70  1  0.64331701  0.99404879  0.25189370  1
  C  C71  1  0.14935148  0.29162420  0.74724945  1
  C  C72  1  0.65110065  0.29881593  0.75072004  1
  C  C73  1  0.49670076  0.69517200  0.74935066  1
  C  C74  1  0.47954301  0.33879234  0.58250698  1
  C  C75  1  0.97655376  0.32782452  0.58414416  1
  C  C76  1  0.33384714  0.62153913  0.58337092  1
  C  C77  1  0.83140165  0.62313361  0.58358060  1
  C  C78  1  0.48399855  0.63567528  0.08560215  1
  C  C79  1  0.98416115  0.63484623  0.08360347  1
  C  C80  1  0.33527346  0.03981503  0.08840797  1
  C  C81  1  0.82937115  0.02497188  0.08353219  1
  C  C82  1  0.31631563  0.66511373  0.91573818  1
  C  C83  1  0.81138380  0.66585368  0.91867466  1
  C  C84  1  0.16767607  0.96884798  0.91641992  1
  C  C85  1  0.66529971  0.96155703  0.91989876  1
  C  C86  1  0.31537847  0.96541841  0.41590375  1
  C  C87  1  0.80822669  0.95823007  0.41767519  1
  C  C88  1  0.17073766  0.37032109  0.41548104  1
  C  C89  1  0.66677131  0.37261061  0.41746103  1
  C  C90  1  0.11543956  0.03299066  0.30336309  1
  C  C91  1  0.60624826  0.02402120  0.30379455  1
  C  C92  1  0.41483498  0.78844380  0.30504115  1
  C  C93  1  0.91125022  0.77808557  0.30355069  1
  C  C94  1  0.48347021  0.16305381  0.30317782  1
  C  C95  1  0.98747433  0.18147400  0.30285750  1
  C  C96  1  0.11533670  0.19390624  0.80126348  1
  C  C97  1  0.61497783  0.19877707  0.80357416  1
  C  C98  1  0.48978738  0.77684234  0.80141663  1
  C  C99  1  0.98260362  0.78477375  0.80138550  1
  C  C100  1  0.41361386  0.04476730  0.79783383  1
  C  C101  1  0.90667963  0.03891287  0.80336420  1
  C  C102  1  0.39465303  0.98834340  0.68512853  1
  C  C103  1  0.90459625  0.97695026  0.69269672  1
  C  C104  1  0.09365407  0.20403033  0.69868932  1
  C  C105  1  0.59544838  0.21346285  0.70164944  1
  C  C106  1  0.01408116  0.81991682  0.68910694  1
  C  C107  1  0.50907459  0.80036596  0.69831473  1
  C  C108  1  0.39956302  0.83222450  0.19502880  1
  C  C109  1  0.88723635  0.81625646  0.19502824  1
  C  C110  1  0.02108218  0.23335684  0.19112096  1
  C  C111  1  0.51704975  0.21409094  0.19201140  1
  C  C112  1  0.09694270  0.96674647  0.20201643  1
  C  C113  1  0.59125235  0.97059878  0.20103999  1
  C  C114  1  0.44206469  0.36089931  0.63621775  1
  C  C115  1  0.93865596  0.35550777  0.63627544  1
  C  C116  1  0.24417714  0.13666406  0.63766272  1
  C  C117  1  0.74386637  0.13736376  0.63504535  1
  C  C118  1  0.32844129  0.52577497  0.63531451  1
  C  C119  1  0.82201508  0.52856186  0.63713005  1
  C  C120  1  0.44353775  0.52491159  0.13685172  1
  C  C121  1  0.94584310  0.53301244  0.13628984  1
  C  C122  1  0.32704182  0.12520098  0.13980813  1
  C  C123  1  0.81998559  0.09979670  0.13766385  1
  C  C124  1  0.24017130  0.33950963  0.14031465  1
  C  C125  1  0.72938848  0.35103439  0.13988829  1
  C  C126  1  0.22802505  0.32315619  0.02427801  1
  C  C127  1  0.72162194  0.31026785  0.02383287  1
  C  C128  1  0.43238376  0.55490760  0.03438413  1
  C  C129  1  0.93250929  0.54642471  0.03362542  1
  C  C130  1  0.34856374  0.14479602  0.03669047  1
  C  C131  1  0.84325827  0.14165033  0.03530610  1
  C  C132  1  0.23620995  0.15491917  0.52380424  1
  C  C133  1  0.73672212  0.15275139  0.52089167  1
  C  C134  1  0.34175150  0.53849535  0.53155037  1
  C  C135  1  0.84607596  0.53814257  0.53413301  1
  C  C136  1  0.42440486  0.31828565  0.53347857  1
  C  C137  1  0.92659230  0.31396431  0.53291201  1
  C  C138  1  0.27783901  0.68969034  0.96777287  1
  C  C139  1  0.76617397  0.68207454  0.96785669  1
  C  C140  1  0.07246784  0.45850764  0.97321927  1
  C  C141  1  0.57751699  0.47305142  0.97096864  1
  C  C142  1  0.16270289  0.86993376  0.96725690  1
  C  C143  1  0.66046339  0.86139310  0.96969107  1
  C  C144  1  0.27739090  0.86494549  0.46869374  1
  C  C145  1  0.76531920  0.85122348  0.46765507  1
  C  C146  1  0.16234371  0.45452026  0.46646239  1
  C  C147  1  0.65817407  0.45984327  0.46718285  1
  C  C148  1  0.07295835  0.68748994  0.47401360  1
  C  C149  1  0.58178286  0.69860044  0.46882490  1
  C  C150  1  0.06530991  0.64799191  0.35988489  1
  C  C151  1  0.56031890  0.64330675  0.35681274  1
  C  C152  1  0.26170560  0.87993640  0.36552034  1
  C  C153  1  0.76117125  0.87948510  0.36408705  1
  C  C154  1  0.17971305  0.47055174  0.36299843  1
  C  C155  1  0.67748689  0.47023919  0.36354879  1
  C  C156  1  0.06123897  0.46269725  0.85776292  1
  C  C157  1  0.56258035  0.46876605  0.85567133  1
  C  C158  1  0.17724721  0.89181949  0.86348456  1
  C  C159  1  0.67681758  0.88844507  0.86632988  1
  C  C160  1  0.26586909  0.64972797  0.86488827  1
  C  C161  1  0.76581938  0.65055531  0.86451856  1
  C  C162  1  0.01677440  0.84263695  0.41511536  1
  C  C163  1  0.51616720  0.84694134  0.41052929  1
  C  C164  1  0.40000550  0.98781120  0.41000463  1
  C  C165  1  0.89390565  0.98247105  0.41616581  1
  C  C166  1  0.09653783  0.20029150  0.41198273  1
  C  C167  1  0.59247218  0.20082165  0.41220705  1
  C  C168  1  0.01618167  0.18170906  0.91731067  1
  C  C169  1  0.51920747  0.19065359  0.91695588  1
  C  C170  1  0.09183498  0.98606333  0.91369893  1
  C  C171  1  0.58893550  0.97669498  0.91561849  1
  C  C172  1  0.40197710  0.80866389  0.91168178  1
  C  C173  1  0.89664568  0.81194856  0.91721680  1
  C  C174  1  0.48256360  0.17972504  0.58567076  1
  C  C175  1  0.98688474  0.17978141  0.58858000  1
  C  C176  1  0.08968266  0.01330986  0.58515327  1
  C  C177  1  0.59518919  0.02170948  0.58129862  1
  C  C178  1  0.40802235  0.79435737  0.58517735  1
  C  C179  1  0.91014828  0.79223121  0.58667273  1
  C  C180  1  0.49305066  0.80236057  0.09264465  1
  C  C181  1  0.99208456  0.80128420  0.08720136  1
  C  C182  1  0.41106291  0.02348408  0.09191509  1
  C  C183  1  0.90758915  0.01448127  0.08576587  1
  C  C184  1  0.08754244  0.16733002  0.08454649  1
  C  C185  1  0.58069118  0.16210003  0.08665524  1
  C  C186  1  0.34401836  0.18244485  0.74104202  1
  C  C187  1  0.84298114  0.16765212  0.73917462  1
  C  C188  1  0.23345593  0.31013848  0.73921467  1
  C  C189  1  0.73626763  0.32588421  0.74276227  1
  C  C190  1  0.42134188  0.52674950  0.74362478  1
  C  C191  1  0.91138127  0.51262539  0.73801518  1
  C  C192  1  0.34067886  0.51843994  0.24242725  1
  C  C193  1  0.83009859  0.50619658  0.24670871  1
  C  C194  1  0.41403259  0.31056490  0.24273823  1
  C  C195  1  0.91631669  0.32056576  0.24474334  1
  C  C196  1  0.23628445  0.15106680  0.24273944  1
  C  C197  1  0.72887400  0.14282282  0.24514965  1
  C  C198  1  0.31838630  0.50592636  0.91987495  1
  C  C199  1  0.81469910  0.50766272  0.92254287  1
  C  C200  1  0.42478079  0.34558292  0.91980210  1
  C  C201  1  0.92165272  0.33984069  0.91933958  1
  C  C202  1  0.24181477  0.14196085  0.91928724  1
  C  C203  1  0.73862964  0.13579060  0.92233388  1
  C  C204  1  0.31906791  0.13102140  0.42102485  1
  C  C205  1  0.81310212  0.12487018  0.42203034  1
  C  C206  1  0.24637506  0.35123543  0.41937715  1
  C  C207  1  0.74259215  0.35206711  0.42170047  1
  C  C208  1  0.42482986  0.50187731  0.42564544  1
  C  C209  1  0.92262073  0.49480733  0.42308866  1
  C  C210  1  0.17210659  0.49835751  0.08670440  1
  C  C211  1  0.66460631  0.49601472  0.07747984  1
  C  C212  1  0.06781414  0.64964826  0.07889558  1
  C  C213  1  0.56670726  0.64631605  0.07908208  1
  C  C214  1  0.25903792  0.87417131  0.08266326  1
  C  C215  1  0.75518097  0.86114999  0.07510072  1
  C  C216  1  0.18107529  0.85872482  0.58081922  1
  C  C217  1  0.67985101  0.85326947  0.57596078  1
  C  C218  1  0.25824658  0.64013073  0.58042243  1
  C  C219  1  0.75735564  0.64166520  0.57520521  1
  C  C220  1  0.06138924  0.48354612  0.57970843  1
  C  C221  1  0.56441086  0.48326267  0.57586250  1
  C  C222  1  0.16323446  0.85256213  0.25909628  1
  C  C223  1  0.65263465  0.84328975  0.25744829  1
  C  C224  1  0.26043622  0.69229858  0.25889289  1
  C  C225  1  0.75411992  0.68852043  0.26089685  1
  C  C226  1  0.08493247  0.49443014  0.25707584  1
  C  C227  1  0.58113242  0.47901471  0.25749707  1
  C  C228  1  0.15666361  0.45931007  0.75167859  1
  C  C229  1  0.65668450  0.46538743  0.75521793  1
  C  C230  1  0.07896148  0.67309671  0.74894899  1
  C  C231  1  0.57091435  0.66964806  0.75193124  1
  C  C232  1  0.25609991  0.85016122  0.75110187  1
  C  C233  1  0.76218851  0.82153720  0.74892063  1
