# generated using pymatgen
data_Cu2NiC8
_symmetry_space_group_name_H-M   'P 1'
_cell_length_a   7.47277010
_cell_length_b   7.47277081
_cell_length_c   7.47276954
_cell_angle_alpha   40.58053380
_cell_angle_beta   40.58053023
_cell_angle_gamma   40.58053067
_symmetry_Int_Tables_number   1
_chemical_formula_structural   Cu2NiC8
_chemical_formula_sum   'Cu2 Ni1 C8'
_cell_volume   159.28925050
_cell_formula_units_Z   1
loop_
 _symmetry_equiv_pos_site_id
 _symmetry_equiv_pos_as_xyz
  1  'x, y, z'
loop_
 _atom_site_type_symbol
 _atom_site_label
 _atom_site_symmetry_multiplicity
 _atom_site_fract_x
 _atom_site_fract_y
 _atom_site_fract_z
 _atom_site_occupancy
  Ni  Ni0  1  0.50000000  0.50000000  0.50000000  1
  Cu  Cu1  1  0.84976243  0.84976243  0.84976243  1
  Cu  Cu2  1  0.15023757  0.15023757  0.15023757  1
  C  C3  1  0.69728941  0.69728941  0.69728941  1
  C  C4  1  0.30271059  0.30271059  0.30271059  1
  C  C5  1  0.79497628  0.45829401  0.09217748  1
  C  C6  1  0.45829401  0.09217748  0.79497628  1
  C  C7  1  0.09217748  0.79497628  0.45829401  1
  C  C8  1  0.20502372  0.54170599  0.90782252  1
  C  C9  1  0.90782252  0.20502372  0.54170599  1
  C  C10  1  0.54170599  0.90782252  0.20502372  1
