# generated using pymatgen
data_Cu10Ni2C99
_symmetry_space_group_name_H-M   'P 1'
_cell_length_a   8.85226251
_cell_length_b   8.85173857
_cell_length_c   22.75499409
_cell_angle_alpha   89.98044533
_cell_angle_beta   90.00960556
_cell_angle_gamma   119.84423363
_symmetry_Int_Tables_number   1
_chemical_formula_structural   Cu10Ni2C99
_chemical_formula_sum   'Cu10 Ni2 C99'
_cell_volume   1546.57052853
_cell_formula_units_Z   1
loop_
 _symmetry_equiv_pos_site_id
 _symmetry_equiv_pos_as_xyz
  1  'x, y, z'
loop_
 _atom_site_type_symbol
 _atom_site_label
 _atom_site_symmetry_multiplicity
 _atom_site_fract_x
 _atom_site_fract_y
 _atom_site_fract_z
 _atom_site_occupancy
  C  C0  1  0.63577877  0.00730580  0.24792922  1
  C  C1  1  0.37464135  0.36566456  0.24724634  1
  C  C2  1  0.99358661  0.36516050  0.74750792  1
  C  C3  1  0.00014705  0.99945256  0.49882873  1
  C  C4  1  0.99982580  0.99931751  0.99923424  1
  C  C5  1  0.65693495  0.33229979  0.82905523  1
  C  C6  1  0.67613189  0.34189532  0.32976748  1
  C  C7  1  0.32714343  0.66500871  0.16539571  1
  C  C8  1  0.33987577  0.67143006  0.66601610  1
  Ni  Ni9  1  0.65843521  0.33271946  0.68569382  1
  Ni  Ni10  1  0.67540507  0.34132198  0.18541430  1
  Cu  Cu11  1  0.99344719  0.99785283  0.35593191  1
  Cu  Cu12  1  0.00587922  0.00337156  0.85571900  1
  Cu  Cu13  1  0.00247918  0.00283871  0.64571868  1
  Cu  Cu14  1  0.99737722  0.00103753  0.14580153  1
  Cu  Cu15  1  0.66729408  0.33441827  0.97806476  1
  Cu  Cu16  1  0.66616869  0.33408239  0.47830636  1
  Cu  Cu17  1  0.33298131  0.66628933  0.01960026  1
  Cu  Cu18  1  0.33349658  0.66667658  0.51985273  1
  Cu  Cu19  1  0.32987561  0.66357243  0.31408848  1
  Cu  Cu20  1  0.33765105  0.66745338  0.81335094  1
  C  C21  1  0.71208030  0.70435433  0.25004478  1
  C  C22  1  0.99574025  0.29190747  0.24981014  1
  C  C23  1  0.29971032  0.29073268  0.74980680  1
  C  C24  1  0.62297856  0.66802063  0.91712210  1
  C  C25  1  0.04569727  0.37973161  0.91648473  1
  C  C26  1  0.33473536  0.95474029  0.91679227  1
  C  C27  1  0.61984276  0.95500846  0.41690077  1
  C  C28  1  0.33241176  0.37686825  0.41722113  1
  C  C29  1  0.04430968  0.66708801  0.41745930  1
  C  C30  1  0.28541098  0.99836266  0.24995975  1
  C  C31  1  0.99768767  0.71088173  0.75004153  1
  C  C32  1  0.71135630  0.00008557  0.74975275  1
  C  C33  1  0.95415250  0.33474597  0.58536844  1
  C  C34  1  0.38102128  0.04577376  0.58483934  1
  C  C35  1  0.66611390  0.62039360  0.58479711  1
  C  C36  1  0.95475389  0.62023123  0.08466303  1
  C  C37  1  0.66447845  0.04534469  0.08518141  1
  C  C38  1  0.37955607  0.33376102  0.08512210  1
  C  C39  1  0.19892914  0.02788038  0.30438259  1
  C  C40  1  0.83405176  0.80759186  0.30666161  1
  C  C41  1  0.97588997  0.16658355  0.30607167  1
  C  C42  1  0.18804723  0.16745818  0.80611841  1
  C  C43  1  0.97479929  0.80274529  0.80457360  1
  C  C44  1  0.82795388  0.02380763  0.80424020  1
  C  C45  1  0.79962479  0.96765118  0.69474937  1
  C  C46  1  0.15919278  0.19396416  0.69383848  1
  C  C47  1  0.02765331  0.83085685  0.69523002  1
  C  C48  1  0.80585223  0.84010029  0.19345167  1
  C  C49  1  0.03853078  0.19779530  0.19312073  1
  C  C50  1  0.16821130  0.96772670  0.19457798  1
  C  C51  1  0.88046183  0.36411473  0.64096650  1
  C  C52  1  0.48938124  0.12199223  0.63859592  1
  C  C53  1  0.63498128  0.51191975  0.63850773  1
  C  C54  1  0.87922186  0.51237893  0.13804979  1
  C  C55  1  0.63407324  0.11815399  0.14029707  1
  C  C56  1  0.48271374  0.36329932  0.14026721  1
  C  C57  1  0.46691160  0.30659504  0.02930771  1
  C  C58  1  0.84095501  0.53572290  0.02830297  1
  C  C59  1  0.69451993  0.16024420  0.02934123  1
  C  C60  1  0.46286631  0.15914604  0.52854628  1
  C  C61  1  0.69495237  0.53593483  0.52850286  1
  C  C62  1  0.83965951  0.30522493  0.52970710  1
  C  C63  1  0.52959619  0.69737506  0.97402918  1
  C  C64  1  0.16846076  0.47048997  0.97359895  1
  C  C65  1  0.30293636  0.83235882  0.97407484  1
  C  C66  1  0.52813570  0.83154380  0.47376810  1
  C  C67  1  0.30282765  0.47105281  0.47380518  1
  C  C68  1  0.16749376  0.69623039  0.47423846  1
  C  C69  1  0.13480026  0.63415008  0.35962838  1
  C  C70  1  0.50257970  0.86938874  0.35770337  1
  C  C71  1  0.36677995  0.49819753  0.35829399  1
  C  C72  1  0.13241944  0.49904393  0.85770856  1
  C  C73  1  0.36556453  0.86425682  0.85909884  1
  C  C74  1  0.49842063  0.63386027  0.85949495  1
  C  C75  1  0.02644584  0.83884376  0.40908105  1
  C  C76  1  0.81214851  0.97577120  0.40985988  1
  C  C77  1  0.16405195  0.18608670  0.40843679  1
  C  C78  1  0.02182547  0.18632754  0.90817039  1
  C  C79  1  0.16216637  0.97388080  0.90873586  1
  C  C80  1  0.81316855  0.83726024  0.90755861  1
  C  C81  1  0.97463489  0.16682579  0.59032140  1
  C  C82  1  0.19141980  0.02218107  0.59103583  1
  C  C83  1  0.83099787  0.80822710  0.59044708  1
  C  C84  1  0.97825857  0.80865417  0.08989830  1
  C  C85  1  0.83203927  0.02435033  0.08966428  1
  C  C86  1  0.19257333  0.16752952  0.08922781  1
  C  C87  1  0.70166040  0.16445203  0.74370482  1
  C  C88  1  0.48473061  0.30982285  0.74596733  1
  C  C89  1  0.84546496  0.52898105  0.74416874  1
  C  C90  1  0.67575018  0.51143868  0.24551114  1
  C  C91  1  0.82061006  0.29686417  0.24498143  1
  C  C92  1  0.46490543  0.15727361  0.24353158  1
  C  C93  1  0.64101761  0.49507420  0.92670685  1
  C  C94  1  0.85343476  0.35814797  0.92663812  1
  C  C95  1  0.50446261  0.14657101  0.92701041  1
  C  C96  1  0.64187860  0.14720527  0.42689687  1
  C  C97  1  0.50565153  0.35922139  0.42657801  1
  C  C98  1  0.85371274  0.49485797  0.42697113  1
  C  C99  1  0.35366760  0.49485564  0.07470755  1
  C  C100  1  0.14182870  0.64639616  0.07422064  1
  C  C101  1  0.50542738  0.85847429  0.07470267  1
  C  C102  1  0.35257206  0.85847637  0.57444573  1
  C  C103  1  0.50552793  0.64678229  0.57439970  1
  C  C104  1  0.14070076  0.49353937  0.57494240  1
  C  C105  1  0.30554923  0.83375175  0.25624312  1
  C  C106  1  0.52270642  0.70170059  0.25665123  1
  C  C107  1  0.17908625  0.47864570  0.25634604  1
  C  C108  1  0.29624634  0.47705372  0.75662808  1
  C  C109  1  0.16782685  0.69758722  0.75637426  1
  C  C110  1  0.52980791  0.83345080  0.75649211  1
