# generated using pymatgen
data_Cu2NiC15
_symmetry_space_group_name_H-M   'P 1'
_cell_length_a   8.85833530
_cell_length_b   8.84857451
_cell_length_c   23.16518172
_cell_angle_alpha   89.72253394
_cell_angle_beta   90.01551451
_cell_angle_gamma   119.98341855
_symmetry_Int_Tables_number   1
_chemical_formula_structural   Cu2NiC15
_chemical_formula_sum   'Cu12 Ni6 C90'
_cell_volume   1572.74343406
_cell_formula_units_Z   6
loop_
 _symmetry_equiv_pos_site_id
 _symmetry_equiv_pos_as_xyz
  1  'x, y, z'
loop_
 _atom_site_type_symbol
 _atom_site_label
 _atom_site_symmetry_multiplicity
 _atom_site_fract_x
 _atom_site_fract_y
 _atom_site_fract_z
 _atom_site_occupancy
  C  C0  1  0.97166696  0.98162380  0.51022235  1
  C  C1  1  0.04177708  0.03323371  0.00154027  1
  C  C2  1  0.67504958  0.30098741  0.83633328  1
  C  C3  1  0.66238383  0.30621239  0.33622475  1
  C  C4  1  0.33654221  0.65340855  0.16496698  1
  C  C5  1  0.37281194  0.68139892  0.67227375  1
  C  C6  1  0.99159433  0.99884330  0.35367951  1
  C  C7  1  0.99717072  0.01311001  0.85474003  1
  C  C8  1  0.66597963  0.33438400  0.68873523  1
  C  C9  1  0.65658156  0.33443139  0.18489997  1
  C  C10  1  0.65272964  0.32092312  0.97792659  1
  C  C11  1  0.66912650  0.33551744  0.48133550  1
  C  C12  1  0.32193840  0.65636747  0.01925425  1
  C  C13  1  0.35440179  0.67580281  0.52088670  1
  C  C14  1  0.33157357  0.67679901  0.81486688  1
  C  C15  1  0.97372241  0.97987573  0.64705272  1
  C  C16  1  0.01208623  0.01186592  0.14495395  1
  C  C17  1  0.34215567  0.68062491  0.31520016  1
  Ni  Ni18  1  0.70497354  0.99475711  0.74691440  1
  Ni  Ni19  1  0.67680006  0.63134835  0.58338732  1
  Ni  Ni20  1  0.36575551  0.33413698  0.08317084  1
  Ni  Ni21  1  0.03878055  0.37754775  0.91612091  1
  Ni  Ni22  1  0.32392970  0.95372056  0.91803275  1
  Ni  Ni23  1  0.62206823  0.96237552  0.41268132  1
  Cu  Cu24  1  0.28791198  0.99499465  0.24897268  1
  Cu  Cu25  1  0.71070658  0.71032130  0.24812348  1
  Cu  Cu26  1  0.00458564  0.29610911  0.24980307  1
  Cu  Cu27  1  0.28659422  0.28752822  0.74688487  1
  Cu  Cu28  1  0.00106499  0.71244199  0.74808801  1
  Cu  Cu29  1  0.96069029  0.33567415  0.58292033  1
  Cu  Cu30  1  0.37298520  0.04338721  0.58362550  1
  Cu  Cu31  1  0.95464160  0.62526136  0.08502789  1
  Cu  Cu32  1  0.66872900  0.04256612  0.08569364  1
  Cu  Cu33  1  0.62177425  0.66668580  0.91687580  1
  Cu  Cu34  1  0.33295173  0.37743282  0.41462815  1
  Cu  Cu35  1  0.04581403  0.66604630  0.41445561  1
  C  C36  1  0.20831580  0.02118384  0.30235168  1
  C  C37  1  0.81784593  0.79630273  0.30149745  1
  C  C38  1  0.98176852  0.18471892  0.30284946  1
  C  C39  1  0.20694870  0.18277772  0.80049751  1
  C  C40  1  0.98084824  0.79267637  0.80066265  1
  C  C41  1  0.81866970  0.01738891  0.80584317  1
  C  C42  1  0.78992942  0.97510642  0.68965426  1
  C  C43  1  0.18810975  0.20302658  0.69540561  1
  C  C44  1  0.02877851  0.81547576  0.69613878  1
  C  C45  1  0.79757498  0.81466595  0.19736769  1
  C  C46  1  0.02105574  0.21050212  0.19872527  1
  C  C47  1  0.18691997  0.98432006  0.19816745  1
  C  C48  1  0.87320194  0.35398641  0.63440565  1
  C  C49  1  0.48605522  0.12022812  0.63468123  1
  C  C50  1  0.65135733  0.50735888  0.63911175  1
  C  C51  1  0.87015253  0.51137262  0.13750352  1
  C  C52  1  0.65122124  0.13582073  0.13724314  1
  C  C53  1  0.48808749  0.35285490  0.14157008  1
  C  C54  1  0.47780896  0.32467182  0.02881407  1
  C  C55  1  0.85548846  0.53794166  0.03312010  1
  C  C56  1  0.69380878  0.14985730  0.03310070  1
  C  C57  1  0.46491708  0.14534686  0.53061960  1
  C  C58  1  0.67765273  0.52295345  0.52557773  1
  C  C59  1  0.84890551  0.31007716  0.53064509  1
  C  C60  1  0.54081641  0.69164139  0.96905066  1
  C  C61  1  0.15989441  0.46483643  0.97367658  1
  C  C62  1  0.31450744  0.84564087  0.97632431  1
  C  C63  1  0.53387853  0.84377178  0.47156089  1
  C  C64  1  0.30189802  0.45392174  0.46744811  1
  C  C65  1  0.14754856  0.68790747  0.46737620  1
  C  C66  1  0.12066202  0.63587195  0.36304899  1
  C  C67  1  0.51151391  0.87847623  0.35641110  1
  C  C68  1  0.35490615  0.48008134  0.36309216  1
  C  C69  1  0.13576912  0.48602984  0.85848368  1
  C  C70  1  0.36003792  0.86758200  0.86139424  1
  C  C71  1  0.51586636  0.64036409  0.86495550  1
  C  C72  1  0.03008318  0.82717668  0.40776502  1
  C  C73  1  0.81977166  0.98208716  0.40798110  1
  C  C74  1  0.17871131  0.19616133  0.40900296  1
  C  C75  1  0.01267784  0.18162830  0.91225431  1
  C  C76  1  0.14754990  0.96301211  0.90955831  1
  C  C77  1  0.79565919  0.82106666  0.91057208  1
  C  C78  1  0.99012947  0.18876481  0.58650817  1
  C  C79  1  0.20722371  0.03710219  0.58887196  1
  C  C80  1  0.84717572  0.81704211  0.58364851  1
  C  C81  1  0.96571433  0.79374108  0.09258772  1
  C  C82  1  0.81900150  0.01944974  0.09281428  1
  C  C83  1  0.17851268  0.16292764  0.08696574  1
  C  C84  1  0.68215575  0.17049019  0.74390185  1
  C  C85  1  0.46608136  0.30828885  0.74407155  1
  C  C86  1  0.84127208  0.53428593  0.74330340  1
  C  C87  1  0.70279648  0.53480659  0.24599933  1
  C  C88  1  0.84206478  0.30953143  0.24744873  1
  C  C89  1  0.46976834  0.15538236  0.24542461  1
  C  C90  1  0.64150262  0.51155855  0.92335808  1
  C  C91  1  0.85263710  0.36793871  0.92476206  1
  C  C92  1  0.49446631  0.15037953  0.92261358  1
  C  C93  1  0.65464223  0.15940432  0.42322572  1
  C  C94  1  0.48857323  0.35641491  0.42256794  1
  C  C95  1  0.86419656  0.51551241  0.42180715  1
  C  C96  1  0.36234162  0.51752053  0.08186636  1
  C  C97  1  0.13220339  0.64438798  0.08246483  1
  C  C98  1  0.50495152  0.87398915  0.08220548  1
  C  C99  1  0.34784042  0.86359596  0.57661963  1
  C  C100  1  0.49348065  0.64187511  0.57802261  1
  C  C101  1  0.12704342  0.50206806  0.57462979  1
  C  C102  1  0.30540925  0.83891992  0.25380611  1
  C  C103  1  0.53327450  0.68065625  0.25455262  1
  C  C104  1  0.15839997  0.46984290  0.25757613  1
  C  C105  1  0.30849886  0.46371434  0.75336354  1
  C  C106  1  0.15200186  0.68158101  0.75396753  1
  C  C107  1  0.50941667  0.82320956  0.75503571  1
