# generated using pymatgen
data_Cu7NiC5
_symmetry_space_group_name_H-M   'P 1'
_cell_length_a   6.68129200
_cell_length_b   5.21795100
_cell_length_c   9.08663547
_cell_angle_alpha   89.38793239
_cell_angle_beta   90.00000000
_cell_angle_gamma   90.00000000
_symmetry_Int_Tables_number   1
_chemical_formula_structural   Cu7NiC5
_chemical_formula_sum   'Cu14 Ni2 C10'
_cell_volume   316.76615565
_cell_formula_units_Z   2
loop_
 _symmetry_equiv_pos_site_id
 _symmetry_equiv_pos_as_xyz
  1  'x, y, z'
loop_
 _atom_site_type_symbol
 _atom_site_label
 _atom_site_symmetry_multiplicity
 _atom_site_fract_x
 _atom_site_fract_y
 _atom_site_fract_z
 _atom_site_occupancy
  C  C0  1  0.49606300  0.25084400  0.26210900  1
  C  C1  1  0.99606300  0.74915600  0.73789100  1
  C  C2  1  0.50393700  0.74915600  0.73789100  1
  C  C3  1  0.00393700  0.25084400  0.26210900  1
  C  C4  1  0.75000000  0.23377900  0.91652400  1
  C  C5  1  0.25000000  0.76622100  0.08347600  1
  C  C6  1  0.25000000  0.21809300  0.64574300  1
  C  C7  1  0.75000000  0.78190700  0.35425700  1
  C  C8  1  0.75000000  0.29770400  0.58359600  1
  C  C9  1  0.25000000  0.70229600  0.41640400  1
  Ni  Ni10  1  0.25000000  0.27179100  0.93757800  1
  Ni  Ni11  1  0.75000000  0.72820900  0.06242200  1
  Cu  Cu12  1  0.25000000  0.04736300  0.87562000  1
  Cu  Cu13  1  0.75000000  0.95263700  0.12438000  1
  Cu  Cu14  1  0.25000000  0.47664400  0.85426900  1
  Cu  Cu15  1  0.75000000  0.52335600  0.14573100  1
  Cu  Cu16  1  0.25000000  0.29022900  0.07994900  1
  Cu  Cu17  1  0.75000000  0.70977100  0.92005100  1
  Cu  Cu18  1  0.93616300  0.21795200  0.67786700  1
  Cu  Cu19  1  0.43616300  0.78204800  0.32213300  1
  Cu  Cu20  1  0.06383700  0.78204800  0.32213300  1
  Cu  Cu21  1  0.56383700  0.21795200  0.67786700  1
  Cu  Cu22  1  0.75000000  0.16875100  0.43156000  1
  Cu  Cu23  1  0.25000000  0.83124900  0.56844000  1
  Cu  Cu24  1  0.25000000  0.40479300  0.43752700  1
  Cu  Cu25  1  0.75000000  0.59520700  0.56247300  1
