# generated using pymatgen
data_Cu4NiC12
_symmetry_space_group_name_H-M   'P 1'
_cell_length_a   5.33139162
_cell_length_b   7.17385525
_cell_length_c   5.63299382
_cell_angle_alpha   93.71228387
_cell_angle_beta   88.81309473
_cell_angle_gamma   89.74279948
_symmetry_Int_Tables_number   1
_chemical_formula_structural   Cu4NiC12
_chemical_formula_sum   'Cu4 Ni1 C12'
_cell_volume   214.94119139
_cell_formula_units_Z   1
loop_
 _symmetry_equiv_pos_site_id
 _symmetry_equiv_pos_as_xyz
  1  'x, y, z'
loop_
 _atom_site_type_symbol
 _atom_site_label
 _atom_site_symmetry_multiplicity
 _atom_site_fract_x
 _atom_site_fract_y
 _atom_site_fract_z
 _atom_site_occupancy
  Ni  Ni0  1  0.51512800  0.21117300  0.10551900  1
  Cu  Cu1  1  0.48842600  0.51258900  0.50927900  1
  Cu  Cu2  1  0.55770100  0.99572600  0.52449600  1
  Cu  Cu3  1  0.98338500  0.49682800  0.99449000  1
  Cu  Cu4  1  0.01171400  0.99379600  0.98250900  1
  C  C5  1  0.87671000  0.23926400  0.00162700  1
  C  C6  1  0.81359100  0.95684900  0.68230100  1
  C  C7  1  0.56555400  0.25530200  0.46601600  1
  C  C8  1  0.41231300  0.74957400  0.50324500  1
  C  C9  1  0.06899500  0.75720600  0.98643700  1
  C  C10  1  0.79722200  0.55176500  0.30421300  1
  C  C11  1  0.68921700  0.95427100  0.18779200  1
  C  C12  1  0.66542500  0.53852600  0.80907900  1
  C  C13  1  0.31073800  0.44381200  0.17536800  1
  C  C14  1  0.33693400  0.07615600  0.81710400  1
  C  C15  1  0.22571700  0.06057400  0.25846100  1
  C  C16  1  0.18123000  0.44766300  0.69206400  1
