# generated using pymatgen
data_Cu5Ni7C66
_symmetry_space_group_name_H-M   'P 1'
_cell_length_a   18.14615951
_cell_length_b   9.09865256
_cell_length_c   22.88431314
_cell_angle_alpha   90.06468897
_cell_angle_beta   90.05818551
_cell_angle_gamma   120.10563902
_symmetry_Int_Tables_number   1
_chemical_formula_structural   Cu5Ni7C66
_chemical_formula_sum   'Cu15 Ni21 C198'
_cell_volume   3268.63201298
_cell_formula_units_Z   3
loop_
 _symmetry_equiv_pos_site_id
 _symmetry_equiv_pos_as_xyz
  1  'x, y, z'
loop_
 _atom_site_type_symbol
 _atom_site_label
 _atom_site_symmetry_multiplicity
 _atom_site_fract_x
 _atom_site_fract_y
 _atom_site_fract_z
 _atom_site_occupancy
  C  C0  1  0.81746089  0.01272118  0.24737157  1
  C  C1  1  0.18825419  0.37608245  0.24611886  1
  C  C2  1  0.69057258  0.36106603  0.25219578  1
  C  C3  1  0.99127139  0.61299151  0.25205984  1
  C  C4  1  0.49399288  0.63521084  0.24443557  1
  C  C5  1  0.31847234  0.62110766  0.74767862  1
  C  C6  1  0.99412202  0.35160303  0.74625409  1
  C  C7  1  0.49068268  0.37205320  0.75122925  1
  C  C8  1  0.19329602  0.02469344  0.74731326  1
  C  C9  1  0.68722208  0.99748374  0.74680410  1
  C  C10  1  0.14844707  0.32654791  0.58157720  1
  C  C11  1  0.01624178  0.69288364  0.58360317  1
  C  C12  1  0.48835065  0.66408608  0.91801568  1
  C  C13  1  0.99234148  0.67663807  0.92026646  1
  C  C14  1  0.84887664  0.02514428  0.91375090  1
  C  C15  1  0.49273921  0.31102999  0.41997116  1
  C  C16  1  0.16396627  0.02383557  0.41957671  1
  C  C17  1  0.35009095  0.66918861  0.41283106  1
  C  C18  1  0.99654936  0.00327834  0.49971709  1
  C  C19  1  0.51181701  0.01027678  0.49509349  1
  C  C20  1  0.01026942  0.01225489  0.99531259  1
  C  C21  1  0.50292190  0.01023840  0.00059982  1
  C  C22  1  0.32831960  0.31621571  0.82898264  1
  C  C23  1  0.83097392  0.33345100  0.83054597  1
  C  C24  1  0.33651450  0.33961871  0.32993463  1
  C  C25  1  0.83168269  0.33918365  0.33069262  1
  C  C26  1  0.17421810  0.67035132  0.16113673  1
  C  C27  1  0.66185139  0.67129011  0.16317784  1
  C  C28  1  0.16995081  0.67572903  0.66436356  1
  C  C29  1  0.67261616  0.67790611  0.66157236  1
  C  C30  1  0.99469876  0.99720520  0.35354670  1
  C  C31  1  0.50507252  0.99249456  0.35460061  1
  C  C32  1  0.00323113  0.01566134  0.85516373  1
  C  C33  1  0.49860599  0.00222222  0.85328908  1
  C  C34  1  0.99676101  0.01265643  0.64606420  1
  C  C35  1  0.49808197  0.99210961  0.64819191  1
  C  C36  1  0.99733639  0.00488880  0.14729790  1
  C  C37  1  0.49465615  0.97470983  0.14560014  1
  C  C38  1  0.33487405  0.32408704  0.98138986  1
  C  C39  1  0.83226069  0.33746922  0.97832880  1
  C  C40  1  0.33125328  0.32617139  0.48046654  1
  C  C41  1  0.83477592  0.33884275  0.47861941  1
  C  C42  1  0.66088062  0.66030435  0.01608499  1
  C  C43  1  0.16448413  0.67163242  0.51621586  1
  C  C44  1  0.16890000  0.66346304  0.31634041  1
  C  C45  1  0.66574479  0.66267201  0.31656058  1
  C  C46  1  0.16619149  0.66973095  0.81705796  1
  C  C47  1  0.66992796  0.67490173  0.81645680  1
  C  C48  1  0.32910577  0.31733781  0.68979687  1
  C  C49  1  0.83864116  0.31255384  0.67749336  1
  C  C50  1  0.34011328  0.36227527  0.17663846  1
  C  C51  1  0.83374461  0.33495715  0.19091766  1
  C  C52  1  0.15821931  0.66856167  0.01029597  1
  C  C53  1  0.65677298  0.64814363  0.50973300  1
  Ni  Ni54  1  0.64690225  0.99889957  0.24859439  1
  Ni  Ni55  1  0.35108663  0.70250478  0.25103827  1
  Ni  Ni56  1  0.85288861  0.70812723  0.24890540  1
  Ni  Ni57  1  0.00137243  0.29526586  0.24955618  1
  Ni  Ni58  1  0.14697820  0.29707692  0.74940781  1
  Ni  Ni59  1  0.50038734  0.70536057  0.75031409  1
  Ni  Ni60  1  0.35302683  0.99725135  0.74963657  1
  Ni  Ni61  1  0.85085704  0.99863396  0.75080104  1
  Ni  Ni62  1  0.97982445  0.33587476  0.58386954  1
  Ni  Ni63  1  0.18708649  0.03726434  0.58685094  1
  Ni  Ni64  1  0.48208364  0.62539930  0.08343684  1
  Ni  Ni65  1  0.81158851  0.66722358  0.91773836  1
  Ni  Ni66  1  0.02349891  0.37777467  0.92003562  1
  Ni  Ni67  1  0.51961664  0.37047140  0.91469892  1
  Ni  Ni68  1  0.16796440  0.96270911  0.91748104  1
  Ni  Ni69  1  0.66510938  0.95958191  0.91731319  1
  Ni  Ni70  1  0.31356030  0.95820085  0.41639114  1
  Ni  Ni71  1  0.16501205  0.37136038  0.41872905  1
  Ni  Ni72  1  0.66777111  0.37385730  0.41731662  1
  Ni  Ni73  1  0.01796816  0.66440913  0.41409651  1
  Ni  Ni74  1  0.52272998  0.66892173  0.41972412  1
  Cu  Cu75  1  0.14507226  0.00085522  0.24916833  1
  Cu  Cu76  1  0.49803448  0.28750000  0.25047643  1
  Cu  Cu77  1  0.64542275  0.28979657  0.74886342  1
  Cu  Cu78  1  0.99765358  0.70656610  0.75047803  1
  Cu  Cu79  1  0.48221977  0.33476076  0.58574628  1
  Cu  Cu80  1  0.68605724  0.03776280  0.58437504  1
  Cu  Cu81  1  0.33572632  0.62937474  0.58390206  1
  Cu  Cu82  1  0.82942552  0.61830404  0.58568305  1
  Cu  Cu83  1  0.98068356  0.62736362  0.08592404  1
  Cu  Cu84  1  0.33151925  0.03964650  0.08629601  1
  Cu  Cu85  1  0.83381939  0.04144449  0.08421009  1
  Cu  Cu86  1  0.18609764  0.33418436  0.08457872  1
  Cu  Cu87  1  0.68779002  0.33495218  0.08557573  1
  Cu  Cu88  1  0.31234314  0.66526889  0.91815665  1
  Cu  Cu89  1  0.81123599  0.95782419  0.41861935  1
  C  C90  1  0.10544024  0.02627513  0.30293938  1
  C  C91  1  0.60226258  0.03393663  0.30452118  1
  C  C92  1  0.41129608  0.79387502  0.30809186  1
  C  C93  1  0.91519647  0.80126191  0.30497241  1
  C  C94  1  0.49044539  0.19037428  0.30428774  1
  C  C95  1  0.98873939  0.17094623  0.30484060  1
  C  C96  1  0.09824774  0.16741303  0.80318223  1
  C  C97  1  0.60451745  0.18124874  0.80141558  1
  C  C98  1  0.48848774  0.79975826  0.80788959  1
  C  C99  1  0.99024675  0.79176289  0.80341816  1
  C  C100  1  0.41531523  0.02266518  0.80481531  1
  C  C101  1  0.91071793  0.02901001  0.80816571  1
  C  C102  1  0.40129676  0.96761108  0.69325263  1
  C  C103  1  0.89954302  0.97618193  0.69416604  1
  C  C104  1  0.08679965  0.20887242  0.69070452  1
  C  C105  1  0.59003843  0.20663971  0.69668648  1
  C  C106  1  0.01157949  0.81190509  0.69739560  1
  C  C107  1  0.51921262  0.84013618  0.69553783  1
  C  C108  1  0.39917754  0.82194378  0.19404514  1
  C  C109  1  0.90162295  0.83690150  0.19333798  1
  C  C110  1  0.01988796  0.20202049  0.19373125  1
  C  C111  1  0.51291554  0.20818167  0.19864302  1
  C  C112  1  0.08884085  0.97433740  0.19771010  1
  C  C113  1  0.58321298  0.96689241  0.19298401  1
  C  C114  1  0.44057668  0.35235925  0.63799560  1
  C  C115  1  0.94803629  0.38424398  0.64338584  1
  C  C116  1  0.24077310  0.12445275  0.64476117  1
  C  C117  1  0.73246177  0.11764334  0.63975691  1
  C  C118  1  0.32444099  0.53037186  0.63616321  1
  C  C119  1  0.81849451  0.51587592  0.63787255  1
  C  C120  1  0.44617625  0.52493524  0.14436481  1
  C  C121  1  0.93716755  0.52563431  0.13803062  1
  C  C122  1  0.31973189  0.12093916  0.13800753  1
  C  C123  1  0.82415985  0.11970661  0.13697481  1
  C  C124  1  0.23234964  0.34707721  0.13989399  1
  C  C125  1  0.73681039  0.35591959  0.13872433  1
  C  C126  1  0.23006029  0.31020181  0.03346392  1
  C  C127  1  0.73101848  0.31117070  0.03344922  1
  C  C128  1  0.42143848  0.53048370  0.02599884  1
  C  C129  1  0.92766057  0.54457335  0.03207397  1
  C  C130  1  0.34266463  0.14655380  0.03256657  1
  C  C131  1  0.84408758  0.14486458  0.03099028  1
  C  C132  1  0.23041513  0.16037513  0.52839731  1
  C  C133  1  0.72920016  0.14862481  0.53318710  1
  C  C134  1  0.34726202  0.54925904  0.53017633  1
  C  C135  1  0.84327653  0.53586370  0.53259826  1
  C  C136  1  0.42916742  0.31175461  0.53177095  1
  C  C137  1  0.91728758  0.31256353  0.52933790  1
  C  C138  1  0.27499001  0.69291802  0.96988272  1
  C  C139  1  0.76887658  0.70577717  0.97356809  1
  C  C140  1  0.08132607  0.45615528  0.97597253  1
  C  C141  1  0.57956109  0.46410147  0.97121299  1
  C  C142  1  0.14675684  0.84145966  0.97298341  1
  C  C143  1  0.64812617  0.83259361  0.97157141  1
  C  C144  1  0.26934942  0.83303784  0.47189441  1
  C  C145  1  0.77413123  0.85620451  0.47024645  1
  C  C146  1  0.15355866  0.45857948  0.47711895  1
  C  C147  1  0.64712418  0.45307409  0.47298580  1
  C  C148  1  0.07901324  0.70101213  0.47204901  1
  C  C149  1  0.58072748  0.70838831  0.47582198  1
  C  C150  1  0.06258858  0.64039820  0.35573054  1
  C  C151  1  0.56278922  0.63199402  0.35962876  1
  C  C152  1  0.24909536  0.87517420  0.36080382  1
  C  C153  1  0.76064980  0.87844905  0.36378301  1
  C  C154  1  0.18427229  0.49341330  0.36107683  1
  C  C155  1  0.68243505  0.48956355  0.35714479  1
  C  C156  1  0.06180998  0.49401258  0.85985161  1
  C  C157  1  0.56094262  0.48993449  0.85649968  1
  C  C158  1  0.18252678  0.87584330  0.85741457  1
  C  C159  1  0.68597219  0.88221971  0.85858614  1
  C  C160  1  0.26120195  0.64309539  0.86372154  1
  C  C161  1  0.75184816  0.63240127  0.86029193  1
  C  C162  1  0.01350784  0.83943696  0.40888067  1
  C  C163  1  0.50360277  0.82593786  0.41168177  1
  C  C164  1  0.40795978  0.98454814  0.40867270  1
  C  C165  1  0.89844646  0.98068167  0.41057115  1
  C  C166  1  0.08591105  0.17883440  0.41007237  1
  C  C167  1  0.57938986  0.19093455  0.40766419  1
  C  C168  1  0.00310939  0.18199945  0.91207572  1
  C  C169  1  0.50804519  0.18213767  0.90992051  1
  C  C170  1  0.07977962  0.96950692  0.90757129  1
  C  C171  1  0.57887654  0.96963254  0.91040294  1
  C  C172  1  0.40018965  0.81499258  0.91003931  1
  C  C173  1  0.90697973  0.83130862  0.90925749  1
  C  C174  1  0.48899171  0.17580377  0.58922938  1
  C  C175  1  0.98998765  0.16466257  0.58597837  1
  C  C176  1  0.08848145  0.00896744  0.59012660  1
  C  C177  1  0.59956774  0.02582227  0.58806158  1
  C  C178  1  0.41327760  0.80342127  0.58701682  1
  C  C179  1  0.91323895  0.78646530  0.58950358  1
  C  C180  1  0.48877090  0.81594633  0.08505268  1
  C  C181  1  0.98790611  0.80004636  0.08952365  1
  C  C182  1  0.41351676  0.03545637  0.08966905  1
  C  C183  1  0.91373624  0.02801393  0.08712504  1
  C  C184  1  0.09968257  0.17289670  0.08757419  1
  C  C185  1  0.60053228  0.18350800  0.08853292  1
  C  C186  1  0.34566146  0.16594797  0.74842299  1
  C  C187  1  0.84031148  0.16899474  0.74662203  1
  C  C188  1  0.24152004  0.32425999  0.74695867  1
  C  C189  1  0.72907247  0.30586299  0.74275515  1
  C  C190  1  0.41562989  0.52287212  0.74250217  1
  C  C191  1  0.92403306  0.53600085  0.74671020  1
  C  C192  1  0.33997255  0.51103095  0.24714656  1
  C  C193  1  0.84311536  0.52245356  0.24410374  1
  C  C194  1  0.42467365  0.31158014  0.24632774  1
  C  C195  1  0.91640792  0.30842575  0.24426672  1
  C  C196  1  0.22886983  0.15216985  0.24283183  1
  C  C197  1  0.74083085  0.16343255  0.24343891  1
  C  C198  1  0.32281611  0.51317787  0.92187386  1
  C  C199  1  0.82664741  0.50438656  0.92695352  1
  C  C200  1  0.42751317  0.36364301  0.92406766  1
  C  C201  1  0.92717462  0.35929745  0.92727224  1
  C  C202  1  0.25018648  0.15383511  0.92461584  1
  C  C203  1  0.75200048  0.14308247  0.92750023  1
  C  C204  1  0.32346486  0.14692508  0.42578111  1
  C  C205  1  0.81984069  0.12897039  0.42226997  1
  C  C206  1  0.25299151  0.35915220  0.42488650  1
  C  C207  1  0.74909812  0.34481814  0.42429909  1
  C  C208  1  0.42713081  0.49519595  0.42584982  1
  C  C209  1  0.92484034  0.49682587  0.42377884  1
  C  C210  1  0.17698385  0.48372719  0.07903056  1
  C  C211  1  0.68092475  0.48989056  0.07731994  1
  C  C212  1  0.06566890  0.64745781  0.08123727  1
  C  C213  1  0.57842226  0.65111002  0.07769040  1
  C  C214  1  0.25918506  0.86728214  0.07826554  1
  C  C215  1  0.75931253  0.86826218  0.07792533  1
  C  C216  1  0.17333586  0.84522981  0.57833602  1
  C  C217  1  0.67722733  0.87006061  0.57913958  1
  C  C218  1  0.25812229  0.64449792  0.57723783  1
  C  C219  1  0.75876581  0.64946003  0.57745199  1
  C  C220  1  0.07768162  0.49948826  0.57665778  1
  C  C221  1  0.56781208  0.48418060  0.58033255  1
  C  C222  1  0.14860481  0.84187200  0.25382454  1
  C  C223  1  0.65291627  0.82470847  0.25628418  1
  C  C224  1  0.25615394  0.68207326  0.25446714  1
  C  C225  1  0.75940990  0.69556994  0.25485073  1
  C  C226  1  0.08611734  0.48469819  0.25414046  1
  C  C227  1  0.57859410  0.46224093  0.25505965  1
  C  C228  1  0.15130990  0.48181802  0.75685256  1
  C  C229  1  0.64847129  0.45493394  0.75460336  1
  C  C230  1  0.07823259  0.69444820  0.75487521  1
  C  C231  1  0.58576084  0.68675706  0.75410890  1
  C  C232  1  0.25914130  0.82279659  0.75479115  1
  C  C233  1  0.75560662  0.83031483  0.75390639  1
