# generated using pymatgen
data_CuNi2C17
_symmetry_space_group_name_H-M   'P 1'
_cell_length_a   8.80537789
_cell_length_b   8.74069526
_cell_length_c   21.64587641
_cell_angle_alpha   91.09757086
_cell_angle_beta   90.00000000
_cell_angle_gamma   120.24509911
_symmetry_Int_Tables_number   1
_chemical_formula_structural   CuNi2C17
_chemical_formula_sum   'Cu6 Ni12 C102'
_cell_volume   1438.84852723
_cell_formula_units_Z   6
loop_
 _symmetry_equiv_pos_site_id
 _symmetry_equiv_pos_as_xyz
  1  'x, y, z'
loop_
 _atom_site_type_symbol
 _atom_site_label
 _atom_site_symmetry_multiplicity
 _atom_site_fract_x
 _atom_site_fract_y
 _atom_site_fract_z
 _atom_site_occupancy
  C  C0  1  0.35956003  0.35526412  0.24703008  1
  C  C1  1  0.99599103  0.63225072  0.24582167  1
  C  C2  1  0.63625969  0.63225072  0.74582167  1
  C  C3  1  0.99570409  0.35526412  0.74703008  1
  C  C4  1  0.02622703  0.68859712  0.58036308  1
  C  C5  1  0.66265803  0.96558372  0.57915467  1
  C  C6  1  0.30292669  0.96558372  0.07915467  1
  C  C7  1  0.66237109  0.68859712  0.08036308  1
  C  C8  1  0.69289303  0.02193112  0.91369708  1
  C  C9  1  0.32932403  0.29891772  0.91248867  1
  C  C10  1  0.96959269  0.29891772  0.41248867  1
  C  C11  1  0.32903709  0.02193112  0.41369708  1
  C  C12  1  0.98340900  0.98674151  0.49726285  1
  C  C13  1  0.00333251  0.98674151  0.99726285  1
  C  C14  1  0.65007600  0.32007451  0.83059585  1
  C  C15  1  0.66999951  0.32007451  0.33059585  1
  C  C16  1  0.31674200  0.65340851  0.16392985  1
  C  C17  1  0.33666551  0.65340851  0.66392985  1
  C  C18  1  0.99405806  0.99742264  0.35186757  1
  C  C19  1  0.00336458  0.99742264  0.85186757  1
  C  C20  1  0.66072506  0.33075564  0.68520057  1
  C  C21  1  0.67003158  0.33075564  0.18520057  1
  C  C22  1  0.32739106  0.66408964  0.01853457  1
  C  C23  1  0.33669758  0.66408964  0.51853457  1
  C  C24  1  0.99187614  0.01110562  0.64879141  1
  C  C25  1  0.01922947  0.01110562  0.14879141  1
  C  C26  1  0.65854314  0.34443862  0.98212441  1
  C  C27  1  0.68589647  0.34443862  0.48212441  1
  C  C28  1  0.32520914  0.67777262  0.31545841  1
  C  C29  1  0.35256247  0.67777262  0.81545841  1
  Ni  Ni30  1  0.29425075  0.99670632  0.25143574  1
  Ni  Ni31  1  0.00540665  0.29447065  0.25258657  1
  Ni  Ni32  1  0.28906400  0.29447065  0.75258657  1
  Ni  Ni33  1  0.70245557  0.99670632  0.75143574  1
  Ni  Ni34  1  0.96091775  0.33003932  0.58476874  1
  Ni  Ni35  1  0.67207365  0.62780365  0.58591957  1
  Ni  Ni36  1  0.95573100  0.62780365  0.08591957  1
  Ni  Ni37  1  0.36912257  0.33003932  0.08476874  1
  Ni  Ni38  1  0.62758375  0.66337332  0.91810274  1
  Ni  Ni39  1  0.33873965  0.96113765  0.91925357  1
  Ni  Ni40  1  0.62239700  0.96113765  0.41925357  1
  Ni  Ni41  1  0.03578857  0.66337332  0.41810274  1
  Cu  Cu42  1  0.70219142  0.71364202  0.24853605  1
  Cu  Cu43  1  0.01145060  0.71364202  0.74853605  1
  Cu  Cu44  1  0.36885842  0.04697502  0.58186905  1
  Cu  Cu45  1  0.67811760  0.04697502  0.08186905  1
  Cu  Cu46  1  0.03552442  0.38030902  0.91520305  1
  Cu  Cu47  1  0.34478360  0.38030902  0.41520305  1
  C  C48  1  0.21214072  0.02666744  0.30910930  1
  C  C49  1  0.81542127  0.79581289  0.30283328  1
  C  C50  1  0.98278155  0.19499430  0.31189968  1
  C  C51  1  0.21221275  0.19499430  0.81189968  1
  C  C52  1  0.98039162  0.79581289  0.80283328  1
  C  C53  1  0.81452671  0.02666744  0.80910930  1
  C  C54  1  0.78884207  0.96053149  0.69316452  1
  C  C55  1  0.16172761  0.19754617  0.69647858  1
  C  C56  1  0.03264040  0.81664612  0.69172214  1
  C  C57  1  0.78400572  0.81664612  0.19172214  1
  C  C58  1  0.03581857  0.19754617  0.19647858  1
  C  C59  1  0.17168943  0.96053149  0.19316452  1
  C  C60  1  0.87880772  0.36000044  0.64244230  1
  C  C61  1  0.48208827  0.12914589  0.63616628  1
  C  C62  1  0.64944855  0.52832730  0.64523268  1
  C  C63  1  0.87887975  0.52832730  0.14523268  1
  C  C64  1  0.64705862  0.12914589  0.13616628  1
  C  C65  1  0.48119371  0.36000044  0.14244230  1
  C  C66  1  0.45550907  0.29386449  0.02649752  1
  C  C67  1  0.82839461  0.53087917  0.02981158  1
  C  C68  1  0.69930740  0.14997912  0.02505514  1
  C  C69  1  0.45067272  0.14997912  0.52505514  1
  C  C70  1  0.70248557  0.53087917  0.52981158  1
  C  C71  1  0.83835643  0.29386449  0.52649752  1
  C  C72  1  0.54547372  0.69333444  0.97577630  1
  C  C73  1  0.14875427  0.46247989  0.96950028  1
  C  C74  1  0.31611455  0.86166130  0.97856668  1
  C  C75  1  0.54554575  0.86166130  0.47856668  1
  C  C76  1  0.31372462  0.46247989  0.46950028  1
  C  C77  1  0.14785971  0.69333444  0.47577630  1
  C  C78  1  0.12217507  0.62719849  0.35983152  1
  C  C79  1  0.49506061  0.86421317  0.36314558  1
  C  C80  1  0.36597340  0.48331312  0.35838914  1
  C  C81  1  0.11733872  0.48331312  0.85838914  1
  C  C82  1  0.36915157  0.86421317  0.86314558  1
  C  C83  1  0.50502243  0.62719849  0.85983152  1
  C  C84  1  0.01843207  0.82762209  0.41059759  1
  C  C85  1  0.80992800  0.99553341  0.41190103  1
  C  C86  1  0.18652421  0.19854648  0.41082257  1
  C  C87  1  0.01202227  0.19854648  0.91082257  1
  C  C88  1  0.18560541  0.99553341  0.91190103  1
  C  C89  1  0.80919003  0.82762209  0.91059759  1
  C  C90  1  0.97001336  0.15601143  0.58978914  1
  C  C91  1  0.19109884  0.02623354  0.58821707  1
  C  C92  1  0.84883189  0.81625104  0.59013317  1
  C  C93  1  0.96741914  0.81625104  0.09013317  1
  C  C94  1  0.83513470  0.02623354  0.08821707  1
  C  C95  1  0.18599807  0.15601143  0.08978914  1
  C  C96  1  0.68509907  0.16095509  0.74393059  1
  C  C97  1  0.47659500  0.32886641  0.74523403  1
  C  C98  1  0.85319121  0.53187948  0.74415557  1
  C  C99  1  0.67868927  0.53187948  0.24415557  1
  C  C100  1  0.85227241  0.32886641  0.24523403  1
  C  C101  1  0.47585703  0.16095509  0.24393059  1
  C  C102  1  0.63668036  0.48934443  0.92312214  1
  C  C103  1  0.85776584  0.35956654  0.92155007  1
  C  C104  1  0.51549889  0.14958404  0.92346617  1
  C  C105  1  0.63408614  0.14958404  0.42346617  1
  C  C106  1  0.50180170  0.35956654  0.42155007  1
  C  C107  1  0.85266507  0.48934443  0.42312214  1
  C  C108  1  0.35176507  0.49428909  0.07726459  1
  C  C109  1  0.14326100  0.66220041  0.07856803  1
  C  C110  1  0.51985721  0.86521348  0.07748957  1
  C  C111  1  0.34535527  0.86521348  0.57748957  1
  C  C112  1  0.51893841  0.66220041  0.57856803  1
  C  C113  1  0.14252303  0.49428909  0.57726459  1
  C  C114  1  0.30334636  0.82267843  0.25645614  1
  C  C115  1  0.52443184  0.69290054  0.25488407  1
  C  C116  1  0.18216489  0.48291804  0.25680017  1
  C  C117  1  0.30075214  0.48291804  0.75680017  1
  C  C118  1  0.16846770  0.69290054  0.75488407  1
  C  C119  1  0.51933107  0.82267843  0.75645614  1
