# generated using pymatgen
data_Cu3Ni3C10
_symmetry_space_group_name_H-M   'P 1'
_cell_length_a   10.07421500
_cell_length_b   10.07421500
_cell_length_c   10.07421500
_cell_angle_alpha   90.00000000
_cell_angle_beta   90.00000000
_cell_angle_gamma   90.00000000
_symmetry_Int_Tables_number   1
_chemical_formula_structural   Cu3Ni3C10
_chemical_formula_sum   'Cu24 Ni24 C80'
_cell_volume   1022.43014475
_cell_formula_units_Z   8
loop_
 _symmetry_equiv_pos_site_id
 _symmetry_equiv_pos_as_xyz
  1  'x, y, z'
loop_
 _atom_site_type_symbol
 _atom_site_label
 _atom_site_symmetry_multiplicity
 _atom_site_fract_x
 _atom_site_fract_y
 _atom_site_fract_z
 _atom_site_occupancy
  C  C0  1  0.00000000  0.50000000  0.50000000  1
  C  C1  1  0.50000000  0.50000000  0.00000000  1
  C  C2  1  0.50000000  0.00000000  0.50000000  1
  C  C3  1  0.00000000  0.00000000  0.00000000  1
  C  C4  1  0.89605200  0.24237700  0.44810900  1
  C  C5  1  0.39605200  0.25762300  0.55189100  1
  C  C6  1  0.10394800  0.74237700  0.05189100  1
  C  C7  1  0.25762300  0.55189100  0.39605200  1
  C  C8  1  0.05189100  0.10394800  0.74237700  1
  C  C9  1  0.55189100  0.39605200  0.25762300  1
  C  C10  1  0.24237700  0.44810900  0.89605200  1
  C  C11  1  0.44810900  0.89605200  0.24237700  1
  C  C12  1  0.74237700  0.05189100  0.10394800  1
  C  C13  1  0.75762300  0.94810900  0.60394800  1
  C  C14  1  0.94810900  0.60394800  0.75762300  1
  C  C15  1  0.60394800  0.75762300  0.94810900  1
  C  C16  1  0.10394800  0.75762300  0.55189100  1
  C  C17  1  0.60394800  0.74237700  0.44810900  1
  C  C18  1  0.89605200  0.25762300  0.94810900  1
  C  C19  1  0.74237700  0.44810900  0.60394800  1
  C  C20  1  0.94810900  0.89605200  0.25762300  1
  C  C21  1  0.44810900  0.60394800  0.74237700  1
  C  C22  1  0.75762300  0.55189100  0.10394800  1
  C  C23  1  0.55189100  0.10394800  0.75762300  1
  C  C24  1  0.25762300  0.94810900  0.89605200  1
  C  C25  1  0.24237700  0.05189100  0.39605200  1
  C  C26  1  0.05189100  0.39605200  0.24237700  1
  C  C27  1  0.39605200  0.24237700  0.05189100  1
  C  C28  1  0.77380000  0.13293600  0.45726400  1
  C  C29  1  0.27380000  0.36706400  0.54273600  1
  C  C30  1  0.22620000  0.63293600  0.04273600  1
  C  C31  1  0.36706400  0.54273600  0.27380000  1
  C  C32  1  0.04273600  0.22620000  0.63293600  1
  C  C33  1  0.54273600  0.27380000  0.36706400  1
  C  C34  1  0.13293600  0.45726400  0.77380000  1
  C  C35  1  0.64242000  0.17864000  0.12945100  1
  C  C36  1  0.45726400  0.77380000  0.13293600  1
  C  C37  1  0.86706400  0.95726400  0.72620000  1
  C  C38  1  0.95726400  0.72620000  0.86706400  1
  C  C39  1  0.72620000  0.86706400  0.95726400  1
  C  C40  1  0.22620000  0.86706400  0.54273600  1
  C  C41  1  0.72620000  0.63293600  0.45726400  1
  C  C42  1  0.77380000  0.36706400  0.95726400  1
  C  C43  1  0.63293600  0.45726400  0.72620000  1
  C  C44  1  0.95726400  0.77380000  0.36706400  1
  C  C45  1  0.45726400  0.72620000  0.63293600  1
  C  C46  1  0.86706400  0.54273600  0.22620000  1
  C  C47  1  0.54273600  0.22620000  0.86706400  1
  C  C48  1  0.36706400  0.95726400  0.77380000  1
  C  C49  1  0.13293600  0.04273600  0.27380000  1
  C  C50  1  0.04273600  0.27380000  0.13293600  1
  C  C51  1  0.27380000  0.13293600  0.04273600  1
  C  C52  1  0.87054900  0.14242000  0.32136000  1
  C  C53  1  0.37054900  0.35758000  0.67864000  1
  C  C54  1  0.12945100  0.64242000  0.17864000  1
  C  C55  1  0.35758000  0.67864000  0.37054900  1
  C  C56  1  0.17864000  0.12945100  0.64242000  1
  C  C57  1  0.67864000  0.37054900  0.35758000  1
  C  C58  1  0.14242000  0.32136000  0.87054900  1
  C  C59  1  0.32136000  0.87054900  0.14242000  1
  C  C60  1  0.37054900  0.14242000  0.17864000  1
  C  C61  1  0.17864000  0.37054900  0.14242000  1
  C  C62  1  0.14242000  0.17864000  0.37054900  1
  C  C63  1  0.35758000  0.82136000  0.87054900  1
  C  C64  1  0.67864000  0.12945100  0.85758000  1
  C  C65  1  0.85758000  0.67864000  0.12945100  1
  C  C66  1  0.32136000  0.62945100  0.64242000  1
  C  C67  1  0.82136000  0.87054900  0.35758000  1
  C  C68  1  0.64242000  0.32136000  0.62945100  1
  C  C69  1  0.87054900  0.35758000  0.82136000  1
  C  C70  1  0.62945100  0.64242000  0.32136000  1
  C  C71  1  0.12945100  0.85758000  0.67864000  1
  C  C72  1  0.62945100  0.85758000  0.82136000  1
  C  C73  1  0.82136000  0.62945100  0.85758000  1
  C  C74  1  0.85758000  0.82136000  0.62945100  1
  C  C75  1  0.63293600  0.04273600  0.22620000  1
  C  C76  1  0.50000000  0.00000000  0.00000000  1
  C  C77  1  0.00000000  0.00000000  0.50000000  1
  C  C78  1  0.00000000  0.50000000  0.00000000  1
  C  C79  1  0.50000000  0.50000000  0.50000000  1
  Ni  Ni80  1  0.86965500  0.14682000  0.42344700  1
  Ni  Ni81  1  0.36965500  0.35318000  0.57655300  1
  Ni  Ni82  1  0.13034500  0.64682000  0.07655300  1
  Ni  Ni83  1  0.35318000  0.57655300  0.36965500  1
  Ni  Ni84  1  0.07655300  0.13034500  0.64682000  1
  Ni  Ni85  1  0.57655300  0.36965500  0.35318000  1
  Ni  Ni86  1  0.14682000  0.42344700  0.86965500  1
  Ni  Ni87  1  0.42344700  0.86965500  0.14682000  1
  Ni  Ni88  1  0.64682000  0.07655300  0.13034500  1
  Ni  Ni89  1  0.85318000  0.92344700  0.63034500  1
  Ni  Ni90  1  0.92344700  0.63034500  0.85318000  1
  Ni  Ni91  1  0.63034500  0.85318000  0.92344700  1
  Ni  Ni92  1  0.13034500  0.85318000  0.57655300  1
  Ni  Ni93  1  0.63034500  0.64682000  0.42344700  1
  Ni  Ni94  1  0.86965500  0.35318000  0.92344700  1
  Ni  Ni95  1  0.64682000  0.42344700  0.63034500  1
  Ni  Ni96  1  0.92344700  0.86965500  0.35318000  1
  Ni  Ni97  1  0.42344700  0.63034500  0.64682000  1
  Ni  Ni98  1  0.85318000  0.57655300  0.13034500  1
  Ni  Ni99  1  0.57655300  0.13034500  0.85318000  1
  Ni  Ni100  1  0.35318000  0.92344700  0.86965500  1
  Ni  Ni101  1  0.14682000  0.07655300  0.36965500  1
  Ni  Ni102  1  0.07655300  0.36965500  0.14682000  1
  Ni  Ni103  1  0.36965500  0.14682000  0.07655300  1
  Cu  Cu104  1  0.61388000  0.13017900  0.56009700  1
  Cu  Cu105  1  0.11388000  0.36982100  0.43990300  1
  Cu  Cu106  1  0.38612000  0.63017900  0.93990300  1
  Cu  Cu107  1  0.36982100  0.43990300  0.11388000  1
  Cu  Cu108  1  0.93990300  0.38612000  0.63017900  1
  Cu  Cu109  1  0.43990300  0.11388000  0.36982100  1
  Cu  Cu110  1  0.13017900  0.56009700  0.61388000  1
  Cu  Cu111  1  0.56009700  0.61388000  0.13017900  1
  Cu  Cu112  1  0.63017900  0.93990300  0.38612000  1
  Cu  Cu113  1  0.86982100  0.06009700  0.88612000  1
  Cu  Cu114  1  0.06009700  0.88612000  0.86982100  1
  Cu  Cu115  1  0.88612000  0.86982100  0.06009700  1
  Cu  Cu116  1  0.38612000  0.86982100  0.43990300  1
  Cu  Cu117  1  0.88612000  0.63017900  0.56009700  1
  Cu  Cu118  1  0.61388000  0.36982100  0.06009700  1
  Cu  Cu119  1  0.63017900  0.56009700  0.88612000  1
  Cu  Cu120  1  0.06009700  0.61388000  0.36982100  1
  Cu  Cu121  1  0.56009700  0.88612000  0.63017900  1
  Cu  Cu122  1  0.86982100  0.43990300  0.38612000  1
  Cu  Cu123  1  0.43990300  0.38612000  0.86982100  1
  Cu  Cu124  1  0.36982100  0.06009700  0.61388000  1
  Cu  Cu125  1  0.13017900  0.93990300  0.11388000  1
  Cu  Cu126  1  0.93990300  0.11388000  0.13017900  1
  Cu  Cu127  1  0.11388000  0.13017900  0.93990300  1
