# generated using pymatgen
data_Cu12NiC24
_symmetry_space_group_name_H-M   'P 1'
_cell_length_a   4.64183940
_cell_length_b   5.75310994
_cell_length_c   15.43272307
_cell_angle_alpha   86.39601579
_cell_angle_beta   90.63131422
_cell_angle_gamma   92.90153556
_symmetry_Int_Tables_number   1
_chemical_formula_structural   Cu12NiC24
_chemical_formula_sum   'Cu12 Ni1 C24'
_cell_volume   410.77601155
_cell_formula_units_Z   1
loop_
 _symmetry_equiv_pos_site_id
 _symmetry_equiv_pos_as_xyz
  1  'x, y, z'
loop_
 _atom_site_type_symbol
 _atom_site_label
 _atom_site_symmetry_multiplicity
 _atom_site_fract_x
 _atom_site_fract_y
 _atom_site_fract_z
 _atom_site_occupancy
  Ni  Ni0  1  0.60187000  0.96201500  0.11422400  1
  Cu  Cu1  1  0.99239300  0.20710300  0.42233600  1
  Cu  Cu2  1  0.02400800  0.90462800  0.25815300  1
  Cu  Cu3  1  0.15926600  0.22435300  0.05408800  1
  Cu  Cu4  1  0.03661400  0.13749700  0.73643900  1
  Cu  Cu5  1  0.02950800  0.82656700  0.57973300  1
  Cu  Cu6  1  0.03608000  0.79003600  0.90064600  1
  Cu  Cu7  1  0.52591100  0.29069700  0.90528700  1
  Cu  Cu8  1  0.49818300  0.36953700  0.58922100  1
  Cu  Cu9  1  0.44654900  0.42948700  0.26936200  1
  Cu  Cu10  1  0.69385000  0.49769900  0.10782200  1
  Cu  Cu11  1  0.47603800  0.67098800  0.42883900  1
  Cu  Cu12  1  0.50588200  0.60747800  0.75045500  1
  C  C13  1  0.19421800  0.18402400  0.31455200  1
  C  C14  1  0.23761400  0.11095600  0.63299600  1
  C  C15  1  0.26015500  0.04216500  0.95623500  1
  C  C16  1  0.17265400  0.97053100  0.13474700  1
  C  C17  1  0.22452400  0.89758000  0.47508800  1
  C  C18  1  0.25099900  0.84423900  0.79417100  1
  C  C19  1  0.25894900  0.42033700  0.48492400  1
  C  C20  1  0.28016800  0.43864600  0.14355800  1
  C  C21  1  0.25415200  0.66064700  0.32179400  1
  C  C22  1  0.28691900  0.58774200  0.64561400  1
  C  C23  1  0.28725700  0.35717900  0.80464300  1
  C  C24  1  0.70384000  0.25509200  0.03004900  1
  C  C25  1  0.70584800  0.69093200  0.20155400  1
  C  C26  1  0.68875600  0.44286400  0.36759800  1
  C  C27  1  0.72342000  0.62525300  0.52871600  1
  C  C28  1  0.72815700  0.57932600  0.85839000  1
  C  C29  1  0.73263300  0.37482500  0.69113900  1
  C  C30  1  0.21943500  0.51038200  0.97475400  1
  C  C31  1  0.70608500  0.19389100  0.20680600  1
  C  C32  1  0.74724600  0.14699200  0.52963100  1
  C  C33  1  0.73651300  0.92645500  0.36971500  1
  C  C34  1  0.76417900  0.77080600  0.02164700  1
  C  C35  1  0.80085700  0.07821400  0.84199000  1
  C  C36  1  0.77316400  0.85378500  0.68641700  1
