# generated using pymatgen
data_Cu3NiC9
_symmetry_space_group_name_H-M   'P 1'
_cell_length_a   5.79853539
_cell_length_b   5.79474267
_cell_length_c   5.85877809
_cell_angle_alpha   60.26946760
_cell_angle_beta   60.31254462
_cell_angle_gamma   59.52448159
_symmetry_Int_Tables_number   1
_chemical_formula_structural   Cu3NiC9
_chemical_formula_sum   'Cu3 Ni1 C9'
_cell_volume   139.29714110
_cell_formula_units_Z   1
loop_
 _symmetry_equiv_pos_site_id
 _symmetry_equiv_pos_as_xyz
  1  'x, y, z'
loop_
 _atom_site_type_symbol
 _atom_site_label
 _atom_site_symmetry_multiplicity
 _atom_site_fract_x
 _atom_site_fract_y
 _atom_site_fract_z
 _atom_site_occupancy
  C  C0  1  0.00000000  0.00000000  0.00000000  1
  Ni  Ni1  1  0.50000000  0.50000000  0.50000000  1
  Cu  Cu2  1  0.00000000  0.50000000  0.50000000  1
  Cu  Cu3  1  0.50000000  0.00000000  0.50000000  1
  Cu  Cu4  1  0.50000000  0.50000000  0.00000000  1
  C  C5  1  0.24525600  0.24425600  0.30182200  1
  C  C6  1  0.25511600  0.25559600  0.71354900  1
  C  C7  1  0.24858300  0.70961000  0.25660300  1
  C  C8  1  0.70882700  0.24937300  0.25642300  1
  C  C9  1  0.29117300  0.75062700  0.74357700  1
  C  C10  1  0.75141700  0.29039000  0.74339700  1
  C  C11  1  0.74488400  0.74440400  0.28645100  1
  C  C12  1  0.75474400  0.75574400  0.69817800  1
