# generated using pymatgen
data_CuNiC9
_symmetry_space_group_name_H-M   'P 1'
_cell_length_a   6.25978936
_cell_length_b   6.25576999
_cell_length_c   5.66534984
_cell_angle_alpha   64.51828262
_cell_angle_beta   75.49053224
_cell_angle_gamma   64.86243351
_symmetry_Int_Tables_number   1
_chemical_formula_structural   CuNiC9
_chemical_formula_sum   'Cu1 Ni1 C9'
_cell_volume   180.68013887
_cell_formula_units_Z   1
loop_
 _symmetry_equiv_pos_site_id
 _symmetry_equiv_pos_as_xyz
  1  'x, y, z'
loop_
 _atom_site_type_symbol
 _atom_site_label
 _atom_site_symmetry_multiplicity
 _atom_site_fract_x
 _atom_site_fract_y
 _atom_site_fract_z
 _atom_site_occupancy
  C  C0  1  0.63380342  0.73604769  0.84153897  1
  C  C1  1  0.24810266  0.34260455  0.16934284  1
  C  C2  1  0.12899078  0.76954327  0.48612709  1
  Ni  Ni3  1  0.65936125  0.37394836  0.46371164  1
  Cu  Cu4  1  0.00799100  0.11618303  0.86636475  1
  C  C5  1  0.36700080  0.60392964  0.25238072  1
  C  C6  1  0.79201448  0.01258585  0.49645809  1
  C  C7  1  0.05738235  0.44934971  0.75062512  1
  C  C8  1  0.56356220  0.40253460  0.82034160  1
  C  C9  1  0.85950780  0.57026017  0.20689873  1
  C  C10  1  0.25520025  0.97718012  0.59412745  1
