# generated using pymatgen
data_Cu8Ni5C57
_symmetry_space_group_name_H-M   'P 1'
_cell_length_a   16.93990541
_cell_length_b   8.46543115
_cell_length_c   21.99951866
_cell_angle_alpha   90.06281838
_cell_angle_beta   90.16156101
_cell_angle_gamma   120.10469284
_symmetry_Int_Tables_number   1
_chemical_formula_structural   Cu8Ni5C57
_chemical_formula_sum   'Cu24 Ni15 C171'
_cell_volume   2729.23661600
_cell_formula_units_Z   3
loop_
 _symmetry_equiv_pos_site_id
 _symmetry_equiv_pos_as_xyz
  1  'x, y, z'
loop_
 _atom_site_type_symbol
 _atom_site_label
 _atom_site_symmetry_multiplicity
 _atom_site_fract_x
 _atom_site_fract_y
 _atom_site_fract_z
 _atom_site_occupancy
  C  C0  1  0.99737134  0.99884772  0.49967398  1
  C  C1  1  0.49691131  0.99590173  0.99695379  1
  C  C2  1  0.33748940  0.34096454  0.83408469  1
  C  C3  1  0.83382502  0.33794792  0.83156947  1
  C  C4  1  0.33523488  0.33176368  0.33238128  1
  C  C5  1  0.83472010  0.33327832  0.33614606  1
  Ni  Ni6  1  0.14238621  0.00301310  0.24866373  1
  Ni  Ni7  1  0.50399097  0.28898991  0.25076517  1
  Ni  Ni8  1  0.64176248  0.27826286  0.74823922  1
  Ni  Ni9  1  0.00429410  0.71925523  0.75073083  1
  Ni  Ni10  1  0.50066154  0.71619303  0.75148843  1
  Ni  Ni11  1  0.97526642  0.32757883  0.58714431  1
  Ni  Ni12  1  0.33478514  0.63294764  0.58406893  1
  Ni  Ni13  1  0.47625908  0.62258789  0.08652113  1
  Ni  Ni14  1  0.83379155  0.03724722  0.08316410  1
  Ni  Ni15  1  0.31065183  0.67137533  0.91382373  1
  Ni  Ni16  1  0.02205976  0.37225361  0.91570697  1
  Ni  Ni17  1  0.52529238  0.37676577  0.91822686  1
  Ni  Ni18  1  0.80938281  0.94935533  0.41407153  1
  Ni  Ni19  1  0.02481650  0.66499739  0.41929623  1
  Ni  Ni20  1  0.52099465  0.67039667  0.41668384  1
  Cu  Cu21  1  0.00177051  0.98831585  0.35690309  1
  Cu  Cu22  1  0.49872456  0.00245869  0.35603418  1
  Cu  Cu23  1  0.99733960  0.99501835  0.85512940  1
  Cu  Cu24  1  0.49928906  0.99987847  0.85295510  1
  Cu  Cu25  1  0.99957777  0.00032838  0.64892427  1
  Cu  Cu26  1  0.50231804  0.98927794  0.64873690  1
  Cu  Cu27  1  0.00252918  0.00211343  0.14385302  1
  Cu  Cu28  1  0.49880178  -0.00000854  0.14750251  1
  Cu  Cu29  1  0.33917644  0.35691456  0.68621688  1
  Cu  Cu30  1  0.83814636  0.34863076  0.69072694  1
  Cu  Cu31  1  0.33863782  0.32606910  0.18958250  1
  Cu  Cu32  1  0.83234826  0.32434224  0.18184368  1
  Cu  Cu33  1  0.34434564  0.36458627  0.97546653  1
  Cu  Cu34  1  0.84036870  0.32463378  0.97864700  1
  Cu  Cu35  1  0.34348288  0.35730299  0.48278394  1
  Cu  Cu36  1  0.84214335  0.32197771  0.47806764  1
  Cu  Cu37  1  0.16955396  0.65512523  0.01412820  1
  Cu  Cu38  1  0.65933330  0.66577059  0.02447023  1
  Cu  Cu39  1  0.15942285  0.65678457  0.52796009  1
  Cu  Cu40  1  0.66877376  0.68473195  0.51705066  1
  Cu  Cu41  1  0.16011936  0.67733831  0.31224211  1
  Cu  Cu42  1  0.65787582  0.66022146  0.31558675  1
  Cu  Cu43  1  0.15990873  0.65654481  0.81390406  1
  Cu  Cu44  1  0.65048822  0.63560932  0.80608234  1
  C  C45  1  0.64564041  0.00014580  0.24974268  1
  C  C46  1  0.35288964  0.70982916  0.25119873  1
  C  C47  1  0.85360013  0.70825517  0.24868959  1
  C  C48  1  0.00094761  0.29029677  0.25054404  1
  C  C49  1  0.14512330  0.28989090  0.75003823  1
  C  C50  1  0.35302745  0.99850747  0.74890663  1
  C  C51  1  0.85333282  0.99551621  0.75097740  1
  C  C52  1  0.48097439  0.33397761  0.58300417  1
  C  C53  1  0.19170689  0.04894864  0.58346892  1
  C  C54  1  0.68996658  0.04692314  0.58299366  1
  C  C55  1  0.82995523  0.61910825  0.58203650  1
  C  C56  1  0.98021584  0.62419735  0.08239069  1
  C  C57  1  0.32985594  0.04046767  0.08183105  1
  C  C58  1  0.19048631  0.33524198  0.08318338  1
  C  C59  1  0.69021806  0.33503496  0.08224305  1
  C  C60  1  0.80968717  0.66588608  0.91741401  1
  C  C61  1  0.16659141  0.95603493  0.91768482  1
  C  C62  1  0.66737168  0.95409678  0.91593829  1
  C  C63  1  0.31076437  0.95522814  0.41837981  1
  C  C64  1  0.16764253  0.38093012  0.41579541  1
  C  C65  1  0.66661986  0.37790767  0.41794419  1
  C  C66  1  0.09795275  0.04321340  0.30891822  1
  C  C67  1  0.60734356  0.03806848  0.30451041  1
  C  C68  1  0.41217824  0.78796686  0.30570986  1
  C  C69  1  0.91176087  0.78219086  0.30404022  1
  C  C70  1  0.48221542  0.15560327  0.31047381  1
  C  C71  1  0.98027197  0.17597521  0.30499003  1
  C  C72  1  0.10572975  0.17545433  0.80488906  1
  C  C73  1  0.60008247  0.15885062  0.80975996  1
  C  C74  1  0.47735327  0.79690731  0.81104090  1
  C  C75  1  0.98222125  0.80819369  0.81061547  1
  C  C76  1  0.41041437  0.04300877  0.80443783  1
  C  C77  1  0.91424814  0.04022349  0.80550383  1
  C  C78  1  0.39224591  0.96606851  0.69394039  1
  C  C79  1  0.89384285  0.96321134  0.69495809  1
  C  C80  1  0.08807370  0.21230328  0.69412260  1
  C  C81  1  0.57779850  0.19817302  0.68725902  1
  C  C82  1  0.01916636  0.84370503  0.68920155  1
  C  C83  1  0.51872357  0.83065322  0.68975445  1
  C  C84  1  0.39192116  0.82314717  0.19566983  1
  C  C85  1  0.89381806  0.82099949  0.19390062  1
  C  C86  1  0.01605703  0.21193796  0.19487216  1
  C  C87  1  0.51906587  0.19399987  0.18950222  1
  C  C88  1  0.07696430  0.96111779  0.18878181  1
  C  C89  1  0.58954431  0.96698661  0.19413428  1
  C  C90  1  0.43972520  0.37072310  0.63742778  1
  C  C91  1  0.92808679  0.36495274  0.64470623  1
  C  C92  1  0.24766552  0.12753343  0.63926678  1
  C  C93  1  0.74702983  0.12379855  0.63747855  1
  C  C94  1  0.31010791  0.49250068  0.64166747  1
  C  C95  1  0.81339974  0.51031198  0.63766268  1
  C  C96  1  0.42897764  0.49308844  0.14512469  1
  C  C97  1  0.93971993  0.50911959  0.13907638  1
  C  C98  1  0.31317430  0.11578793  0.13843064  1
  C  C99  1  0.81258854  0.12710968  0.14372857  1
  C  C100  1  0.24617221  0.36889658  0.13864853  1
  C  C101  1  0.74677253  0.37003575  0.13984280  1
  C  C102  1  0.22757920  0.29487593  0.02822118  1
  C  C103  1  0.73061528  0.29852065  0.02797570  1
  C  C104  1  0.41317209  0.54262716  0.02591627  1
  C  C105  1  0.91957115  0.54481902  0.02844503  1
  C  C106  1  0.34823066  0.15605063  0.02786138  1
  C  C107  1  0.85405028  0.17299920  0.02571850  1
  C  C108  1  0.23072359  0.16233251  0.52682275  1
  C  C109  1  0.72932167  0.16164838  0.52678690  1
  C  C110  1  0.35369676  0.53994897  0.52441225  1
  C  C111  1  0.84839353  0.54043951  0.52696356  1
  C  C112  1  0.42029010  0.29361961  0.52713970  1
  C  C113  1  0.91455743  0.28393288  0.52516962  1
  C  C114  1  0.27199282  0.71381323  0.97711171  1
  C  C115  1  0.77241908  0.70145034  0.97282571  1
  C  C116  1  0.08147596  0.45915423  0.97806953  1
  C  C117  1  0.59003255  0.46921755  0.97824637  1
  C  C118  1  0.14727808  0.84033044  0.97360918  1
  C  C119  1  0.65221721  0.84614324  0.97246487  1
  C  C120  1  0.27192339  0.84196049  0.47175882  1
  C  C121  1  0.77142766  0.82784186  0.47620185  1
  C  C122  1  0.15127425  0.45825781  0.47063399  1
  C  C123  1  0.64776687  0.45483192  0.47290850  1
  C  C124  1  0.09183413  0.70890475  0.47730557  1
  C  C125  1  0.58274206  0.70429683  0.47721896  1
  C  C126  1  0.06342728  0.61784979  0.35760004  1
  C  C127  1  0.56122282  0.62389140  0.35689619  1
  C  C128  1  0.25550892  0.87868401  0.36074650  1
  C  C129  1  0.74667435  0.85885022  0.35344446  1
  C  C130  1  0.18658167  0.49410512  0.35962105  1
  C  C131  1  0.68630636  0.49055172  0.36198298  1
  C  C132  1  0.06285379  0.50138108  0.85691161  1
  C  C133  1  0.56484460  0.50856648  0.85946111  1
  C  C134  1  0.18620884  0.88195504  0.86253480  1
  C  C135  1  0.68802146  0.88179098  0.86192917  1
  C  C136  1  0.24555799  0.63242999  0.85454390  1
  C  C137  1  0.75553105  0.63323871  0.86179894  1
  C  C138  1  0.01531181  0.84578280  0.41085100  1
  C  C139  1  0.51047596  0.84926378  0.40443275  1
  C  C140  1  0.40200352  0.97509433  0.41016476  1
  C  C141  1  0.91293568  0.98259255  0.40468693  1
  C  C142  1  0.08354501  0.19933805  0.40973470  1
  C  C143  1  0.58439160  0.19565885  0.41009251  1
  C  C144  1  0.01071934  0.17140737  0.90496683  1
  C  C145  1  0.51457767  0.17800032  0.90898013  1
  C  C146  1  0.08453909  0.97327746  0.91049032  1
  C  C147  1  0.58582378  0.97231881  0.91220472  1
  C  C148  1  0.41167540  0.84655768  0.90880714  1
  C  C149  1  0.90262897  0.82872331  0.91099466  1
  C  C150  1  0.48732831  0.17111081  0.58935657  1
  C  C151  1  0.98828488  0.14611362  0.59466043  1
  C  C152  1  0.09948259  0.03042907  0.58838316  1
  C  C153  1  0.59942420  0.02816741  0.58774040  1
  C  C154  1  0.42396061  0.83155720  0.59394085  1
  C  C155  1  0.91388676  0.80370016  0.58855742  1
  C  C156  1  0.48820386  0.82966761  0.09507264  1
  C  C157  1  0.98634071  0.80310496  0.08979513  1
  C  C158  1  0.41387692  0.02426889  0.08917437  1
  C  C159  1  0.92499597  0.02339724  0.09624162  1
  C  C160  1  0.09772402  0.17107093  0.09015224  1
  C  C161  1  0.59923163  0.16774398  0.08889917  1
  C  C162  1  0.34288878  0.16553387  0.74088108  1
  C  C163  1  0.84597376  0.16111179  0.74394230  1
  C  C164  1  0.23489420  0.29864874  0.74364348  1
  C  C165  1  0.74326926  0.29933987  0.73863352  1
  C  C166  1  0.41063082  0.50679946  0.74417854  1
  C  C167  1  0.91316186  0.51956214  0.74441840  1
  C  C168  1  0.34415472  0.52887561  0.24414285  1
  C  C169  1  0.84613145  0.52001682  0.24138161  1
  C  C170  1  0.41265389  0.30604784  0.24457152  1
  C  C171  1  0.91785401  0.31405735  0.24367048  1
  C  C172  1  0.24273342  0.18456282  0.23905487  1
  C  C173  1  0.73830424  0.17371335  0.24395589  1
  C  C174  1  0.31314143  0.48110321  0.92186487  1
  C  C175  1  0.81885439  0.49743535  0.92524207  1
  C  C176  1  0.42204533  0.34801294  0.92522787  1
  C  C177  1  0.92208208  0.35993786  0.92228815  1
  C  C178  1  0.24847173  0.13750392  0.92611200  1
  C  C179  1  0.74949680  0.14447420  0.92350786  1
  C  C180  1  0.31858246  0.13887908  0.42424836  1
  C  C181  1  0.81464150  0.14651595  0.42159810  1
  C  C182  1  0.24771587  0.35368809  0.42194791  1
  C  C183  1  0.74827544  0.35895991  0.42517698  1
  C  C184  1  0.42053637  0.48214976  0.42254271  1
  C  C185  1  0.92090695  0.49250967  0.42528462  1
  C  C186  1  0.18034093  0.50064230  0.07750421  1
  C  C187  1  0.68285982  0.49783164  0.07756284  1
  C  C188  1  0.07064160  0.64253482  0.07589440  1
  C  C189  1  0.57465170  0.64377461  0.07657040  1
  C  C190  1  0.24707243  0.85677407  0.07607365  1
  C  C191  1  0.74658265  0.84024143  0.07079097  1
  C  C192  1  0.18301927  0.86919241  0.57720983  1
  C  C193  1  0.68158886  0.86122621  0.57687273  1
  C  C194  1  0.24597843  0.65051168  0.57017750  1
  C  C195  1  0.74727846  0.63694761  0.57538775  1
  C  C196  1  0.07331705  0.50414243  0.57666634  1
  C  C197  1  0.57135351  0.50129838  0.57472135  1
  C  C198  1  0.15635908  0.82713964  0.25802557  1
  C  C199  1  0.65601268  0.83994117  0.25510547  1
  C  C200  1  0.26189538  0.69139085  0.25944380  1
  C  C201  1  0.76429842  0.68826230  0.25672079  1
  C  C202  1  0.08468347  0.47096910  0.25667446  1
  C  C203  1  0.59465847  0.48793996  0.25960631  1
  C  C204  1  0.15509837  0.47110786  0.75510619  1
  C  C205  1  0.66099618  0.48472520  0.75760006  1
  C  C206  1  0.09434584  0.70139242  0.75967003  1
  C  C207  1  0.59233167  0.70399651  0.75749819  1
  C  C208  1  0.26294909  0.83586732  0.75725960  1
  C  C209  1  0.76546975  0.83425088  0.75937917  1
