# generated using pymatgen
data_Cu3Ni6C23
_symmetry_space_group_name_H-M   'P 1'
_cell_length_a   10.00923766
_cell_length_b   10.00923766
_cell_length_c   10.00923811
_cell_angle_alpha   69.95420969
_cell_angle_beta   69.95420969
_cell_angle_gamma   69.95420848
_symmetry_Int_Tables_number   1
_chemical_formula_structural   Cu3Ni6C23
_chemical_formula_sum   'Cu6 Ni12 C46'
_cell_volume   855.63692143
_cell_formula_units_Z   2
loop_
 _symmetry_equiv_pos_site_id
 _symmetry_equiv_pos_as_xyz
  1  'x, y, z'
loop_
 _atom_site_type_symbol
 _atom_site_label
 _atom_site_symmetry_multiplicity
 _atom_site_fract_x
 _atom_site_fract_y
 _atom_site_fract_z
 _atom_site_occupancy
  C  C0  1  0.00000000  0.00000000  0.00000000  1
  C  C1  1  0.23607700  0.52712300  0.75451300  1
  C  C2  1  0.75451300  0.23607700  0.52712300  1
  C  C3  1  0.52712300  0.75451300  0.23607700  1
  C  C4  1  0.76392300  0.47287700  0.24548700  1
  C  C5  1  0.24548700  0.76392300  0.47287700  1
  C  C6  1  0.47287700  0.24548700  0.76392300  1
  C  C7  1  0.15358000  0.48369300  0.95159700  1
  C  C8  1  0.95159700  0.15358000  0.48369300  1
  C  C9  1  0.48369300  0.95159700  0.15358000  1
  C  C10  1  0.84642000  0.51630700  0.04840300  1
  C  C11  1  0.04840300  0.84642000  0.51630700  1
  C  C12  1  0.51630700  0.04840300  0.84642000  1
  C  C13  1  0.04220100  0.60613600  0.82360500  1
  C  C14  1  0.82360500  0.04220100  0.60613600  1
  C  C15  1  0.60613600  0.82360500  0.04220100  1
  C  C16  1  0.99235800  0.65690300  0.45513600  1
  C  C17  1  0.95779900  0.39386400  0.17639500  1
  C  C18  1  0.39386400  0.17639500  0.95779900  1
  C  C19  1  0.34309700  0.54486400  0.00764200  1
  C  C20  1  0.00764200  0.34309700  0.54486400  1
  C  C21  1  0.54486400  0.00764200  0.34309700  1
  C  C22  1  0.65690300  0.45513600  0.99235800  1
  C  C23  1  0.28344700  0.07716200  0.60024400  1
  C  C24  1  0.07716200  0.60024400  0.28344700  1
  C  C25  1  0.60024400  0.28344700  0.07716200  1
  C  C26  1  0.71655300  0.92283800  0.39975600  1
  C  C27  1  0.92283800  0.39975600  0.71655300  1
  C  C28  1  0.39975600  0.71655300  0.92283800  1
  C  C29  1  0.41075700  0.18487800  0.55646600  1
  C  C30  1  0.18487800  0.55646600  0.41075700  1
  C  C31  1  0.55646600  0.41075700  0.18487800  1
  C  C32  1  0.58924300  0.81512200  0.44353400  1
  C  C33  1  0.81512200  0.44353400  0.58924300  1
  C  C34  1  0.44353400  0.58924300  0.81512200  1
  C  C35  1  0.45513600  0.99235800  0.65690300  1
  C  C36  1  0.17639500  0.95779900  0.39386400  1
  Ni  Ni37  1  0.36295800  0.63311600  0.90680600  1
  Ni  Ni38  1  0.90680600  0.36295800  0.63311600  1
  Ni  Ni39  1  0.63311600  0.90680600  0.36295800  1
  Ni  Ni40  1  0.63704200  0.36688400  0.09319400  1
  Ni  Ni41  1  0.43249400  0.15345800  0.84887400  1
  Ni  Ni42  1  0.15345800  0.84887400  0.43249400  1
  Ni  Ni43  1  0.84887400  0.43249400  0.15345800  1
  Ni  Ni44  1  0.56750600  0.84654200  0.15112600  1
  Ni  Ni45  1  0.36688400  0.09319400  0.63704200  1
  Ni  Ni46  1  0.15112600  0.56750600  0.84654200  1
  Ni  Ni47  1  0.09319400  0.63704200  0.36688400  1
  Ni  Ni48  1  0.84654200  0.15112600  0.56750600  1
  Cu  Cu49  1  0.19508700  0.72391900  0.85153200  1
  Cu  Cu50  1  0.85153200  0.19508700  0.72391900  1
  Cu  Cu51  1  0.72391900  0.85153200  0.19508700  1
  Cu  Cu52  1  0.80491300  0.27608100  0.14846800  1
  Cu  Cu53  1  0.14846800  0.80491300  0.27608100  1
  Cu  Cu54  1  0.27608100  0.14846800  0.80491300  1
  C  C55  1  0.50000000  0.50000000  0.50000000  1
  C  C56  1  0.24685800  0.24685800  0.24685800  1
  C  C57  1  0.75314200  0.75314200  0.75314200  1
  C  C58  1  0.08116100  0.76954700  0.99050100  1
  C  C59  1  0.99050100  0.08116100  0.76954700  1
  C  C60  1  0.23045300  0.00949900  0.91883900  1
  C  C61  1  0.91883900  0.23045300  0.00949900  1
  C  C62  1  0.00949900  0.91883900  0.23045300  1
  C  C63  1  0.76954700  0.99050100  0.08116100  1
