# generated using pymatgen
data_CuNi11C70
_symmetry_space_group_name_H-M   'P 1'
_cell_length_a   17.89659363
_cell_length_b   8.94277309
_cell_length_c   22.01421616
_cell_angle_alpha   90.07389089
_cell_angle_beta   90.13828951
_cell_angle_gamma   119.99806826
_symmetry_Int_Tables_number   1
_chemical_formula_structural   CuNi11C70
_chemical_formula_sum   'Cu3 Ni33 C210'
_cell_volume   3051.27837010
_cell_formula_units_Z   3
loop_
 _symmetry_equiv_pos_site_id
 _symmetry_equiv_pos_as_xyz
  1  'x, y, z'
loop_
 _atom_site_type_symbol
 _atom_site_label
 _atom_site_symmetry_multiplicity
 _atom_site_fract_x
 _atom_site_fract_y
 _atom_site_fract_z
 _atom_site_occupancy
  C  C0  1  0.32109449  0.99982893  0.25007754  1
  C  C1  1  0.82169080  0.00025467  0.25006307  1
  C  C2  1  0.31718775  0.62850601  0.74876414  1
  C  C3  1  0.82206654  0.64424521  0.74894593  1
  C  C4  1  0.49512729  0.36408261  0.74790115  1
  C  C5  1  0.68235393  0.00143418  0.75063194  1
  C  C6  1  0.14876105  0.32556647  0.58536944  1
  C  C7  1  0.65222671  0.33295211  0.58255627  1
  C  C8  1  0.01745259  0.70903410  0.58589319  1
  C  C9  1  0.51205081  0.69121577  0.58309483  1
  C  C10  1  0.33114196  0.97697740  0.58337252  1
  C  C11  1  0.83872352  0.96896621  0.58647469  1
  C  C12  1  0.14904764  0.96282250  0.08206764  1
  C  C13  1  0.64876675  0.96263803  0.08198886  1
  C  C14  1  0.33214107  0.70475107  0.08334103  1
  C  C15  1  0.83222706  0.70458095  0.08391029  1
  C  C16  1  0.02016589  0.33509349  0.08360131  1
  C  C17  1  0.51966527  0.33444949  0.08357410  1
  C  C18  1  0.48336504  0.67505314  0.91398240  1
  C  C19  1  0.98522124  0.67370481  0.91368242  1
  C  C20  1  0.35324017  0.03121095  0.91427617  1
  C  C21  1  0.85271647  0.03139404  0.91382308  1
  C  C22  1  0.16358357  0.29903682  0.91552352  1
  C  C23  1  0.66161353  0.29236902  0.91458415  1
  C  C24  1  0.47906544  0.29573315  0.41651504  1
  C  C25  1  0.98067335  0.29612520  0.41645766  1
  C  C26  1  0.16743925  0.03769760  0.41972943  1
  C  C27  1  0.66786002  0.03724759  0.41748995  1
  C  C28  1  0.35167938  0.66351523  0.41683305  1
  C  C29  1  0.85291767  0.66561230  0.41623858  1
  C  C30  1  0.00174296  0.00012434  0.50026737  1
  C  C31  1  0.49893568  0.99867246  0.49534391  1
  C  C32  1  0.00034588  0.00168014  0.00035427  1
  C  C33  1  0.49942341  0.00007369  0.99937281  1
  C  C34  1  0.33024174  0.32374365  0.82773900  1
  C  C35  1  0.83935422  0.33510344  0.83262494  1
  C  C36  1  0.33625712  0.34471882  0.33716155  1
  C  C37  1  0.83704026  0.34539393  0.33668190  1
  C  C38  1  0.16443495  0.65484948  0.16319089  1
  C  C39  1  0.66429842  0.65467252  0.16308601  1
  C  C40  1  0.16330552  0.67389318  0.66822725  1
  C  C41  1  0.66699008  0.66689537  0.66648641  1
  C  C42  1  0.49713102  0.99685147  0.64597183  1
  C  C43  1  0.83998714  0.33897138  0.68925481  1
  C  C44  1  0.33956496  0.34836246  0.18769856  1
  C  C45  1  0.83983333  0.34881616  0.18771141  1
  C  C46  1  0.33320814  0.33537133  0.98029738  1
  C  C47  1  0.83292998  0.33323963  0.98102801  1
  C  C48  1  0.16670892  0.66960233  0.52042372  1
  C  C49  1  0.66611821  0.66570024  0.51859814  1
  C  C50  1  0.16527210  0.65115896  0.31230301  1
  C  C51  1  0.66533631  0.65198225  0.31201777  1
  C  C52  1  0.16383406  0.67336104  0.81330269  1
  C  C53  1  0.66787430  0.66978660  0.81320397  1
  C  C54  1  0.99199857  0.99607268  0.35617801  1
  C  C55  1  0.49150943  0.99549619  0.35557440  1
  C  C56  1  0.99361913  0.99026606  0.85617767  1
  C  C57  1  0.49753813  0.99833959  0.85369291  1
  C  C58  1  0.99675047  0.98745735  0.64374352  1
  C  C59  1  0.99412781  0.00424556  0.14417408  1
  C  C60  1  0.49373637  0.00400776  0.14397176  1
  C  C61  1  0.33720220  0.32779104  0.68240481  1
  C  C62  1  0.33122066  0.32980315  0.48084655  1
  C  C63  1  0.83482405  0.33362426  0.47962140  1
  C  C64  1  0.16689628  0.66629483  0.01962072  1
  C  C65  1  0.66668124  0.66629138  0.01998766  1
  Ni  Ni66  1  0.36205444  0.72263125  0.25022494  1
  Ni  Ni67  1  0.86227504  0.72301475  0.25031499  1
  Ni  Ni68  1  0.00087068  0.27700138  0.24967096  1
  Ni  Ni69  1  0.50070669  0.27685283  0.24961090  1
  Ni  Ni70  1  0.64293093  0.28447167  0.75358141  1
  Ni  Ni71  1  0.00343954  0.72892001  0.74974773  1
  Ni  Ni72  1  0.49456571  0.70459891  0.75261490  1
  Ni  Ni73  1  0.35377901  0.00663177  0.75282166  1
  Ni  Ni74  1  0.86428296  0.00474118  0.75010984  1
  Ni  Ni75  1  0.47335993  0.33369875  0.58213351  1
  Ni  Ni76  1  0.97744706  0.32560931  0.58022954  1
  Ni  Ni77  1  0.19068498  0.05726132  0.58440327  1
  Ni  Ni78  1  0.69168248  0.05048630  0.58064440  1
  Ni  Ni79  1  0.33182479  0.60660134  0.58391265  1
  Ni  Ni80  1  0.83625516  0.62230683  0.58069361  1
  Ni  Ni81  1  0.48501870  0.63736772  0.08310495  1
  Ni  Ni82  1  0.98518207  0.63760021  0.08292442  1
  Ni  Ni83  1  0.33139932  0.03433821  0.08459823  1
  Ni  Ni84  1  0.83141723  0.03357816  0.08508148  1
  Ni  Ni85  1  0.18326547  0.33154137  0.08442585  1
  Ni  Ni86  1  0.68312806  0.33147629  0.08455852  1
  Ni  Ni87  1  0.31142682  0.67334421  0.91793526  1
  Ni  Ni88  1  0.81236198  0.67170289  0.92018086  1
  Ni  Ni89  1  0.02418326  0.37341101  0.91937950  1
  Ni  Ni90  1  0.52389389  0.37441446  0.91932503  1
  Ni  Ni91  1  0.16279231  0.95472011  0.91996225  1
  Ni  Ni92  1  0.66263170  0.95293138  0.92001376  1
  Ni  Ni93  1  0.31427247  0.96572357  0.41510204  1
  Ni  Ni94  1  0.81474475  0.96649883  0.41506668  1
  Ni  Ni95  1  0.16609262  0.36328391  0.41781156  1
  Ni  Ni96  1  0.66654019  0.36257893  0.41665047  1
  Ni  Ni97  1  0.01767471  0.66836362  0.41521917  1
  Ni  Ni98  1  0.51704513  0.66805964  0.41498099  1
  Cu  Cu99  1  0.14148098  0.00011499  0.24988039  1
  Cu  Cu100  1  0.64163154  0.00035527  0.25005292  1
  Cu  Cu101  1  0.14267143  0.28156761  0.74991062  1
  C  C102  1  0.10218176  0.02035544  0.30566502  1
  C  C103  1  0.60237508  0.02030345  0.30579858  1
  C  C104  1  0.41566455  0.80449186  0.31218874  1
  C  C105  1  0.91564389  0.80501856  0.31224625  1
  C  C106  1  0.48460533  0.16268707  0.31044661  1
  C  C107  1  0.98417457  0.16233211  0.31043550  1
  C  C108  1  0.10207752  0.18381997  0.80600237  1
  C  C109  1  0.59727427  0.16307611  0.81103847  1
  C  C110  1  0.48307874  0.80149297  0.81047455  1
  C  C111  1  0.98585625  0.80784126  0.81079612  1
  C  C112  1  0.41582633  0.03440410  0.81041655  1
  C  C113  1  0.91559470  0.02442037  0.81245057  1
  C  C114  1  0.40006100  0.97159203  0.69177853  1
  C  C115  1  0.90371342  0.96960969  0.68929943  1
  C  C116  1  0.09098596  0.20219600  0.69437633  1
  C  C117  1  0.58513783  0.20029022  0.69111295  1
  C  C118  1  0.01279436  0.83092830  0.68767631  1
  C  C119  1  0.51526356  0.83013178  0.69156518  1
  C  C120  1  0.40304198  0.83719409  0.18955201  1
  C  C121  1  0.90289391  0.83700380  0.18946492  1
  C  C122  1  0.01328463  0.19512157  0.18781972  1
  C  C123  1  0.51354873  0.19530026  0.18783965  1
  C  C124  1  0.09181728  0.97996201  0.19408752  1
  C  C125  1  0.59187036  0.97994763  0.19418444  1
  C  C126  1  0.43723763  0.37278592  0.64384157  1
  C  C127  1  0.93229555  0.36651068  0.63949737  1
  C  C128  1  0.25658768  0.14075715  0.64091524  1
  C  C129  1  0.74882071  0.13281506  0.64290259  1
  C  C130  1  0.31663649  0.49483776  0.64517760  1
  C  C131  1  0.81562503  0.50013913  0.64210333  1
  C  C132  1  0.43467042  0.49989385  0.13957308  1
  C  C133  1  0.93458419  0.50002927  0.13942607  1
  C  C134  1  0.31525074  0.13012165  0.14277422  1
  C  C135  1  0.81523855  0.13016174  0.14287571  1
  C  C136  1  0.25241025  0.36499325  0.13967546  1
  C  C137  1  0.75249192  0.36521146  0.13963470  1
  C  C138  1  0.23073845  0.29778733  0.02464316  1
  C  C139  1  0.73100076  0.29809876  0.02478460  1
  C  C140  1  0.41827455  0.54180111  0.02506661  1
  C  C141  1  0.91816638  0.54150228  0.02486986  1
  C  C142  1  0.34918162  0.16713979  0.02607785  1
  C  C143  1  0.84912316  0.16611782  0.02632447  1
  C  C144  1  0.23109800  0.16688358  0.52221978  1
  C  C145  1  0.73479819  0.17029926  0.52238466  1
  C  C146  1  0.35127093  0.52961655  0.52350031  1
  C  C147  1  0.84996539  0.52890461  0.52283208  1
  C  C148  1  0.41483019  0.29799157  0.52236933  1
  C  C149  1  0.91600064  0.29390904  0.52239875  1
  C  C150  1  0.26508363  0.70153234  0.97615371  1
  C  C151  1  0.76535610  0.70044099  0.97720465  1
  C  C152  1  0.08419442  0.46484993  0.97787812  1
  C  C153  1  0.58511414  0.46852678  0.97698692  1
  C  C154  1  0.14638190  0.83080130  0.97729319  1
  C  C155  1  0.64935294  0.83071064  0.97720088  1
  C  C156  1  0.26665677  0.83453946  0.47410857  1
  C  C157  1  0.76568005  0.83365263  0.47372134  1
  C  C158  1  0.14762777  0.45988424  0.47539911  1
  C  C159  1  0.64780093  0.45795631  0.47500185  1
  C  C160  1  0.08179814  0.70111533  0.47506463  1
  C  C161  1  0.58134790  0.70136127  0.47537014  1
  C  C162  1  0.06953173  0.63426567  0.36002347  1
  C  C163  1  0.57022326  0.63565402  0.36035297  1
  C  C164  1  0.25031327  0.86928351  0.35700644  1
  C  C165  1  0.75013575  0.86986395  0.35722592  1
  C  C166  1  0.18415421  0.49973404  0.36066732  1
  C  C167  1  0.68432294  0.49999209  0.36041008  1
  C  C168  1  0.06806598  0.50339480  0.86029794  1
  C  C169  1  0.56722623  0.50030201  0.85838967  1
  C  C170  1  0.18415810  0.86583932  0.86049111  1
  C  C171  1  0.68322766  0.86939655  0.85840965  1
  C  C172  1  0.24916989  0.62974523  0.85687289  1
  C  C173  1  0.75133155  0.63395888  0.85822729  1
  C  C174  1  0.01359388  0.84466634  0.40874051  1
  C  C175  1  0.51392283  0.84559688  0.40893263  1
  C  C176  1  0.40774726  0.97645762  0.41225658  1
  C  C177  1  0.90769821  0.97621055  0.41255296  1
  C  C178  1  0.07971188  0.17845823  0.40771238  1
  C  C179  1  0.57972190  0.17792840  0.40767450  1
  C  C180  1  0.01315668  0.18309948  0.90924494  1
  C  C181  1  0.51161997  0.18330633  0.91052308  1
  C  C182  1  0.08078347  0.98183887  0.90801946  1
  C  C183  1  0.57917462  0.97615857  0.91109747  1
  C  C184  1  0.40750678  0.84005680  0.91021786  1
  C  C185  1  0.90833540  0.83872518  0.91273370  1
  C  C186  1  0.48747837  0.16365164  0.58742773  1
  C  C187  1  0.99078178  0.16124845  0.59202112  1
  C  C188  1  0.09277617  0.02716462  0.59157488  1
  C  C189  1  0.59389804  0.02393721  0.58706704  1
  C  C190  1  0.41674064  0.80756243  0.58885963  1
  C  C191  1  0.91943834  0.81542500  0.58740887  1
  C  C192  1  0.49067989  0.82188032  0.09262647  1
  C  C193  1  0.99053190  0.82177434  0.09245912  1
  C  C194  1  0.41938021  0.02360671  0.08765710  1
  C  C195  1  0.91954373  0.02359129  0.08769996  1
  C  C196  1  0.09105328  0.15527077  0.09101275  1
  C  C197  1  0.59108491  0.15518149  0.09100252  1
  C  C198  1  0.34650755  0.17851623  0.74299315  1
  C  C199  1  0.84437137  0.16705165  0.74578949  1
  C  C200  1  0.23145943  0.30746574  0.74651402  1
  C  C201  1  0.73978877  0.30911181  0.74733301  1
  C  C202  1  0.40990929  0.51407751  0.74443301  1
  C  C203  1  0.91520994  0.53051466  0.74510326  1
  C  C204  1  0.34536059  0.52258498  0.24460870  1
  C  C205  1  0.84528512  0.52268655  0.24465683  1
  C  C206  1  0.41222898  0.29698800  0.24471919  1
  C  C207  1  0.91226997  0.29740849  0.24462177  1
  C  C208  1  0.23166981  0.15502333  0.24679526  1
  C  C209  1  0.73177824  0.15498856  0.24696132  1
  C  C210  1  0.32002352  0.49657381  0.92188757  1
  C  C211  1  0.82022348  0.49521419  0.92140984  1
  C  C212  1  0.42795950  0.36018459  0.92202250  1
  C  C213  1  0.92776517  0.35735507  0.92235104  1
  C  C214  1  0.25182945  0.14488961  0.92174890  1
  C  C215  1  0.75200042  0.14464606  0.92186306  1
  C  C216  1  0.32075956  0.15154584  0.42249815  1
  C  C217  1  0.82084992  0.15183486  0.42264734  1
  C  C218  1  0.25438637  0.35766634  0.42312271  1
  C  C219  1  0.75451814  0.35680037  0.42269148  1
  C  C220  1  0.42510703  0.49409007  0.42209082  1
  C  C221  1  0.92536375  0.49371111  0.42248850  1
  C  C222  1  0.17880675  0.50668570  0.07748583  1
  C  C223  1  0.67861197  0.50638278  0.07741594  1
  C  C224  1  0.07596655  0.64293401  0.07694259  1
  C  C225  1  0.57597886  0.64302405  0.07700801  1
  C  C226  1  0.24497262  0.84837893  0.07673235  1
  C  C227  1  0.74505553  0.84794673  0.07728440  1
  C  C228  1  0.17900932  0.85705302  0.57759969  1
  C  C229  1  0.67997070  0.85501022  0.57860604  1
  C  C230  1  0.24835320  0.63932511  0.57856590  1
  C  C231  1  0.74799871  0.64024970  0.57767770  1
  C  C232  1  0.07227342  0.50389350  0.57858952  1
  C  C233  1  0.57273001  0.50280506  0.57751421  1
  C  C234  1  0.15426421  0.84526951  0.25285421  1
  C  C235  1  0.65431075  0.84519739  0.25298884  1
  C  C236  1  0.26348421  0.70250580  0.25529595  1
  C  C237  1  0.76355938  0.70278184  0.25539821  1
  C  C238  1  0.08387884  0.47726375  0.25515939  1
  C  C239  1  0.58382775  0.47727884  0.25539412  1
  C  C240  1  0.15351192  0.46213304  0.75308846  1
  C  C241  1  0.65349923  0.47835111  0.75402498  1
  C  C242  1  0.08488299  0.69139732  0.75489863  1
  C  C243  1  0.58380170  0.69031070  0.75433058  1
  C  C244  1  0.26148709  0.82171537  0.75433569  1
  C  C245  1  0.76295678  0.83183522  0.75460831  1
