# generated using pymatgen
data_Cu2NiC14
_symmetry_space_group_name_H-M   'P 1'
_cell_length_a   4.05186360
_cell_length_b   4.03456134
_cell_length_c   17.48045454
_cell_angle_alpha   90.00000000
_cell_angle_beta   90.00000000
_cell_angle_gamma   90.00000000
_symmetry_Int_Tables_number   1
_chemical_formula_structural   Cu2NiC14
_chemical_formula_sum   'Cu2 Ni1 C14'
_cell_volume   285.76159487
_cell_formula_units_Z   1
loop_
 _symmetry_equiv_pos_site_id
 _symmetry_equiv_pos_as_xyz
  1  'x, y, z'
loop_
 _atom_site_type_symbol
 _atom_site_label
 _atom_site_symmetry_multiplicity
 _atom_site_fract_x
 _atom_site_fract_y
 _atom_site_fract_z
 _atom_site_occupancy
  Ni  Ni0  1  0.50000000  0.50000000  0.41039425  1
  Cu  Cu1  1  0.50000000  0.50000000  0.88308741  1
  Cu  Cu2  1  0.50000000  0.50000000  0.13156523  1
  C  C3  1  0.50000000  0.00000000  0.63735731  1
  C  C4  1  -0.00000000  -0.00000000  0.76559798  1
  C  C5  1  -0.00000000  -0.00000000  0.24862455  1
  C  C6  1  0.00000000  -0.00000000  0.00386832  1
  C  C7  1  -0.00000000  -0.00000000  0.65150252  1
  C  C8  1  -0.00000000  0.00000000  0.35352778  1
  C  C9  1  0.50000000  0.00000000  0.76102573  1
  C  C10  1  0.00000000  0.50000000  0.78369458  1
  C  C11  1  0.50000000  -0.00000000  0.22996481  1
  C  C12  1  -0.00000000  0.50000000  0.22870123  1
  C  C13  1  -0.00000000  0.50000000  0.99897585  1
  C  C14  1  0.50000000  -0.00000000  0.00073580  1
  C  C15  1  -0.00000000  -0.00000000  0.11645018  1
  C  C16  1  -0.00000000  0.00000000  0.88659347  1
