# generated using pymatgen
data_Cu2(NiC2)3
_symmetry_space_group_name_H-M   'P 1'
_cell_length_a   6.26716400
_cell_length_b   7.96645600
_cell_length_c   14.58860800
_cell_angle_alpha   90.00000000
_cell_angle_beta   90.00000000
_cell_angle_gamma   90.00000000
_symmetry_Int_Tables_number   1
_chemical_formula_structural   Cu2(NiC2)3
_chemical_formula_sum   'Cu8 Ni12 C24'
_cell_volume   728.36668989
_cell_formula_units_Z   4
loop_
 _symmetry_equiv_pos_site_id
 _symmetry_equiv_pos_as_xyz
  1  'x, y, z'
loop_
 _atom_site_type_symbol
 _atom_site_label
 _atom_site_symmetry_multiplicity
 _atom_site_fract_x
 _atom_site_fract_y
 _atom_site_fract_z
 _atom_site_occupancy
  Ni  Ni0  1  0.00000000  0.31406900  0.50000000  1
  Ni  Ni1  1  0.50000000  0.68593100  0.00000000  1
  Ni  Ni2  1  0.00000000  0.68593100  0.50000000  1
  Ni  Ni3  1  0.50000000  0.31406900  0.00000000  1
  Ni  Ni4  1  0.43564200  0.78442400  0.22220700  1
  Ni  Ni5  1  0.93564200  0.21557600  0.27779300  1
  Ni  Ni6  1  0.56435800  0.78442400  0.77779300  1
  Ni  Ni7  1  0.06435800  0.21557600  0.72220700  1
  Ni  Ni8  1  0.93564200  0.78442400  0.27779300  1
  Ni  Ni9  1  0.43564200  0.21557600  0.22220700  1
  Ni  Ni10  1  0.06435800  0.78442400  0.72220700  1
  Ni  Ni11  1  0.56435800  0.21557600  0.77779300  1
  Cu  Cu12  1  0.09162700  0.50000000  0.12583800  1
  Cu  Cu13  1  0.59162700  0.50000000  0.37416200  1
  Cu  Cu14  1  0.90837300  0.50000000  0.87416200  1
  Cu  Cu15  1  0.40837300  0.50000000  0.62583800  1
  Cu  Cu16  1  0.77383000  0.00000000  0.09807400  1
  Cu  Cu17  1  0.27383000  0.00000000  0.40192600  1
  Cu  Cu18  1  0.22617000  0.00000000  0.90192600  1
  Cu  Cu19  1  0.72617000  0.00000000  0.59807400  1
  C  C20  1  0.41130800  0.17469300  0.89553900  1
  C  C21  1  0.91130800  0.82530700  0.60446100  1
  C  C22  1  0.58869200  0.17469300  0.10446100  1
  C  C23  1  0.08869200  0.82530700  0.39553900  1
  C  C24  1  0.58869200  0.82530700  0.10446100  1
  C  C25  1  0.08869200  0.17469300  0.39553900  1
  C  C26  1  0.41130800  0.82530700  0.89553900  1
  C  C27  1  0.91130800  0.17469300  0.60446100  1
  C  C28  1  0.34393100  0.32405300  0.69967400  1
  C  C29  1  0.84393100  0.67594700  0.80032600  1
  C  C30  1  0.65606900  0.32405300  0.30032600  1
  C  C31  1  0.15606900  0.67594700  0.19967400  1
  C  C32  1  0.65606900  0.67594700  0.30032600  1
  C  C33  1  0.15606900  0.32405300  0.19967400  1
  C  C34  1  0.34393100  0.67594700  0.69967400  1
  C  C35  1  0.84393100  0.32405300  0.80032600  1
  C  C36  1  0.83914000  0.00000000  0.21862100  1
  C  C37  1  0.33914000  0.00000000  0.28137900  1
  C  C38  1  0.16086000  0.00000000  0.78137900  1
  C  C39  1  0.66086000  0.00000000  0.71862100  1
  C  C40  1  0.66687300  0.50000000  0.94080600  1
  C  C41  1  0.16687300  0.50000000  0.55919400  1
  C  C42  1  0.33312700  0.50000000  0.05919400  1
  C  C43  1  0.83312700  0.50000000  0.44080600  1
