# generated using pymatgen
data_Cu3NiC17
_symmetry_space_group_name_H-M   'P 1'
_cell_length_a   9.35403583
_cell_length_b   9.35403548
_cell_length_c   22.58763559
_cell_angle_alpha   90.00000000
_cell_angle_beta   90.00000000
_cell_angle_gamma   120.00000119
_symmetry_Int_Tables_number   1
_chemical_formula_structural   Cu3NiC17
_chemical_formula_sum   'Cu18 Ni6 C102'
_cell_volume   1711.58882077
_cell_formula_units_Z   6
loop_
 _symmetry_equiv_pos_site_id
 _symmetry_equiv_pos_as_xyz
  1  'x, y, z'
loop_
 _atom_site_type_symbol
 _atom_site_label
 _atom_site_symmetry_multiplicity
 _atom_site_fract_x
 _atom_site_fract_y
 _atom_site_fract_z
 _atom_site_occupancy
  C  C0  1  0.63683827  0.00474646  0.24851281  1
  C  C1  1  0.36790819  0.36316173  0.24851281  1
  C  C2  1  0.99525354  0.63209181  0.24851281  1
  C  C3  1  0.63683827  0.63209181  0.74851281  1
  C  C4  1  0.99525354  0.36316173  0.74851281  1
  C  C5  1  0.36790819  0.00474646  0.74851281  1
  C  C6  1  0.30350527  0.33807946  0.58184581  1
  C  C7  1  0.03457519  0.69649473  0.58184581  1
  C  C8  1  0.66192054  0.96542481  0.58184581  1
  C  C9  1  0.30350527  0.96542481  0.08184581  1
  C  C10  1  0.66192054  0.69649473  0.08184581  1
  C  C11  1  0.03457519  0.33807946  0.08184581  1
  C  C12  1  0.97017127  0.67141346  0.91517981  1
  C  C13  1  0.70124119  0.02982873  0.91517981  1
  C  C14  1  0.32858654  0.29875881  0.91517981  1
  C  C15  1  0.97017127  0.29875881  0.41517981  1
  C  C16  1  0.32858654  0.02982873  0.41517981  1
  C  C17  1  0.70124119  0.67141346  0.41517981  1
  C  C18  1  0.00000000  0.00000000  0.49953719  1
  C  C19  1  0.00000000  0.00000000  0.99953719  1
  C  C20  1  0.66666700  0.33333300  0.83287019  1
  C  C21  1  0.66666700  0.33333300  0.33287019  1
  C  C22  1  0.33333300  0.66666700  0.16620419  1
  C  C23  1  0.33333300  0.66666700  0.66620419  1
  C  C24  1  0.00000000  0.00000000  0.34869811  1
  C  C25  1  0.00000000  0.00000000  0.84869811  1
  C  C26  1  0.66666700  0.33333300  0.68203111  1
  C  C27  1  0.66666700  0.33333300  0.18203111  1
  C  C28  1  0.33333300  0.66666700  0.01536511  1
  C  C29  1  0.33333300  0.66666700  0.51536511  1
  Ni  Ni30  1  0.00000000  0.00000000  0.65302477  1
  Ni  Ni31  1  0.00000000  0.00000000  0.15302477  1
  Ni  Ni32  1  0.66666700  0.33333300  0.98635777  1
  Ni  Ni33  1  0.66666700  0.33333300  0.48635777  1
  Ni  Ni34  1  0.33333300  0.66666700  0.31969177  1
  Ni  Ni35  1  0.33333300  0.66666700  0.81969177  1
  Cu  Cu36  1  0.29984666  0.99244903  0.25099471  1
  Cu  Cu37  1  0.69260237  0.70015334  0.25099471  1
  Cu  Cu38  1  0.00755097  0.30739763  0.25099471  1
  Cu  Cu39  1  0.29984666  0.30739763  0.75099471  1
  Cu  Cu40  1  0.00755097  0.70015334  0.75099471  1
  Cu  Cu41  1  0.69260237  0.99244903  0.75099471  1
  Cu  Cu42  1  0.96651366  0.32578203  0.58432771  1
  Cu  Cu43  1  0.35926937  0.03348634  0.58432771  1
  Cu  Cu44  1  0.67421797  0.64073063  0.58432771  1
  Cu  Cu45  1  0.96651366  0.64073063  0.08432771  1
  Cu  Cu46  1  0.67421797  0.03348634  0.08432771  1
  Cu  Cu47  1  0.35926937  0.32578203  0.08432771  1
  Cu  Cu48  1  0.63317966  0.65911603  0.91766171  1
  Cu  Cu49  1  0.02593537  0.36682034  0.91766171  1
  Cu  Cu50  1  0.34088397  0.97406463  0.91766171  1
  Cu  Cu51  1  0.63317966  0.97406463  0.41766171  1
  Cu  Cu52  1  0.34088397  0.36682034  0.41766171  1
  Cu  Cu53  1  0.02593537  0.65911603  0.41766171  1
  C  C54  1  0.22033669  0.01512189  0.30626284  1
  C  C55  1  0.79478521  0.77966331  0.30626284  1
  C  C56  1  0.98487811  0.20521479  0.30626284  1
  C  C57  1  0.22033669  0.20521479  0.80626284  1
  C  C58  1  0.98487811  0.77966331  0.80626284  1
  C  C59  1  0.79478521  0.01512189  0.80626284  1
  C  C60  1  0.77561938  0.96663321  0.69425911  1
  C  C61  1  0.19101383  0.22438062  0.69425911  1
  C  C62  1  0.03336679  0.80898617  0.69425911  1
  C  C63  1  0.77561938  0.80898617  0.19425911  1
  C  C64  1  0.03336679  0.22438062  0.19425911  1
  C  C65  1  0.19101383  0.96663321  0.19425911  1
  C  C66  1  0.88700369  0.34845489  0.63959584  1
  C  C67  1  0.46145221  0.11299631  0.63959584  1
  C  C68  1  0.65154511  0.53854779  0.63959584  1
  C  C69  1  0.88700369  0.53854779  0.13959584  1
  C  C70  1  0.65154511  0.11299631  0.13959584  1
  C  C71  1  0.46145221  0.34845489  0.13959584  1
  C  C72  1  0.44228638  0.29996621  0.02759211  1
  C  C73  1  0.85768083  0.55771362  0.02759211  1
  C  C74  1  0.70003379  0.14231917  0.02759211  1
  C  C75  1  0.44228638  0.14231917  0.52759211  1
  C  C76  1  0.70003379  0.55771362  0.52759211  1
  C  C77  1  0.85768083  0.29996621  0.52759211  1
  C  C78  1  0.55366969  0.68178889  0.97292984  1
  C  C79  1  0.12811821  0.44633031  0.97292984  1
  C  C80  1  0.31821111  0.87188179  0.97292984  1
  C  C81  1  0.55366969  0.87188179  0.47292984  1
  C  C82  1  0.31821111  0.44633031  0.47292984  1
  C  C83  1  0.12811821  0.68178889  0.47292984  1
  C  C84  1  0.10895238  0.63330021  0.36092611  1
  C  C85  1  0.52434683  0.89104762  0.36092611  1
  C  C86  1  0.36669979  0.47565317  0.36092611  1
  C  C87  1  0.10895238  0.47565317  0.86092611  1
  C  C88  1  0.36669979  0.89104762  0.86092611  1
  C  C89  1  0.52434683  0.63330021  0.86092611  1
  C  C90  1  0.00240653  0.81049213  0.41327063  1
  C  C91  1  0.80808560  0.99759347  0.41327063  1
  C  C92  1  0.18950787  0.19191440  0.41327063  1
  C  C93  1  0.00240653  0.19191440  0.91327063  1
  C  C94  1  0.18950787  0.99759347  0.91327063  1
  C  C95  1  0.80808560  0.81049213  0.91327063  1
  C  C96  1  0.97791062  0.16296278  0.58627988  1
  C  C97  1  0.18505216  0.02208938  0.58627988  1
  C  C98  1  0.83703722  0.81494784  0.58627988  1
  C  C99  1  0.97791062  0.81494784  0.08627988  1
  C  C100  1  0.83703722  0.02208938  0.08627988  1
  C  C101  1  0.18505216  0.16296278  0.08627988  1
  C  C102  1  0.66907353  0.14382513  0.74660363  1
  C  C103  1  0.47475260  0.33092647  0.74660363  1
  C  C104  1  0.85617487  0.52524740  0.74660363  1
  C  C105  1  0.66907353  0.52524740  0.24660363  1
  C  C106  1  0.85617487  0.33092647  0.24660363  1
  C  C107  1  0.47475260  0.14382513  0.24660363  1
  C  C108  1  0.64457762  0.49629578  0.91961288  1
  C  C109  1  0.85171916  0.35542238  0.91961288  1
  C  C110  1  0.50370422  0.14828084  0.91961288  1
  C  C111  1  0.64457762  0.14828084  0.41961288  1
  C  C112  1  0.50370422  0.35542238  0.41961288  1
  C  C113  1  0.85171916  0.49629578  0.41961288  1
  C  C114  1  0.33573953  0.47715913  0.07993763  1
  C  C115  1  0.14141860  0.66426047  0.07993763  1
  C  C116  1  0.52284087  0.85858140  0.07993763  1
  C  C117  1  0.33573953  0.85858140  0.57993763  1
  C  C118  1  0.52284087  0.66426047  0.57993763  1
  C  C119  1  0.14141860  0.47715913  0.57993763  1
  C  C120  1  0.31124362  0.82962978  0.25294688  1
  C  C121  1  0.51838516  0.68875638  0.25294688  1
  C  C122  1  0.17037022  0.48161484  0.25294688  1
  C  C123  1  0.31124362  0.48161484  0.75294688  1
  C  C124  1  0.17037022  0.68875638  0.75294688  1
  C  C125  1  0.51838516  0.82962978  0.75294688  1
