# generated using pymatgen
data_Cu(NiC11)3
_symmetry_space_group_name_H-M   'P 1'
_cell_length_a   8.82126085
_cell_length_b   8.83514887
_cell_length_c   22.58601581
_cell_angle_alpha   89.91828411
_cell_angle_beta   90.07784103
_cell_angle_gamma   120.32635466
_symmetry_Int_Tables_number   1
_chemical_formula_structural   Cu(NiC11)3
_chemical_formula_sum   'Cu3 Ni9 C99'
_cell_volume   1519.41571869
_cell_formula_units_Z   3
loop_
 _symmetry_equiv_pos_site_id
 _symmetry_equiv_pos_as_xyz
  1  'x, y, z'
loop_
 _atom_site_type_symbol
 _atom_site_label
 _atom_site_symmetry_multiplicity
 _atom_site_fract_x
 _atom_site_fract_y
 _atom_site_fract_z
 _atom_site_occupancy
  Ni  Ni0  1  0.36180840  0.35788749  0.24907660  1
  Ni  Ni1  1  0.63142440  0.62977453  0.75055734  1
  Ni  Ni2  1  0.96691448  0.29754332  0.41678655  1
  Ni  Ni3  1  0.00038332  0.99122959  0.50293589  1
  Ni  Ni4  1  0.99983646  -0.00001427  0.00068662  1
  Ni  Ni5  1  0.66714788  0.32397610  0.83695894  1
  Ni  Ni6  1  0.66773925  0.33410558  0.33215188  1
  Ni  Ni7  1  0.33179246  0.67514870  0.16427967  1
  Ni  Ni8  1  0.32306801  0.66702890  0.66568753  1
  Cu  Cu9  1  0.99786062  0.98890373  0.35657683  1
  Cu  Cu10  1  0.66828216  0.32558548  0.68580445  1
  Cu  Cu11  1  0.67517769  0.33318366  0.17855781  1
  C  C12  1  0.00108959  0.00139499  0.85632013  1
  C  C13  1  0.00295780  0.00359092  0.64638813  1
  C  C14  1  0.99756517  0.99664052  0.14614470  1
  C  C15  1  0.66615868  0.33425294  0.98219054  1
  C  C16  1  0.65853091  0.33413834  0.48339423  1
  C  C17  1  0.33456874  0.66611095  0.01675660  1
  C  C18  1  0.33488067  0.66689734  0.52041846  1
  C  C19  1  0.33570433  0.67558361  0.31283596  1
  C  C20  1  0.32621382  0.66758790  0.81663829  1
  C  C21  1  0.28820248  0.99134287  0.24865724  1
  C  C22  1  0.70044519  0.70930924  0.24866003  1
  C  C23  1  0.00543469  0.29649921  0.25174752  1
  C  C24  1  0.27677638  0.28795999  0.75277609  1
  C  C25  1  0.01219995  0.72638747  0.75244282  1
  C  C26  1  0.71495325  0.99327264  0.75322707  1
  C  C27  1  0.96452479  0.33189734  0.58043317  1
  C  C28  1  0.36647220  0.03352447  0.58139577  1
  C  C29  1  0.66734370  0.63171470  0.58315797  1
  C  C30  1  0.96953826  0.63541807  0.07913664  1
  C  C31  1  0.66659934  0.03282579  0.07944445  1
  C  C32  1  0.36655415  0.33380543  0.08106441  1
  C  C33  1  0.62052792  0.66416891  0.91581487  1
  C  C34  1  0.04279566  0.37803454  0.91703797  1
  C  C35  1  0.33488955  0.95602599  0.91690366  1
  C  C36  1  0.61008667  0.95741209  0.41944555  1
  C  C37  1  0.34724318  0.39179775  0.41809059  1
  C  C38  1  0.04586834  0.65736089  0.41988692  1
  C  C39  1  0.21443560  0.02714056  0.30439879  1
  C  C40  1  0.80499703  0.78291566  0.30513520  1
  C  C41  1  0.98471255  0.19889167  0.31003797  1
  C  C42  1  0.18445264  0.17368671  0.80725399  1
  C  C43  1  0.98780812  0.81748856  0.80688104  1
  C  C44  1  0.82765964  0.00940129  0.80779079  1
  C  C45  1  0.80232878  0.96839021  0.69638034  1
  C  C46  1  0.16881695  0.19690034  0.69547039  1
  C  C47  1  0.03125496  0.83418797  0.69520072  1
  C  C48  1  0.79982863  0.82713890  0.19379719  1
  C  C49  1  0.03090203  0.19803315  0.19783114  1
  C  C50  1  0.16915936  0.96918889  0.19379597  1
  C  C51  1  0.89621495  0.37236604  0.63617086  1
  C  C52  1  0.47399261  0.10123251  0.63754422  1
  C  C53  1  0.62938471  0.52862832  0.64089297  1
  C  C54  1  0.90901192  0.53233665  0.13626989  1
  C  C55  1  0.62248728  0.09265463  0.13625442  1
  C  C56  1  0.46677102  0.37319946  0.13928542  1
  C  C57  1  0.47071420  0.30753304  0.02944169  1
  C  C58  1  0.83923193  0.53269626  0.02712119  1
  C  C59  1  0.69447160  0.16249104  0.02735624  1
  C  C60  1  0.46669815  0.16130524  0.52826691  1
  C  C61  1  0.69263682  0.52903142  0.53062435  1
  C  C62  1  0.84309492  0.30349616  0.52582799  1
  C  C63  1  0.53034751  0.69271601  0.96911493  1
  C  C64  1  0.16094722  0.46690645  0.97059655  1
  C  C65  1  0.30600270  0.83799328  0.97032254  1
  C  C66  1  0.51764936  0.84282837  0.47304692  1
  C  C67  1  0.32485209  0.48652696  0.47118122  1
  C  C68  1  0.15873514  0.67202315  0.47340481  1
  C  C69  1  0.13388900  0.63434819  0.36288296  1
  C  C70  1  0.50277142  0.86568850  0.36213290  1
  C  C71  1  0.36665691  0.49434400  0.35973797  1
  C  C72  1  0.13521790  0.49713605  0.86140541  1
  C  C73  1  0.36147841  0.86466393  0.86127180  1
  C  C74  1  0.50737259  0.63756138  0.85901187  1
  C  C75  1  0.02621545  0.81817418  0.42058412  1
  C  C76  1  0.79696064  0.98594405  0.41853596  1
  C  C77  1  0.17878944  0.21060437  0.41810930  1
  C  C78  1  0.02456751  0.19529916  0.90876682  1
  C  C79  1  0.17063945  0.97494547  0.90853117  1
  C  C80  1  0.80597503  0.82939431  0.90887721  1
  C  C81  1  0.97852850  0.16405952  0.58877484  1
  C  C82  1  0.18568175  0.02150562  0.58772155  1
  C  C83  1  0.83612054  0.81382923  0.58848699  1
  C  C84  1  0.98058177  0.81588010  0.08631916  1
  C  C85  1  0.83560542  0.02087548  0.08718415  1
  C  C86  1  0.18390840  0.16489663  0.08732631  1
  C  C87  1  0.69605410  0.15490680  0.75187018  1
  C  C88  1  0.46323922  0.31527258  0.75023950  1
  C  C89  1  0.84299523  0.54601140  0.74975880  1
  C  C90  1  0.66319855  0.52119820  0.24303879  1
  C  C91  1  0.85056740  0.32455132  0.24634576  1
  C  C92  1  0.47066011  0.15272433  0.24244155  1
  C  C93  1  0.63855688  0.49949621  0.92430778  1
  C  C94  1  0.86016286  0.36036332  0.92390333  1
  C  C95  1  0.50029818  0.13968715  0.92414602  1
  C  C96  1  0.62889524  0.14183162  0.42410409  1
  C  C97  1  0.51201319  0.37309596  0.42556122  1
  C  C98  1  0.86281065  0.48671378  0.42453308  1
  C  C99  1  0.34388389  0.49293509  0.06786651  1
  C  C100  1  0.15257920  0.65972743  0.06678437  1
  C  C101  1  0.50813759  0.84860176  0.06674511  1
  C  C102  1  0.34064950  0.85013532  0.57017168  1
  C  C103  1  0.50914688  0.65618278  0.57087451  1
  C  C104  1  0.15126398  0.48995431  0.57046957  1
  C  C105  1  0.29879965  0.82203230  0.25601743  1
  C  C106  1  0.51832302  0.69859637  0.25451002  1
  C  C107  1  0.18144037  0.47759074  0.25566736  1
  C  C108  1  0.29564366  0.47250767  0.75771688  1
  C  C109  1  0.17639979  0.70715004  0.75861217  1
  C  C110  1  0.53219280  0.82231378  0.75815426  1
