# generated using pymatgen
data_Cu4Ni7C30
_symmetry_space_group_name_H-M   'P 1'
_cell_length_a   9.47592544
_cell_length_b   9.47861729
_cell_length_c   22.71147474
_cell_angle_alpha   89.91671899
_cell_angle_beta   90.01604932
_cell_angle_gamma   119.91866209
_symmetry_Int_Tables_number   1
_chemical_formula_structural   Cu4Ni7C30
_chemical_formula_sum   'Cu12 Ni21 C90'
_cell_volume   1768.06181752
_cell_formula_units_Z   3
loop_
 _symmetry_equiv_pos_site_id
 _symmetry_equiv_pos_as_xyz
  1  'x, y, z'
loop_
 _atom_site_type_symbol
 _atom_site_label
 _atom_site_symmetry_multiplicity
 _atom_site_fract_x
 _atom_site_fract_y
 _atom_site_fract_z
 _atom_site_occupancy
  Ni  Ni0  1  0.63737015  0.01254120  0.25916333  1
  Ni  Ni1  1  0.34182284  0.34006317  0.23994244  1
  Ni  Ni2  1  0.02107057  0.64089833  0.25417704  1
  Ni  Ni3  1  0.64315706  0.65305683  0.73800314  1
  Ni  Ni4  1  0.98702420  0.34861928  0.76149200  1
  Ni  Ni5  1  0.01356781  0.69058596  0.57290797  1
  Ni  Ni6  1  0.67862628  0.97135649  0.58427296  1
  Ni  Ni7  1  0.30460919  0.98429768  0.07923575  1
  Ni  Ni8  1  0.02932137  0.32552441  0.08333175  1
  Ni  Ni9  1  0.99328868  0.66383504  0.91730518  1
  Ni  Ni10  1  0.69692327  0.03898201  0.90699734  1
  Ni  Ni11  1  0.31986693  0.29225950  0.92633252  1
  Ni  Ni12  1  0.95743597  0.30490332  0.40672569  1
  Ni  Ni13  1  0.32963594  0.00696979  0.40988022  1
  Ni  Ni14  1  0.71067603  0.68224462  0.42748208  1
  Ni  Ni15  1  0.99189935  0.99141237  0.49774854  1
  Ni  Ni16  1  0.01003384  0.00846641  0.99894810  1
  Ni  Ni17  1  0.63841660  0.28345523  0.83264012  1
  Ni  Ni18  1  0.67626252  0.32358166  0.33291238  1
  Ni  Ni19  1  0.34072072  0.65165847  0.16647320  1
  Ni  Ni20  1  0.36135851  0.67968573  0.66642117  1
  Cu  Cu21  1  0.00096099  0.00060914  0.34627908  1
  Cu  Cu22  1  0.00660561  0.00340114  0.84655729  1
  Cu  Cu23  1  0.00841834  0.00531702  0.65213562  1
  Cu  Cu24  1  0.00158112  -0.00007178  0.15251620  1
  Cu  Cu25  1  0.65340093  0.32816730  0.68124960  1
  Cu  Cu26  1  0.65988500  0.33562824  0.17976578  1
  Cu  Cu27  1  0.66348558  0.33807558  0.98674040  1
  Cu  Cu28  1  0.65862994  0.33411326  0.48703284  1
  Cu  Cu29  1  0.33706823  0.66515890  0.01463178  1
  Cu  Cu30  1  0.33856640  0.66309051  0.51528384  1
  Cu  Cu31  1  0.33353849  0.66941860  0.32057689  1
  Cu  Cu32  1  0.33321492  0.67842249  0.81840472  1
  C  C33  1  0.31311019  0.99931802  0.25048403  1
  C  C34  1  0.99969094  0.31336634  0.24924586  1
  C  C35  1  0.69359936  0.00077675  0.74905189  1
  C  C36  1  0.67273199  0.65156020  0.58499265  1
  C  C37  1  0.34769309  0.33071463  0.08384732  1
  C  C38  1  0.02101564  0.35592177  0.91560257  1
  C  C39  1  0.33249313  0.97700661  0.92365415  1
  C  C40  1  0.64716773  0.98007351  0.41693542  1
  C  C41  1  0.02049482  0.66531725  0.41878256  1
  C  C42  1  0.69039801  0.68950535  0.25266992  1
  C  C43  1  0.31240318  0.31798559  0.75322545  1
  C  C44  1  0.99429757  0.68284672  0.74943082  1
  C  C45  1  0.97108483  0.33490233  0.58455238  1
  C  C46  1  0.35302029  0.01550163  0.57926748  1
  C  C47  1  0.98271958  0.64598112  0.08277712  1
  C  C48  1  0.66714796  0.02616443  0.08378568  1
  C  C49  1  0.64385373  0.66719172  0.91237873  1
  C  C50  1  0.33302996  0.35588767  0.41322937  1
  C  C51  1  0.22570889  0.00746686  0.30715725  1
  C  C52  1  0.77523168  0.76429799  0.30889448  1
  C  C53  1  0.98120709  0.21296087  0.30586928  1
  C  C54  1  0.23974619  0.23582213  0.81000937  1
  C  C55  1  0.99590974  0.77145031  0.80346666  1
  C  C56  1  0.79217478  0.01247377  0.80564835  1
  C  C57  1  0.78873037  0.99398629  0.69438326  1
  C  C58  1  0.21368459  0.21709559  0.70367216  1
  C  C59  1  0.00559331  0.77867649  0.69639211  1
  C  C60  1  0.78188158  0.79551048  0.20278251  1
  C  C61  1  0.00670227  0.22048241  0.19433873  1
  C  C62  1  0.20983871  0.98653858  0.19588314  1
  C  C63  1  0.88319564  0.34260840  0.63754459  1
  C  C64  1  0.45821973  0.11456409  0.62820714  1
  C  C65  1  0.67292988  0.55979027  0.64129154  1
  C  C66  1  0.89067477  0.55300251  0.13535217  1
  C  C67  1  0.65958589  0.11383242  0.13692698  1
  C  C68  1  0.43591942  0.32856386  0.14096173  1
  C  C69  1  0.44281428  0.32898795  0.02866209  1
  C  C70  1  0.89598148  0.56189682  0.02805206  1
  C  C71  1  0.68022747  0.12394402  0.03051698  1
  C  C72  1  0.42474586  0.09545864  0.52202604  1
  C  C73  1  0.67529372  0.55884830  0.52903369  1
  C  C74  1  0.87304867  0.32036029  0.53109697  1
  C  C75  1  0.55527039  0.68590541  0.96275314  1
  C  C76  1  0.12341841  0.44749875  0.97032011  1
  C  C77  1  0.32103730  0.89186222  0.98317292  1
  C  C78  1  0.55732825  0.87625933  0.47159402  1
  C  C79  1  0.32166874  0.44922506  0.46316586  1
  C  C80  1  0.11835717  0.67306532  0.47463111  1
  C  C81  1  0.10770771  0.65173659  0.36299977  1
  C  C82  1  0.55224560  0.89409616  0.36010178  1
  C  C83  1  0.34590564  0.44201139  0.35712351  1
  C  C84  1  0.10706817  0.45263811  0.85891598  1
  C  C85  1  0.35098580  0.87813671  0.87329410  1
  C  C86  1  0.55406339  0.65187022  0.85683987  1
  C  C87  1  0.00653840  0.82313094  0.41810437  1
  C  C88  1  0.82275407  0.00409621  0.41745803  1
  C  C89  1  0.18556751  0.19060115  0.41446515  1
  C  C90  1  0.00056469  0.18161315  0.91624159  1
  C  C91  1  0.17416057  0.98876985  0.91769886  1
  C  C92  1  0.81112516  0.81178050  0.91172878  1
  C  C93  1  0.99105866  0.18930762  0.58593444  1
  C  C94  1  0.18494258  0.98893936  0.58315073  1
  C  C95  1  0.83235236  0.82298293  0.58162651  1
  C  C96  1  0.00811922  0.81414456  0.08231998  1
  C  C97  1  0.81355099  0.00750603  0.08485873  1
  C  C98  1  0.17586913  0.17197254  0.08004907  1
  C  C99  1  0.67750093  0.15654454  0.74855137  1
  C  C100  1  0.48362973  0.35190466  0.75066201  1
  C  C101  1  0.83857380  0.52302157  0.74996297  1
  C  C102  1  0.67672163  0.52642720  0.24847878  1
  C  C103  1  0.85151877  0.34295748  0.24809626  1
  C  C104  1  0.48505570  0.15636853  0.24965407  1
  C  C105  1  0.66063848  0.51989054  0.91815558  1
  C  C106  1  0.84771802  0.33840167  0.91673359  1
  C  C107  1  0.48194230  0.15311725  0.92009671  1
  C  C108  1  0.66105120  0.15168094  0.41764320  1
  C  C109  1  0.47915143  0.33613613  0.41764045  1
  C  C110  1  0.84498981  0.51444435  0.41897585  1
  C  C111  1  0.31988614  0.47920258  0.08533803  1
  C  C112  1  0.14612092  0.65735214  0.08536986  1
  C  C113  1  0.51596272  0.86443962  0.08290249  1
  C  C114  1  0.34048521  0.85180593  0.58317157  1
  C  C115  1  0.52475617  0.68054978  0.58675671  1
  C  C116  1  0.13204731  0.48705628  0.58281259  1
  C  C117  1  0.33765546  0.84822929  0.25046792  1
  C  C118  1  0.52237498  0.66603930  0.25163432  1
  C  C119  1  0.16010313  0.48223451  0.24964302  1
  C  C120  1  0.31752084  0.47858357  0.74925924  1
  C  C121  1  0.13106930  0.64696743  0.74878509  1
  C  C122  1  0.52509072  0.84115975  0.74834432  1
