# generated using pymatgen
data_Cu3NiC15
_symmetry_space_group_name_H-M   'P 1'
_cell_length_a   7.81966864
_cell_length_b   5.90619237
_cell_length_c   6.04946248
_cell_angle_alpha   71.42634633
_cell_angle_beta   67.84953212
_cell_angle_gamma   70.58821744
_symmetry_Int_Tables_number   1
_chemical_formula_structural   Cu3NiC15
_chemical_formula_sum   'Cu3 Ni1 C15'
_cell_volume   238.01649573
_cell_formula_units_Z   1
loop_
 _symmetry_equiv_pos_site_id
 _symmetry_equiv_pos_as_xyz
  1  'x, y, z'
loop_
 _atom_site_type_symbol
 _atom_site_label
 _atom_site_symmetry_multiplicity
 _atom_site_fract_x
 _atom_site_fract_y
 _atom_site_fract_z
 _atom_site_occupancy
  Ni  Ni0  1  0.84980300  0.64848800  0.15234000  1
  C  C1  1  0.67285000  0.26470200  0.32368300  1
  C  C2  1  0.21282300  0.34911500  0.34349800  1
  C  C3  1  0.00961900  0.06354100  0.96694900  1
  Cu  Cu4  1  0.83178000  0.65481000  0.66093400  1
  Cu  Cu5  1  0.33076400  0.67129800  0.66807100  1
  Cu  Cu6  1  0.47800100  0.99522200  0.99814200  1
  C  C7  1  0.32244900  0.39941700  0.00376600  1
  C  C8  1  0.68849700  0.02124500  0.59504300  1
  C  C9  1  0.26929900  0.91403600  0.89061800  1
  C  C10  1  0.63931100  0.57439600  0.52159800  1
  C  C11  1  0.94693000  0.25917900  0.19285500  1
  C  C12  1  0.74254400  0.04366500  0.11971200  1
  C  C13  1  0.38501700  0.42131800  0.44789300  1
  C  C14  1  0.02431300  0.75106900  0.79913500  1
  C  C15  1  0.67365700  0.58116800  0.02141800  1
  C  C16  1  0.00854700  0.29859500  0.68185700  1
  C  C17  1  0.30469800  0.00267100  0.39350000  1
  C  C18  1  0.01980900  0.66939800  0.31422400  1
