# generated using pymatgen
data_Cu6Ni3C13
_symmetry_space_group_name_H-M   'P 1'
_cell_length_a   6.42495500
_cell_length_b   6.55037300
_cell_length_c   11.99774670
_cell_angle_alpha   81.20656389
_cell_angle_beta   90.00000000
_cell_angle_gamma   90.00000000
_symmetry_Int_Tables_number   1
_chemical_formula_structural   Cu6Ni3C13
_chemical_formula_sum   'Cu12 Ni6 C26'
_cell_volume   499.00032860
_cell_formula_units_Z   2
loop_
 _symmetry_equiv_pos_site_id
 _symmetry_equiv_pos_as_xyz
  1  'x, y, z'
loop_
 _atom_site_type_symbol
 _atom_site_label
 _atom_site_symmetry_multiplicity
 _atom_site_fract_x
 _atom_site_fract_y
 _atom_site_fract_z
 _atom_site_occupancy
  C  C0  1  0.00000000  0.00000000  0.00000000  1
  C  C1  1  0.50000000  0.00000000  0.50000000  1
  C  C2  1  0.34456100  0.21547300  0.04690600  1
  C  C3  1  0.84456100  0.78452700  0.45309400  1
  C  C4  1  0.65543900  0.78452700  0.95309400  1
  C  C5  1  0.15543900  0.21547300  0.54690600  1
  C  C6  1  0.36622100  0.98093300  0.11859300  1
  C  C7  1  0.86622100  0.01906700  0.38140700  1
  C  C8  1  0.63377900  0.01906700  0.88140700  1
  C  C9  1  0.13377900  0.98093300  0.61859300  1
  C  C10  1  0.90372200  0.20988000  0.16933300  1
  C  C11  1  0.40372200  0.79012000  0.33066700  1
  C  C12  1  0.09627800  0.79012000  0.83066700  1
  C  C13  1  0.59627800  0.20988000  0.66933300  1
  C  C14  1  0.76321200  0.31178100  0.06064400  1
  C  C15  1  0.26321200  0.68821900  0.43935600  1
  C  C16  1  0.23678800  0.68821900  0.93935600  1
  C  C17  1  0.73678800  0.31178100  0.56064400  1
  C  C18  1  0.95009500  0.33687200  0.32844600  1
  C  C19  1  0.45009500  0.66312800  0.17155400  1
  C  C20  1  0.04990500  0.66312800  0.67155400  1
  C  C21  1  0.54990500  0.33687200  0.82844600  1
  C  C22  1  0.14589800  0.21080300  0.30525700  1
  C  C23  1  0.64589800  0.78919700  0.19474300  1
  C  C24  1  0.85410200  0.78919700  0.69474300  1
  C  C25  1  0.35410200  0.21080300  0.80525700  1
  Ni  Ni26  1  0.96611100  0.72781800  0.15776100  1
  Ni  Ni27  1  0.00000000  0.50000000  0.50000000  1
  Ni  Ni28  1  0.50000000  0.50000000  0.00000000  1
  Ni  Ni29  1  0.53388900  0.72781800  0.65776100  1
  Ni  Ni30  1  0.03388900  0.27218200  0.84223900  1
  Ni  Ni31  1  0.46611100  0.27218200  0.34223900  1
  Cu  Cu32  1  0.85234300  0.19325300  0.09183100  1
  Cu  Cu33  1  0.50867300  0.21126000  0.79842600  1
  Cu  Cu34  1  0.00867300  0.78874000  0.70157400  1
  Cu  Cu35  1  0.49132700  0.78874000  0.20157400  1
  Cu  Cu36  1  0.99132700  0.21126000  0.29842600  1
  Cu  Cu37  1  0.64765700  0.19325300  0.59183100  1
  Cu  Cu38  1  0.27665200  0.07844600  0.06628800  1
  Cu  Cu39  1  0.77665200  0.92155400  0.43371200  1
  Cu  Cu40  1  0.72334800  0.92155400  0.93371200  1
  Cu  Cu41  1  0.22334800  0.07844600  0.56628800  1
  Cu  Cu42  1  0.35234300  0.80674700  0.40816900  1
  Cu  Cu43  1  0.14765700  0.80674700  0.90816900  1
