# generated using pymatgen
data_Cu12NiC65
_symmetry_space_group_name_H-M   'P 1'
_cell_length_a   17.92225349
_cell_length_b   8.96526236
_cell_length_c   22.52606917
_cell_angle_alpha   90.02255083
_cell_angle_beta   89.97985888
_cell_angle_gamma   119.97802079
_symmetry_Int_Tables_number   1
_chemical_formula_structural   Cu12NiC65
_chemical_formula_sum   'Cu36 Ni3 C195'
_cell_volume   3135.21816595
_cell_formula_units_Z   3
loop_
 _symmetry_equiv_pos_site_id
 _symmetry_equiv_pos_as_xyz
  1  'x, y, z'
loop_
 _atom_site_type_symbol
 _atom_site_label
 _atom_site_symmetry_multiplicity
 _atom_site_fract_x
 _atom_site_fract_y
 _atom_site_fract_z
 _atom_site_occupancy
  C  C0  1  0.81711411  0.01000270  0.24688895  1
  C  C1  1  0.18248289  0.36531930  0.24933560  1
  C  C2  1  0.68758707  0.36422336  0.24617607  1
  C  C3  1  0.99454353  0.62209970  0.24678018  1
  C  C4  1  0.31720521  0.62489425  0.74736370  1
  C  C5  1  0.81762765  0.62498284  0.74689915  1
  C  C6  1  0.99487123  0.36434070  0.74665869  1
  C  C7  1  0.49467649  0.36365871  0.74668204  1
  C  C8  1  0.18738334  0.01001780  0.74756820  1
  C  C9  1  0.68761184  0.01063119  0.74710356  1
  C  C10  1  0.15226858  0.33590945  0.58427352  1
  C  C11  1  0.65330723  0.33582390  0.58385390  1
  C  C12  1  0.33403077  0.97142790  0.58396192  1
  C  C13  1  0.83454594  0.97353053  0.58373222  1
  C  C14  1  0.65194556  0.97070257  0.08469763  1
  C  C15  1  0.83293280  0.69472667  0.08386907  1
  C  C16  1  0.01527576  0.33501463  0.08313761  1
  C  C17  1  0.48356295  0.29996222  0.41678441  1
  C  C18  1  0.99992317  0.99212297  0.49703799  1
  C  C19  1  0.50112094  0.98652036  0.49815324  1
  C  C20  1  0.00430012  0.99928981  0.99715536  1
  C  C21  1  0.49604398  0.00113172  0.99925667  1
  C  C22  1  0.33294632  0.33307439  0.83371064  1
  C  C23  1  0.83352242  0.33319097  0.83306735  1
  C  C24  1  0.33320867  0.33351458  0.33252226  1
  C  C25  1  0.83302409  0.33226344  0.33231909  1
  C  C26  1  0.17414724  0.68295960  0.16434260  1
  C  C27  1  0.65865052  0.65709854  0.16619547  1
  C  C28  1  0.16282194  0.66685553  0.66564188  1
  C  C29  1  0.66300644  0.66719050  0.66543180  1
  C  C30  1  0.99889553  0.99958432  0.35561940  1
  C  C31  1  0.50070761  0.99705834  0.35398415  1
  C  C32  1  0.00008618  0.00071905  0.85582815  1
  C  C33  1  0.49990591  0.99905673  0.85587404  1
  C  C34  1  -0.00003732  0.99620539  0.64531993  1
  C  C35  1  0.50045482  0.99709411  0.64530753  1
  C  C36  1  0.00288693  0.99964904  0.14501655  1
  C  C37  1  0.49724230  0.99957884  0.14435123  1
  C  C38  1  0.33632889  0.33373521  0.18729258  1
  C  C39  1  0.33291152  0.33254247  0.97731149  1
  C  C40  1  0.83355144  0.33393557  0.97773529  1
  C  C41  1  0.33043089  0.33477656  0.47881693  1
  C  C42  1  0.83437119  0.33409852  0.47763402  1
  C  C43  1  0.16890031  0.67246826  0.02155455  1
  C  C44  1  0.66425546  0.66018617  0.02076409  1
  C  C45  1  0.16407638  0.66633415  0.52085036  1
  C  C46  1  0.66542343  0.66855590  0.52137758  1
  C  C47  1  0.16892208  0.67103974  0.31297646  1
  C  C48  1  0.66477899  0.66676859  0.31230188  1
  C  C49  1  0.16677203  0.66633811  0.81469391  1
  C  C50  1  0.66680288  0.66667375  0.81446750  1
  Ni  Ni51  1  0.33348240  0.33290268  0.68628163  1
  Ni  Ni52  1  0.83338801  0.33313267  0.68611501  1
  Ni  Ni53  1  0.83280751  0.33337870  0.18597650  1
  Cu  Cu54  1  0.14548574  0.00043458  0.25099178  1
  Cu  Cu55  1  0.64644312  0.00372322  0.24765668  1
  Cu  Cu56  1  0.35626895  0.71116569  0.24982519  1
  Cu  Cu57  1  0.85554650  0.70583281  0.24884013  1
  Cu  Cu58  1  0.99713656  0.28930159  0.24903824  1
  Cu  Cu59  1  0.49848518  0.28681935  0.25076239  1
  Cu  Cu60  1  0.14703528  0.28906575  0.74895442  1
  Cu  Cu61  1  0.64707062  0.28893769  0.74912575  1
  Cu  Cu62  1  0.99734596  0.70516922  0.74987163  1
  Cu  Cu63  1  0.49732405  0.70506149  0.74966385  1
  Cu  Cu64  1  0.35528984  0.00501682  0.74925660  1
  Cu  Cu65  1  0.85529025  0.00528952  0.74930799  1
  Cu  Cu66  1  0.47508866  0.33733515  0.58605344  1
  Cu  Cu67  1  0.97501253  0.33722037  0.58698950  1
  Cu  Cu68  1  0.19136996  0.04826904  0.58686794  1
  Cu  Cu69  1  0.69241449  0.05083303  0.58614617  1
  Cu  Cu70  1  0.33440666  0.61730139  0.58661212  1
  Cu  Cu71  1  0.83469394  0.61560944  0.58595345  1
  Cu  Cu72  1  0.47677070  0.62160759  0.08239404  1
  Cu  Cu73  1  0.97528055  0.61524602  0.08640343  1
  Cu  Cu74  1  0.33311201  0.04612823  0.08272220  1
  Cu  Cu75  1  0.83290917  0.05000713  0.08634868  1
  Cu  Cu76  1  0.19076034  0.33549998  0.08377344  1
  Cu  Cu77  1  0.69158231  0.33305679  0.08641210  1
  Cu  Cu78  1  0.31191849  0.66612261  0.91695587  1
  Cu  Cu79  1  0.81214721  0.66711743  0.91736677  1
  Cu  Cu80  1  0.02197643  0.37739026  0.91801188  1
  Cu  Cu81  1  0.52054003  0.37468031  0.91611500  1
  Cu  Cu82  1  0.16656195  0.95691160  0.91679348  1
  Cu  Cu83  1  0.66681488  0.95711798  0.91755994  1
  Cu  Cu84  1  0.31169822  0.95625805  0.41788036  1
  Cu  Cu85  1  0.81089891  0.95540105  0.41678916  1
  Cu  Cu86  1  0.16594039  0.37656864  0.41653306  1
  Cu  Cu87  1  0.66865539  0.37848953  0.41635264  1
  Cu  Cu88  1  0.02151979  0.66645071  0.41553296  1
  Cu  Cu89  1  0.52156132  0.66922352  0.41718469  1
  C  C90  1  0.09871772  0.03492899  0.30708419  1
  C  C91  1  0.59749934  0.03308574  0.30516594  1
  C  C92  1  0.41642093  0.80600780  0.30783056  1
  C  C93  1  0.91941179  0.80397278  0.30522067  1
  C  C94  1  0.48582351  0.17289051  0.31059413  1
  C  C95  1  0.98286798  0.16199323  0.30545152  1
  C  C96  1  0.09816771  0.16159802  0.80500126  1
  C  C97  1  0.59806193  0.16117451  0.80503440  1
  C  C98  1  0.48241195  0.80160772  0.80599159  1
  C  C99  1  0.98243691  0.80241982  0.80607554  1
  C  C100  1  0.41919172  0.03449958  0.80513359  1
  C  C101  1  0.91893962  0.03406063  0.80526463  1
  C  C102  1  0.39893887  0.96493367  0.69092680  1
  C  C103  1  0.89873933  0.96472804  0.69103559  1
  C  C104  1  0.08337691  0.20253298  0.69073901  1
  C  C105  1  0.58335093  0.20293754  0.69078675  1
  C  C106  1  0.01780476  0.83795138  0.69313721  1
  C  C107  1  0.51776205  0.83802801  0.69310339  1
  C  C108  1  0.40220222  0.83339680  0.19242218  1
  C  C109  1  0.89952977  0.83442073  0.19107190  1
  C  C110  1  0.01747484  0.20089407  0.19131146  1
  C  C111  1  0.51726459  0.19604372  0.19419144  1
  C  C112  1  0.08194474  0.96502295  0.19331954  1
  C  C113  1  0.58519126  0.97038942  0.18980780  1
  C  C114  1  0.43122219  0.36153430  0.64478339  1
  C  C115  1  0.93218956  0.36233370  0.64601422  1
  C  C116  1  0.25109690  0.13228057  0.64466192  1
  C  C117  1  0.75099223  0.13197569  0.64472949  1
  C  C118  1  0.31480862  0.49583297  0.64409277  1
  C  C119  1  0.81459519  0.49636423  0.64417444  1
  C  C120  1  0.43151349  0.50137596  0.14088432  1
  C  C121  1  0.93294605  0.49681388  0.14454373  1
  C  C122  1  0.31915125  0.13854496  0.14124166  1
  C  C123  1  0.81477381  0.13311345  0.14428286  1
  C  C124  1  0.24732702  0.36132420  0.14382192  1
  C  C125  1  0.75150957  0.37134603  0.14448620  1
  C  C126  1  0.23627753  0.30444185  0.02633338  1
  C  C127  1  0.73580791  0.29864409  0.02786312  1
  C  C128  1  0.41651585  0.52826908  0.02504504  1
  C  C129  1  0.91336699  0.53002029  0.02788653  1
  C  C130  1  0.34785109  0.16730979  0.02508240  1
  C  C131  1  0.85144582  0.17331231  0.02804703  1
  C  C132  1  0.23540336  0.17053984  0.52801388  1
  C  C133  1  0.73524035  0.17219639  0.52768259  1
  C  C134  1  0.34809112  0.52765261  0.52721343  1
  C  C135  1  0.84798243  0.52645771  0.52687475  1
  C  C136  1  0.41632671  0.30003190  0.52580419  1
  C  C137  1  0.91388087  0.29818294  0.52836169  1
  C  C138  1  0.26320311  0.69355580  0.97344926  1
  C  C139  1  0.76570615  0.69442689  0.97574651  1
  C  C140  1  0.08122539  0.46770762  0.97630341  1
  C  C141  1  0.58326952  0.47268601  0.97300102  1
  C  C142  1  0.15250591  0.83247349  0.97336512  1
  C  C143  1  0.65351474  0.83700910  0.97586050  1
  C  C144  1  0.26630164  0.83834281  0.47685690  1
  C  C145  1  0.76505833  0.83587362  0.47578756  1
  C  C146  1  0.15410559  0.46968286  0.47590222  1
  C  C147  1  0.65088216  0.46822746  0.47467972  1
  C  C148  1  0.08381538  0.69324239  0.47316103  1
  C  C149  1  0.58289544  0.69432293  0.47472321  1
  C  C150  1  0.06748471  0.63849685  0.35677745  1
  C  C151  1  0.56780892  0.63355197  0.36015282  1
  C  C152  1  0.25001665  0.86097003  0.36034565  1
  C  C153  1  0.75111772  0.86237743  0.35801632  1
  C  C154  1  0.18027014  0.49567276  0.35759215  1
  C  C155  1  0.67998005  0.49623914  0.35755094  1
  C  C156  1  0.06821155  0.49663646  0.85821207  1
  C  C157  1  0.56744125  0.49525271  0.85698296  1
  C  C158  1  0.18014010  0.86493715  0.85699425  1
  C  C159  1  0.67999082  0.86365874  0.85806900  1
  C  C160  1  0.25257484  0.63935364  0.85700061  1
  C  C161  1  0.75197376  0.63988925  0.85800706  1
  C  C162  1  0.01339752  0.83839998  0.40936957  1
  C  C163  1  0.51291564  0.83965228  0.41093089  1
  C  C164  1  0.40831645  0.98242993  0.41099287  1
  C  C165  1  0.90532944  0.97244448  0.40973235  1
  C  C166  1  0.08055598  0.18773025  0.40989809  1
  C  C167  1  0.57956093  0.19225674  0.41032583  1
  C  C168  1  0.01342372  0.18877366  0.90913292  1
  C  C169  1  0.51346485  0.18787206  0.90914245  1
  C  C170  1  0.08073671  0.97369007  0.90914229  1
  C  C171  1  0.58084736  0.97289026  0.90925783  1
  C  C172  1  0.40574732  0.83846675  0.90902650  1
  C  C173  1  0.90593402  0.83915735  0.90949104  1
  C  C174  1  0.48674547  0.16358890  0.59046258  1
  C  C175  1  0.98707427  0.16384904  0.59102015  1
  C  C176  1  0.09613904  0.03375375  0.59036966  1
  C  C177  1  0.59623521  0.03341835  0.59065864  1
  C  C178  1  0.41737839  0.81486169  0.59008948  1
  C  C179  1  0.91696439  0.81463626  0.59032910  1
  C  C180  1  0.49118886  0.81617487  0.08922466  1
  C  C181  1  0.98341142  0.80766834  0.09098782  1
  C  C182  1  0.41875749  0.02673329  0.09040790  1
  C  C183  1  0.91899236  0.02669761  0.09063435  1
  C  C184  1  0.09286961  0.16553434  0.09022349  1
  C  C185  1  0.59588100  0.15979617  0.09049090  1
  C  C186  1  0.34493413  0.17363282  0.74304205  1
  C  C187  1  0.84475341  0.17347312  0.74332969  1
  C  C188  1  0.24160073  0.30919837  0.74236327  1
  C  C189  1  0.74157314  0.30924514  0.74252427  1
  C  C190  1  0.41289340  0.51676070  0.74244539  1
  C  C191  1  0.91292685  0.51716273  0.74263413  1
  C  C192  1  0.34183178  0.51698896  0.24447037  1
  C  C193  1  0.84571530  0.51721731  0.24278678  1
  C  C194  1  0.41435607  0.30918270  0.24451045  1
  C  C195  1  0.91238789  0.30797057  0.24283273  1
  C  C196  1  0.23826461  0.17447918  0.24423364  1
  C  C197  1  0.74106090  0.17444305  0.24284697  1
  C  C198  1  0.32009788  0.49438320  0.92236541  1
  C  C199  1  0.81972332  0.49473423  0.92334128  1
  C  C200  1  0.42688417  0.35917102  0.92203223  1
  C  C201  1  0.92755341  0.36066157  0.92355339  1
  C  C202  1  0.25238744  0.14523091  0.92239188  1
  C  C203  1  0.75270889  0.14501813  0.92348423  1
  C  C204  1  0.32410373  0.14934433  0.42337026  1
  C  C205  1  0.81980735  0.14396828  0.42374192  1
  C  C206  1  0.25238962  0.35953903  0.42303031  1
  C  C207  1  0.75283154  0.35809702  0.42264920  1
  C  C208  1  0.42909606  0.49194031  0.42359350  1
  C  C209  1  0.92787649  0.49455916  0.42344075  1
  C  C210  1  0.17530955  0.50013029  0.07786944  1
  C  C211  1  0.68251182  0.50669882  0.07698363  1
  C  C212  1  0.07060365  0.63490792  0.07726567  1
  C  C213  1  0.57453371  0.64830009  0.07736933  1
  C  C214  1  0.24788736  0.85493795  0.07722547  1
  C  C215  1  0.74846847  0.85487065  0.07775907  1
  C  C216  1  0.18254557  0.85787810  0.57748766  1
  C  C217  1  0.68279303  0.85860664  0.57733816  1
  C  C218  1  0.24876522  0.64139793  0.57764421  1
  C  C219  1  0.74888407  0.64101207  0.57696181  1
  C  C220  1  0.07444429  0.50020073  0.57805438  1
  C  C221  1  0.57456403  0.49996125  0.57782248  1
  C  C222  1  0.15036040  0.82374111  0.25597209  1
  C  C223  1  0.65705387  0.83237441  0.25647770  1
  C  C224  1  0.25892700  0.68542385  0.25635780  1
  C  C225  1  0.76042663  0.69169904  0.25582408  1
  C  C226  1  0.08538573  0.47860957  0.25601425  1
  C  C227  1  0.58741395  0.47529247  0.25652786  1
  C  C228  1  0.15385314  0.47937648  0.75551603  1
  C  C229  1  0.65396519  0.47943174  0.75565642  1
  C  C230  1  0.08565796  0.69148029  0.75554611  1
  C  C231  1  0.58573945  0.69180054  0.75554935  1
  C  C232  1  0.26011806  0.82825112  0.75547158  1
  C  C233  1  0.76012854  0.82817492  0.75568567  1
