# generated using pymatgen
data_Cu(NiC9)2
_symmetry_space_group_name_H-M   'P 1'
_cell_length_a   8.90639420
_cell_length_b   8.90639390
_cell_length_c   21.92351083
_cell_angle_alpha   90.20134465
_cell_angle_beta   89.79865535
_cell_angle_gamma   119.66434144
_symmetry_Int_Tables_number   1
_chemical_formula_structural   Cu(NiC9)2
_chemical_formula_sum   'Cu6 Ni12 C108'
_cell_volume   1511.12352499
_cell_formula_units_Z   6
loop_
 _symmetry_equiv_pos_site_id
 _symmetry_equiv_pos_as_xyz
  1  'x, y, z'
loop_
 _atom_site_type_symbol
 _atom_site_label
 _atom_site_symmetry_multiplicity
 _atom_site_fract_x
 _atom_site_fract_y
 _atom_site_fract_z
 _atom_site_occupancy
  C  C0  1  0.64092435  0.99930455  0.25246748  1
  C  C1  1  0.36672285  0.37329080  0.24581771  1
  C  C2  1  0.99442041  0.62521179  0.25212151  1
  C  C3  1  0.62670920  0.63327715  0.74581771  1
  C  C4  1  0.00069545  0.35907565  0.75246748  1
  C  C5  1  0.37478821  0.00557959  0.75212151  1
  C  C6  1  0.30759135  0.33263755  0.58580048  1
  C  C7  1  0.03338985  0.70662380  0.57915071  1
  C  C8  1  0.66108741  0.95854479  0.58545451  1
  C  C9  1  0.29337620  0.96661015  0.07915071  1
  C  C10  1  0.66736245  0.69240865  0.08580048  1
  C  C11  1  0.04145521  0.33891259  0.08545451  1
  C  C12  1  0.97425735  0.66597155  0.91913448  1
  C  C13  1  0.70005585  0.03995780  0.91248471  1
  C  C14  1  0.32775341  0.29187879  0.91878851  1
  C  C15  1  0.96004220  0.29994415  0.41248471  1
  C  C16  1  0.33402845  0.02574265  0.41913448  1
  C  C17  1  0.70812121  0.67224659  0.41878851  1
  C  C18  1  0.99511905  0.98763837  0.50007352  1
  C  C19  1  0.01236163  0.00488095  0.00007352  1
  C  C20  1  0.66178605  0.32097137  0.83340652  1
  C  C21  1  0.67902863  0.33821395  0.33340652  1
  C  C22  1  0.32845205  0.65430537  0.16674052  1
  C  C23  1  0.34569463  0.67154795  0.66674052  1
  C  C24  1  0.96971743  0.98199398  0.35105110  1
  C  C25  1  0.01800602  0.03028257  0.85105110  1
  C  C26  1  0.99712169  0.99816092  0.64949371  1
  C  C27  1  0.00183908  0.00287831  0.14949371  1
  C  C28  1  0.63638443  0.31532698  0.68438410  1
  C  C29  1  0.68467302  0.36361557  0.18438410  1
  C  C30  1  0.66378869  0.33149392  0.98282671  1
  C  C31  1  0.66850608  0.33621131  0.48282671  1
  C  C32  1  0.30305043  0.64866098  0.01771810  1
  C  C33  1  0.35133902  0.69694957  0.51771810  1
  C  C34  1  0.33045469  0.66482792  0.31616071  1
  C  C35  1  0.33517208  0.66954531  0.81616071  1
  Ni  Ni36  1  0.70447099  0.70809015  0.24910199  1
  Ni  Ni37  1  0.99908939  0.29032028  0.24995103  1
  Ni  Ni38  1  0.29190985  0.29552901  0.74910199  1
  Ni  Ni39  1  0.70967972  0.00091061  0.74995103  1
  Ni  Ni40  1  0.37113799  0.04142315  0.58243499  1
  Ni  Ni41  1  0.66575639  0.62365328  0.58328403  1
  Ni  Ni42  1  0.95857685  0.62886201  0.08243499  1
  Ni  Ni43  1  0.37634672  0.33424361  0.08328403  1
  Ni  Ni44  1  0.03780399  0.37475715  0.91576899  1
  Ni  Ni45  1  0.33242239  0.95698728  0.91661803  1
  Ni  Ni46  1  0.62524285  0.96219601  0.41576899  1
  Ni  Ni47  1  0.04301272  0.66757761  0.41661803  1
  Cu  Cu48  1  0.29173922  0.00145105  0.25045576  1
  Cu  Cu49  1  0.99854895  0.70826078  0.75045576  1
  Cu  Cu50  1  0.95840622  0.33478405  0.58378876  1
  Cu  Cu51  1  0.66521595  0.04159378  0.08378876  1
  Cu  Cu52  1  0.62507222  0.66811805  0.91712276  1
  Cu  Cu53  1  0.33188195  0.37492778  0.41712276  1
  C  C54  1  0.21506039  0.03409773  0.30510454  1
  C  C55  1  0.82999855  0.78207414  0.30869134  1
  C  C56  1  0.96890003  0.17107689  0.31082180  1
  C  C57  1  0.21792586  0.17000145  0.80869134  1
  C  C58  1  0.96590227  0.78493961  0.80510454  1
  C  C59  1  0.82892311  0.03109997  0.81082180  1
  C  C60  1  0.79262306  0.95955214  0.68975094  1
  C  C61  1  0.16810761  0.20945242  0.68940306  1
  C  C62  1  0.03204873  0.81720564  0.69509512  1
  C  C63  1  0.79054758  0.83189239  0.18940306  1
  C  C64  1  0.04044786  0.20737694  0.18975094  1
  C  C65  1  0.18279436  0.96795127  0.19509512  1
  C  C66  1  0.88172739  0.36743073  0.63843754  1
  C  C67  1  0.49666555  0.11540714  0.64202434  1
  C  C68  1  0.63556703  0.50440989  0.64415480  1
  C  C69  1  0.88459286  0.50333445  0.14202434  1
  C  C70  1  0.63256927  0.11827261  0.13843754  1
  C  C71  1  0.49559011  0.36443297  0.14415480  1
  C  C72  1  0.45929006  0.29288514  0.02308394  1
  C  C73  1  0.83477461  0.54278542  0.02273606  1
  C  C74  1  0.69871573  0.15053864  0.02842812  1
  C  C75  1  0.45721458  0.16522539  0.52273606  1
  C  C76  1  0.70711486  0.54070994  0.52308394  1
  C  C77  1  0.84946136  0.30128427  0.52842812  1
  C  C78  1  0.54839339  0.70076473  0.97177154  1
  C  C79  1  0.16333155  0.44874114  0.97535834  1
  C  C80  1  0.30223303  0.83774389  0.97748880  1
  C  C81  1  0.55125886  0.83666845  0.47535834  1
  C  C82  1  0.29923527  0.45160661  0.47177154  1
  C  C83  1  0.16225611  0.69776697  0.47748880  1
  C  C84  1  0.12595606  0.62621914  0.35641794  1
  C  C85  1  0.50144061  0.87611942  0.35607006  1
  C  C86  1  0.36538173  0.48387264  0.36176212  1
  C  C87  1  0.12388058  0.49855939  0.85607006  1
  C  C88  1  0.37378086  0.87404394  0.85641794  1
  C  C89  1  0.51612736  0.63461827  0.86176212  1
  C  C90  1  0.03305596  0.84849876  0.41029288  1
  C  C91  1  0.82080218  0.98513137  0.41319849  1
  C  C92  1  0.17918893  0.20018621  0.41068611  1
  C  C93  1  0.01486863  0.17919782  0.91319849  1
  C  C94  1  0.15150124  0.96694404  0.91029288  1
  C  C95  1  0.79981379  0.82081107  0.91068611  1
  C  C96  1  0.97477765  0.17585800  0.58748020  1
  C  C97  1  0.17881628  0.02413247  0.59004624  1
  C  C98  1  0.83821201  0.81818911  0.58889547  1
  C  C99  1  0.97586753  0.82118372  0.09004624  1
  C  C100  1  0.82414200  0.02522235  0.08748020  1
  C  C101  1  0.18181089  0.16178799  0.08889547  1
  C  C102  1  0.69972296  0.18183176  0.74362588  1
  C  C103  1  0.48746918  0.31846437  0.74653149  1
  C  C104  1  0.84585593  0.53351921  0.74401911  1
  C  C105  1  0.68153563  0.51253082  0.24653149  1
  C  C106  1  0.81816824  0.30027704  0.24362588  1
  C  C107  1  0.46648079  0.15414407  0.24401911  1
  C  C108  1  0.64144465  0.50919100  0.92081320  1
  C  C109  1  0.84548328  0.35746547  0.92337924  1
  C  C110  1  0.50487901  0.15152211  0.92222847  1
  C  C111  1  0.64253453  0.15451672  0.42337924  1
  C  C112  1  0.49080900  0.35855535  0.42081320  1
  C  C113  1  0.84847789  0.49512099  0.42222847  1
  C  C114  1  0.36638896  0.51516576  0.07695988  1
  C  C115  1  0.15413518  0.65179837  0.07986549  1
  C  C116  1  0.51252193  0.86685321  0.07735311  1
  C  C117  1  0.34820163  0.84586482  0.57986549  1
  C  C118  1  0.48483424  0.63361104  0.57695988  1
  C  C119  1  0.13314679  0.48747807  0.57735311  1
  C  C120  1  0.30811065  0.84252500  0.25414720  1
  C  C121  1  0.51214928  0.69079947  0.25671324  1
  C  C122  1  0.17154501  0.48485611  0.25556247  1
  C  C123  1  0.30920053  0.48785072  0.75671324  1
  C  C124  1  0.15747500  0.69188935  0.75414720  1
  C  C125  1  0.51514389  0.82845499  0.75556247  1
