# generated using pymatgen
data_CuNi2C7
_symmetry_space_group_name_H-M   'P 1'
_cell_length_a   3.62787834
_cell_length_b   5.66575181
_cell_length_c   6.21273151
_cell_angle_alpha   100.75181856
_cell_angle_beta   90.00483903
_cell_angle_gamma   108.67646993
_symmetry_Int_Tables_number   1
_chemical_formula_structural   CuNi2C7
_chemical_formula_sum   'Cu1 Ni2 C7'
_cell_volume   118.60652018
_cell_formula_units_Z   1
loop_
 _symmetry_equiv_pos_site_id
 _symmetry_equiv_pos_as_xyz
  1  'x, y, z'
loop_
 _atom_site_type_symbol
 _atom_site_label
 _atom_site_symmetry_multiplicity
 _atom_site_fract_x
 _atom_site_fract_y
 _atom_site_fract_z
 _atom_site_occupancy
  C  C0  1  0.49979179  0.99959700  0.51455083  1
  Ni  Ni1  1  0.22501603  0.44985805  0.70404634  1
  Ni  Ni2  1  0.77509771  0.55009751  0.32155561  1
  Cu  Cu3  1  0.99931889  0.00019170  0.01341585  1
  C  C4  1  0.04619393  0.09257528  0.73051523  1
  C  C5  1  0.95386991  0.90747331  0.29607186  1
  C  C6  1  0.35098422  0.70121761  0.91607318  1
  C  C7  1  0.65007019  0.29982556  0.10835587  1
  C  C8  1  0.30824943  0.61637621  0.44326383  1
  C  C9  1  0.69140790  0.38278777  0.58215141  1
