# generated using pymatgen
data_Cu4NiC10
_symmetry_space_group_name_H-M   'P 1'
_cell_length_a   6.19690019
_cell_length_b   6.59098585
_cell_length_c   6.45023505
_cell_angle_alpha   124.50211541
_cell_angle_beta   119.75485799
_cell_angle_gamma   88.92781447
_symmetry_Int_Tables_number   1
_chemical_formula_structural   Cu4NiC10
_chemical_formula_sum   'Cu4 Ni1 C10'
_cell_volume   175.35176865
_cell_formula_units_Z   1
loop_
 _symmetry_equiv_pos_site_id
 _symmetry_equiv_pos_as_xyz
  1  'x, y, z'
loop_
 _atom_site_type_symbol
 _atom_site_label
 _atom_site_symmetry_multiplicity
 _atom_site_fract_x
 _atom_site_fract_y
 _atom_site_fract_z
 _atom_site_occupancy
  Ni  Ni0  1  0.87500000  0.12500000  0.75000000  1
  Cu  Cu1  1  0.87500000  0.62500000  0.25000000  1
  Cu  Cu2  1  0.37500000  0.62500000  0.25000000  1
  Cu  Cu3  1  0.37500000  0.12500000  0.75000000  1
  Cu  Cu4  1  0.37500000  0.62500000  0.75000000  1
  C  C5  1  0.03689000  0.97044100  0.06315200  1
  C  C6  1  0.71311000  0.27955900  0.43684800  1
  C  C7  1  0.62075500  0.43417500  0.23433500  1
  C  C8  1  0.62801700  0.89981800  0.26542100  1
  C  C9  1  0.12198300  0.35018200  0.23457900  1
  C  C10  1  0.64691300  0.38073100  0.78511400  1
  C  C11  1  0.61817900  0.86909800  0.71453800  1
  C  C12  1  0.13182100  0.38090200  0.78546200  1
  C  C13  1  0.12924500  0.81582500  0.26566500  1
  C  C14  1  0.10308700  0.86926900  0.71488600  1
