# generated using pymatgen
data_CuNiC6
_symmetry_space_group_name_H-M   'P 1'
_cell_length_a   12.54062300
_cell_length_b   4.51612200
_cell_length_c   7.14954645
_cell_angle_alpha   69.03373411
_cell_angle_beta   90.00000000
_cell_angle_gamma   90.00000000
_symmetry_Int_Tables_number   1
_chemical_formula_structural   CuNiC6
_chemical_formula_sum   'Cu4 Ni4 C24'
_cell_volume   378.10557018
_cell_formula_units_Z   4
loop_
 _symmetry_equiv_pos_site_id
 _symmetry_equiv_pos_as_xyz
  1  'x, y, z'
loop_
 _atom_site_type_symbol
 _atom_site_label
 _atom_site_symmetry_multiplicity
 _atom_site_fract_x
 _atom_site_fract_y
 _atom_site_fract_z
 _atom_site_occupancy
  C  C0  1  0.56294400  0.33862400  0.29971800  1
  C  C1  1  0.06294400  0.66137600  0.20028200  1
  C  C2  1  0.43705600  0.66137600  0.70028200  1
  C  C3  1  0.93705600  0.33862400  0.79971800  1
  Ni  Ni4  1  0.34621200  0.28314500  0.47830800  1
  Ni  Ni5  1  0.84621200  0.71685500  0.02169200  1
  Ni  Ni6  1  0.65378800  0.71685500  0.52169200  1
  Ni  Ni7  1  0.15378800  0.28314500  0.97830800  1
  Cu  Cu8  1  0.64678400  0.09202800  0.88915500  1
  Cu  Cu9  1  0.14678400  0.90797200  0.61084500  1
  Cu  Cu10  1  0.35321600  0.90797200  0.11084500  1
  Cu  Cu11  1  0.85321600  0.09202800  0.38915500  1
  C  C12  1  0.41652100  0.26088800  0.54230800  1
  C  C13  1  0.91652100  0.73911200  0.95769200  1
  C  C14  1  0.58347900  0.73911200  0.45769200  1
  C  C15  1  0.08347900  0.26088800  0.04230800  1
  C  C16  1  0.83423300  0.80072900  0.56269900  1
  C  C17  1  0.33423300  0.19927100  0.93730100  1
  C  C18  1  0.16576700  0.19927100  0.43730100  1
  C  C19  1  0.66576700  0.80072900  0.06269900  1
  C  C20  1  0.90237300  0.02436600  0.21946500  1
  C  C21  1  0.40237300  0.97563400  0.28053500  1
  C  C22  1  0.09762700  0.97563400  0.78053500  1
  C  C23  1  0.59762700  0.02436600  0.71946500  1
  C  C24  1  0.93001400  0.30287200  0.44916300  1
  C  C25  1  0.43001400  0.69712800  0.05083700  1
  C  C26  1  0.06998600  0.69712800  0.55083700  1
  C  C27  1  0.56998600  0.30287200  0.94916300  1
  C  C28  1  0.75239200  0.26624900  0.32277100  1
  C  C29  1  0.25239200  0.73375100  0.17722900  1
  C  C30  1  0.24760800  0.73375100  0.67722900  1
  C  C31  1  0.74760800  0.26624900  0.82277100  1
