# generated using pymatgen
data_Cu2NiC4
_symmetry_space_group_name_H-M   'P 1'
_cell_length_a   3.61736000
_cell_length_b   10.42366700
_cell_length_c   12.46950000
_cell_angle_alpha   90.00000000
_cell_angle_beta   90.00000000
_cell_angle_gamma   90.00000000
_symmetry_Int_Tables_number   1
_chemical_formula_structural   Cu2NiC4
_chemical_formula_sum   'Cu8 Ni4 C16'
_cell_volume   470.17691298
_cell_formula_units_Z   4
loop_
 _symmetry_equiv_pos_site_id
 _symmetry_equiv_pos_as_xyz
  1  'x, y, z'
loop_
 _atom_site_type_symbol
 _atom_site_label
 _atom_site_symmetry_multiplicity
 _atom_site_fract_x
 _atom_site_fract_y
 _atom_site_fract_z
 _atom_site_occupancy
  Ni  Ni0  1  0.25000000  0.25182000  0.14571100  1
  Ni  Ni1  1  0.75000000  0.74818000  0.85428900  1
  Ni  Ni2  1  0.75000000  0.24818000  0.64571100  1
  Ni  Ni3  1  0.25000000  0.75182000  0.35428900  1
  Cu  Cu4  1  0.25000000  0.42873500  0.88426500  1
  Cu  Cu5  1  0.75000000  0.57126500  0.11573500  1
  Cu  Cu6  1  0.75000000  0.07126500  0.38426500  1
  Cu  Cu7  1  0.25000000  0.92873500  0.61573500  1
  Cu  Cu8  1  0.25000000  0.91161600  0.11036900  1
  Cu  Cu9  1  0.75000000  0.08838400  0.88963100  1
  Cu  Cu10  1  0.75000000  0.58838400  0.61036900  1
  Cu  Cu11  1  0.25000000  0.41161600  0.38963100  1
  C  C12  1  0.25000000  0.42944600  0.58266100  1
  C  C13  1  0.75000000  0.57055400  0.41733900  1
  C  C14  1  0.75000000  0.07055400  0.08266100  1
  C  C15  1  0.25000000  0.92944600  0.91733900  1
  C  C16  1  0.25000000  0.49617100  0.21267300  1
  C  C17  1  0.75000000  0.50382900  0.78732700  1
  C  C18  1  0.75000000  0.00382900  0.71267300  1
  C  C19  1  0.25000000  0.99617100  0.28732700  1
  C  C20  1  0.25000000  0.13686400  0.51621800  1
  C  C21  1  0.75000000  0.86313600  0.48378200  1
  C  C22  1  0.75000000  0.36313600  0.01621800  1
  C  C23  1  0.25000000  0.63686400  0.98378200  1
  C  C24  1  0.25000000  0.71832000  0.68677100  1
  C  C25  1  0.75000000  0.28168000  0.31322900  1
  C  C26  1  0.75000000  0.78168000  0.18677100  1
  C  C27  1  0.25000000  0.21832000  0.81322900  1
