# generated using pymatgen
data_CuNiC16
_symmetry_space_group_name_H-M   'P 1'
_cell_length_a   9.30355356
_cell_length_b   9.32284258
_cell_length_c   23.81455179
_cell_angle_alpha   92.54607270
_cell_angle_beta   89.99737381
_cell_angle_gamma   119.62586104
_symmetry_Int_Tables_number   1
_chemical_formula_structural   CuNiC16
_chemical_formula_sum   'Cu6 Ni6 C96'
_cell_volume   1793.19702606
_cell_formula_units_Z   6
loop_
 _symmetry_equiv_pos_site_id
 _symmetry_equiv_pos_as_xyz
  1  'x, y, z'
loop_
 _atom_site_type_symbol
 _atom_site_label
 _atom_site_symmetry_multiplicity
 _atom_site_fract_x
 _atom_site_fract_y
 _atom_site_fract_z
 _atom_site_occupancy
  Ni  Ni0  1  0.97772278  0.97085570  0.49298093  1
  Ni  Ni1  1  0.02319430  0.99319708  0.00291046  1
  Ni  Ni2  1  0.63752226  0.30669013  0.82565648  1
  Ni  Ni3  1  0.66245663  0.29843937  0.32652343  1
  Ni  Ni4  1  0.30369728  0.65426118  0.17377203  1
  Ni  Ni5  1  0.35843962  0.65951755  0.65972375  1
  Cu  Cu6  1  0.99695418  0.00467325  0.35519771  1
  Cu  Cu7  1  0.01056201  0.00715199  0.85436834  1
  Cu  Cu8  1  0.65503310  0.33578855  0.68771001  1
  Cu  Cu9  1  0.68289458  0.33464381  0.18773784  1
  Cu  Cu10  1  0.32359273  0.67181012  0.02203938  1
  Cu  Cu11  1  0.34635767  0.67853756  0.52000942  1
  C  C12  1  0.98786023  0.01552246  0.64633926  1
  C  C13  1  0.00640956  0.98893307  0.15677683  1
  C  C14  1  0.66440540  0.33559756  0.98109442  1
  C  C15  1  0.68030493  0.35261667  0.47357904  1
  C  C16  1  0.30877165  0.68480927  0.31466626  1
  C  C17  1  0.35540701  0.69266055  0.80574619  1
  C  C18  1  0.29648432  0.99339808  0.25399001  1
  C  C19  1  0.02885243  0.31014231  0.25331092  1
  C  C20  1  0.28225970  0.30423842  0.75254335  1
  C  C21  1  0.70663093  0.99782803  0.75189188  1
  C  C22  1  0.68763024  0.63869006  0.58609839  1
  C  C23  1  0.94951926  0.64353556  0.08529698  1
  C  C24  1  0.35093642  0.96850336  0.91893433  1
  C  C25  1  0.61684263  0.96965349  0.41831359  1
  C  C26  1  0.02973360  0.66005126  0.41990558  1
  C  C27  1  0.68939658  0.72132876  0.24502473  1
  C  C28  1  0.02972986  0.71567880  0.74832950  1
  C  C29  1  0.95139977  0.31302244  0.58263437  1
  C  C30  1  0.34595441  0.04586577  0.58234854  1
  C  C31  1  0.69948626  0.05574089  0.07620418  1
  C  C32  1  0.36098150  0.30731852  0.08107028  1
  C  C33  1  0.61403264  0.63936465  0.91559513  1
  C  C34  1  0.01233706  0.37761980  0.91778983  1
  C  C35  1  0.36108314  0.38032954  0.41716970  1
  C  C36  1  0.21065319  0.00727749  0.30866996  1
  C  C37  1  0.77780938  0.78700043  0.29820542  1
  C  C38  1  0.99657637  0.20253629  0.30582307  1
  C  C39  1  0.20347447  0.19846086  0.80594822  1
  C  C40  1  0.00524825  0.77914887  0.80252252  1
  C  C41  1  0.79588366  0.99472254  0.80767562  1
  C  C42  1  0.80903593  0.97928237  0.69420053  1
  C  C43  1  0.15936886  0.19500037  0.69486477  1
  C  C44  1  0.04219237  0.81781725  0.70092257  1
  C  C45  1  0.80377821  0.82805539  0.19699963  1
  C  C46  1  0.03140337  0.18685075  0.19512856  1
  C  C47  1  0.16610659  0.96661425  0.19595971  1
  C  C48  1  0.88047641  0.33414575  0.63448539  1
  C  C49  1  0.44205630  0.11879810  0.63548780  1
  C  C50  1  0.68382171  0.54101454  0.63944670  1
  C  C51  1  0.85879447  0.54217316  0.13814990  1
  C  C52  1  0.66821836  0.11912161  0.12948747  1
  C  C53  1  0.45561051  0.33116959  0.13247816  1
  C  C54  1  0.45896396  0.29584079  0.02999374  1
  C  C55  1  0.82356589  0.52318023  0.02823955  1
  C  C56  1  0.69542098  0.16038253  0.02863043  1
  C  C57  1  0.43584367  0.13936665  0.53350924  1
  C  C58  1  0.69545163  0.52296581  0.52818802  1
  C  C59  1  0.84855671  0.29370505  0.53187053  1
  C  C60  1  0.53896465  0.65806027  0.96710578  1
  C  C61  1  0.10831592  0.45203120  0.97015395  1
  C  C62  1  0.34614867  0.86647833  0.97129768  1
  C  C63  1  0.54114855  0.86331697  0.47165638  1
  C  C64  1  0.34613532  0.45273044  0.47073059  1
  C  C65  1  0.12932865  0.65905291  0.47312622  1
  C  C66  1  0.12905457  0.64241964  0.36036436  1
  C  C67  1  0.48889193  0.85544899  0.36099041  1
  C  C68  1  0.37189107  0.47647968  0.36823708  1
  C  C69  1  0.09220969  0.47167583  0.86845174  1
  C  C70  1  0.36334174  0.85880511  0.86056057  1
  C  C71  1  0.51075894  0.62418445  0.86447400  1
  C  C72  1  0.98364631  0.80182490  0.41632582  1
  C  C73  1  0.80743033  0.02505170  0.41158061  1
  C  C74  1  0.23074436  0.20657867  0.41318547  1
  C  C75  1  0.97034361  0.20317719  0.91381592  1
  C  C76  1  0.20204318  0.00831915  0.91746525  1
  C  C77  1  0.78559131  0.77529466  0.91180471  1
  C  C78  1  0.95208497  0.14614183  0.58591315  1
  C  C79  1  0.18434532  0.04804315  0.58707316  1
  C  C80  1  0.86622873  0.82410985  0.59497560  1
  C  C81  1  0.95434731  0.82812995  0.09191999  1
  C  C82  1  0.86265925  0.06425505  0.07737618  1
  C  C83  1  0.19970581  0.14822635  0.08153725  1
  C  C84  1  0.66249127  0.14111268  0.74697903  1
  C  C85  1  0.47387967  0.35795312  0.74625593  1
  C  C86  1  0.90343738  0.54054480  0.74065522  1
  C  C87  1  0.65398239  0.55034831  0.23565147  1
  C  C88  1  0.88912431  0.36176470  0.24428942  1
  C  C89  1  0.48056758  0.13831056  0.24435534  1
  C  C90  1  0.61839108  0.47627427  0.91900688  1
  C  C91  1  0.84572527  0.37519708  0.92463467  1
  C  C92  1  0.52762965  0.15342799  0.92821179  1
  C  C93  1  0.61173795  0.14821874  0.42981995  1
  C  C94  1  0.52757113  0.37966542  0.41966588  1
  C  C95  1  0.84835898  0.47423778  0.42402357  1
  C  C96  1  0.33169306  0.44715631  0.07429899  1
  C  C97  1  0.13795600  0.68131715  0.08086933  1
  C  C98  1  0.56699230  0.88250311  0.06869488  1
  C  C99  1  0.30589337  0.87127505  0.57913980  1
  C  C100  1  0.53811169  0.67822268  0.58391051  1
  C  C101  1  0.12544116  0.44353315  0.57890631  1
  C  C102  1  0.29143682  0.80895754  0.25546205  1
  C  C103  1  0.53749490  0.73282231  0.24099582  1
  C  C104  1  0.21346062  0.48745824  0.26206523  1
  C  C105  1  0.28123537  0.48554015  0.76415464  1
  C  C106  1  0.19801755  0.71930203  0.75221241  1
  C  C107  1  0.52082239  0.81237424  0.75544846  1
