# generated using pymatgen
data_Cu48Ni7C15
_symmetry_space_group_name_H-M   'P 1'
_cell_length_a   17.39357990
_cell_length_b   8.70199031
_cell_length_c   22.45941775
_cell_angle_alpha   90.00060967
_cell_angle_beta   90.02472071
_cell_angle_gamma   120.07553085
_symmetry_Int_Tables_number   1
_chemical_formula_structural   Cu48Ni7C15
_chemical_formula_sum   'Cu144 Ni21 C45'
_cell_volume   2941.74888289
_cell_formula_units_Z   3
loop_
 _symmetry_equiv_pos_site_id
 _symmetry_equiv_pos_as_xyz
  1  'x, y, z'
loop_
 _atom_site_type_symbol
 _atom_site_label
 _atom_site_symmetry_multiplicity
 _atom_site_fract_x
 _atom_site_fract_y
 _atom_site_fract_z
 _atom_site_occupancy
  C  C0  1  0.99855117  0.99981045  0.49977635  1
  C  C1  1  0.49802047  0.99797282  0.99703631  1
  C  C2  1  0.33528559  0.33590828  0.83403946  1
  C  C3  1  0.83251783  0.33552155  0.83176960  1
  C  C4  1  0.33337258  0.33108985  0.33249329  1
  C  C5  1  0.83379102  0.33357282  0.33558538  1
  C  C6  1  0.00218062  0.99081042  0.35676233  1
  C  C7  1  0.49768229  0.00587348  0.35753622  1
  C  C8  1  0.99648388  0.98905503  0.85680588  1
  C  C9  1  0.50049229  0.00140751  0.85231865  1
  C  C10  1  0.00012666  0.99663731  0.64712500  1
  C  C11  1  0.50366101  0.99364633  0.64792859  1
  C  C12  1  0.00337576  0.99917942  0.14318025  1
  C  C13  1  0.49862918  0.00278660  0.14645710  1
  C  C14  1  0.33800012  0.35301877  0.68640919  1
  C  C15  1  0.83827156  0.34551922  0.69033259  1
  C  C16  1  0.33967304  0.33187417  0.18940384  1
  C  C17  1  0.83249220  0.32293250  0.18310556  1
  C  C18  1  0.34306737  0.35778792  0.97591425  1
  C  C19  1  0.83900317  0.32349288  0.97828501  1
  C  C20  1  0.34145353  0.35466077  0.48202267  1
  C  C21  1  0.84161104  0.32584079  0.47775478  1
  C  C22  1  0.16958461  0.65575865  0.01637914  1
  C  C23  1  0.65966899  0.66146734  0.02456575  1
  C  C24  1  0.16097622  0.66113821  0.52741221  1
  C  C25  1  0.66872879  0.68502204  0.51854936  1
  C  C26  1  0.15959998  0.67447749  0.31101569  1
  C  C27  1  0.66006892  0.66454502  0.31444745  1
  C  C28  1  0.16140836  0.65608158  0.81316379  1
  C  C29  1  0.65402594  0.64312551  0.80719271  1
  C  C30  1  0.14424982  0.00505835  0.24918554  1
  C  C31  1  0.50317323  0.29127748  0.25033577  1
  C  C32  1  0.64362873  0.28295349  0.74880193  1
  C  C33  1  0.00311840  0.71457956  0.75032965  1
  C  C34  1  0.50028361  0.71482995  0.75111688  1
  C  C35  1  0.97656830  0.32791823  0.58589216  1
  C  C36  1  0.33477373  0.63302078  0.58397443  1
  C  C37  1  0.47720545  0.62518452  0.08498522  1
  C  C38  1  0.83388883  0.03596666  0.08256647  1
  C  C39  1  0.31248148  0.67085236  0.91409263  1
  C  C40  1  0.02331868  0.37372336  0.91597035  1
  C  C41  1  0.52402043  0.37463949  0.91736863  1
  C  C42  1  0.81100488  0.95304343  0.41464971  1
  C  C43  1  0.02332147  0.66533280  0.41876168  1
  C  C44  1  0.52180087  0.67067805  0.41670024  1
  Ni  Ni45  1  0.64379551  0.00049525  0.25004194  1
  Ni  Ni46  1  0.35537017  0.71250807  0.25062739  1
  Ni  Ni47  1  0.85539454  0.71125084  0.24948506  1
  Ni  Ni48  1  0.00020516  0.28742890  0.24999948  1
  Ni  Ni49  1  0.14366855  0.28641632  0.75027312  1
  Ni  Ni50  1  0.35465796  0.99878510  0.74945578  1
  Ni  Ni51  1  0.85574246  0.99827207  0.75046603  1
  Ni  Ni52  1  0.47892486  0.33335850  0.58341627  1
  Ni  Ni53  1  0.19055152  0.04730766  0.58356525  1
  Ni  Ni54  1  0.68994363  0.04774367  0.58335521  1
  Ni  Ni55  1  0.83173197  0.61968016  0.58299195  1
  Ni  Ni56  1  0.97812346  0.62153293  0.08298043  1
  Ni  Ni57  1  0.33167586  0.04375510  0.08289507  1
  Ni  Ni58  1  0.19017861  0.33389771  0.08348020  1
  Ni  Ni59  1  0.68995181  0.33350138  0.08280151  1
  Ni  Ni60  1  0.80946924  0.66509607  0.91685888  1
  Ni  Ni61  1  0.16656648  0.95403845  0.91682191  1
  Ni  Ni62  1  0.66688344  0.95346791  0.91647842  1
  Ni  Ni63  1  0.30955903  0.95376701  0.41710254  1
  Ni  Ni64  1  0.16743788  0.38039679  0.41646806  1
  Ni  Ni65  1  0.66670258  0.37965966  0.41702813  1
  Cu  Cu66  1  0.09576854  0.03150519  0.30735766  1
  Cu  Cu67  1  0.60493431  0.03300431  0.30318525  1
  Cu  Cu68  1  0.41246216  0.79188749  0.30369075  1
  Cu  Cu69  1  0.91195365  0.79066783  0.30316548  1
  Cu  Cu70  1  0.48529839  0.15945518  0.30735655  1
  Cu  Cu71  1  0.98211758  0.17814739  0.30348408  1
  Cu  Cu72  1  0.10353502  0.17590111  0.80339003  1
  Cu  Cu73  1  0.59766180  0.16213609  0.80791463  1
  Cu  Cu74  1  0.48062096  0.79991205  0.80881022  1
  Cu  Cu75  1  0.98535381  0.81102161  0.80734674  1
  Cu  Cu76  1  0.41099204  0.03499708  0.80348448  1
  Cu  Cu77  1  0.91334079  0.03428346  0.80369309  1
  Cu  Cu78  1  0.39486246  0.96934370  0.69610203  1
  Cu  Cu79  1  0.89803691  0.97220708  0.69654927  1
  Cu  Cu80  1  0.08854907  0.20723455  0.69590545  1
  Cu  Cu81  1  0.58041126  0.19510952  0.69092804  1
  Cu  Cu82  1  0.01408544  0.83978543  0.69222308  1
  Cu  Cu83  1  0.51481111  0.83373603  0.69197139  1
  Cu  Cu84  1  0.39692096  0.82308177  0.19674069  1
  Cu  Cu85  1  0.89645154  0.82225898  0.19598873  1
  Cu  Cu86  1  0.01395162  0.20775341  0.19639199  1
  Cu  Cu87  1  0.51403497  0.18824759  0.19225033  1
  Cu  Cu88  1  0.07938627  0.96856292  0.19195703  1
  Cu  Cu89  1  0.58960757  0.97145252  0.19587273  1
  Cu  Cu90  1  0.43609717  0.36380511  0.63623426  1
  Cu  Cu91  1  0.92849838  0.36265031  0.64139906  1
  Cu  Cu92  1  0.24394107  0.12498674  0.63716022  1
  Cu  Cu93  1  0.74505051  0.12439245  0.63638372  1
  Cu  Cu94  1  0.31721803  0.49373526  0.63976928  1
  Cu  Cu95  1  0.81763320  0.51210535  0.63700146  1
  Cu  Cu96  1  0.42863509  0.49525736  0.14143002  1
  Cu  Cu97  1  0.93474308  0.50847901  0.13701777  1
  Cu  Cu98  1  0.31779298  0.12350041  0.13731642  1
  Cu  Cu99  1  0.81904079  0.14318457  0.14016696  1
  Cu  Cu100  1  0.24451777  0.36399407  0.13708052  1
  Cu  Cu101  1  0.74525993  0.36195315  0.13756822  1
  Cu  Cu102  1  0.22709645  0.29841690  0.03018943  1
  Cu  Cu103  1  0.72979848  0.30234115  0.03015661  1
  Cu  Cu104  1  0.41480513  0.53186446  0.02641353  1
  Cu  Cu105  1  0.92049545  0.54116894  0.03034732  1
  Cu  Cu106  1  0.34901116  0.15491363  0.03009738  1
  Cu  Cu107  1  0.84957596  0.17391216  0.02713483  1
  Cu  Cu108  1  0.22939983  0.15605129  0.52933398  1
  Cu  Cu109  1  0.72961461  0.15696294  0.52940372  1
  Cu  Cu110  1  0.34867136  0.52638682  0.52675691  1
  Cu  Cu111  1  0.84885214  0.54247662  0.52969670  1
  Cu  Cu112  1  0.42047147  0.30292350  0.52964490  1
  Cu  Cu113  1  0.91541853  0.29892438  0.52603231  1
  Cu  Cu114  1  0.26445451  0.69827809  0.97475880  1
  Cu  Cu115  1  0.77245380  0.69879324  0.97065528  1
  Cu  Cu116  1  0.08374832  0.47228708  0.97503444  1
  Cu  Cu117  1  0.58674023  0.47530214  0.97489247  1
  Cu  Cu118  1  0.15004413  0.84278052  0.97074185  1
  Cu  Cu119  1  0.65326181  0.84698157  0.97072629  1
  Cu  Cu120  1  0.27196834  0.84467841  0.46991987  1
  Cu  Cu121  1  0.76511871  0.82968526  0.47476964  1
  Cu  Cu122  1  0.15223091  0.45816509  0.46987780  1
  Cu  Cu123  1  0.64985023  0.45652579  0.47045569  1
  Cu  Cu124  1  0.08766193  0.70131938  0.47452439  1
  Cu  Cu125  1  0.58439815  0.69614042  0.47469162  1
  Cu  Cu126  1  0.06893683  0.63328970  0.35889126  1
  Cu  Cu127  1  0.56661447  0.63176896  0.35894085  1
  Cu  Cu128  1  0.25567137  0.87276104  0.36233847  1
  Cu  Cu129  1  0.74771602  0.85849968  0.35767887  1
  Cu  Cu130  1  0.18327304  0.48864833  0.36239662  1
  Cu  Cu131  1  0.68264690  0.48927448  0.36295319  1
  Cu  Cu132  1  0.06684280  0.50301976  0.85874350  1
  Cu  Cu133  1  0.56774694  0.50457908  0.85982979  1
  Cu  Cu134  1  0.18279237  0.87619127  0.86322416  1
  Cu  Cu135  1  0.68532293  0.88144591  0.86337766  1
  Cu  Cu136  1  0.24683092  0.63562892  0.85826774  1
  Cu  Cu137  1  0.75690968  0.63761483  0.86297256  1
  Cu  Cu138  1  0.01226384  0.83949149  0.40794190  1
  Cu  Cu139  1  0.51117275  0.84165682  0.40311391  1
  Cu  Cu140  1  0.39911923  0.97283328  0.40768443  1
  Cu  Cu141  1  0.90997564  0.98118718  0.40639260  1
  Cu  Cu142  1  0.08675037  0.20151592  0.40978925  1
  Cu  Cu143  1  0.58700706  0.20004773  0.40791989  1
  Cu  Cu144  1  0.01086160  0.18000829  0.90377292  1
  Cu  Cu145  1  0.51186685  0.18004505  0.90898161  1
  Cu  Cu146  1  0.08700680  0.97362296  0.90838929  1
  Cu  Cu147  1  0.58814536  0.97471802  0.91160296  1
  Cu  Cu148  1  0.40979443  0.84188718  0.90987929  1
  Cu  Cu149  1  0.90014203  0.82558846  0.90849320  1
  Cu  Cu150  1  0.48529902  0.17442279  0.59053420  1
  Cu  Cu151  1  0.98899393  0.15518903  0.59354938  1
  Cu  Cu152  1  0.09984414  0.02698079  0.59004169  1
  Cu  Cu153  1  0.60072887  0.02548221  0.58990054  1
  Cu  Cu154  1  0.42130370  0.82153665  0.59443552  1
  Cu  Cu155  1  0.91262306  0.80121200  0.59065873  1
  Cu  Cu156  1  0.48909269  0.82235003  0.09454775  1
  Cu  Cu157  1  0.98486110  0.79658653  0.09181956  1
  Cu  Cu158  1  0.41256780  0.02391663  0.09117643  1
  Cu  Cu159  1  0.92191190  0.02633069  0.09744499  1
  Cu  Cu160  1  0.09925439  0.17622457  0.09250377  1
  Cu  Cu161  1  0.60074149  0.17275273  0.09094350  1
  Cu  Cu162  1  0.34498870  0.15892800  0.74164463  1
  Cu  Cu163  1  0.84702535  0.15835876  0.74307086  1
  Cu  Cu164  1  0.23260246  0.30235188  0.74294839  1
  Cu  Cu165  1  0.74206997  0.30601220  0.73897756  1
  Cu  Cu166  1  0.41313768  0.51266287  0.74069104  1
  Cu  Cu167  1  0.91403790  0.51946873  0.74191135  1
  Cu  Cu168  1  0.34606044  0.53448814  0.24295922  1
  Cu  Cu169  1  0.84684213  0.53159703  0.24173341  1
  Cu  Cu170  1  0.41400552  0.30857967  0.24183316  1
  Cu  Cu171  1  0.92026107  0.31213645  0.24187530  1
  Cu  Cu172  1  0.24194008  0.17642011  0.23971469  1
  Cu  Cu173  1  0.73449577  0.16462877  0.24234585  1
  Cu  Cu174  1  0.31658488  0.48814401  0.92485373  1
  Cu  Cu175  1  0.82119420  0.50772875  0.92515586  1
  Cu  Cu176  1  0.42436457  0.35203372  0.92588164  1
  Cu  Cu177  1  0.92527021  0.35948283  0.92558437  1
  Cu  Cu178  1  0.24504638  0.13168063  0.92480270  1
  Cu  Cu179  1  0.74666408  0.13815934  0.92505378  1
  Cu  Cu180  1  0.32018753  0.13283628  0.42334911  1
  Cu  Cu181  1  0.81766746  0.14646273  0.42454305  1
  Cu  Cu182  1  0.24579534  0.35444898  0.42371392  1
  Cu  Cu183  1  0.74495188  0.35804478  0.42411243  1
  Cu  Cu184  1  0.42411597  0.48942515  0.42505234  1
  Cu  Cu185  1  0.92302047  0.49557158  0.42460084  1
  Cu  Cu186  1  0.17893139  0.49207426  0.07597491  1
  Cu  Cu187  1  0.68132051  0.49199541  0.07702200  1
  Cu  Cu188  1  0.06609346  0.64181039  0.07611600  1
  Cu  Cu189  1  0.57371301  0.64426079  0.07311154  1
  Cu  Cu190  1  0.25311676  0.86617375  0.07599720  1
  Cu  Cu191  1  0.74727035  0.84926819  0.07082614  1
  Cu  Cu192  1  0.18037326  0.86985615  0.57573084  1
  Cu  Cu193  1  0.68007505  0.86676583  0.57518707  1
  Cu  Cu194  1  0.24707167  0.64329611  0.56963798  1
  Cu  Cu195  1  0.75315702  0.63963696  0.57533631  1
  Cu  Cu196  1  0.07268553  0.50199166  0.57270235  1
  Cu  Cu197  1  0.56625957  0.49276912  0.57438595  1
  Cu  Cu198  1  0.15587435  0.82960378  0.26096672  1
  Cu  Cu199  1  0.65494741  0.84485172  0.25655797  1
  Cu  Cu200  1  0.26722167  0.69283341  0.25897546  1
  Cu  Cu201  1  0.76748290  0.69102187  0.25779632  1
  Cu  Cu202  1  0.07985037  0.46521715  0.25742563  1
  Cu  Cu203  1  0.58938583  0.48376364  0.26089325  1
  Cu  Cu204  1  0.15384986  0.46404278  0.75654700  1
  Cu  Cu205  1  0.65801395  0.48110155  0.76053965  1
  Cu  Cu206  1  0.08928403  0.69519096  0.76104580  1
  Cu  Cu207  1  0.58724655  0.69555437  0.75912536  1
  Cu  Cu208  1  0.26666006  0.84189357  0.75852506  1
  Cu  Cu209  1  0.76859044  0.84194957  0.75872858  1
