# generated using pymatgen
data_Cu2Ni4C7
_symmetry_space_group_name_H-M   'P 1'
_cell_length_a   3.40279200
_cell_length_b   3.40340043
_cell_length_c   43.43970902
_cell_angle_alpha   90.00349788
_cell_angle_beta   90.00000000
_cell_angle_gamma   119.99399710
_symmetry_Int_Tables_number   1
_chemical_formula_structural   Cu2Ni4C7
_chemical_formula_sum   'Cu2 Ni4 C7'
_cell_volume   435.70471270
_cell_formula_units_Z   1
loop_
 _symmetry_equiv_pos_site_id
 _symmetry_equiv_pos_as_xyz
  1  'x, y, z'
loop_
 _atom_site_type_symbol
 _atom_site_label
 _atom_site_symmetry_multiplicity
 _atom_site_fract_x
 _atom_site_fract_y
 _atom_site_fract_z
 _atom_site_occupancy
  C  C0  1  0.00015800  0.00031500  0.19289100  1
  Ni  Ni1  1  0.33350600  0.66701300  0.70281500  1
  Ni  Ni2  1  0.66645600  0.33291200  0.42484400  1
  Ni  Ni3  1  0.66652200  0.33304400  0.51101900  1
  Ni  Ni4  1  0.33342900  0.66685800  0.61663000  1
  C  C5  1  0.33333900  0.66667700  0.08938700  1
  C  C6  1  0.33318800  0.66637600  0.46794800  1
  C  C7  1  0.66666300  0.33332600  0.28535600  1
  C  C8  1  0.66674700  0.33349500  0.65969700  1
  Cu  Cu9  1  0.66658900  0.33317700  0.05159300  1
  Cu  Cu10  1  0.66669500  0.33339000  0.12773100  1
  C  C11  1  0.33333600  0.66667300  0.31949400  1
  C  C12  1  0.33337200  0.66674500  0.25031400  1
