# generated using pymatgen
data_Cu2NiC16
_symmetry_space_group_name_H-M   'P 1'
_cell_length_a   9.41226866
_cell_length_b   5.47946678
_cell_length_c   6.07620988
_cell_angle_alpha   69.77103235
_cell_angle_beta   110.57694752
_cell_angle_gamma   98.08123000
_symmetry_Int_Tables_number   1
_chemical_formula_structural   Cu2NiC16
_chemical_formula_sum   'Cu2 Ni1 C16'
_cell_volume   275.22161998
_cell_formula_units_Z   1
loop_
 _symmetry_equiv_pos_site_id
 _symmetry_equiv_pos_as_xyz
  1  'x, y, z'
loop_
 _atom_site_type_symbol
 _atom_site_label
 _atom_site_symmetry_multiplicity
 _atom_site_fract_x
 _atom_site_fract_y
 _atom_site_fract_z
 _atom_site_occupancy
  C  C0  1  0.17737698  0.02321381  0.59951047  1
  C  C1  1  0.15564715  0.53012843  0.06897851  1
  C  C2  1  0.33124156  0.52622087  0.68885566  1
  C  C3  1  0.32419033  0.03934559  0.17460396  1
  C  C4  1  0.52612270  0.03713653  0.72911451  1
  C  C5  1  0.69967545  0.68408634  0.02262636  1
  C  C6  1  0.76452042  0.04025966  0.38600205  1
  C  C7  1  0.97835845  0.55742101  0.49820238  1
  Ni  Ni8  1  0.77094440  0.46502167  0.73609247  1
  Cu  Cu9  1  0.49975652  0.54908345  0.33849176  1
  Cu  Cu10  1  0.98889228  0.00000424  0.96800078  1
  C  C11  1  0.12496912  0.23695864  0.82534077  1
  C  C12  1  0.11833280  0.83163663  0.28958159  1
  C  C13  1  0.40711537  0.74659563  0.99866914  1
  C  C14  1  0.34683499  0.30929269  0.41688090  1
  C  C15  1  0.57361848  0.64221800  0.63924243  1
  C  C16  1  0.71104334  0.44060969  0.39632810  1
  C  C17  1  0.92437132  0.75048607  0.76665568  1
  C  C18  1  0.79774234  0.10709105  0.98553351  1
