# generated using pymatgen
data_CuNiC8
_symmetry_space_group_name_H-M   'P 1'
_cell_length_a   3.63356371
_cell_length_b   4.62878674
_cell_length_c   9.20252410
_cell_angle_alpha   90.00049795
_cell_angle_beta   89.99556803
_cell_angle_gamma   90.00029709
_symmetry_Int_Tables_number   1
_chemical_formula_structural   CuNiC8
_chemical_formula_sum   'Cu1 Ni1 C8'
_cell_volume   154.77717453
_cell_formula_units_Z   1
loop_
 _symmetry_equiv_pos_site_id
 _symmetry_equiv_pos_as_xyz
  1  'x, y, z'
loop_
 _atom_site_type_symbol
 _atom_site_label
 _atom_site_symmetry_multiplicity
 _atom_site_fract_x
 _atom_site_fract_y
 _atom_site_fract_z
 _atom_site_occupancy
  C  C0  1  -0.00004734  0.00001125  0.83076667  1
  C  C1  1  -0.00010750  0.00004048  0.40766040  1
  Ni  Ni2  1  -0.00009600  0.49999938  0.10516606  1
  Cu  Cu3  1  0.50005045  0.50000585  0.62069926  1
  C  C4  1  0.50020478  0.50010096  0.33727607  1
  C  C5  1  0.00004974  0.50000250  0.70594751  1
  C  C6  1  0.50002333  0.00000522  0.59577272  1
  C  C7  1  0.00002822  0.49994124  0.32984653  1
  C  C8  1  0.49996028  0.99991904  0.26870016  1
  C  C9  1  0.49992804  0.49997008  0.01108162  1
