# generated using pymatgen
data_Cu2Ni2C9
_symmetry_space_group_name_H-M   'P 1'
_cell_length_a   3.33428900
_cell_length_b   3.33413115
_cell_length_c   38.14129200
_cell_angle_alpha   90.00080720
_cell_angle_beta   90.00006441
_cell_angle_gamma   120.00155617
_symmetry_Int_Tables_number   1
_chemical_formula_structural   Cu2Ni2C9
_chemical_formula_sum   'Cu2 Ni2 C9'
_cell_volume   367.20208696
_cell_formula_units_Z   1
loop_
 _symmetry_equiv_pos_site_id
 _symmetry_equiv_pos_as_xyz
  1  'x, y, z'
loop_
 _atom_site_type_symbol
 _atom_site_label
 _atom_site_symmetry_multiplicity
 _atom_site_fract_x
 _atom_site_fract_y
 _atom_site_fract_z
 _atom_site_occupancy
  C  C0  1  0.63139700  0.33687100  0.86643100  1
  C  C1  1  0.66664500  0.33328800  0.04407100  1
  C  C2  1  0.66664800  0.33329500  0.14368000  1
  Ni  Ni3  1  0.33331100  0.66662000  0.09383200  1
  Ni  Ni4  1  0.66668800  0.33337400  0.28187900  1
  Cu  Cu5  1  0.33329500  0.66658800  0.46967500  1
  Cu  Cu6  1  0.66669400  0.33338600  0.65756600  1
  C  C7  1  0.33335600  0.66671000  0.32562900  1
  C  C8  1  0.33337200  0.66674300  0.70154200  1
  C  C9  1  0.33335300  0.66670400  0.23804100  1
  C  C10  1  0.33335400  0.66670700  0.61351800  1
  C  C11  1  0.66664400  0.33328600  0.42972900  1
  C  C12  1  0.66665000  0.33329700  0.50958000  1
