# generated using pymatgen
data_CuNiC2
_symmetry_space_group_name_H-M   'P 1'
_cell_length_a   3.94691581
_cell_length_b   3.94691581
_cell_length_c   7.04933577
_cell_angle_alpha   73.74280784
_cell_angle_beta   73.74280784
_cell_angle_gamma   60.00000326
_symmetry_Int_Tables_number   1
_chemical_formula_structural   CuNiC2
_chemical_formula_sum   'Cu1 Ni1 C2'
_cell_volume   89.99707970
_cell_formula_units_Z   1
loop_
 _symmetry_equiv_pos_site_id
 _symmetry_equiv_pos_as_xyz
  1  'x, y, z'
loop_
 _atom_site_type_symbol
 _atom_site_label
 _atom_site_symmetry_multiplicity
 _atom_site_fract_x
 _atom_site_fract_y
 _atom_site_fract_z
 _atom_site_occupancy
  Ni  Ni0  1  0.50000000  0.50000000  0.50000000  1
  Cu  Cu1  1  0.00000000  0.00000000  0.00000000  1
  C  C2  1  0.74189500  0.74189500  0.77431500  1
  C  C3  1  0.25810500  0.25810500  0.22568500  1
