# generated using pymatgen
data_Cu(NiC2)2
_symmetry_space_group_name_H-M   'P 1'
_cell_length_a   5.28807000
_cell_length_b   6.69390900
_cell_length_c   11.40692300
_cell_angle_alpha   90.00000000
_cell_angle_beta   90.00000000
_cell_angle_gamma   90.00000000
_symmetry_Int_Tables_number   1
_chemical_formula_structural   Cu(NiC2)2
_chemical_formula_sum   'Cu4 Ni8 C16'
_cell_volume   403.78065615
_cell_formula_units_Z   4
loop_
 _symmetry_equiv_pos_site_id
 _symmetry_equiv_pos_as_xyz
  1  'x, y, z'
loop_
 _atom_site_type_symbol
 _atom_site_label
 _atom_site_symmetry_multiplicity
 _atom_site_fract_x
 _atom_site_fract_y
 _atom_site_fract_z
 _atom_site_occupancy
  Ni  Ni0  1  0.48979500  0.75000000  0.78038000  1
  Ni  Ni1  1  0.98979500  0.25000000  0.71962000  1
  Ni  Ni2  1  0.51020500  0.25000000  0.21962000  1
  Ni  Ni3  1  0.01020500  0.75000000  0.28038000  1
  Ni  Ni4  1  0.50000000  0.50000000  0.50000000  1
  Ni  Ni5  1  0.00000000  0.50000000  0.00000000  1
  Ni  Ni6  1  0.50000000  0.00000000  0.50000000  1
  Ni  Ni7  1  0.00000000  0.00000000  0.00000000  1
  Cu  Cu8  1  0.93306700  0.75000000  0.59797200  1
  Cu  Cu9  1  0.43306700  0.25000000  0.90202800  1
  Cu  Cu10  1  0.06693300  0.25000000  0.40202800  1
  Cu  Cu11  1  0.56693300  0.75000000  0.09797200  1
  C  C12  1  0.22007400  0.46062600  0.33551600  1
  C  C13  1  0.72007400  0.53937400  0.16448400  1
  C  C14  1  0.77992600  0.96062600  0.66448400  1
  C  C15  1  0.27992600  0.03937400  0.83551600  1
  C  C16  1  0.77992600  0.53937400  0.66448400  1
  C  C17  1  0.27992600  0.46062600  0.83551600  1
  C  C18  1  0.22007400  0.03937400  0.33551600  1
  C  C19  1  0.72007400  0.96062600  0.16448400  1
  C  C20  1  0.78971500  0.75000000  0.45329100  1
  C  C21  1  0.28971500  0.25000000  0.04670900  1
  C  C22  1  0.21028500  0.25000000  0.54670900  1
  C  C23  1  0.71028500  0.75000000  0.95329100  1
  C  C24  1  0.23341800  0.75000000  0.09707200  1
  C  C25  1  0.73341800  0.25000000  0.40292800  1
  C  C26  1  0.76658200  0.25000000  0.90292800  1
  C  C27  1  0.26658200  0.75000000  0.59707200  1
