# generated using pymatgen
data_Cu2NiC6
_symmetry_space_group_name_H-M   'P 1'
_cell_length_a   8.02577144
_cell_length_b   8.02577144
_cell_length_c   10.51337680
_cell_angle_alpha   59.64537306
_cell_angle_beta   59.64537306
_cell_angle_gamma   34.50080876
_symmetry_Int_Tables_number   1
_chemical_formula_structural   Cu2NiC6
_chemical_formula_sum   'Cu4 Ni2 C12'
_cell_volume   325.47536448
_cell_formula_units_Z   2
loop_
 _symmetry_equiv_pos_site_id
 _symmetry_equiv_pos_as_xyz
  1  'x, y, z'
loop_
 _atom_site_type_symbol
 _atom_site_label
 _atom_site_symmetry_multiplicity
 _atom_site_fract_x
 _atom_site_fract_y
 _atom_site_fract_z
 _atom_site_occupancy
  Ni  Ni0  1  0.18228900  0.81771100  0.25000000  1
  Ni  Ni1  1  0.81771100  0.18228900  0.75000000  1
  Cu  Cu2  1  0.86478100  0.45994000  0.24901800  1
  Cu  Cu3  1  0.54006000  0.13521900  0.25098200  1
  Cu  Cu4  1  0.13521900  0.54006000  0.75098200  1
  Cu  Cu5  1  0.45994000  0.86478100  0.74901800  1
  C  C6  1  0.37946100  0.66488800  0.34727000  1
  C  C7  1  0.33511200  0.62053900  0.15273000  1
  C  C8  1  0.62053900  0.33511200  0.65273000  1
  C  C9  1  0.66488800  0.37946100  0.84727000  1
  C  C10  1  0.09085400  0.09048300  0.14590600  1
  C  C11  1  0.90951700  0.90914600  0.35409400  1
  C  C12  1  0.30444700  0.25582700  0.65169800  1
  C  C13  1  0.74417300  0.69555300  0.84830200  1
  C  C14  1  0.69555300  0.74417300  0.34830200  1
  C  C15  1  0.25582700  0.30444700  0.15169800  1
  C  C16  1  0.09048300  0.09085400  0.64590600  1
  C  C17  1  0.90914600  0.90951700  0.85409400  1
