# generated using pymatgen
data_Cu6Ni2C
_symmetry_space_group_name_H-M   'P 1'
_cell_length_a   7.80092614
_cell_length_b   7.80092614
_cell_length_c   7.80092554
_cell_angle_alpha   46.24777630
_cell_angle_beta   46.24777630
_cell_angle_gamma   46.24777240
_symmetry_Int_Tables_number   1
_chemical_formula_structural   Cu6Ni2C
_chemical_formula_sum   'Cu6 Ni2 C1'
_cell_volume   226.05039615
_cell_formula_units_Z   1
loop_
 _symmetry_equiv_pos_site_id
 _symmetry_equiv_pos_as_xyz
  1  'x, y, z'
loop_
 _atom_site_type_symbol
 _atom_site_label
 _atom_site_symmetry_multiplicity
 _atom_site_fract_x
 _atom_site_fract_y
 _atom_site_fract_z
 _atom_site_occupancy
  C  C0  1  0.33368600  0.33368600  0.33368600  1
  Ni  Ni1  1  0.72017800  0.72017800  0.72017800  1
  Ni  Ni2  1  0.61269200  0.61269200  0.61269200  1
  Cu  Cu3  1  0.73128700  0.43637700  0.07465000  1
  Cu  Cu4  1  0.07465000  0.73128700  0.43637700  1
  Cu  Cu5  1  0.43637700  0.07465000  0.73128700  1
  Cu  Cu6  1  0.27615200  0.56623900  0.91470600  1
  Cu  Cu7  1  0.91470600  0.27615200  0.56623900  1
  Cu  Cu8  1  0.56623900  0.91470600  0.27615200  1
