# generated using pymatgen
data_CuNiC8
_symmetry_space_group_name_H-M   'P 1'
_cell_length_a   5.47567263
_cell_length_b   9.61815277
_cell_length_c   9.62404715
_cell_angle_alpha   73.00760879
_cell_angle_beta   90.31092841
_cell_angle_gamma   90.24286824
_symmetry_Int_Tables_number   1
_chemical_formula_structural   CuNiC8
_chemical_formula_sum   'Cu4 Ni4 C32'
_cell_volume   484.72203946
_cell_formula_units_Z   4
loop_
 _symmetry_equiv_pos_site_id
 _symmetry_equiv_pos_as_xyz
  1  'x, y, z'
loop_
 _atom_site_type_symbol
 _atom_site_label
 _atom_site_symmetry_multiplicity
 _atom_site_fract_x
 _atom_site_fract_y
 _atom_site_fract_z
 _atom_site_occupancy
  C  C0  1  0.01347300  0.15450700  0.09330900  1
  C  C1  1  0.01426200  0.65366100  0.59373700  1
  C  C2  1  0.48562800  0.40610100  0.84632100  1
  C  C3  1  0.48613700  0.90723600  0.34546100  1
  C  C4  1  0.98573400  0.84626200  0.90628600  1
  C  C5  1  0.98655100  0.34556500  0.40666400  1
  C  C6  1  0.51384100  0.59273000  0.15455000  1
  C  C7  1  0.51436300  0.09393200  0.65367300  1
  Ni  Ni8  1  0.00001100  0.74999200  0.25000300  1
  Ni  Ni9  1  0.50000100  0.74999800  0.75000300  1
  Ni  Ni10  1  0.00001100  0.25000200  0.74999500  1
  Ni  Ni11  1  0.49999300  0.25000500  0.24999900  1
  Cu  Cu12  1  0.49925000  0.99910100  0.99978300  1
  Cu  Cu13  1  0.50075000  0.50090300  0.50022900  1
  Cu  Cu14  1  0.99987000  0.50118900  0.99999100  1
  Cu  Cu15  1  0.00009600  0.99880200  0.49998300  1
  C  C16  1  0.09770500  0.63845800  0.10620100  1
  C  C17  1  0.09900800  0.13861800  0.60488300  1
  C  C18  1  0.40130200  0.39498400  0.36137400  1
  C  C19  1  0.40241700  0.89387000  0.86161700  1
  C  C20  1  0.90094200  0.36135200  0.89508300  1
  C  C21  1  0.90233800  0.86156800  0.39379700  1
  C  C22  1  0.59762200  0.60617600  0.63843100  1
  C  C23  1  0.59868200  0.10499200  0.13859700  1
  C  C24  1  0.78789000  0.56985500  0.38374300  1
  C  C25  1  0.78877200  0.06871600  0.88466500  1
  C  C26  1  0.71179700  0.61629200  0.93041900  1
  C  C27  1  0.71183400  0.11538800  0.43130100  1
  C  C28  1  0.21115400  0.43126900  0.61536600  1
  C  C29  1  0.21219300  0.93017700  0.11623900  1
  C  C30  1  0.28820800  0.38458400  0.06870900  1
  C  C31  1  0.28816400  0.88372900  0.56956900  1
  C  C32  1  0.32176500  0.16754300  0.88556600  1
  C  C33  1  0.32105300  0.66761700  0.38593700  1
  C  C34  1  0.17876700  0.61462300  0.83233500  1
  C  C35  1  0.17867000  0.11405200  0.33234500  1
  C  C36  1  0.82131800  0.38593000  0.16767000  1
  C  C37  1  0.82123300  0.88538900  0.66764400  1
  C  C38  1  0.67893600  0.83240800  0.11406400  1
  C  C39  1  0.67825900  0.33242900  0.61446100  1
