# generated using pymatgen
data_Cu4Ni4C
_symmetry_space_group_name_H-M   'P 1'
_cell_length_a   7.76092570
_cell_length_b   7.76092570
_cell_length_c   7.76092570
_cell_angle_alpha   130.78183265
_cell_angle_beta   130.78183265
_cell_angle_gamma   72.15993113
_symmetry_Int_Tables_number   1
_chemical_formula_structural   Cu4Ni4C
_chemical_formula_sum   'Cu8 Ni8 C2'
_cell_volume   262.05391180
_cell_formula_units_Z   2
loop_
 _symmetry_equiv_pos_site_id
 _symmetry_equiv_pos_as_xyz
  1  'x, y, z'
loop_
 _atom_site_type_symbol
 _atom_site_label
 _atom_site_symmetry_multiplicity
 _atom_site_fract_x
 _atom_site_fract_y
 _atom_site_fract_z
 _atom_site_occupancy
  C  C0  1  0.75000000  0.75000000  0.00000000  1
  C  C1  1  0.25000000  0.25000000  0.00000000  1
  Ni  Ni2  1  0.63919800  0.97827900  0.50000000  1
  Ni  Ni3  1  0.36080200  0.02172100  0.50000000  1
  Ni  Ni4  1  0.02172100  0.52172100  0.66091900  1
  Ni  Ni5  1  0.97827900  0.47827900  0.33908100  1
  Ni  Ni6  1  0.13919800  0.63919800  0.66091900  1
  Ni  Ni7  1  0.47827900  0.13919800  0.50000000  1
  Ni  Ni8  1  0.52172100  0.86080200  0.50000000  1
  Ni  Ni9  1  0.86080200  0.36080200  0.33908100  1
  Cu  Cu10  1  0.19161600  0.04683100  0.50000000  1
  Cu  Cu11  1  0.80838400  0.95316900  0.50000000  1
  Cu  Cu12  1  0.04683100  0.54683100  0.85521600  1
  Cu  Cu13  1  0.95316900  0.45316900  0.14478400  1
  Cu  Cu14  1  0.30838400  0.80838400  0.85521600  1
  Cu  Cu15  1  0.45316900  0.30838400  0.50000000  1
  Cu  Cu16  1  0.54683100  0.69161600  0.50000000  1
  Cu  Cu17  1  0.69161600  0.19161600  0.14478400  1
