# generated using pymatgen
data_Cu3Ni2
_symmetry_space_group_name_H-M   'P 1'
_cell_length_a   5.73520592
_cell_length_b   5.73520592
_cell_length_c   14.25910600
_cell_angle_alpha   90.00000000
_cell_angle_beta   90.00000000
_cell_angle_gamma   119.99999908
_symmetry_Int_Tables_number   1
_chemical_formula_structural   Cu3Ni2
_chemical_formula_sum   'Cu12 Ni8'
_cell_volume   406.18227209
_cell_formula_units_Z   4
loop_
 _symmetry_equiv_pos_site_id
 _symmetry_equiv_pos_as_xyz
  1  'x, y, z'
loop_
 _atom_site_type_symbol
 _atom_site_label
 _atom_site_symmetry_multiplicity
 _atom_site_fract_x
 _atom_site_fract_y
 _atom_site_fract_z
 _atom_site_occupancy
  Ni  Ni0  1  0.00000000  0.00000000  0.25000000  1
  Ni  Ni1  1  0.00000000  0.00000000  0.75000000  1
  Ni  Ni2  1  0.33333300  0.66666700  0.25000000  1
  Ni  Ni3  1  0.66666700  0.33333300  0.75000000  1
  Ni  Ni4  1  0.33333300  0.66666700  0.58933000  1
  Ni  Ni5  1  0.66666700  0.33333300  0.08933000  1
  Ni  Ni6  1  0.66666700  0.33333300  0.41067000  1
  Ni  Ni7  1  0.33333300  0.66666700  0.91067000  1
  Cu  Cu8  1  0.16539900  0.33079800  0.41277100  1
  Cu  Cu9  1  0.16539900  0.83460100  0.41277100  1
  Cu  Cu10  1  0.66920200  0.83460100  0.41277100  1
  Cu  Cu11  1  0.83460100  0.16539900  0.91277100  1
  Cu  Cu12  1  0.33079800  0.16539900  0.91277100  1
  Cu  Cu13  1  0.83460100  0.66920200  0.91277100  1
  Cu  Cu14  1  0.83460100  0.66920200  0.58722900  1
  Cu  Cu15  1  0.83460100  0.16539900  0.58722900  1
  Cu  Cu16  1  0.33079800  0.16539900  0.58722900  1
  Cu  Cu17  1  0.16539900  0.83460100  0.08722900  1
  Cu  Cu18  1  0.66920200  0.83460100  0.08722900  1
  Cu  Cu19  1  0.16539900  0.33079800  0.08722900  1
