# generated using pymatgen
data_Cu2Ni3C8
_symmetry_space_group_name_H-M   'P 1'
_cell_length_a   8.59756100
_cell_length_b   5.08014500
_cell_length_c   8.78950590
_cell_angle_alpha   60.82588217
_cell_angle_beta   90.00000000
_cell_angle_gamma   90.00000000
_symmetry_Int_Tables_number   1
_chemical_formula_structural   Cu2Ni3C8
_chemical_formula_sum   'Cu4 Ni6 C16'
_cell_volume   335.19759864
_cell_formula_units_Z   2
loop_
 _symmetry_equiv_pos_site_id
 _symmetry_equiv_pos_as_xyz
  1  'x, y, z'
loop_
 _atom_site_type_symbol
 _atom_site_label
 _atom_site_symmetry_multiplicity
 _atom_site_fract_x
 _atom_site_fract_y
 _atom_site_fract_z
 _atom_site_occupancy
  Ni  Ni0  1  0.86147900  0.04567200  0.38154100  1
  Ni  Ni1  1  0.36147900  0.95432800  0.11845900  1
  Ni  Ni2  1  0.13852100  0.95432800  0.61845900  1
  Ni  Ni3  1  0.63852100  0.04567200  0.88154100  1
  Ni  Ni4  1  0.50000000  0.00000000  0.50000000  1
  Ni  Ni5  1  0.00000000  0.00000000  0.00000000  1
  Cu  Cu6  1  0.18975600  0.33117300  0.19909000  1
  Cu  Cu7  1  0.68975600  0.66882700  0.30091000  1
  Cu  Cu8  1  0.81024400  0.66882700  0.80091000  1
  Cu  Cu9  1  0.31024400  0.33117300  0.69909000  1
  C  C10  1  0.35381300  0.17816600  0.25379800  1
  C  C11  1  0.85381300  0.82183400  0.24620200  1
  C  C12  1  0.64618700  0.82183400  0.74620200  1
  C  C13  1  0.14618700  0.17816600  0.75379800  1
  C  C14  1  0.07956900  0.19287800  0.36101200  1
  C  C15  1  0.57956900  0.80712200  0.13898800  1
  C  C16  1  0.92043100  0.80712200  0.63898800  1
  C  C17  1  0.42043100  0.19287800  0.86101200  1
  C  C18  1  0.19762400  0.67655000  0.12962700  1
  C  C19  1  0.69762400  0.32345000  0.37037300  1
  C  C20  1  0.37096000  0.26805000  0.55531800  1
  C  C21  1  0.87096000  0.73195000  0.94468200  1
  C  C22  1  0.62904000  0.73195000  0.44468200  1
  C  C23  1  0.12904000  0.26805000  0.05531800  1
  C  C24  1  0.30237600  0.67655000  0.62962700  1
  C  C25  1  0.80237600  0.32345000  0.87037300  1
