# generated using pymatgen
data_Cu2NiC4
_symmetry_space_group_name_H-M   'P 1'
_cell_length_a   5.91929294
_cell_length_b   5.91929294
_cell_length_c   5.91929294
_cell_angle_alpha   120.40297733
_cell_angle_beta   119.20835128
_cell_angle_gamma   90.34002540
_symmetry_Int_Tables_number   1
_chemical_formula_structural   Cu2NiC4
_chemical_formula_sum   'Cu4 Ni2 C8'
_cell_volume   147.06233684
_cell_formula_units_Z   2
loop_
 _symmetry_equiv_pos_site_id
 _symmetry_equiv_pos_as_xyz
  1  'x, y, z'
loop_
 _atom_site_type_symbol
 _atom_site_label
 _atom_site_symmetry_multiplicity
 _atom_site_fract_x
 _atom_site_fract_y
 _atom_site_fract_z
 _atom_site_occupancy
  Ni  Ni0  1  0.50000000  0.50000000  0.50000000  1
  Ni  Ni1  1  0.50000000  0.00000000  0.00000000  1
  Cu  Cu2  1  0.88515000  0.13515000  0.75000000  1
  Cu  Cu3  1  0.11485000  0.86485000  0.25000000  1
  Cu  Cu4  1  0.00000000  0.50000000  0.50000000  1
  Cu  Cu5  1  0.50000000  0.50000000  0.00000000  1
  C  C6  1  0.24740500  0.73815500  0.50925100  1
  C  C7  1  0.72890400  0.73815500  0.99074900  1
  C  C8  1  0.25086100  0.26478200  0.51392100  1
  C  C9  1  0.25086100  0.73694000  0.98607900  1
  C  C10  1  0.74913900  0.26306000  0.01392100  1
  C  C11  1  0.74913900  0.73521800  0.48607900  1
  C  C12  1  0.27109600  0.26184500  0.00925100  1
  C  C13  1  0.75259500  0.26184500  0.49074900  1
