# generated using pymatgen
data_Cu2Ni8C15
_symmetry_space_group_name_H-M   'P 1'
_cell_length_a   5.52017722
_cell_length_b   5.52017722
_cell_length_c   21.02571952
_cell_angle_alpha   86.27259417
_cell_angle_beta   86.27259417
_cell_angle_gamma   54.99496433
_symmetry_Int_Tables_number   1
_chemical_formula_structural   Cu2Ni8C15
_chemical_formula_sum   'Cu4 Ni16 C30'
_cell_volume   523.38972898
_cell_formula_units_Z   2
loop_
 _symmetry_equiv_pos_site_id
 _symmetry_equiv_pos_as_xyz
  1  'x, y, z'
loop_
 _atom_site_type_symbol
 _atom_site_label
 _atom_site_symmetry_multiplicity
 _atom_site_fract_x
 _atom_site_fract_y
 _atom_site_fract_z
 _atom_site_occupancy
  Ni  Ni0  1  0.49344900  0.99103000  0.92835000  1
  Ni  Ni1  1  0.22304900  0.69931700  0.97177900  1
  Ni  Ni2  1  0.81044500  0.31385300  0.16948100  1
  Ni  Ni3  1  0.77695100  0.30068300  0.02822100  1
  Ni  Ni4  1  0.68614700  0.18955600  0.33051900  1
  Ni  Ni5  1  0.50655100  0.00897000  0.07165000  1
  Ni  Ni6  1  0.39311900  0.88593400  0.23073800  1
  Ni  Ni7  1  0.30068300  0.77695100  0.52822100  1
  Ni  Ni8  1  0.11406600  0.60688100  0.26926200  1
  Ni  Ni9  1  0.00897000  0.50655100  0.57165000  1
  Ni  Ni10  1  0.99103000  0.49344900  0.42835000  1
  Ni  Ni11  1  0.88593400  0.39311900  0.73073800  1
  Ni  Ni12  1  0.69931700  0.22304900  0.47177900  1
  Ni  Ni13  1  0.60688100  0.11406600  0.76926200  1
  Ni  Ni14  1  0.31385300  0.81044500  0.66948100  1
  Ni  Ni15  1  0.18955500  0.68614700  0.83051900  1
  Cu  Cu16  1  0.08788600  0.59935400  0.13041800  1
  Cu  Cu17  1  0.40064600  0.91211400  0.36958200  1
  Cu  Cu18  1  0.59935400  0.08788600  0.63041800  1
  Cu  Cu19  1  0.91211400  0.40064600  0.86958200  1
  C  C20  1  0.77753600  0.96662000  0.98848300  1
  C  C21  1  0.33796200  0.45806000  0.04815700  1
  C  C22  1  0.23984600  0.43124300  0.91153800  1
  C  C23  1  0.76015400  0.56875700  0.08846200  1
  C  C24  1  0.66203800  0.54194000  0.95184300  1
  C  C25  1  0.37745800  0.57019500  0.19044200  1
  C  C26  1  0.22246400  0.03338000  0.01151700  1
  C  C27  1  0.94409600  0.05590400  0.25000000  1
  C  C28  1  0.82272300  0.04040500  0.10839500  1
  C  C29  1  0.36234500  0.17035000  0.28531200  1
  C  C30  1  0.25856700  0.12925200  0.15182200  1
  C  C31  1  0.95959500  0.17727700  0.39160500  1
  C  C32  1  0.82965000  0.63765500  0.21468800  1
  C  C33  1  0.54194000  0.66203800  0.45184300  1
  C  C34  1  0.42980500  0.62254200  0.30955800  1
  C  C35  1  0.96662000  0.77753600  0.48848300  1
  C  C36  1  0.87074800  0.74143300  0.34817800  1
  C  C37  1  0.56875700  0.76015400  0.58846200  1
  C  C38  1  0.43124300  0.23984600  0.41153800  1
  C  C39  1  0.12925200  0.25856700  0.65182200  1
  C  C40  1  0.03338000  0.22246400  0.51151700  1
  C  C41  1  0.57019500  0.37745800  0.69044200  1
  C  C42  1  0.45806000  0.33796200  0.54815700  1
  C  C43  1  0.17035000  0.36234500  0.78531200  1
  C  C44  1  0.04040500  0.82272300  0.60839500  1
  C  C45  1  0.74143300  0.87074800  0.84817800  1
  C  C46  1  0.63765500  0.82965000  0.71468800  1
  C  C47  1  0.17727700  0.95959500  0.89160500  1
  C  C48  1  0.05590400  0.94409600  0.75000000  1
  C  C49  1  0.62254200  0.42980500  0.80955800  1
