# generated using pymatgen
data_Cu4NiC3
_symmetry_space_group_name_H-M   'P 1'
_cell_length_a   6.93602300
_cell_length_b   7.26074000
_cell_length_c   8.21614000
_cell_angle_alpha   90.00000000
_cell_angle_beta   90.00000000
_cell_angle_gamma   90.00000000
_symmetry_Int_Tables_number   1
_chemical_formula_structural   Cu4NiC3
_chemical_formula_sum   'Cu8 Ni2 C6'
_cell_volume   413.77023007
_cell_formula_units_Z   2
loop_
 _symmetry_equiv_pos_site_id
 _symmetry_equiv_pos_as_xyz
  1  'x, y, z'
loop_
 _atom_site_type_symbol
 _atom_site_label
 _atom_site_symmetry_multiplicity
 _atom_site_fract_x
 _atom_site_fract_y
 _atom_site_fract_z
 _atom_site_occupancy
  C  C0  1  0.01413200  0.81221900  0.73852200  1
  C  C1  1  0.51413200  0.18778100  0.76147800  1
  C  C2  1  0.51413200  0.18778100  0.23852200  1
  C  C3  1  0.01413200  0.81221900  0.26147800  1
  C  C4  1  0.98384900  0.35602700  0.00000000  1
  C  C5  1  0.48384900  0.64397300  0.50000000  1
  Ni  Ni6  1  0.99577300  0.31721700  0.50000000  1
  Ni  Ni7  1  0.49577300  0.68278300  0.00000000  1
  Cu  Cu8  1  0.89226600  0.16514900  0.27413300  1
  Cu  Cu9  1  0.39226600  0.83485100  0.22586700  1
  Cu  Cu10  1  0.37274300  0.39520900  0.00000000  1
  Cu  Cu11  1  0.87274300  0.60479100  0.50000000  1
  Cu  Cu12  1  0.39226600  0.83485100  0.77413300  1
  Cu  Cu13  1  0.89226600  0.16514900  0.72586700  1
  Cu  Cu14  1  0.32093100  0.31050700  0.50000000  1
  Cu  Cu15  1  0.82093100  0.68949300  0.00000000  1
