# generated using pymatgen
data_CuNiC2
_symmetry_space_group_name_H-M   'P 1'
_cell_length_a   3.76203166
_cell_length_b   3.76203166
_cell_length_c   7.37075786
_cell_angle_alpha   75.21457910
_cell_angle_beta   75.21457910
_cell_angle_gamma   60.00000594
_symmetry_Int_Tables_number   1
_chemical_formula_structural   CuNiC2
_chemical_formula_sum   'Cu1 Ni1 C2'
_cell_volume   86.33007414
_cell_formula_units_Z   1
loop_
 _symmetry_equiv_pos_site_id
 _symmetry_equiv_pos_as_xyz
  1  'x, y, z'
loop_
 _atom_site_type_symbol
 _atom_site_label
 _atom_site_symmetry_multiplicity
 _atom_site_fract_x
 _atom_site_fract_y
 _atom_site_fract_z
 _atom_site_occupancy
  Ni  Ni0  1  0.99984200  0.99984200  0.00047400  1
  Cu  Cu1  1  0.84943700  0.84943700  0.45168900  1
  C  C2  1  0.72820900  0.72820900  0.81537300  1
  C  C3  1  0.26671200  0.26671200  0.19986400  1
