# generated using pymatgen
data_CuNiC3
_symmetry_space_group_name_H-M   'P 1'
_cell_length_a   4.95123444
_cell_length_b   4.95123444
_cell_length_c   7.02560600
_cell_angle_alpha   90.00000000
_cell_angle_beta   90.00000000
_cell_angle_gamma   146.52608502
_symmetry_Int_Tables_number   1
_chemical_formula_structural   CuNiC3
_chemical_formula_sum   'Cu2 Ni2 C6'
_cell_volume   94.99514240
_cell_formula_units_Z   2
loop_
 _symmetry_equiv_pos_site_id
 _symmetry_equiv_pos_as_xyz
  1  'x, y, z'
loop_
 _atom_site_type_symbol
 _atom_site_label
 _atom_site_symmetry_multiplicity
 _atom_site_fract_x
 _atom_site_fract_y
 _atom_site_fract_z
 _atom_site_occupancy
  Ni  Ni0  1  0.26091200  0.73908800  0.25000000  1
  Ni  Ni1  1  0.73908800  0.26091200  0.75000000  1
  Cu  Cu2  1  0.00000000  0.00000000  0.50000000  1
  Cu  Cu3  1  0.00000000  0.00000000  0.00000000  1
  C  C4  1  0.36874500  0.63125500  0.94053300  1
  C  C5  1  0.63125500  0.36874500  0.05946700  1
  C  C6  1  0.63125500  0.36874500  0.44053300  1
  C  C7  1  0.36874500  0.63125500  0.55946700  1
  C  C8  1  0.08409800  0.91590200  0.75000000  1
  C  C9  1  0.91590200  0.08409800  0.25000000  1
