# generated using pymatgen
data_CuNi4
_symmetry_space_group_name_H-M   'P 1'
_cell_length_a   13.15719660
_cell_length_b   13.15719660
_cell_length_c   13.15719660
_cell_angle_alpha   109.47122063
_cell_angle_beta   109.47122063
_cell_angle_gamma   109.47122063
_symmetry_Int_Tables_number   1
_chemical_formula_structural   CuNi4
_chemical_formula_sum   'Cu12 Ni48'
_cell_volume   1753.34832123
_cell_formula_units_Z   12
loop_
 _symmetry_equiv_pos_site_id
 _symmetry_equiv_pos_as_xyz
  1  'x, y, z'
loop_
 _atom_site_type_symbol
 _atom_site_label
 _atom_site_symmetry_multiplicity
 _atom_site_fract_x
 _atom_site_fract_y
 _atom_site_fract_z
 _atom_site_occupancy
  Ni  Ni0  1  0.91099100  0.37162000  0.58732700  1
  Ni  Ni1  1  0.58900900  0.17633600  0.46062900  1
  Ni  Ni2  1  0.46062900  0.58900900  0.17633600  1
  Ni  Ni3  1  0.12838000  0.03937100  0.21570800  1
  Ni  Ni4  1  0.91099100  0.03937100  0.32366400  1
  Ni  Ni5  1  0.32366400  0.91267300  0.28429200  1
  Ni  Ni6  1  0.32366400  0.91099100  0.03937100  1
  Ni  Ni7  1  0.37162000  0.58732700  0.91099100  1
  Ni  Ni8  1  0.03937100  0.32366400  0.91099100  1
  Ni  Ni9  1  0.28429200  0.46062900  0.37162000  1
  Ni  Ni10  1  0.17633600  0.21570800  0.58732700  1
  Ni  Ni11  1  0.91267300  0.12838000  0.58900900  1
  Ni  Ni12  1  0.82366400  0.53937100  0.41099100  1
  Ni  Ni13  1  0.78429200  0.41267300  0.82366400  1
  Ni  Ni14  1  0.41099100  0.08732700  0.87162000  1
  Ni  Ni15  1  0.87162000  0.41099100  0.08732700  1
  Ni  Ni16  1  0.62838000  0.71570800  0.53937100  1
  Ni  Ni17  1  0.53937100  0.62838000  0.71570800  1
  Ni  Ni18  1  0.41267300  0.82366400  0.78429200  1
  Ni  Ni19  1  0.96062900  0.78429200  0.87162000  1
  Ni  Ni20  1  0.71570800  0.67633600  0.08732700  1
  Ni  Ni21  1  0.41267300  0.08900900  0.62838000  1
  Ni  Ni22  1  0.78429200  0.87162000  0.96062900  1
  Ni  Ni23  1  0.08732700  0.71570800  0.67633600  1
  Ni  Ni24  1  0.08900900  0.62838000  0.41267300  1
  Ni  Ni25  1  0.41099100  0.82366400  0.53937100  1
  Ni  Ni26  1  0.53937100  0.41099100  0.82366400  1
  Ni  Ni27  1  0.87162000  0.96062900  0.78429200  1
  Ni  Ni28  1  0.08900900  0.96062900  0.67633600  1
  Ni  Ni29  1  0.67633600  0.08732700  0.71570800  1
  Ni  Ni30  1  0.67633600  0.08900900  0.96062900  1
  Ni  Ni31  1  0.62838000  0.41267300  0.08900900  1
  Ni  Ni32  1  0.96062900  0.67633600  0.08900900  1
  Ni  Ni33  1  0.71570800  0.53937100  0.62838000  1
  Ni  Ni34  1  0.82366400  0.78429200  0.41267300  1
  Ni  Ni35  1  0.08732700  0.87162000  0.41099100  1
  Ni  Ni36  1  0.91267300  0.28429200  0.32366400  1
  Ni  Ni37  1  0.21570800  0.12838000  0.03937100  1
  Ni  Ni38  1  0.58732700  0.91099100  0.37162000  1
  Ni  Ni39  1  0.28429200  0.32366400  0.91267300  1
  Ni  Ni40  1  0.03937100  0.21570800  0.12838000  1
  Ni  Ni41  1  0.58732700  0.17633600  0.21570800  1
  Ni  Ni42  1  0.46062900  0.37162000  0.28429200  1
  Ni  Ni43  1  0.37162000  0.28429200  0.46062900  1
  Ni  Ni44  1  0.12838000  0.58900900  0.91267300  1
  Ni  Ni45  1  0.58900900  0.91267300  0.12838000  1
  Ni  Ni46  1  0.21570800  0.58732700  0.17633600  1
  Ni  Ni47  1  0.17633600  0.46062900  0.58900900  1
  Cu  Cu48  1  0.87500000  0.62500000  0.25000000  1
  Cu  Cu49  1  0.62500000  0.25000000  0.87500000  1
  Cu  Cu50  1  0.87500000  0.75000000  0.62500000  1
  Cu  Cu51  1  0.75000000  0.62500000  0.87500000  1
  Cu  Cu52  1  0.25000000  0.87500000  0.62500000  1
  Cu  Cu53  1  0.62500000  0.87500000  0.75000000  1
  Cu  Cu54  1  0.12500000  0.37500000  0.75000000  1
  Cu  Cu55  1  0.37500000  0.75000000  0.12500000  1
  Cu  Cu56  1  0.12500000  0.25000000  0.37500000  1
  Cu  Cu57  1  0.25000000  0.37500000  0.12500000  1
  Cu  Cu58  1  0.75000000  0.12500000  0.37500000  1
  Cu  Cu59  1  0.37500000  0.12500000  0.25000000  1
