# generated using pymatgen
data_Cu(NiC2)2
_symmetry_space_group_name_H-M   'P 1'
_cell_length_a   6.05186412
_cell_length_b   6.05186412
_cell_length_c   14.70938749
_cell_angle_alpha   87.92009041
_cell_angle_beta   87.92009041
_cell_angle_gamma   59.09715077
_symmetry_Int_Tables_number   1
_chemical_formula_structural   Cu(NiC2)2
_chemical_formula_sum   'Cu6 Ni12 C24'
_cell_volume   461.85097309
_cell_formula_units_Z   6
loop_
 _symmetry_equiv_pos_site_id
 _symmetry_equiv_pos_as_xyz
  1  'x, y, z'
loop_
 _atom_site_type_symbol
 _atom_site_label
 _atom_site_symmetry_multiplicity
 _atom_site_fract_x
 _atom_site_fract_y
 _atom_site_fract_z
 _atom_site_occupancy
  Ni  Ni0  1  0.00252800  0.00252800  0.99997100  1
  Ni  Ni1  1  0.33877500  0.83992000  0.79145300  1
  Ni  Ni2  1  0.83992000  0.33877500  0.79145300  1
  Ni  Ni3  1  0.66704500  0.66704500  0.95462200  1
  Ni  Ni4  1  0.65737700  0.65737700  0.57883700  1
  Ni  Ni5  1  0.66611400  0.16685800  0.45911300  1
  Ni  Ni6  1  0.16685800  0.66611400  0.45911300  1
  Ni  Ni7  1  0.98707800  0.98707800  0.24790100  1
  Ni  Ni8  1  0.34522700  0.34522700  0.67222100  1
  Ni  Ni9  1  0.00029200  0.49094600  0.12519400  1
  Ni  Ni10  1  0.49094600  0.00029200  0.12519400  1
  Ni  Ni11  1  0.67507100  0.67507100  0.33613000  1
  Cu  Cu12  1  0.33201100  0.33201100  0.91569600  1
  Cu  Cu13  1  0.83526800  0.83526800  0.79044400  1
  Cu  Cu14  1  0.00236900  0.00236900  0.62585600  1
  Cu  Cu15  1  0.16665400  0.16665400  0.45873600  1
  Cu  Cu16  1  0.33035900  0.33035900  0.29224400  1
  Cu  Cu17  1  0.49570500  0.49570500  0.12588600  1
  C  C18  1  0.51738600  0.51738600  0.87150700  1
  C  C19  1  0.51323500  0.97323500  0.87035500  1
  C  C20  1  0.66322600  0.66322600  0.70957800  1
  C  C21  1  0.97323500  0.51323500  0.87035500  1
  C  C22  1  0.69705100  0.16454900  0.71185400  1
  C  C23  1  0.82921200  0.82921200  0.53072100  1
  C  C24  1  0.16454900  0.69705100  0.71185400  1
  C  C25  1  0.00695100  0.00695100  0.87025600  1
  C  C26  1  0.84564200  0.30381300  0.53831900  1
  C  C27  1  0.98734700  0.98734700  0.37830200  1
  C  C28  1  0.30381300  0.84564200  0.53831900  1
  C  C29  1  0.17256800  0.17256800  0.71751600  1
  C  C30  1  0.02750600  0.48852200  0.37840400  1
  C  C31  1  0.15795200  0.15795200  0.19826900  1
  C  C32  1  0.48852200  0.02750600  0.37840400  1
  C  C33  1  0.34675600  0.34675600  0.54010200  1
  C  C34  1  0.16544600  0.63731500  0.20665800  1
  C  C35  1  0.33038200  0.33038200  0.05208900  1
  C  C36  1  0.63731500  0.16544600  0.20665800  1
  C  C37  1  0.50441500  0.50441500  0.38625700  1
  C  C38  1  0.35311400  0.82568600  0.04339200  1
  C  C39  1  0.66728500  0.66728500  0.20350500  1
  C  C40  1  0.82568600  0.35311400  0.04339200  1
  C  C41  1  0.82179500  0.82179500  0.04386900  1
