# generated using pymatgen
data_CuNi4C
_symmetry_space_group_name_H-M   'P 1'
_cell_length_a   7.36225280
_cell_length_b   7.36225280
_cell_length_c   7.36225280
_cell_angle_alpha   93.90811927
_cell_angle_beta   93.90811927
_cell_angle_gamma   149.73307570
_symmetry_Int_Tables_number   1
_chemical_formula_structural   CuNi4C
_chemical_formula_sum   'Cu1 Ni4 C1'
_cell_volume   194.15977305
_cell_formula_units_Z   1
loop_
 _symmetry_equiv_pos_site_id
 _symmetry_equiv_pos_as_xyz
  1  'x, y, z'
loop_
 _atom_site_type_symbol
 _atom_site_label
 _atom_site_symmetry_multiplicity
 _atom_site_fract_x
 _atom_site_fract_y
 _atom_site_fract_z
 _atom_site_occupancy
  C  C0  1  0.00000000  0.00000000  0.00000000  1
  Ni  Ni1  1  0.93912600  0.24112200  0.18024800  1
  Ni  Ni2  1  0.06087400  0.75887800  0.81975200  1
  Ni  Ni3  1  0.24112200  0.06087400  0.30199600  1
  Ni  Ni4  1  0.75887800  0.93912600  0.69800400  1
  Cu  Cu5  1  0.50000000  0.50000000  0.00000000  1
