# generated using pymatgen
data_Cu2NiC2
_symmetry_space_group_name_H-M   'P 1'
_cell_length_a   5.69177646
_cell_length_b   5.69177646
_cell_length_c   7.33574815
_cell_angle_alpha   81.09753681
_cell_angle_beta   81.09753681
_cell_angle_gamma   61.95188949
_symmetry_Int_Tables_number   1
_chemical_formula_structural   Cu2NiC2
_chemical_formula_sum   'Cu4 Ni2 C4'
_cell_volume   206.29506961
_cell_formula_units_Z   2
loop_
 _symmetry_equiv_pos_site_id
 _symmetry_equiv_pos_as_xyz
  1  'x, y, z'
loop_
 _atom_site_type_symbol
 _atom_site_label
 _atom_site_symmetry_multiplicity
 _atom_site_fract_x
 _atom_site_fract_y
 _atom_site_fract_z
 _atom_site_occupancy
  C  C0  1  0.98340100  0.72406400  0.14022200  1
  C  C1  1  0.27593600  0.01659900  0.35977800  1
  C  C2  1  0.01659900  0.27593600  0.85977800  1
  C  C3  1  0.72406400  0.98340100  0.64022200  1
  Ni  Ni4  1  0.43451800  0.56548200  0.75000000  1
  Ni  Ni5  1  0.56548200  0.43451800  0.25000000  1
  Cu  Cu6  1  0.49016900  0.77452700  0.99010800  1
  Cu  Cu7  1  0.22547300  0.50983100  0.50989200  1
  Cu  Cu8  1  0.50983100  0.22547300  0.00989200  1
  Cu  Cu9  1  0.77452700  0.49016900  0.49010800  1
