# generated using pymatgen
data_CuNiC4
_symmetry_space_group_name_H-M   'P 1'
_cell_length_a   5.52183700
_cell_length_b   7.09933500
_cell_length_c   8.56079800
_cell_angle_alpha   90.00000000
_cell_angle_beta   90.00000000
_cell_angle_gamma   90.00000000
_symmetry_Int_Tables_number   1
_chemical_formula_structural   CuNiC4
_chemical_formula_sum   'Cu4 Ni4 C16'
_cell_volume   335.59501570
_cell_formula_units_Z   4
loop_
 _symmetry_equiv_pos_site_id
 _symmetry_equiv_pos_as_xyz
  1  'x, y, z'
loop_
 _atom_site_type_symbol
 _atom_site_label
 _atom_site_symmetry_multiplicity
 _atom_site_fract_x
 _atom_site_fract_y
 _atom_site_fract_z
 _atom_site_occupancy
  Ni  Ni0  1  0.25000000  0.32775900  0.69633800  1
  Ni  Ni1  1  0.75000000  0.67224100  0.30366200  1
  Ni  Ni2  1  0.75000000  0.82775900  0.80366200  1
  Ni  Ni3  1  0.25000000  0.17224100  0.19633800  1
  Cu  Cu4  1  0.75000000  0.31971200  0.93655400  1
  Cu  Cu5  1  0.25000000  0.68028800  0.06344600  1
  Cu  Cu6  1  0.25000000  0.81971200  0.56344600  1
  Cu  Cu7  1  0.75000000  0.18028800  0.43655400  1
  C  C8  1  0.75000000  0.40578700  0.09306900  1
  C  C9  1  0.25000000  0.59421300  0.90693100  1
  C  C10  1  0.25000000  0.90578700  0.40693100  1
  C  C11  1  0.75000000  0.09421300  0.59306900  1
  C  C12  1  0.47146500  0.80278400  0.08124100  1
  C  C13  1  0.97146500  0.19721600  0.91875900  1
  C  C14  1  0.52853500  0.30278400  0.41875900  1
  C  C15  1  0.02853500  0.69721600  0.58124100  1
  C  C16  1  0.75000000  0.03822000  0.30784100  1
  C  C17  1  0.25000000  0.96178000  0.69215900  1
  C  C18  1  0.25000000  0.53822000  0.19215900  1
  C  C19  1  0.75000000  0.46178000  0.80784100  1
  C  C20  1  0.97146500  0.30278400  0.41875900  1
  C  C21  1  0.47146500  0.69721600  0.58124100  1
  C  C22  1  0.02853500  0.80278400  0.08124100  1
  C  C23  1  0.52853500  0.19721600  0.91875900  1
