# generated using pymatgen
data_Cu2Ni8C3
_symmetry_space_group_name_H-M   'P 1'
_cell_length_a   6.65462300
_cell_length_b   11.39995400
_cell_length_c   21.10507600
_cell_angle_alpha   90.00000000
_cell_angle_beta   90.00000000
_cell_angle_gamma   90.00000000
_symmetry_Int_Tables_number   1
_chemical_formula_structural   Cu2Ni8C3
_chemical_formula_sum   'Cu8 Ni32 C12'
_cell_volume   1601.08163497
_cell_formula_units_Z   4
loop_
 _symmetry_equiv_pos_site_id
 _symmetry_equiv_pos_as_xyz
  1  'x, y, z'
loop_
 _atom_site_type_symbol
 _atom_site_label
 _atom_site_symmetry_multiplicity
 _atom_site_fract_x
 _atom_site_fract_y
 _atom_site_fract_z
 _atom_site_occupancy
  C  C0  1  0.47789700  0.29738500  0.25000000  1
  C  C1  1  0.10995500  0.91237600  0.11678300  1
  C  C2  1  0.02210300  0.79738500  0.25000000  1
  C  C3  1  0.97789700  0.20261500  0.75000000  1
  C  C4  1  0.60995500  0.58762400  0.88321700  1
  C  C5  1  0.39004500  0.41237600  0.38321700  1
  C  C6  1  0.89004500  0.08762400  0.61678300  1
  C  C7  1  0.89004500  0.08762400  0.88321700  1
  C  C8  1  0.39004500  0.41237600  0.11678300  1
  C  C9  1  0.60995500  0.58762400  0.61678300  1
  C  C10  1  0.52210300  0.70261500  0.75000000  1
  C  C11  1  0.10995500  0.91237600  0.38321700  1
  Ni  Ni12  1  0.96435900  0.06908800  0.11946400  1
  Ni  Ni13  1  0.45980400  0.69937100  0.55850200  1
  Ni  Ni14  1  0.54019600  0.30062900  0.05850200  1
  Ni  Ni15  1  0.04019600  0.19937100  0.94149800  1
  Ni  Ni16  1  0.04019600  0.19937100  0.55850200  1
  Ni  Ni17  1  0.54019600  0.30062900  0.44149800  1
  Ni  Ni18  1  0.95980400  0.80062900  0.44149800  1
  Ni  Ni19  1  0.95980400  0.80062900  0.05850200  1
  Ni  Ni20  1  0.39417400  0.93575600  0.41560500  1
  Ni  Ni21  1  0.89417400  0.56424400  0.58439500  1
  Ni  Ni22  1  0.10582600  0.43575600  0.08439500  1
  Ni  Ni23  1  0.60582600  0.06424400  0.91560500  1
  Ni  Ni24  1  0.60582600  0.06424400  0.58439500  1
  Ni  Ni25  1  0.10582600  0.43575600  0.41560500  1
  Ni  Ni26  1  0.89417400  0.56424400  0.91560500  1
  Ni  Ni27  1  0.39417400  0.93575600  0.08439500  1
  Ni  Ni28  1  0.71916800  0.82161400  0.25000000  1
  Ni  Ni29  1  0.21916800  0.67838600  0.75000000  1
  Ni  Ni30  1  0.78083200  0.32161400  0.25000000  1
  Ni  Ni31  1  0.28083200  0.17838600  0.75000000  1
  Ni  Ni32  1  0.08309200  0.62299400  0.25000000  1
  Ni  Ni33  1  0.58309200  0.87700600  0.75000000  1
  Ni  Ni34  1  0.41690800  0.12299400  0.25000000  1
  Ni  Ni35  1  0.91690800  0.37700600  0.75000000  1
  Ni  Ni36  1  0.46435900  0.43091200  0.88053600  1
  Ni  Ni37  1  0.53564100  0.56908800  0.38053600  1
  Ni  Ni38  1  0.03564100  0.93091200  0.61946400  1
  Ni  Ni39  1  0.03564100  0.93091200  0.88053600  1
  Ni  Ni40  1  0.53564100  0.56908800  0.11946400  1
  Ni  Ni41  1  0.46435900  0.43091200  0.61946400  1
  Ni  Ni42  1  0.96435900  0.06908800  0.38053600  1
  Ni  Ni43  1  0.45980400  0.69937100  0.94149800  1
  Cu  Cu44  1  0.12295800  0.85761200  0.18792700  1
  Cu  Cu45  1  0.62295800  0.64238800  0.68792700  1
  Cu  Cu46  1  0.37704200  0.35761200  0.18792700  1
  Cu  Cu47  1  0.87704200  0.14238800  0.81207300  1
  Cu  Cu48  1  0.87704200  0.14238800  0.68792700  1
  Cu  Cu49  1  0.37704200  0.35761200  0.31207300  1
  Cu  Cu50  1  0.62295800  0.64238800  0.81207300  1
  Cu  Cu51  1  0.12295800  0.85761200  0.31207300  1
