# generated using pymatgen
data_CuNiC4
_symmetry_space_group_name_H-M   'P 1'
_cell_length_a   7.56849224
_cell_length_b   8.65109915
_cell_length_c   9.14081544
_cell_angle_alpha   113.26386924
_cell_angle_beta   108.93864693
_cell_angle_gamma   100.89463849
_symmetry_Int_Tables_number   1
_chemical_formula_structural   CuNiC4
_chemical_formula_sum   'Cu2 Ni2 C8'
_cell_volume   484.19029227
_cell_formula_units_Z   2
loop_
 _symmetry_equiv_pos_site_id
 _symmetry_equiv_pos_as_xyz
  1  'x, y, z'
loop_
 _atom_site_type_symbol
 _atom_site_label
 _atom_site_symmetry_multiplicity
 _atom_site_fract_x
 _atom_site_fract_y
 _atom_site_fract_z
 _atom_site_occupancy
  Ni  Ni0  1  0.61515900  0.36515900  0.73031800  1
  Ni  Ni1  1  0.38484100  0.63484100  0.26968200  1
  Cu  Cu2  1  0.75035400  0.00035400  0.00070800  1
  Cu  Cu3  1  0.24964600  0.99964600  0.99929200  1
  C  C4  1  0.64146400  0.05373500  0.35348300  1
  C  C5  1  0.21201900  0.29974800  0.35348300  1
  C  C6  1  0.35853600  0.94626500  0.64651700  1
  C  C7  1  0.78798100  0.70025200  0.64651700  1
  C  C8  1  0.37170300  0.63426200  0.87702000  1
  C  C9  1  0.00531700  0.24275800  0.87702000  1
  C  C10  1  0.62829700  0.36573800  0.12298000  1
  C  C11  1  0.99468300  0.75724200  0.12298100  1
