# generated using pymatgen
data_Cu2NiC
_symmetry_space_group_name_H-M   'P 1'
_cell_length_a   6.52400245
_cell_length_b   6.52400245
_cell_length_c   6.52400245
_cell_angle_alpha   132.05248122
_cell_angle_beta   132.05248122
_cell_angle_gamma   70.14615114
_symmetry_Int_Tables_number   1
_chemical_formula_structural   Cu2NiC
_chemical_formula_sum   'Cu4 Ni2 C2'
_cell_volume   150.07593482
_cell_formula_units_Z   2
loop_
 _symmetry_equiv_pos_site_id
 _symmetry_equiv_pos_as_xyz
  1  'x, y, z'
loop_
 _atom_site_type_symbol
 _atom_site_label
 _atom_site_symmetry_multiplicity
 _atom_site_fract_x
 _atom_site_fract_y
 _atom_site_fract_z
 _atom_site_occupancy
  Ni  Ni0  1  0.00000000  0.00000000  0.00000000  1
  Ni  Ni1  1  0.75000000  0.25000000  0.50000000  1
  C  C2  1  0.25000000  0.75000000  0.50000000  1
  C  C3  1  0.50000000  0.50000000  0.00000000  1
  Cu  Cu4  1  0.74973700  0.74973700  0.00000000  1
  Cu  Cu5  1  0.25026300  0.25026300  0.00000000  1
  Cu  Cu6  1  0.00026300  0.50026300  0.50000000  1
  Cu  Cu7  1  0.49973700  0.99973700  0.50000000  1
