# generated using pymatgen
data_CuNiC3
_symmetry_space_group_name_H-M   'P 1'
_cell_length_a   5.60945800
_cell_length_b   5.84031700
_cell_length_c   8.08413300
_cell_angle_alpha   90.00000000
_cell_angle_beta   90.00000000
_cell_angle_gamma   90.00000000
_symmetry_Int_Tables_number   1
_chemical_formula_structural   CuNiC3
_chemical_formula_sum   'Cu4 Ni4 C12'
_cell_volume   264.84438565
_cell_formula_units_Z   4
loop_
 _symmetry_equiv_pos_site_id
 _symmetry_equiv_pos_as_xyz
  1  'x, y, z'
loop_
 _atom_site_type_symbol
 _atom_site_label
 _atom_site_symmetry_multiplicity
 _atom_site_fract_x
 _atom_site_fract_y
 _atom_site_fract_z
 _atom_site_occupancy
  Ni  Ni0  1  0.98447900  0.05635800  0.75000000  1
  Ni  Ni1  1  0.48447900  0.44364200  0.25000000  1
  Ni  Ni2  1  0.51552100  0.55635800  0.75000000  1
  Ni  Ni3  1  0.01552100  0.94364200  0.25000000  1
  Cu  Cu4  1  0.00000000  0.50000000  0.50000000  1
  Cu  Cu5  1  0.50000000  0.00000000  0.50000000  1
  Cu  Cu6  1  0.50000000  0.00000000  0.00000000  1
  Cu  Cu7  1  0.00000000  0.50000000  0.00000000  1
  C  C8  1  0.69777900  0.30115500  0.55836800  1
  C  C9  1  0.19777900  0.19884500  0.44163200  1
  C  C10  1  0.80222100  0.80115500  0.94163200  1
  C  C11  1  0.30222100  0.69884500  0.05836800  1
  C  C12  1  0.30222100  0.69884500  0.44163200  1
  C  C13  1  0.80222100  0.80115500  0.55836800  1
  C  C14  1  0.19777900  0.19884500  0.05836800  1
  C  C15  1  0.69777900  0.30115500  0.94163200  1
  C  C16  1  0.88934400  0.54238800  0.25000000  1
  C  C17  1  0.38934400  0.95761200  0.75000000  1
  C  C18  1  0.61065600  0.04238800  0.25000000  1
  C  C19  1  0.11065600  0.45761200  0.75000000  1
