# generated using pymatgen
data_CuNi2C17
_symmetry_space_group_name_H-M   'P 1'
_cell_length_a   9.19695200
_cell_length_b   9.20219144
_cell_length_c   9.22102607
_cell_angle_alpha   89.98462985
_cell_angle_beta   119.73905546
_cell_angle_gamma   119.91005133
_symmetry_Int_Tables_number   1
_chemical_formula_structural   CuNi2C17
_chemical_formula_sum   'Cu2 Ni4 C34'
_cell_volume   554.80795027
_cell_formula_units_Z   2
loop_
 _symmetry_equiv_pos_site_id
 _symmetry_equiv_pos_as_xyz
  1  'x, y, z'
loop_
 _atom_site_type_symbol
 _atom_site_label
 _atom_site_symmetry_multiplicity
 _atom_site_fract_x
 _atom_site_fract_y
 _atom_site_fract_z
 _atom_site_occupancy
  C  C0  1  0.61343900  0.87209100  0.20562200  1
  C  C1  1  0.49364300  0.97706600  0.50193400  1
  C  C2  1  0.00521400  0.61103000  0.25739600  1
  C  C3  1  0.00935100  0.39026900  0.75801100  1
  C  C4  1  0.38276500  0.25960100  0.29136800  1
  C  C5  1  0.50260800  0.48673500  0.99661500  1
  C  C6  1  0.21223700  0.36025800  0.56188700  1
  C  C7  1  0.20735600  0.85832900  0.05777400  1
  C  C8  1  0.78325500  0.14166000  0.93775800  1
  C  C9  1  0.79934000  0.65611000  0.44191000  1
  Ni  Ni10  1  0.28319300  0.53908800  0.23521500  1
  Ni  Ni11  1  0.30010600  0.75379900  0.74852600  1
  Ni  Ni12  1  0.71298600  0.25494500  0.26172500  1
  Ni  Ni13  1  0.00250200  0.96101100  0.25252400  1
  Cu  Cu14  1  0.00005400  0.05049900  0.74995300  1
  Cu  Cu15  1  0.70337700  0.45794800  0.75012000  1
  C  C16  1  0.86260500  0.99761000  0.08129700  1
  C  C17  1  0.88217700  0.89411800  0.58285400  1
  C  C18  1  0.48770400  0.57087200  0.26055800  1
  C  C19  1  0.08205000  0.37381300  0.05302300  1
  C  C20  1  0.26727300  0.49369600  0.40141900  1
  C  C21  1  0.29720800  0.72468500  0.23247500  1
  C  C22  1  0.16145500  0.22687200  0.75253100  1
  C  C23  1  0.48597500  0.92275200  0.75056200  1
  C  C24  1  0.30767900  0.57904100  0.74996200  1
  C  C25  1  0.15838400  0.93299600  0.23912500  1
  C  C26  1  0.91544000  0.28918200  0.44265900  1
  C  C27  1  0.72907100  0.22814400  0.09565600  1
  C  C28  1  0.30482600  0.80004200  0.92466700  1
  C  C29  1  0.08015200  0.70137400  0.57319300  1
  C  C30  1  0.84293500  0.07322600  0.74753000  1
  C  C31  1  0.69339100  0.42275100  0.26709900  1
  C  C32  1  0.51107700  0.08162000  0.23972600  1
  C  C33  1  0.83828400  0.77653200  0.25979600  1
  C  C34  1  0.69858100  0.28713900  0.74908400  1
  C  C35  1  0.69101900  0.49716800  0.58115800  1
  C  C36  1  0.90880100  0.61560200  0.91623200  1
  C  C37  1  0.52633300  0.43651100  0.75000700  1
  C  C38  1  0.14304800  0.13516300  0.42422900  1
  C  C39  1  0.11310200  0.00864800  0.91681800  1
