# generated using pymatgen
data_Cu2(Ni3C2)3
_symmetry_space_group_name_H-M   'P 1'
_cell_length_a   10.19993540
_cell_length_b   10.19993540
_cell_length_c   3.39652500
_cell_angle_alpha   90.00000000
_cell_angle_beta   90.00000000
_cell_angle_gamma   119.99999611
_symmetry_Int_Tables_number   1
_chemical_formula_structural   Cu2(Ni3C2)3
_chemical_formula_sum   'Cu2 Ni9 C6'
_cell_volume   306.02739589
_cell_formula_units_Z   1
loop_
 _symmetry_equiv_pos_site_id
 _symmetry_equiv_pos_as_xyz
  1  'x, y, z'
loop_
 _atom_site_type_symbol
 _atom_site_label
 _atom_site_symmetry_multiplicity
 _atom_site_fract_x
 _atom_site_fract_y
 _atom_site_fract_z
 _atom_site_occupancy
  Ni  Ni0  1  0.73683100  0.19735900  0.50000000  1
  Ni  Ni1  1  0.80264100  0.53947300  0.50000000  1
  Ni  Ni2  1  0.46052700  0.26316900  0.50000000  1
  Ni  Ni3  1  0.26316900  0.46052700  0.50000000  1
  Ni  Ni4  1  0.53947300  0.80264100  0.50000000  1
  Ni  Ni5  1  0.19735900  0.73683100  0.50000000  1
  Ni  Ni6  1  0.00000000  0.45426000  0.00000000  1
  Ni  Ni7  1  0.54574000  0.54574000  0.00000000  1
  Ni  Ni8  1  0.45426000  0.00000000  0.00000000  1
  Cu  Cu9  1  0.66666700  0.33333300  0.00000000  1
  Cu  Cu10  1  0.33333300  0.66666700  0.00000000  1
  C  C11  1  0.00000000  0.70435200  0.00000000  1
  C  C12  1  0.29564800  0.29564800  0.00000000  1
  C  C13  1  0.70435200  0.00000000  0.00000000  1
  C  C14  1  0.00000000  0.27148900  0.50000000  1
  C  C15  1  0.72851100  0.72851100  0.50000000  1
  C  C16  1  0.27148900  0.00000000  0.50000000  1
