# generated using pymatgen
data_Cu6NiC3
_symmetry_space_group_name_H-M   'P 1'
_cell_length_a   7.17633352
_cell_length_b   7.17633352
_cell_length_c   10.56830200
_cell_angle_alpha   90.00000000
_cell_angle_beta   90.00000000
_cell_angle_gamma   119.99999561
_symmetry_Int_Tables_number   1
_chemical_formula_structural   Cu6NiC3
_chemical_formula_sum   'Cu18 Ni3 C9'
_cell_volume   471.34737765
_cell_formula_units_Z   3
loop_
 _symmetry_equiv_pos_site_id
 _symmetry_equiv_pos_as_xyz
  1  'x, y, z'
loop_
 _atom_site_type_symbol
 _atom_site_label
 _atom_site_symmetry_multiplicity
 _atom_site_fract_x
 _atom_site_fract_y
 _atom_site_fract_z
 _atom_site_occupancy
  C  C0  1  0.49834800  0.18910500  0.67398600  1
  C  C1  1  0.69075700  0.50165200  0.34065200  1
  C  C2  1  0.81089500  0.30924300  0.00731900  1
  C  C3  1  0.29955200  0.29574200  0.99878700  1
  C  C4  1  0.99619000  0.70044800  0.66545300  1
  C  C5  1  0.70425800  0.00381000  0.33212000  1
  C  C6  1  0.49568600  0.68774000  0.64891100  1
  C  C7  1  0.19205400  0.50431400  0.31557700  1
  C  C8  1  0.31226000  0.80794600  0.98224400  1
  Ni  Ni9  1  0.77788500  0.76459200  0.99141600  1
  Ni  Ni10  1  0.98670700  0.22211500  0.65808200  1
  Ni  Ni11  1  0.23540800  0.01329300  0.32474900  1
  Cu  Cu12  1  0.12541400  0.40184300  0.56861800  1
  Cu  Cu13  1  0.27643000  0.87458600  0.23528500  1
  Cu  Cu14  1  0.59815700  0.72357000  0.90195100  1
  Cu  Cu15  1  0.80325300  0.05142500  0.58339900  1
  Cu  Cu16  1  0.24817200  0.19674700  0.25006500  1
  Cu  Cu17  1  0.94857500  0.75182800  0.91673200  1
  Cu  Cu18  1  0.32654200  0.85051900  0.71046900  1
  Cu  Cu19  1  0.52397700  0.67345800  0.37713600  1
  Cu  Cu20  1  0.14948100  0.47602300  0.04380300  1
  Cu  Cu21  1  0.89918000  0.30806500  0.75723900  1
  Cu  Cu22  1  0.40888500  0.10082000  0.42390600  1
  Cu  Cu23  1  0.69193500  0.59111500  0.09057300  1
  Cu  Cu24  1  0.48076400  0.14884200  0.94708600  1
  Cu  Cu25  1  0.85115800  0.33192200  0.28042000  1
  Cu  Cu26  1  0.66807800  0.51923600  0.61375300  1
  Cu  Cu27  1  0.86421000  0.97768300  0.05392300  1
  Cu  Cu28  1  0.02231700  0.88652700  0.38725600  1
  Cu  Cu29  1  0.11347300  0.13579000  0.72059000  1
