# generated using pymatgen
data_Cu6(NiC5)5
_symmetry_space_group_name_H-M   'P 1'
_cell_length_a   9.32677762
_cell_length_b   9.32677762
_cell_length_c   9.32677720
_cell_angle_alpha   50.65674825
_cell_angle_beta   50.65674825
_cell_angle_gamma   50.65674734
_symmetry_Int_Tables_number   1
_chemical_formula_structural   Cu6(NiC5)5
_chemical_formula_sum   'Cu6 Ni5 C25'
_cell_volume   447.23154248
_cell_formula_units_Z   1
loop_
 _symmetry_equiv_pos_site_id
 _symmetry_equiv_pos_as_xyz
  1  'x, y, z'
loop_
 _atom_site_type_symbol
 _atom_site_label
 _atom_site_symmetry_multiplicity
 _atom_site_fract_x
 _atom_site_fract_y
 _atom_site_fract_z
 _atom_site_occupancy
  Ni  Ni0  1  0.00000000  0.00000000  0.00000000  1
  Ni  Ni1  1  0.18078100  0.18078100  0.18078100  1
  Ni  Ni2  1  0.81921900  0.81921900  0.81921900  1
  Ni  Ni3  1  0.43397600  0.43397600  0.43397600  1
  Ni  Ni4  1  0.56602400  0.56602400  0.56602400  1
  Cu  Cu5  1  0.07438900  0.37725900  0.82568100  1
  Cu  Cu6  1  0.37725900  0.82568100  0.07438900  1
  Cu  Cu7  1  0.82568100  0.07438900  0.37725900  1
  Cu  Cu8  1  0.92561100  0.62274100  0.17431900  1
  Cu  Cu9  1  0.62274100  0.17431900  0.92561100  1
  Cu  Cu10  1  0.17431900  0.92561100  0.62274100  1
  C  C11  1  0.14839600  0.09372700  0.42702300  1
  C  C12  1  0.42702300  0.14839600  0.09372700  1
  C  C13  1  0.09372700  0.42702300  0.14839600  1
  C  C14  1  0.85160400  0.90627300  0.57297700  1
  C  C15  1  0.57297700  0.85160400  0.90627300  1
  C  C16  1  0.90627300  0.57297700  0.85160400  1
  C  C17  1  0.40641900  0.78774300  0.57664200  1
  C  C18  1  0.57664200  0.40641900  0.78774300  1
  C  C19  1  0.78774300  0.57664200  0.40641900  1
  C  C20  1  0.59358100  0.21225700  0.42335800  1
  C  C21  1  0.42335800  0.59358100  0.21225700  1
  C  C22  1  0.50000000  0.50000000  0.50000000  1
  C  C23  1  0.21709500  0.27113800  0.92679000  1
  C  C24  1  0.27113800  0.92679000  0.21709500  1
  C  C25  1  0.92679000  0.21709500  0.27113800  1
  C  C26  1  0.78290500  0.72886200  0.07321000  1
  C  C27  1  0.72886200  0.07321000  0.78290500  1
  C  C28  1  0.07321000  0.78290500  0.72886200  1
  C  C29  1  0.97705900  0.24905000  0.89602700  1
  C  C30  1  0.24905000  0.89602700  0.97705900  1
  C  C31  1  0.89602700  0.97705900  0.24905000  1
  C  C32  1  0.02294100  0.75095000  0.10397300  1
  C  C33  1  0.75095000  0.10397300  0.02294100  1
  C  C34  1  0.10397300  0.02294100  0.75095000  1
  C  C35  1  0.21225700  0.42335800  0.59358100  1
