# generated using pymatgen
data_Cu2Ni
_symmetry_space_group_name_H-M   'P 1'
_cell_length_a   3.31085600
_cell_length_b   9.01381500
_cell_length_c   17.08346500
_cell_angle_alpha   90.00000000
_cell_angle_beta   90.00000000
_cell_angle_gamma   90.00000000
_symmetry_Int_Tables_number   1
_chemical_formula_structural   Cu2Ni
_chemical_formula_sum   'Cu20 Ni10'
_cell_volume   509.82942210
_cell_formula_units_Z   10
loop_
 _symmetry_equiv_pos_site_id
 _symmetry_equiv_pos_as_xyz
  1  'x, y, z'
loop_
 _atom_site_type_symbol
 _atom_site_label
 _atom_site_symmetry_multiplicity
 _atom_site_fract_x
 _atom_site_fract_y
 _atom_site_fract_z
 _atom_site_occupancy
  Ni  Ni0  1  0.00000000  0.00000000  0.00000000  1
  Ni  Ni1  1  0.50000000  0.50000000  0.50000000  1
  Ni  Ni2  1  0.00000000  0.97641500  0.20146600  1
  Ni  Ni3  1  0.00000000  0.02358500  0.79853400  1
  Ni  Ni4  1  0.50000000  0.47641500  0.29853400  1
  Ni  Ni5  1  0.50000000  0.52358500  0.70146600  1
  Ni  Ni6  1  0.00000000  0.02638100  0.40114700  1
  Ni  Ni7  1  0.00000000  0.97361900  0.59885300  1
  Ni  Ni8  1  0.50000000  0.52638100  0.09885300  1
  Ni  Ni9  1  0.50000000  0.47361900  0.90114700  1
  Cu  Cu10  1  0.00000000  0.34467000  0.01339700  1
  Cu  Cu11  1  0.00000000  0.65533000  0.98660300  1
  Cu  Cu12  1  0.50000000  0.84467000  0.48660300  1
  Cu  Cu13  1  0.50000000  0.15533000  0.51339700  1
  Cu  Cu14  1  0.00000000  0.35814800  0.18689200  1
  Cu  Cu15  1  0.00000000  0.64185200  0.81310800  1
  Cu  Cu16  1  0.50000000  0.85814800  0.31310800  1
  Cu  Cu17  1  0.50000000  0.14185200  0.68689200  1
  Cu  Cu18  1  0.00000000  0.32431600  0.40364700  1
  Cu  Cu19  1  0.00000000  0.67568400  0.59635300  1
  Cu  Cu20  1  0.50000000  0.82431600  0.09635300  1
  Cu  Cu21  1  0.50000000  0.17568400  0.90364700  1
  Cu  Cu22  1  0.00000000  0.36623800  0.60527900  1
  Cu  Cu23  1  0.00000000  0.63376200  0.39472100  1
  Cu  Cu24  1  0.50000000  0.86623800  0.89472100  1
  Cu  Cu25  1  0.50000000  0.13376200  0.10527900  1
  Cu  Cu26  1  0.00000000  0.33442100  0.78652100  1
  Cu  Cu27  1  0.00000000  0.66557900  0.21347900  1
  Cu  Cu28  1  0.50000000  0.83442100  0.71347900  1
  Cu  Cu29  1  0.50000000  0.16557900  0.28652100  1
