# generated using pymatgen
data_Cu2Ni6C7
_symmetry_space_group_name_H-M   'P 1'
_cell_length_a   8.14011568
_cell_length_b   8.14011568
_cell_length_c   8.14011568
_cell_angle_alpha   60.00000000
_cell_angle_beta   60.00000000
_cell_angle_gamma   60.00000000
_symmetry_Int_Tables_number   1
_chemical_formula_structural   Cu2Ni6C7
_chemical_formula_sum   'Cu4 Ni12 C14'
_cell_volume   381.39652614
_cell_formula_units_Z   2
loop_
 _symmetry_equiv_pos_site_id
 _symmetry_equiv_pos_as_xyz
  1  'x, y, z'
loop_
 _atom_site_type_symbol
 _atom_site_label
 _atom_site_symmetry_multiplicity
 _atom_site_fract_x
 _atom_site_fract_y
 _atom_site_fract_z
 _atom_site_occupancy
  Ni  Ni0  1  0.87367600  0.87367600  0.87367600  1
  Ni  Ni1  1  0.87102700  0.37632400  0.37632400  1
  Ni  Ni2  1  0.37632400  0.87102700  0.37632400  1
  Ni  Ni3  1  0.37632400  0.37632400  0.87102700  1
  Ni  Ni4  1  0.87367600  0.37897300  0.87367600  1
  Ni  Ni5  1  0.87367600  0.87367600  0.37897300  1
  Ni  Ni6  1  0.37897300  0.87367600  0.87367600  1
  Ni  Ni7  1  0.37632400  0.37632400  0.37632400  1
  Ni  Ni8  1  0.12500000  0.12500000  0.12500000  1
  Ni  Ni9  1  0.62500000  0.12500000  0.12500000  1
  Ni  Ni10  1  0.12500000  0.62500000  0.12500000  1
  Ni  Ni11  1  0.12500000  0.12500000  0.62500000  1
  C  C12  1  0.25062700  0.74937300  0.25062700  1
  C  C13  1  0.50062700  0.99937300  0.99937300  1
  C  C14  1  0.99937300  0.50062700  0.50062700  1
  C  C15  1  0.50062700  0.99937300  0.50062700  1
  C  C16  1  0.99937300  0.99937300  0.50062700  1
  C  C17  1  0.50062700  0.50062700  0.99937300  1
  C  C18  1  0.25062700  0.25062700  0.74937300  1
  C  C19  1  0.74937300  0.25062700  0.25062700  1
  C  C20  1  0.25062700  0.74937300  0.74937300  1
  C  C21  1  0.74937300  0.74937300  0.25062700  1
  C  C22  1  0.99937300  0.50062700  0.99937300  1
  C  C23  1  0.74937300  0.25062700  0.74937300  1
  C  C24  1  0.00000000  0.00000000  0.00000000  1
  C  C25  1  0.25000000  0.25000000  0.25000000  1
  Cu  Cu26  1  0.62500000  0.62500000  0.62500000  1
  Cu  Cu27  1  0.12500000  0.62500000  0.62500000  1
  Cu  Cu28  1  0.62500000  0.12500000  0.62500000  1
  Cu  Cu29  1  0.62500000  0.62500000  0.12500000  1
