# generated using pymatgen
data_Cu7Ni51C4
_symmetry_space_group_name_H-M   'P 1'
_cell_length_a   10.22451188
_cell_length_b   10.22451188
_cell_length_c   11.47739900
_cell_angle_alpha   90.00000000
_cell_angle_beta   90.00000000
_cell_angle_gamma   119.99999925
_symmetry_Int_Tables_number   1
_chemical_formula_structural   Cu7Ni51C4
_chemical_formula_sum   'Cu7 Ni51 C4'
_cell_volume   1039.10463689
_cell_formula_units_Z   1
loop_
 _symmetry_equiv_pos_site_id
 _symmetry_equiv_pos_as_xyz
  1  'x, y, z'
loop_
 _atom_site_type_symbol
 _atom_site_label
 _atom_site_symmetry_multiplicity
 _atom_site_fract_x
 _atom_site_fract_y
 _atom_site_fract_z
 _atom_site_occupancy
  C  C0  1  0.33333300  0.66666700  0.58479200  1
  C  C1  1  0.33333300  0.66666700  0.90347800  1
  C  C2  1  0.66666700  0.33333300  0.41520800  1
  C  C3  1  0.66666700  0.33333300  0.09652200  1
  Ni  Ni4  1  0.57787500  0.42212500  0.65249400  1
  Ni  Ni5  1  0.57787500  0.15575000  0.65249400  1
  Ni  Ni6  1  0.84425000  0.42212500  0.65249400  1
  Ni  Ni7  1  0.09110900  0.90889100  0.17087600  1
  Ni  Ni8  1  0.09110900  0.18221800  0.17087600  1
  Ni  Ni9  1  0.81778200  0.90889100  0.17087600  1
  Ni  Ni10  1  0.84564800  0.15435200  0.04377000  1
  Ni  Ni11  1  0.84564800  0.69129700  0.04377000  1
  Ni  Ni12  1  0.30870300  0.15435200  0.04377000  1
  Ni  Ni13  1  0.24263000  0.75737000  0.14372500  1
  Ni  Ni14  1  0.24263000  0.48525900  0.14372500  1
  Ni  Ni15  1  0.51474100  0.75737000  0.14372500  1
  Ni  Ni16  1  0.09179800  0.90820200  0.60476200  1
  Ni  Ni17  1  0.09179800  0.18359500  0.60476200  1
  Ni  Ni18  1  0.81640500  0.90820200  0.60476200  1
  Ni  Ni19  1  0.15435200  0.84564800  0.95623000  1
  Ni  Ni20  1  0.15435200  0.30870300  0.95623000  1
  Ni  Ni21  1  0.69129700  0.84564800  0.95623000  1
  Ni  Ni22  1  0.75737000  0.24263000  0.85627500  1
  Ni  Ni23  1  0.75737000  0.51474100  0.85627500  1
  Ni  Ni24  1  0.48525900  0.24263000  0.85627500  1
  Ni  Ni25  1  0.42212500  0.57787500  0.34750600  1
  Ni  Ni26  1  0.42212500  0.84425000  0.34750600  1
  Ni  Ni27  1  0.15575000  0.57787500  0.34750600  1
  Ni  Ni28  1  0.50000000  0.50000000  0.00000000  1
  Ni  Ni29  1  0.50000000  0.00000000  0.00000000  1
  Ni  Ni30  1  0.00000000  0.50000000  0.00000000  1
  Ni  Ni31  1  0.90889100  0.09110900  0.82912400  1
  Ni  Ni32  1  0.90889100  0.81778200  0.82912400  1
  Ni  Ni33  1  0.18221800  0.09110900  0.82912400  1
  Ni  Ni34  1  0.90820200  0.09179800  0.39523800  1
  Ni  Ni35  1  0.90820200  0.81640500  0.39523800  1
  Ni  Ni36  1  0.18359500  0.09179800  0.39523800  1
  Ni  Ni37  1  0.64088700  0.00000000  0.50000000  1
  Ni  Ni38  1  0.00000000  0.64088700  0.50000000  1
  Ni  Ni39  1  0.35911300  0.35911300  0.50000000  1
  Ni  Ni40  1  0.35911300  0.00000000  0.50000000  1
  Ni  Ni41  1  0.64088700  0.64088700  0.50000000  1
  Ni  Ni42  1  0.00000000  0.35911300  0.50000000  1
  Ni  Ni43  1  0.33003300  0.39779400  0.75395000  1
  Ni  Ni44  1  0.60220600  0.93223900  0.75395000  1
  Ni  Ni45  1  0.06776100  0.66996700  0.75395000  1
  Ni  Ni46  1  0.06776100  0.39779400  0.75395000  1
  Ni  Ni47  1  0.33003300  0.93223900  0.75395000  1
  Ni  Ni48  1  0.60220600  0.66996700  0.75395000  1
  Ni  Ni49  1  0.93223900  0.33003300  0.24605000  1
  Ni  Ni50  1  0.66996700  0.60220600  0.24605000  1
  Ni  Ni51  1  0.39779400  0.06776100  0.24605000  1
  Ni  Ni52  1  0.39779400  0.33003300  0.24605000  1
  Ni  Ni53  1  0.93223900  0.60220600  0.24605000  1
  Ni  Ni54  1  0.66996700  0.06776100  0.24605000  1
  Cu  Cu55  1  0.00000000  0.00000000  0.00000000  1
  Cu  Cu56  1  0.16901000  0.83099000  0.34328000  1
  Cu  Cu57  1  0.16901000  0.33802100  0.34328000  1
  Cu  Cu58  1  0.66197900  0.83099000  0.34328000  1
  Cu  Cu59  1  0.83099000  0.16901000  0.65672000  1
  Cu  Cu60  1  0.83099000  0.66197900  0.65672000  1
  Cu  Cu61  1  0.33802100  0.16901000  0.65672000  1
