# generated using pymatgen
data_Cu2NiC2
_symmetry_space_group_name_H-M   'P 1'
_cell_length_a   9.27020800
_cell_length_b   10.55011200
_cell_length_c   15.29524400
_cell_angle_alpha   90.00000000
_cell_angle_beta   90.00000000
_cell_angle_gamma   90.00000000
_symmetry_Int_Tables_number   1
_chemical_formula_structural   Cu2NiC2
_chemical_formula_sum   'Cu16 Ni8 C16'
_cell_volume   1495.90136471
_cell_formula_units_Z   8
loop_
 _symmetry_equiv_pos_site_id
 _symmetry_equiv_pos_as_xyz
  1  'x, y, z'
loop_
 _atom_site_type_symbol
 _atom_site_label
 _atom_site_symmetry_multiplicity
 _atom_site_fract_x
 _atom_site_fract_y
 _atom_site_fract_z
 _atom_site_occupancy
  C  C0  1  0.77034200  0.02673800  0.51481000  1
  C  C1  1  0.72965800  0.47326200  0.01481000  1
  C  C2  1  0.22965800  0.52673800  0.48519000  1
  C  C3  1  0.27034200  0.97326200  0.98519000  1
  C  C4  1  0.27034200  0.52673800  0.98519000  1
  C  C5  1  0.77034200  0.47326200  0.51481000  1
  C  C6  1  0.72965800  0.02673800  0.01481000  1
  C  C7  1  0.22965800  0.97326200  0.48519000  1
  C  C8  1  0.41125100  0.52937600  0.73420200  1
  C  C9  1  0.91125100  0.47062400  0.76579800  1
  C  C10  1  0.58874900  0.02937600  0.26579800  1
  C  C11  1  0.91125100  0.02937600  0.76579800  1
  C  C12  1  0.58874900  0.47062400  0.26579800  1
  C  C13  1  0.08874900  0.52937600  0.23420200  1
  C  C14  1  0.41125100  0.97062400  0.73420200  1
  C  C15  1  0.08874900  0.97062400  0.23420200  1
  Ni  Ni16  1  0.58399100  0.75000000  0.40509400  1
  Ni  Ni17  1  0.27622100  0.25000000  0.32113700  1
  Ni  Ni18  1  0.22377900  0.25000000  0.82113700  1
  Ni  Ni19  1  0.72377900  0.75000000  0.67886300  1
  Ni  Ni20  1  0.08399100  0.25000000  0.09490600  1
  Ni  Ni21  1  0.91600900  0.75000000  0.90509400  1
  Ni  Ni22  1  0.41600900  0.25000000  0.59490600  1
  Ni  Ni23  1  0.77622100  0.75000000  0.17886300  1
  Cu  Cu24  1  0.84890300  0.75000000  0.34781200  1
  Cu  Cu25  1  0.00217100  0.25000000  0.93108700  1
  Cu  Cu26  1  0.49782900  0.25000000  0.43108700  1
  Cu  Cu27  1  0.99782900  0.75000000  0.06891300  1
  Cu  Cu28  1  0.50217100  0.75000000  0.56891300  1
  Cu  Cu29  1  0.34890300  0.25000000  0.15218800  1
  Cu  Cu30  1  0.15109700  0.25000000  0.65218800  1
  Cu  Cu31  1  0.65109700  0.75000000  0.84781200  1
  Cu  Cu32  1  0.50522800  0.75000000  0.12831000  1
  Cu  Cu33  1  0.00522800  0.25000000  0.37169000  1
  Cu  Cu34  1  0.49477200  0.25000000  0.87169000  1
  Cu  Cu35  1  0.99477200  0.75000000  0.62831000  1
  Cu  Cu36  1  0.36540300  0.75000000  0.29695500  1
  Cu  Cu37  1  0.86540300  0.25000000  0.20304500  1
  Cu  Cu38  1  0.63459700  0.25000000  0.70304500  1
  Cu  Cu39  1  0.13459700  0.75000000  0.79695500  1
