# generated using pymatgen
data_Cu(Ni5C6)2
_symmetry_space_group_name_H-M   'P 1'
_cell_length_a   9.83475769
_cell_length_b   9.83475769
_cell_length_c   9.83475769
_cell_angle_alpha   109.47122063
_cell_angle_beta   109.47122063
_cell_angle_gamma   109.47122063
_symmetry_Int_Tables_number   1
_chemical_formula_structural   Cu(Ni5C6)2
_chemical_formula_sum   'Cu1 Ni10 C12'
_cell_volume   732.26639131
_cell_formula_units_Z   1
loop_
 _symmetry_equiv_pos_site_id
 _symmetry_equiv_pos_as_xyz
  1  'x, y, z'
loop_
 _atom_site_type_symbol
 _atom_site_label
 _atom_site_symmetry_multiplicity
 _atom_site_fract_x
 _atom_site_fract_y
 _atom_site_fract_z
 _atom_site_occupancy
  Ni  Ni0  1  0.25000000  0.50000000  0.75000000  1
  Ni  Ni1  1  0.38795200  0.38795200  0.38795200  1
  Ni  Ni2  1  0.00000000  0.61204800  0.00000000  1
  Ni  Ni3  1  0.61204800  0.00000000  0.00000000  1
  Ni  Ni4  1  0.00000000  0.00000000  0.61204800  1
  Ni  Ni5  1  0.75000000  0.50000000  0.25000000  1
  Ni  Ni6  1  0.25000000  0.75000000  0.50000000  1
  Ni  Ni7  1  0.75000000  0.25000000  0.50000000  1
  Ni  Ni8  1  0.50000000  0.25000000  0.75000000  1
  Ni  Ni9  1  0.50000000  0.75000000  0.25000000  1
  Cu  Cu10  1  0.00000000  0.00000000  0.00000000  1
  C  C11  1  0.62809400  0.62809400  0.81661300  1
  C  C12  1  0.00000000  0.18851900  0.37190600  1
  C  C13  1  0.18851900  0.00000000  0.37190600  1
  C  C14  1  0.81148100  0.18338700  0.81148100  1
  C  C15  1  0.18338700  0.81148100  0.81148100  1
  C  C16  1  0.81661300  0.62809400  0.62809400  1
  C  C17  1  0.00000000  0.37190600  0.18851900  1
  C  C18  1  0.37190600  0.00000000  0.18851900  1
  C  C19  1  0.62809400  0.81661300  0.62809400  1
  C  C20  1  0.18851900  0.37190600  0.00000000  1
  C  C21  1  0.37190600  0.18851900  0.00000000  1
  C  C22  1  0.81148100  0.81148100  0.18338700  1
