# generated using pymatgen
data_Cu3Ni2C
_symmetry_space_group_name_H-M   'P 1'
_cell_length_a   4.08008000
_cell_length_b   7.32530261
_cell_length_c   10.41967830
_cell_angle_alpha   98.30326124
_cell_angle_beta   101.29071531
_cell_angle_gamma   90.00000000
_symmetry_Int_Tables_number   1
_chemical_formula_structural   Cu3Ni2C
_chemical_formula_sum   'Cu6 Ni4 C2'
_cell_volume   302.06476672
_cell_formula_units_Z   2
loop_
 _symmetry_equiv_pos_site_id
 _symmetry_equiv_pos_as_xyz
  1  'x, y, z'
loop_
 _atom_site_type_symbol
 _atom_site_label
 _atom_site_symmetry_multiplicity
 _atom_site_fract_x
 _atom_site_fract_y
 _atom_site_fract_z
 _atom_site_occupancy
  C  C0  1  0.64595200  0.05452900  0.29190400  1
  C  C1  1  0.35404800  0.94547100  0.70809600  1
  Ni  Ni2  1  0.71341400  0.42582600  0.42682800  1
  Ni  Ni3  1  0.28658600  0.57417400  0.57317200  1
  Ni  Ni4  1  0.04877700  0.14936500  0.09755400  1
  Ni  Ni5  1  0.95122300  0.85063500  0.90244600  1
  Cu  Cu6  1  0.75057600  0.78553800  0.50115200  1
  Cu  Cu7  1  0.91861200  0.17990600  0.83722400  1
  Cu  Cu8  1  0.58362000  0.36481700  0.16724000  1
  Cu  Cu9  1  0.24942400  0.21446200  0.49884800  1
  Cu  Cu10  1  0.41638000  0.63518300  0.83276000  1
  Cu  Cu11  1  0.08138800  0.82009400  0.16277600  1
