# generated using pymatgen
data_Cu13(Ni2C)2
_symmetry_space_group_name_H-M   'P 1'
_cell_length_a   11.97113000
_cell_length_b   12.96925400
_cell_length_c   13.19450811
_cell_angle_alpha   76.22915502
_cell_angle_beta   90.00000000
_cell_angle_gamma   90.00000000
_symmetry_Int_Tables_number   1
_chemical_formula_structural   Cu13(Ni2C)2
_chemical_formula_sum   'Cu52 Ni16 C8'
_cell_volume   1989.65076387
_cell_formula_units_Z   4
loop_
 _symmetry_equiv_pos_site_id
 _symmetry_equiv_pos_as_xyz
  1  'x, y, z'
loop_
 _atom_site_type_symbol
 _atom_site_label
 _atom_site_symmetry_multiplicity
 _atom_site_fract_x
 _atom_site_fract_y
 _atom_site_fract_z
 _atom_site_occupancy
  C  C0  1  0.08802700  0.63658700  0.60941600  1
  C  C1  1  0.58802700  0.36341300  0.89058400  1
  C  C2  1  0.91197300  0.36341300  0.39058400  1
  C  C3  1  0.41197300  0.63658700  0.10941600  1
  C  C4  1  0.09854600  0.10347800  0.78497200  1
  C  C5  1  0.59854600  0.89652200  0.71502800  1
  C  C6  1  0.90145400  0.89652200  0.21502800  1
  C  C7  1  0.40145400  0.10347800  0.28497200  1
  Ni  Ni8  1  0.22381400  0.97089100  0.59184600  1
  Ni  Ni9  1  0.72381400  0.02910900  0.90815400  1
  Ni  Ni10  1  0.77618600  0.02910900  0.40815400  1
  Ni  Ni11  1  0.27618600  0.97089100  0.09184600  1
  Ni  Ni12  1  0.22785100  0.76358400  0.79721300  1
  Ni  Ni13  1  0.72785100  0.23641600  0.70278700  1
  Ni  Ni14  1  0.77214900  0.23641600  0.20278700  1
  Ni  Ni15  1  0.27214900  0.76358400  0.29721300  1
  Ni  Ni16  1  0.22536000  0.51614500  0.90199900  1
  Ni  Ni17  1  0.72536000  0.48385500  0.59800100  1
  Ni  Ni18  1  0.77464000  0.48385500  0.09800100  1
  Ni  Ni19  1  0.27464000  0.51614500  0.40199900  1
  Ni  Ni20  1  0.27936700  0.21748700  0.98369800  1
  Ni  Ni21  1  0.77936700  0.78251300  0.51630200  1
  Ni  Ni22  1  0.72063300  0.78251300  0.01630200  1
  Ni  Ni23  1  0.22063300  0.21748700  0.48369800  1
  Cu  Cu24  1  0.34665500  0.03800200  0.66746200  1
  Cu  Cu25  1  0.84665500  0.96199800  0.83253800  1
  Cu  Cu26  1  0.65334500  0.96199800  0.33253800  1
  Cu  Cu27  1  0.15334500  0.03800200  0.16746200  1
  Cu  Cu28  1  0.31683000  0.89861300  0.49641500  1
  Cu  Cu29  1  0.81683000  0.10138700  0.00358500  1
  Cu  Cu30  1  0.68317000  0.10138700  0.50358500  1
  Cu  Cu31  1  0.18317000  0.89861300  0.99641500  1
  Cu  Cu32  1  0.12268400  0.86833600  0.69768600  1
  Cu  Cu33  1  0.62268400  0.13166400  0.80231400  1
  Cu  Cu34  1  0.87731600  0.13166400  0.30231400  1
  Cu  Cu35  1  0.37731600  0.86833600  0.19768600  1
  Cu  Cu36  1  0.32306300  0.83435600  0.89309300  1
  Cu  Cu37  1  0.82306300  0.16564400  0.60690700  1
  Cu  Cu38  1  0.67693700  0.16564400  0.10690700  1
  Cu  Cu39  1  0.17693700  0.83435600  0.39309300  1
  Cu  Cu40  1  0.35334600  0.70501000  0.71596100  1
  Cu  Cu41  1  0.85334600  0.29499000  0.78403900  1
  Cu  Cu42  1  0.64665400  0.29499000  0.28403900  1
  Cu  Cu43  1  0.14665400  0.70501000  0.21596100  1
  Cu  Cu44  1  0.11905200  0.64509400  0.87211300  1
  Cu  Cu45  1  0.61905200  0.35490600  0.62788700  1
  Cu  Cu46  1  0.88094800  0.35490600  0.12788700  1
  Cu  Cu47  1  0.38094800  0.64509400  0.37211300  1
  Cu  Cu48  1  0.38776100  0.55909200  0.86587600  1
  Cu  Cu49  1  0.88776100  0.44090800  0.63412400  1
  Cu  Cu50  1  0.61223900  0.44090800  0.13412400  1
  Cu  Cu51  1  0.11223900  0.55909200  0.36587600  1
  Cu  Cu52  1  0.22668500  0.45673500  0.06049600  1
  Cu  Cu53  1  0.72668500  0.54326500  0.43950400  1
  Cu  Cu54  1  0.77331500  0.54326500  0.93950400  1
  Cu  Cu55  1  0.27331500  0.45673500  0.56049600  1
  Cu  Cu56  1  0.15207200  0.41921400  0.81864000  1
  Cu  Cu57  1  0.65207200  0.58078600  0.68136000  1
  Cu  Cu58  1  0.84792800  0.58078600  0.18136000  1
  Cu  Cu59  1  0.34792800  0.41921400  0.31864000  1
  Cu  Cu60  1  0.29127000  0.28163900  0.82579200  1
  Cu  Cu61  1  0.79127000  0.71836100  0.67420800  1
  Cu  Cu62  1  0.70873000  0.71836100  0.17420800  1
  Cu  Cu63  1  0.20873000  0.28163900  0.32579200  1
  Cu  Cu64  1  0.35738900  0.31103500  0.06928900  1
  Cu  Cu65  1  0.85738900  0.68896500  0.43071100  1
  Cu  Cu66  1  0.64261100  0.68896500  0.93071100  1
  Cu  Cu67  1  0.14261100  0.31103500  0.56928900  1
  Cu  Cu68  1  0.38527200  0.08821900  0.01669900  1
  Cu  Cu69  1  0.88527200  0.91178100  0.48330100  1
  Cu  Cu70  1  0.61472800  0.91178100  0.98330100  1
  Cu  Cu71  1  0.11472800  0.08821900  0.51669900  1
  Cu  Cu72  1  0.11509900  0.18528700  0.02047300  1
  Cu  Cu73  1  0.61509900  0.81471300  0.47952700  1
  Cu  Cu74  1  0.88490100  0.81471300  0.97952700  1
  Cu  Cu75  1  0.38490100  0.18528700  0.52047300  1
