# generated using pymatgen
data_CuNiC4
_symmetry_space_group_name_H-M   'P 1'
_cell_length_a   6.21723349
_cell_length_b   6.21723349
_cell_length_c   7.43022400
_cell_angle_alpha   90.00000000
_cell_angle_beta   90.00000000
_cell_angle_gamma   119.99999461
_symmetry_Int_Tables_number   1
_chemical_formula_structural   CuNiC4
_chemical_formula_sum   'Cu3 Ni3 C12'
_cell_volume   248.72928297
_cell_formula_units_Z   3
loop_
 _symmetry_equiv_pos_site_id
 _symmetry_equiv_pos_as_xyz
  1  'x, y, z'
loop_
 _atom_site_type_symbol
 _atom_site_label
 _atom_site_symmetry_multiplicity
 _atom_site_fract_x
 _atom_site_fract_y
 _atom_site_fract_z
 _atom_site_occupancy
  Ni  Ni0  1  0.00000000  0.00000000  0.29370900  1
  Ni  Ni1  1  0.00000000  0.00000000  0.70629100  1
  Ni  Ni2  1  0.33333300  0.66666700  0.50000000  1
  Cu  Cu3  1  0.66666700  0.33333300  0.74620600  1
  Cu  Cu4  1  0.66666700  0.33333300  0.25379400  1
  Cu  Cu5  1  0.33333300  0.66666700  0.00000000  1
  C  C6  1  0.91351100  0.31247200  0.00000000  1
  C  C7  1  0.89624100  0.27934300  0.50000000  1
  C  C8  1  0.68752800  0.60103900  0.00000000  1
  C  C9  1  0.72065700  0.61689800  0.50000000  1
  C  C10  1  0.07447200  0.68282900  0.76228000  1
  C  C11  1  0.07447200  0.68282900  0.23772000  1
  C  C12  1  0.39896100  0.08648900  0.00000000  1
  C  C13  1  0.38310200  0.10375900  0.50000000  1
  C  C14  1  0.31717100  0.39164300  0.76228000  1
  C  C15  1  0.31717100  0.39164300  0.23772000  1
  C  C16  1  0.60835700  0.92552800  0.76228000  1
  C  C17  1  0.60835700  0.92552800  0.23772000  1
