# generated using pymatgen
data_Cu2NiC4
_symmetry_space_group_name_H-M   'P 1'
_cell_length_a   7.36281064
_cell_length_b   7.36281064
_cell_length_c   7.36281064
_cell_angle_alpha   109.59167642
_cell_angle_beta   109.59167642
_cell_angle_gamma   109.23057673
_symmetry_Int_Tables_number   1
_chemical_formula_structural   Cu2NiC4
_chemical_formula_sum   'Cu4 Ni2 C8'
_cell_volume   307.25804331
_cell_formula_units_Z   2
loop_
 _symmetry_equiv_pos_site_id
 _symmetry_equiv_pos_as_xyz
  1  'x, y, z'
loop_
 _atom_site_type_symbol
 _atom_site_label
 _atom_site_symmetry_multiplicity
 _atom_site_fract_x
 _atom_site_fract_y
 _atom_site_fract_z
 _atom_site_occupancy
  Ni  Ni0  1  0.75000000  0.25000000  0.50000000  1
  Ni  Ni1  1  0.00000000  0.00000000  0.00000000  1
  Cu  Cu2  1  0.50337600  0.12500000  0.87837600  1
  Cu  Cu3  1  0.87500000  0.75337600  0.37837600  1
  Cu  Cu4  1  0.24662400  0.62500000  0.12162400  1
  Cu  Cu5  1  0.37500000  0.49662400  0.62162400  1
  C  C6  1  0.98208500  0.37814100  0.24858300  1
  C  C7  1  0.48350200  0.37955800  0.25141700  1
  C  C8  1  0.76791500  0.51649800  0.89605600  1
  C  C9  1  0.62185900  0.87044200  0.60394400  1
  C  C10  1  0.12814100  0.23208500  0.74858300  1
  C  C11  1  0.62044200  0.87185900  0.10394400  1
  C  C12  1  0.26649800  0.01791500  0.39605600  1
  C  C13  1  0.12955800  0.73350200  0.75141700  1
