# generated using pymatgen
data_CuNi4C
_symmetry_space_group_name_H-M   'P 1'
_cell_length_a   7.88753154
_cell_length_b   7.88753154
_cell_length_c   6.61744300
_cell_angle_alpha   90.00000000
_cell_angle_beta   90.00000000
_cell_angle_gamma   149.96984809
_symmetry_Int_Tables_number   1
_chemical_formula_structural   CuNi4C
_chemical_formula_sum   'Cu2 Ni8 C2'
_cell_volume   206.03359795
_cell_formula_units_Z   2
loop_
 _symmetry_equiv_pos_site_id
 _symmetry_equiv_pos_as_xyz
  1  'x, y, z'
loop_
 _atom_site_type_symbol
 _atom_site_label
 _atom_site_symmetry_multiplicity
 _atom_site_fract_x
 _atom_site_fract_y
 _atom_site_fract_z
 _atom_site_occupancy
  C  C0  1  0.88006900  0.11993100  0.25000000  1
  C  C1  1  0.11993100  0.88006900  0.75000000  1
  Ni  Ni2  1  0.31479200  0.68520800  0.55122700  1
  Ni  Ni3  1  0.07020500  0.92979500  0.25000000  1
  Ni  Ni4  1  0.50000000  0.50000000  0.00000000  1
  Ni  Ni5  1  0.68520800  0.31479200  0.44877300  1
  Ni  Ni6  1  0.50000000  0.50000000  0.50000000  1
  Ni  Ni7  1  0.68520800  0.31479200  0.05122700  1
  Ni  Ni8  1  0.31479200  0.68520800  0.94877300  1
  Ni  Ni9  1  0.92979500  0.07020500  0.75000000  1
  Cu  Cu10  1  0.77544500  0.22455500  0.75000000  1
  Cu  Cu11  1  0.22455500  0.77544500  0.25000000  1
