# generated using pymatgen
data_Cu5NiC6
_symmetry_space_group_name_H-M   'P 1'
_cell_length_a   9.34913800
_cell_length_b   10.33102500
_cell_length_c   11.47753000
_cell_angle_alpha   90.00000000
_cell_angle_beta   90.00000000
_cell_angle_gamma   90.00000000
_symmetry_Int_Tables_number   1
_chemical_formula_structural   Cu5NiC6
_chemical_formula_sum   'Cu20 Ni4 C24'
_cell_volume   1108.57076025
_cell_formula_units_Z   4
loop_
 _symmetry_equiv_pos_site_id
 _symmetry_equiv_pos_as_xyz
  1  'x, y, z'
loop_
 _atom_site_type_symbol
 _atom_site_label
 _atom_site_symmetry_multiplicity
 _atom_site_fract_x
 _atom_site_fract_y
 _atom_site_fract_z
 _atom_site_occupancy
  C  C0  1  0.04750800  0.75000000  0.25000000  1
  C  C1  1  0.04750800  0.75000000  0.75000000  1
  C  C2  1  0.22130100  0.07423000  0.00000000  1
  C  C3  1  0.22130100  0.42577000  0.50000000  1
  C  C4  1  0.77869900  0.57423000  0.50000000  1
  C  C5  1  0.77869900  0.92577000  0.00000000  1
  C  C6  1  0.95249200  0.25000000  0.25000000  1
  C  C7  1  0.95249200  0.25000000  0.75000000  1
  C  C8  1  0.33792900  0.60468400  0.00000000  1
  C  C9  1  0.33792900  0.89531600  0.50000000  1
  C  C10  1  0.41770200  0.10585600  0.38528000  1
  C  C11  1  0.41770200  0.10585600  0.61472000  1
  C  C12  1  0.41770200  0.39414400  0.11472000  1
  C  C13  1  0.41770200  0.39414400  0.88528000  1
  C  C14  1  0.58229800  0.60585600  0.11472000  1
  C  C15  1  0.58229800  0.60585600  0.88528000  1
  C  C16  1  0.58229800  0.89414400  0.38528000  1
  C  C17  1  0.58229800  0.89414400  0.61472000  1
  C  C18  1  0.66207100  0.10468400  0.50000000  1
  C  C19  1  0.66207100  0.39531600  0.00000000  1
  Ni  Ni20  1  0.16939800  0.76119600  0.50000000  1
  Ni  Ni21  1  0.16939800  0.73880400  0.00000000  1
  Ni  Ni22  1  0.83060200  0.23880400  0.50000000  1
  Ni  Ni23  1  0.83060200  0.26119600  0.00000000  1
  Cu  Cu24  1  0.19853600  0.09154800  0.50000000  1
  Cu  Cu25  1  0.19853600  0.40845200  0.00000000  1
  Cu  Cu26  1  0.28781800  0.25000000  0.25000000  1
  Cu  Cu27  1  0.28781800  0.25000000  0.75000000  1
  Cu  Cu28  1  0.35189900  0.59322900  0.78829700  1
  Cu  Cu29  1  0.35189900  0.90677100  0.71170300  1
  Cu  Cu30  1  0.35189900  0.59322900  0.21170300  1
  Cu  Cu31  1  0.35189900  0.90677100  0.28829700  1
  Cu  Cu32  1  0.49473800  0.71225600  0.50000000  1
  Cu  Cu33  1  0.49473800  0.78774400  0.00000000  1
  Cu  Cu34  1  0.50526200  0.21225600  0.00000000  1
  Cu  Cu35  1  0.50526200  0.28774400  0.50000000  1
  Cu  Cu36  1  0.64810100  0.09322900  0.28829700  1
  Cu  Cu37  1  0.64810100  0.09322900  0.71170300  1
  Cu  Cu38  1  0.64810100  0.40677100  0.78829700  1
  Cu  Cu39  1  0.64810100  0.40677100  0.21170300  1
  Cu  Cu40  1  0.71218200  0.75000000  0.25000000  1
  Cu  Cu41  1  0.71218200  0.75000000  0.75000000  1
  Cu  Cu42  1  0.80146400  0.59154800  0.00000000  1
  Cu  Cu43  1  0.80146400  0.90845200  0.50000000  1
  C  C44  1  0.08247200  0.82229100  0.00000000  1
  C  C45  1  0.08247200  0.67770900  0.50000000  1
  C  C46  1  0.91752800  0.17770900  0.00000000  1
  C  C47  1  0.91752800  0.32229100  0.50000000  1
