# generated using pymatgen
data_Cu27NiC20
_symmetry_space_group_name_H-M   'P 1'
_cell_length_a   9.10603564
_cell_length_b   9.10603564
_cell_length_c   9.10603560
_cell_angle_alpha   90.01472928
_cell_angle_beta   90.01472928
_cell_angle_gamma   90.01472673
_symmetry_Int_Tables_number   1
_chemical_formula_structural   Cu27NiC20
_chemical_formula_sum   'Cu27 Ni1 C20'
_cell_volume   755.07135133
_cell_formula_units_Z   1
loop_
 _symmetry_equiv_pos_site_id
 _symmetry_equiv_pos_as_xyz
  1  'x, y, z'
loop_
 _atom_site_type_symbol
 _atom_site_label
 _atom_site_symmetry_multiplicity
 _atom_site_fract_x
 _atom_site_fract_y
 _atom_site_fract_z
 _atom_site_occupancy
  C  C0  1  0.17596400  0.17681300  0.81879400  1
  C  C1  1  0.81879400  0.17596400  0.17681300  1
  C  C2  1  0.77864100  0.22742200  0.77903500  1
  C  C3  1  0.29918900  0.29918900  0.29918900  1
  C  C4  1  0.22742200  0.77903500  0.77864100  1
  C  C5  1  0.77903500  0.77864100  0.22742200  1
  C  C6  1  0.80040900  0.80040900  0.80040900  1
  C  C7  1  0.17681300  0.81879400  0.17596400  1
  C  C8  1  0.49974600  0.00245900  0.75024500  1
  C  C9  1  0.49871500  0.00035700  0.25172300  1
  C  C10  1  0.00035700  0.25172300  0.49871500  1
  C  C11  1  0.25172300  0.49871500  0.00035700  1
  C  C12  1  0.75024500  0.49974600  0.00245900  1
  C  C13  1  0.00245900  0.75024500  0.49974600  1
  C  C14  1  0.24960600  0.00263100  0.49915000  1
  C  C15  1  0.75125200  0.00151200  0.50082000  1
  C  C16  1  0.49915000  0.24960600  0.00263100  1
  C  C17  1  0.00151200  0.50082000  0.75125200  1
  C  C18  1  0.00263100  0.49915000  0.24960600  1
  C  C19  1  0.50082000  0.75125200  0.00151200  1
  Ni  Ni20  1  0.99428900  0.99428900  0.99428900  1
  Cu  Cu21  1  0.34733900  0.05669900  0.35766700  1
  Cu  Cu22  1  0.65610600  0.04879700  0.64645300  1
  Cu  Cu23  1  0.93485100  0.11189000  0.93826800  1
  Cu  Cu24  1  0.44747900  0.15132500  0.86131900  1
  Cu  Cu25  1  0.55218100  0.15167200  0.14402100  1
  Cu  Cu26  1  0.15167200  0.14402100  0.55218100  1
  Cu  Cu27  1  0.84987700  0.14237000  0.44842000  1
  Cu  Cu28  1  0.64015400  0.34960700  0.95316700  1
  Cu  Cu29  1  0.35766700  0.34733900  0.05669900  1
  Cu  Cu30  1  0.95179900  0.36095700  0.64995100  1
  Cu  Cu31  1  0.05669900  0.35766700  0.34733900  1
  Cu  Cu32  1  0.14237000  0.44842000  0.84987700  1
  Cu  Cu33  1  0.86131900  0.44747900  0.15132500  1
  Cu  Cu34  1  0.86016900  0.55024500  0.85144600  1
  Cu  Cu35  1  0.14402100  0.55218100  0.15167200  1
  Cu  Cu36  1  0.95316700  0.64015400  0.34960700  1
  Cu  Cu37  1  0.04879700  0.64645300  0.65610600  1
  Cu  Cu38  1  0.36095700  0.64995100  0.95179900  1
  Cu  Cu39  1  0.64645300  0.65610600  0.04879700  1
  Cu  Cu40  1  0.15132500  0.86131900  0.44747900  1
  Cu  Cu41  1  0.85144600  0.86016900  0.55024500  1
  Cu  Cu42  1  0.55024500  0.85144600  0.86016900  1
  Cu  Cu43  1  0.44842000  0.84987700  0.14237000  1
  Cu  Cu44  1  0.93826800  0.93485100  0.11189000  1
  Cu  Cu45  1  0.11189000  0.93826800  0.93485100  1
  Cu  Cu46  1  0.34960700  0.95316700  0.64015400  1
  Cu  Cu47  1  0.64995100  0.95179900  0.36095700  1
