# generated using pymatgen
data_Cu3(Ni5C)4
_symmetry_space_group_name_H-M   'P 1'
_cell_length_a   10.90699300
_cell_length_b   10.90699300
_cell_length_c   10.90699300
_cell_angle_alpha   90.00000000
_cell_angle_beta   90.00000000
_cell_angle_gamma   90.00000000
_symmetry_Int_Tables_number   1
_chemical_formula_structural   Cu3(Ni5C)4
_chemical_formula_sum   'Cu6 Ni40 C8'
_cell_volume   1297.52311443
_cell_formula_units_Z   2
loop_
 _symmetry_equiv_pos_site_id
 _symmetry_equiv_pos_as_xyz
  1  'x, y, z'
loop_
 _atom_site_type_symbol
 _atom_site_label
 _atom_site_symmetry_multiplicity
 _atom_site_fract_x
 _atom_site_fract_y
 _atom_site_fract_z
 _atom_site_occupancy
  C  C0  1  0.00000000  0.00000000  0.00000000  1
  C  C1  1  0.50000000  0.50000000  0.50000000  1
  C  C2  1  0.25000000  0.50000000  0.00000000  1
  C  C3  1  0.75000000  0.50000000  0.00000000  1
  C  C4  1  0.50000000  0.00000000  0.25000000  1
  C  C5  1  0.50000000  0.00000000  0.75000000  1
  C  C6  1  0.00000000  0.75000000  0.50000000  1
  C  C7  1  0.00000000  0.25000000  0.50000000  1
  Ni  Ni8  1  0.18302000  0.18302000  0.18302000  1
  Ni  Ni9  1  0.68302000  0.31698000  0.68302000  1
  Ni  Ni10  1  0.68302000  0.68302000  0.31698000  1
  Ni  Ni11  1  0.31698000  0.68302000  0.68302000  1
  Ni  Ni12  1  0.81698000  0.81698000  0.18302000  1
  Ni  Ni13  1  0.18302000  0.81698000  0.81698000  1
  Ni  Ni14  1  0.81698000  0.18302000  0.81698000  1
  Ni  Ni15  1  0.31698000  0.31698000  0.31698000  1
  Ni  Ni16  1  0.81698000  0.81698000  0.81698000  1
  Ni  Ni17  1  0.31698000  0.68302000  0.31698000  1
  Ni  Ni18  1  0.31698000  0.31698000  0.68302000  1
  Ni  Ni19  1  0.68302000  0.31698000  0.31698000  1
  Ni  Ni20  1  0.18302000  0.18302000  0.81698000  1
  Ni  Ni21  1  0.81698000  0.18302000  0.18302000  1
  Ni  Ni22  1  0.18302000  0.81698000  0.18302000  1
  Ni  Ni23  1  0.68302000  0.68302000  0.68302000  1
  Ni  Ni24  1  0.00000000  0.31458700  0.11902400  1
  Ni  Ni25  1  0.50000000  0.38097600  0.81458700  1
  Ni  Ni26  1  0.50000000  0.61902400  0.18541300  1
  Ni  Ni27  1  0.61902400  0.81458700  0.50000000  1
  Ni  Ni28  1  0.38097600  0.81458700  0.50000000  1
  Ni  Ni29  1  0.18541300  0.50000000  0.61902400  1
  Ni  Ni30  1  0.81458700  0.50000000  0.61902400  1
  Ni  Ni31  1  0.11902400  0.00000000  0.31458700  1
  Ni  Ni32  1  0.31458700  0.11902400  0.00000000  1
  Ni  Ni33  1  0.68541300  0.88097600  0.00000000  1
  Ni  Ni34  1  0.11902400  0.00000000  0.68541300  1
  Ni  Ni35  1  0.68541300  0.11902400  0.00000000  1
  Ni  Ni36  1  0.88097600  0.00000000  0.31458700  1
  Ni  Ni37  1  0.88097600  0.00000000  0.68541300  1
  Ni  Ni38  1  0.31458700  0.88097600  0.00000000  1
  Ni  Ni39  1  0.00000000  0.68541300  0.88097600  1
  Ni  Ni40  1  0.00000000  0.31458700  0.88097600  1
  Ni  Ni41  1  0.00000000  0.68541300  0.11902400  1
  Ni  Ni42  1  0.81458700  0.50000000  0.38097600  1
  Ni  Ni43  1  0.18541300  0.50000000  0.38097600  1
  Ni  Ni44  1  0.61902400  0.18541300  0.50000000  1
  Ni  Ni45  1  0.38097600  0.18541300  0.50000000  1
  Ni  Ni46  1  0.50000000  0.61902400  0.81458700  1
  Ni  Ni47  1  0.50000000  0.38097600  0.18541300  1
  Cu  Cu48  1  0.25000000  0.00000000  0.50000000  1
  Cu  Cu49  1  0.75000000  0.00000000  0.50000000  1
  Cu  Cu50  1  0.00000000  0.50000000  0.25000000  1
  Cu  Cu51  1  0.00000000  0.50000000  0.75000000  1
  Cu  Cu52  1  0.50000000  0.75000000  0.00000000  1
  Cu  Cu53  1  0.50000000  0.25000000  0.00000000  1
