# generated using pymatgen
data_Cu6NiC9
_symmetry_space_group_name_H-M   'P 1'
_cell_length_a   9.26666013
_cell_length_b   9.26666013
_cell_length_c   9.26666013
_cell_angle_alpha   122.01327551
_cell_angle_beta   122.01327551
_cell_angle_gamma   86.54689992
_symmetry_Int_Tables_number   1
_chemical_formula_structural   Cu6NiC9
_chemical_formula_sum   'Cu6 Ni1 C9'
_cell_volume   544.47249427
_cell_formula_units_Z   1
loop_
 _symmetry_equiv_pos_site_id
 _symmetry_equiv_pos_as_xyz
  1  'x, y, z'
loop_
 _atom_site_type_symbol
 _atom_site_label
 _atom_site_symmetry_multiplicity
 _atom_site_fract_x
 _atom_site_fract_y
 _atom_site_fract_z
 _atom_site_occupancy
  C  C0  1  0.98868600  0.48876800  0.79337400  1
  C  C1  1  0.80468800  0.01131400  0.50008200  1
  C  C2  1  0.00000000  0.00000000  0.00000000  1
  C  C3  1  0.69539500  0.19531200  0.20662600  1
  C  C4  1  0.51123200  0.30460500  0.49991800  1
  C  C5  1  0.48876800  0.69539500  0.50008200  1
  C  C6  1  0.30460500  0.80468800  0.79337400  1
  C  C7  1  0.19531200  0.98868600  0.49991800  1
  C  C8  1  0.01131400  0.51123200  0.20662600  1
  Ni  Ni9  1  0.50000000  0.50000000  0.00000000  1
  Cu  Cu10  1  0.73887900  0.73887900  0.00000000  1
  Cu  Cu11  1  0.82635300  0.65197100  0.47832400  1
  Cu  Cu12  1  0.65197100  0.17364700  0.82561800  1
  Cu  Cu13  1  0.26112100  0.26112100  0.00000000  1
  Cu  Cu14  1  0.34802900  0.82635300  0.17438200  1
  Cu  Cu15  1  0.17364700  0.34802900  0.52167600  1
