# generated using pymatgen
data_Cu3Ni2
_symmetry_space_group_name_H-M   'P 1'
_cell_length_a   4.44949024
_cell_length_b   4.44949024
_cell_length_c   10.69668056
_cell_angle_alpha   77.99573289
_cell_angle_beta   77.99573289
_cell_angle_gamma   59.99999644
_symmetry_Int_Tables_number   1
_chemical_formula_structural   Cu3Ni2
_chemical_formula_sum   'Cu3 Ni2'
_cell_volume   178.03283667
_cell_formula_units_Z   1
loop_
 _symmetry_equiv_pos_site_id
 _symmetry_equiv_pos_as_xyz
  1  'x, y, z'
loop_
 _atom_site_type_symbol
 _atom_site_label
 _atom_site_symmetry_multiplicity
 _atom_site_fract_x
 _atom_site_fract_y
 _atom_site_fract_z
 _atom_site_occupancy
  Ni  Ni0  1  0.39925700  0.39925700  0.80222900  1
  Ni  Ni1  1  0.60074300  0.60074300  0.19777100  1
  Cu  Cu2  1  0.21184400  0.21184400  0.36446800  1
  Cu  Cu3  1  0.00000000  0.00000000  0.00000000  1
  Cu  Cu4  1  0.78815600  0.78815600  0.63553200  1
