# generated using pymatgen
data_Cu3(NiC9)2
_symmetry_space_group_name_H-M   'P 1'
_cell_length_a   8.69836300
_cell_length_b   9.45132200
_cell_length_c   10.38718164
_cell_angle_alpha   59.58307423
_cell_angle_beta   90.00000000
_cell_angle_gamma   90.00000000
_symmetry_Int_Tables_number   1
_chemical_formula_structural   Cu3(NiC9)2
_chemical_formula_sum   'Cu6 Ni4 C36'
_cell_volume   736.40801048
_cell_formula_units_Z   2
loop_
 _symmetry_equiv_pos_site_id
 _symmetry_equiv_pos_as_xyz
  1  'x, y, z'
loop_
 _atom_site_type_symbol
 _atom_site_label
 _atom_site_symmetry_multiplicity
 _atom_site_fract_x
 _atom_site_fract_y
 _atom_site_fract_z
 _atom_site_occupancy
  Ni  Ni0  1  0.87574600  0.14105100  0.71552100  1
  Ni  Ni1  1  0.37574600  0.85894900  0.78447900  1
  Ni  Ni2  1  0.12425400  0.85894900  0.28447900  1
  Ni  Ni3  1  0.62425400  0.14105100  0.21552100  1
  Cu  Cu4  1  0.50000000  0.50000000  0.50000000  1
  Cu  Cu5  1  0.00000000  0.50000000  0.00000000  1
  Cu  Cu6  1  0.16799100  0.33860000  0.36733900  1
  Cu  Cu7  1  0.66799100  0.66140000  0.13266100  1
  Cu  Cu8  1  0.83200900  0.66140000  0.63266100  1
  Cu  Cu9  1  0.33200900  0.33860000  0.86733900  1
  C  C10  1  0.05234600  0.06271800  0.83829000  1
  C  C11  1  0.55234600  0.93728200  0.66171000  1
  C  C12  1  0.94765400  0.93728200  0.16171000  1
  C  C13  1  0.44765400  0.06271800  0.33829000  1
  C  C14  1  0.89658600  0.97911200  0.66012800  1
  C  C15  1  0.39658600  0.02088800  0.83987200  1
  C  C16  1  0.20856000  0.40814900  0.69206900  1
  C  C17  1  0.70856000  0.59185100  0.80793100  1
  C  C18  1  0.79144000  0.59185100  0.30793100  1
  C  C19  1  0.29144000  0.40814900  0.19206900  1
  C  C20  1  0.51317500  0.35966600  0.74004500  1
  C  C21  1  0.01317500  0.64033400  0.75995500  1
  C  C22  1  0.48682500  0.64033400  0.25995500  1
  C  C23  1  0.98682500  0.35966600  0.24004500  1
  C  C24  1  0.14534100  0.32058800  0.98812200  1
  C  C25  1  0.64534100  0.67941200  0.51187800  1
  C  C26  1  0.85465900  0.67941200  0.01187800  1
  C  C27  1  0.35465900  0.32058800  0.48812200  1
  C  C28  1  0.10341400  0.02088800  0.33987200  1
  C  C29  1  0.60341400  0.97911200  0.16012800  1
  C  C30  1  0.72032800  0.24982700  0.56699300  1
  C  C31  1  0.22032800  0.75017300  0.93300700  1
  C  C32  1  0.47077700  0.28625400  0.04371500  1
  C  C33  1  0.97077700  0.71374600  0.45628500  1
  C  C34  1  0.52922300  0.71374600  0.95628500  1
  C  C35  1  0.02922300  0.28625400  0.54371500  1
  C  C36  1  0.76490700  0.01950800  0.37306700  1
  C  C37  1  0.26490700  0.98049200  0.12693300  1
  C  C38  1  0.23509300  0.98049200  0.62693300  1
  C  C39  1  0.73509300  0.01950800  0.87306700  1
  C  C40  1  0.62835200  0.32759100  0.24170800  1
  C  C41  1  0.12835200  0.67240900  0.25829200  1
  C  C42  1  0.37164800  0.67240900  0.75829200  1
  C  C43  1  0.87164800  0.32759100  0.74170800  1
  C  C44  1  0.77967200  0.24982700  0.06699300  1
  C  C45  1  0.27967200  0.75017300  0.43300700  1
