# generated using pymatgen
data_Cu13(Ni8C9)4
_symmetry_space_group_name_H-M   'P 1'
_cell_length_a   12.58802219
_cell_length_b   12.58802219
_cell_length_c   12.58802219
_cell_angle_alpha   109.47122063
_cell_angle_beta   109.47122063
_cell_angle_gamma   109.47122063
_symmetry_Int_Tables_number   1
_chemical_formula_structural   Cu13(Ni8C9)4
_chemical_formula_sum   'Cu13 Ni32 C36'
_cell_volume   1535.50278574
_cell_formula_units_Z   1
loop_
 _symmetry_equiv_pos_site_id
 _symmetry_equiv_pos_as_xyz
  1  'x, y, z'
loop_
 _atom_site_type_symbol
 _atom_site_label
 _atom_site_symmetry_multiplicity
 _atom_site_fract_x
 _atom_site_fract_y
 _atom_site_fract_z
 _atom_site_occupancy
  Ni  Ni0  1  0.37582100  0.37582100  0.37582100  1
  Ni  Ni1  1  0.40282700  0.50000000  0.90282700  1
  Ni  Ni2  1  0.50000000  0.90282700  0.40282700  1
  Ni  Ni3  1  0.90282700  0.40282700  0.50000000  1
  Ni  Ni4  1  0.50000000  0.09717300  0.59717300  1
  Ni  Ni5  1  0.09717300  0.59717300  0.50000000  1
  Ni  Ni6  1  0.59717300  0.50000000  0.09717300  1
  Ni  Ni7  1  0.19733200  0.50000000  0.69733200  1
  Ni  Ni8  1  0.50000000  0.69733200  0.19733200  1
  Ni  Ni9  1  0.69733200  0.19733200  0.50000000  1
  Ni  Ni10  1  0.50000000  0.30266800  0.80266800  1
  Ni  Ni11  1  0.30266800  0.80266800  0.50000000  1
  Ni  Ni12  1  0.80266800  0.50000000  0.30266800  1
  Ni  Ni13  1  0.00000000  0.62417900  0.00000000  1
  Ni  Ni14  1  0.62417900  0.00000000  0.00000000  1
  Ni  Ni15  1  0.00000000  0.00000000  0.62417900  1
  Ni  Ni16  1  0.30510500  0.42150600  0.11640100  1
  Ni  Ni17  1  0.00000000  0.37582100  0.00000000  1
  Ni  Ni18  1  0.37582100  0.00000000  0.00000000  1
  Ni  Ni19  1  0.00000000  0.00000000  0.37582100  1
  Ni  Ni20  1  0.62417900  0.62417900  0.62417900  1
  Ni  Ni21  1  0.69489500  0.81129500  0.11640100  1
  Ni  Ni22  1  0.30510500  0.18870500  0.88359900  1
  Ni  Ni23  1  0.18870500  0.88359900  0.30510500  1
  Ni  Ni24  1  0.11640100  0.69489500  0.81129500  1
  Ni  Ni25  1  0.88359900  0.30510500  0.18870500  1
  Ni  Ni26  1  0.42150600  0.11640100  0.30510500  1
  Ni  Ni27  1  0.11640100  0.30510500  0.42150600  1
  Ni  Ni28  1  0.81129500  0.11640100  0.69489500  1
  Ni  Ni29  1  0.88359900  0.69489500  0.57849400  1
  Ni  Ni30  1  0.57849400  0.88359900  0.69489500  1
  Ni  Ni31  1  0.69489500  0.57849400  0.88359900  1
  C  C32  1  0.64976000  0.40613200  0.43557900  1
  C  C33  1  0.35024000  0.78581900  0.75637100  1
  C  C34  1  0.97055200  0.21418100  0.56442100  1
  C  C35  1  0.21418100  0.56442100  0.97055200  1
  C  C36  1  0.75637100  0.35024000  0.78581900  1
  C  C37  1  0.56442100  0.97055200  0.21418100  1
  C  C38  1  0.40613200  0.43557900  0.64976000  1
  C  C39  1  0.43557900  0.64976000  0.40613200  1
  C  C40  1  0.78581900  0.75637100  0.35024000  1
  C  C41  1  0.24362900  0.02944800  0.59386800  1
  C  C42  1  0.59386800  0.24362900  0.02944800  1
  C  C43  1  0.02944800  0.59386800  0.24362900  1
  C  C44  1  0.35024000  0.59386800  0.56442100  1
  C  C45  1  0.90149800  0.05937900  0.15788100  1
  C  C46  1  0.09850200  0.94062100  0.84211900  1
  C  C47  1  0.94062100  0.84211900  0.09850200  1
  C  C48  1  0.15788100  0.90149800  0.05937900  1
  C  C49  1  0.84211900  0.09850200  0.94062100  1
  C  C50  1  0.25638300  0.15788100  0.09850200  1
  C  C51  1  0.15788100  0.09850200  0.25638300  1
  C  C52  1  0.05937900  0.15788100  0.90149800  1
  C  C53  1  0.84211900  0.90149800  0.74361700  1
  C  C54  1  0.74361700  0.84211900  0.90149800  1
  C  C55  1  0.90149800  0.74361700  0.84211900  1
  C  C56  1  0.09850200  0.25638300  0.15788100  1
  C  C57  1  0.97055200  0.40613200  0.75637100  1
  C  C58  1  0.40613200  0.75637100  0.97055200  1
  C  C59  1  0.75637100  0.97055200  0.40613200  1
  C  C60  1  0.64976000  0.21418100  0.24362900  1
  C  C61  1  0.56442100  0.35024000  0.59386800  1
  C  C62  1  0.59386800  0.56442100  0.35024000  1
  C  C63  1  0.43557900  0.02944800  0.78581900  1
  C  C64  1  0.24362900  0.64976000  0.21418100  1
  C  C65  1  0.78581900  0.43557900  0.02944800  1
  C  C66  1  0.02944800  0.78581900  0.43557900  1
  C  C67  1  0.21418100  0.24362900  0.64976000  1
  Cu  Cu68  1  0.17625300  0.49098700  0.31473400  1
  Cu  Cu69  1  0.82374700  0.13848200  0.31473400  1
  Cu  Cu70  1  0.17625300  0.86151800  0.68526600  1
  Cu  Cu71  1  0.86151800  0.68526600  0.17625300  1
  Cu  Cu72  1  0.31473400  0.82374700  0.13848200  1
  Cu  Cu73  1  0.68526600  0.17625300  0.86151800  1
  Cu  Cu74  1  0.49098700  0.31473400  0.17625300  1
  Cu  Cu75  1  0.31473400  0.17625300  0.49098700  1
  Cu  Cu76  1  0.13848200  0.31473400  0.82374700  1
  Cu  Cu77  1  0.68526600  0.82374700  0.50901300  1
  Cu  Cu78  1  0.50901300  0.68526600  0.82374700  1
  Cu  Cu79  1  0.82374700  0.50901300  0.68526600  1
  Cu  Cu80  1  0.00000000  0.00000000  0.00000000  1
