# generated using pymatgen
data_Cu4NiC2
_symmetry_space_group_name_H-M   'P 1'
_cell_length_a   6.55179981
_cell_length_b   6.55179981
_cell_length_c   10.45055500
_cell_angle_alpha   90.00000000
_cell_angle_beta   90.00000000
_cell_angle_gamma   110.17982972
_symmetry_Int_Tables_number   1
_chemical_formula_structural   Cu4NiC2
_chemical_formula_sum   'Cu8 Ni2 C4'
_cell_volume   421.06375882
_cell_formula_units_Z   2
loop_
 _symmetry_equiv_pos_site_id
 _symmetry_equiv_pos_as_xyz
  1  'x, y, z'
loop_
 _atom_site_type_symbol
 _atom_site_label
 _atom_site_symmetry_multiplicity
 _atom_site_fract_x
 _atom_site_fract_y
 _atom_site_fract_z
 _atom_site_occupancy
  C  C0  1  0.36525600  0.74547600  0.25000000  1
  C  C1  1  0.74547600  0.36525600  0.75000000  1
  C  C2  1  0.00003000  0.00003000  0.50000000  1
  C  C3  1  0.00003000  0.00003000  0.00000000  1
  Ni  Ni4  1  0.31158100  0.76307400  0.75000000  1
  Ni  Ni5  1  0.76307400  0.31158100  0.25000000  1
  Cu  Cu6  1  0.11156500  0.26338600  0.25000000  1
  Cu  Cu7  1  0.26338600  0.11156500  0.75000000  1
  Cu  Cu8  1  0.83905500  0.69821300  0.25000000  1
  Cu  Cu9  1  0.69821300  0.83905500  0.75000000  1
  Cu  Cu10  1  0.57587300  0.13519400  0.43822400  1
  Cu  Cu11  1  0.13519400  0.57587300  0.56177600  1
  Cu  Cu12  1  0.57587300  0.13519400  0.06177600  1
  Cu  Cu13  1  0.13519400  0.57587300  0.93822400  1
