# generated using pymatgen
data_Cu2Ni3C4
_symmetry_space_group_name_H-M   'P 1'
_cell_length_a   3.95289000
_cell_length_b   6.98603968
_cell_length_c   8.21473536
_cell_angle_alpha   85.63438888
_cell_angle_beta   76.07819053
_cell_angle_gamma   73.56583074
_symmetry_Int_Tables_number   1
_chemical_formula_structural   Cu2Ni3C4
_chemical_formula_sum   'Cu2 Ni3 C4'
_cell_volume   211.18303530
_cell_formula_units_Z   1
loop_
 _symmetry_equiv_pos_site_id
 _symmetry_equiv_pos_as_xyz
  1  'x, y, z'
loop_
 _atom_site_type_symbol
 _atom_site_label
 _atom_site_symmetry_multiplicity
 _atom_site_fract_x
 _atom_site_fract_y
 _atom_site_fract_z
 _atom_site_occupancy
  C  C0  1  0.44225300  0.26651100  0.84898300  1
  C  C1  1  0.55774700  0.73348900  0.15101700  1
  C  C2  1  0.75594900  0.12747200  0.36063000  1
  C  C3  1  0.24405100  0.87252800  0.63937000  1
  Ni  Ni4  1  0.83477300  0.55859200  0.77186200  1
  Ni  Ni5  1  0.00000000  0.00000000  0.00000000  1
  Ni  Ni6  1  0.16522700  0.44140800  0.22813800  1
  Cu  Cu7  1  0.35115300  0.93546100  0.36223300  1
  Cu  Cu8  1  0.64884700  0.06453800  0.63776800  1
