# generated using pymatgen
data_CuNi3
_symmetry_space_group_name_H-M   'P 1'
_cell_length_a   5.13952500
_cell_length_b   6.31145890
_cell_length_c   6.31145800
_cell_angle_alpha   60.00000471
_cell_angle_beta   90.00000000
_cell_angle_gamma   90.00000000
_symmetry_Int_Tables_number   1
_chemical_formula_structural   CuNi3
_chemical_formula_sum   'Cu2 Ni6'
_cell_volume   177.30177771
_cell_formula_units_Z   2
loop_
 _symmetry_equiv_pos_site_id
 _symmetry_equiv_pos_as_xyz
  1  'x, y, z'
loop_
 _atom_site_type_symbol
 _atom_site_label
 _atom_site_symmetry_multiplicity
 _atom_site_fract_x
 _atom_site_fract_y
 _atom_site_fract_z
 _atom_site_occupancy
  Ni  Ni0  1  0.75000000  0.66482200  0.16758900  1
  Ni  Ni1  1  0.75000000  0.16758800  0.16758900  1
  Ni  Ni2  1  0.75000000  0.16758800  0.66482300  1
  Ni  Ni3  1  0.25000000  0.33517800  0.83241100  1
  Ni  Ni4  1  0.25000000  0.83241200  0.83241100  1
  Ni  Ni5  1  0.25000000  0.83241200  0.33517700  1
  Cu  Cu6  1  0.75000000  0.66666600  0.66666700  1
  Cu  Cu7  1  0.25000000  0.33333400  0.33333300  1
