# generated using pymatgen
data_CuNi2
_symmetry_space_group_name_H-M   'P 1'
_cell_length_a   7.07814868
_cell_length_b   7.07814868
_cell_length_c   7.07814868
_cell_angle_alpha   156.66155926
_cell_angle_beta   156.66155926
_cell_angle_gamma   33.24211616
_symmetry_Int_Tables_number   1
_chemical_formula_structural   CuNi2
_chemical_formula_sum   'Cu1 Ni2'
_cell_volume   55.60430148
_cell_formula_units_Z   1
loop_
 _symmetry_equiv_pos_site_id
 _symmetry_equiv_pos_as_xyz
  1  'x, y, z'
loop_
 _atom_site_type_symbol
 _atom_site_label
 _atom_site_symmetry_multiplicity
 _atom_site_fract_x
 _atom_site_fract_y
 _atom_site_fract_z
 _atom_site_occupancy
  Ni  Ni0  1  0.67792200  0.67792200  0.00000000  1
  Ni  Ni1  1  0.32207800  0.32207800  0.00000000  1
  Cu  Cu2  1  0.00000000  0.00000000  0.00000000  1
