# generated using pymatgen
data_CuNi3C19
_symmetry_space_group_name_H-M   'P 1'
_cell_length_a   6.67920463
_cell_length_b   6.67920463
_cell_length_c   6.67920509
_cell_angle_alpha   109.55951019
_cell_angle_beta   109.55951019
_cell_angle_gamma   109.55950272
_symmetry_Int_Tables_number   1
_chemical_formula_structural   CuNi3C19
_chemical_formula_sum   'Cu1 Ni3 C19'
_cell_volume   228.62547813
_cell_formula_units_Z   1
loop_
 _symmetry_equiv_pos_site_id
 _symmetry_equiv_pos_as_xyz
  1  'x, y, z'
loop_
 _atom_site_type_symbol
 _atom_site_label
 _atom_site_symmetry_multiplicity
 _atom_site_fract_x
 _atom_site_fract_y
 _atom_site_fract_z
 _atom_site_occupancy
  Ni  Ni0  1  0.99966900  0.99966900  0.33375700  1
  Ni  Ni1  1  0.33375700  0.99966900  0.99966900  1
  Ni  Ni2  1  0.99966900  0.33375700  0.99966900  1
  Cu  Cu3  1  0.65283500  0.65283500  0.65283500  1
  C  C4  1  0.24872000  0.75076700  0.50271600  1
  C  C5  1  0.24872000  0.50271600  0.75076700  1
  C  C6  1  0.50271600  0.75076700  0.24872000  1
  C  C7  1  0.50271600  0.24872000  0.75076700  1
  C  C8  1  0.75076700  0.50271600  0.24872000  1
  C  C9  1  0.75076700  0.24872000  0.50271600  1
  C  C10  1  0.99229000  0.99229000  0.99229000  1
  C  C11  1  0.00040000  0.56988000  0.28659100  1
  C  C12  1  0.43104600  0.70735600  0.43104600  1
  C  C13  1  0.29375700  0.72021300  0.72021300  1
  C  C14  1  0.28659100  0.00040000  0.56988000  1
  C  C15  1  0.28659100  0.56988000  0.00040000  1
  C  C16  1  0.43104600  0.43104600  0.70735600  1
  C  C17  1  0.72021300  0.29375700  0.72021300  1
  C  C18  1  0.56988000  0.00040000  0.28659100  1
  C  C19  1  0.56988000  0.28659100  0.00040000  1
  C  C20  1  0.70735600  0.43104600  0.43104600  1
  C  C21  1  0.72021300  0.72021300  0.29375700  1
  C  C22  1  0.00040000  0.28659100  0.56988000  1
