# generated using pymatgen
data_Cu18NiC6
_symmetry_space_group_name_H-M   'P 1'
_cell_length_a   9.40841131
_cell_length_b   9.40841131
_cell_length_c   18.33670100
_cell_angle_alpha   90.00000000
_cell_angle_beta   90.00000000
_cell_angle_gamma   119.99999512
_symmetry_Int_Tables_number   1
_chemical_formula_structural   Cu18NiC6
_chemical_formula_sum   'Cu36 Ni2 C12'
_cell_volume   1405.67346503
_cell_formula_units_Z   2
loop_
 _symmetry_equiv_pos_site_id
 _symmetry_equiv_pos_as_xyz
  1  'x, y, z'
loop_
 _atom_site_type_symbol
 _atom_site_label
 _atom_site_symmetry_multiplicity
 _atom_site_fract_x
 _atom_site_fract_y
 _atom_site_fract_z
 _atom_site_occupancy
  C  C0  1  0.51066500  0.15327300  0.83027900  1
  C  C1  1  0.84672700  0.35739100  0.83027900  1
  C  C2  1  0.64260900  0.48933500  0.83027900  1
  C  C3  1  0.48933500  0.64260900  0.16972100  1
  C  C4  1  0.64260900  0.48933500  0.66972100  1
  C  C5  1  0.51066500  0.15327300  0.66972100  1
  C  C6  1  0.84672700  0.35739100  0.66972100  1
  C  C7  1  0.15327300  0.51066500  0.33027900  1
  C  C8  1  0.35739100  0.84672700  0.33027900  1
  C  C9  1  0.35739100  0.84672700  0.16972100  1
  C  C10  1  0.15327300  0.51066500  0.16972100  1
  C  C11  1  0.48933500  0.64260900  0.33027900  1
  Ni  Ni12  1  0.66666700  0.33333300  0.75000000  1
  Ni  Ni13  1  0.33333300  0.66666700  0.25000000  1
  Cu  Cu14  1  0.69600200  0.14203700  0.91682300  1
  Cu  Cu15  1  0.85796300  0.55396400  0.91682300  1
  Cu  Cu16  1  0.44603600  0.30399800  0.91682300  1
  Cu  Cu17  1  0.30399800  0.44603600  0.08317700  1
  Cu  Cu18  1  0.44603600  0.30399800  0.58317700  1
  Cu  Cu19  1  0.69600200  0.14203700  0.58317700  1
  Cu  Cu20  1  0.85796300  0.55396400  0.58317700  1
  Cu  Cu21  1  0.14203700  0.69600200  0.41682300  1
  Cu  Cu22  1  0.55396400  0.85796300  0.41682300  1
  Cu  Cu23  1  0.55396400  0.85796300  0.08317700  1
  Cu  Cu24  1  0.47366800  0.42852600  0.25000000  1
  Cu  Cu25  1  0.95485900  0.52633200  0.25000000  1
  Cu  Cu26  1  0.57147400  0.04514100  0.25000000  1
  Cu  Cu27  1  0.04514100  0.57147400  0.75000000  1
  Cu  Cu28  1  0.52633200  0.95485900  0.75000000  1
  Cu  Cu29  1  0.42852600  0.47366800  0.75000000  1
  Cu  Cu30  1  0.71445100  0.82578000  0.25000000  1
  Cu  Cu31  1  0.11132900  0.28554900  0.25000000  1
  Cu  Cu32  1  0.17422000  0.88867100  0.25000000  1
  Cu  Cu33  1  0.88867100  0.17422000  0.75000000  1
  Cu  Cu34  1  0.28554900  0.11132900  0.75000000  1
  Cu  Cu35  1  0.82578000  0.71445100  0.75000000  1
  Cu  Cu36  1  0.69680600  0.61151300  0.39206400  1
  Cu  Cu37  1  0.91470700  0.30319400  0.10793600  1
  Cu  Cu38  1  0.38848700  0.08529300  0.10793600  1
  Cu  Cu39  1  0.38848700  0.08529300  0.39206400  1
  Cu  Cu40  1  0.91470700  0.30319400  0.39206400  1
  Cu  Cu41  1  0.08529300  0.38848700  0.60793600  1
  Cu  Cu42  1  0.30319400  0.91470700  0.60793600  1
  Cu  Cu43  1  0.61151300  0.69680600  0.60793600  1
  Cu  Cu44  1  0.69680600  0.61151300  0.10793600  1
  Cu  Cu45  1  0.61151300  0.69680600  0.89206400  1
  Cu  Cu46  1  0.08529300  0.38848700  0.89206400  1
  Cu  Cu47  1  0.30319400  0.91470700  0.89206400  1
  Cu  Cu48  1  0.30399800  0.44603600  0.41682300  1
  Cu  Cu49  1  0.14203700  0.69600200  0.08317700  1
