# generated using pymatgen
data_Cu7Ni45
_symmetry_space_group_name_H-M   'P 1'
_cell_length_a   10.97133673
_cell_length_b   10.97133673
_cell_length_c   10.92766150
_cell_angle_alpha   73.73510682
_cell_angle_beta   73.73510682
_cell_angle_gamma   40.31091484
_symmetry_Int_Tables_number   1
_chemical_formula_structural   Cu7Ni45
_chemical_formula_sum   'Cu7 Ni45'
_cell_volume   812.20057252
_cell_formula_units_Z   1
loop_
 _symmetry_equiv_pos_site_id
 _symmetry_equiv_pos_as_xyz
  1  'x, y, z'
loop_
 _atom_site_type_symbol
 _atom_site_label
 _atom_site_symmetry_multiplicity
 _atom_site_fract_x
 _atom_site_fract_y
 _atom_site_fract_z
 _atom_site_occupancy
  Ni  Ni0  1  0.50000000  0.50000000  0.50000000  1
  Ni  Ni1  1  0.38492100  0.38492100  0.22918100  1
  Ni  Ni2  1  0.61507900  0.61507900  0.77081900  1
  Ni  Ni3  1  0.70757800  0.70757800  0.51397900  1
  Ni  Ni4  1  0.29242200  0.29242200  0.48602100  1
  Ni  Ni5  1  0.62594400  0.62594400  0.36591500  1
  Ni  Ni6  1  0.37405600  0.37405600  0.63408500  1
  Ni  Ni7  1  0.47794700  0.47794700  0.75634900  1
  Ni  Ni8  1  0.52205300  0.52205300  0.24365100  1
  Ni  Ni9  1  0.91943200  0.91943200  0.43962000  1
  Ni  Ni10  1  0.08056800  0.08056800  0.56038000  1
  Ni  Ni11  1  0.87151500  0.87151500  0.11213300  1
  Ni  Ni12  1  0.12848500  0.12848500  0.88786700  1
  Ni  Ni13  1  0.90961300  0.90961300  0.84257500  1
  Ni  Ni14  1  0.09038700  0.09038700  0.15742500  1
  Ni  Ni15  1  0.77602000  0.77602000  0.99061400  1
  Ni  Ni16  1  0.22398000  0.22398000  0.00938600  1
  Ni  Ni17  1  0.00516900  0.63143400  0.35492200  1
  Ni  Ni18  1  0.36856600  0.99483100  0.64507800  1
  Ni  Ni19  1  0.99483100  0.36856600  0.64507800  1
  Ni  Ni20  1  0.63143400  0.00516900  0.35492200  1
  Ni  Ni21  1  0.24837800  0.61305900  0.99022400  1
  Ni  Ni22  1  0.38694100  0.75162200  0.00977600  1
  Ni  Ni23  1  0.75162200  0.38694100  0.00977600  1
  Ni  Ni24  1  0.61305900  0.24837800  0.99022400  1
  Ni  Ni25  1  0.22435100  0.84743700  0.79485400  1
  Ni  Ni26  1  0.15256300  0.77564900  0.20514600  1
  Ni  Ni27  1  0.77564900  0.15256300  0.20514600  1
  Ni  Ni28  1  0.84743700  0.22435100  0.79485400  1
  Ni  Ni29  1  0.00450400  0.37505000  0.38090500  1
  Ni  Ni30  1  0.62495000  0.99549600  0.61909500  1
  Ni  Ni31  1  0.99549600  0.62495000  0.61909500  1
  Ni  Ni32  1  0.37505000  0.00450400  0.38090500  1
  Ni  Ni33  1  0.15104900  0.75777700  0.62175700  1
  Ni  Ni34  1  0.24222300  0.84895100  0.37824300  1
  Ni  Ni35  1  0.84895100  0.24222300  0.37824300  1
  Ni  Ni36  1  0.75777700  0.15104900  0.62175700  1
  Ni  Ni37  1  0.14152300  0.52763200  0.85476900  1
  Ni  Ni38  1  0.47236800  0.85847700  0.14523100  1
  Ni  Ni39  1  0.85847700  0.47236800  0.14523100  1
  Ni  Ni40  1  0.52763200  0.14152300  0.85476900  1
  Ni  Ni41  1  0.10613600  0.48089400  0.13430200  1
  Ni  Ni42  1  0.51910600  0.89386400  0.86569800  1
  Ni  Ni43  1  0.89386400  0.51910600  0.86569800  1
  Ni  Ni44  1  0.48089400  0.10613600  0.13430200  1
  Cu  Cu45  1  0.00000000  0.00000000  0.00000000  1
  Cu  Cu46  1  0.74979400  0.74979400  0.23827300  1
  Cu  Cu47  1  0.25020600  0.25020600  0.76172700  1
  Cu  Cu48  1  0.24009300  0.58950400  0.41788700  1
  Cu  Cu49  1  0.41049600  0.75990700  0.58211300  1
  Cu  Cu50  1  0.75990700  0.41049600  0.58211300  1
  Cu  Cu51  1  0.58950400  0.24009300  0.41788700  1
