# generated using pymatgen
data_Cu6Ni3C11
_symmetry_space_group_name_H-M   'P 1'
_cell_length_a   6.16251728
_cell_length_b   15.49986300
_cell_length_c   6.16250900
_cell_angle_alpha   90.00005746
_cell_angle_beta   120.00013048
_cell_angle_gamma   89.99985001
_symmetry_Int_Tables_number   1
_chemical_formula_structural   Cu6Ni3C11
_chemical_formula_sum   'Cu12 Ni6 C22'
_cell_volume   509.76925268
_cell_formula_units_Z   2
loop_
 _symmetry_equiv_pos_site_id
 _symmetry_equiv_pos_as_xyz
  1  'x, y, z'
loop_
 _atom_site_type_symbol
 _atom_site_label
 _atom_site_symmetry_multiplicity
 _atom_site_fract_x
 _atom_site_fract_y
 _atom_site_fract_z
 _atom_site_occupancy
  Ni  Ni0  1  0.00001600  0.25000500  0.99999900  1
  Ni  Ni1  1  0.66667700  0.78503400  0.33334100  1
  Ni  Ni2  1  0.33333900  0.71496700  0.66666500  1
  Ni  Ni3  1  0.00001000  0.75000000  0.00000900  1
  Ni  Ni4  1  0.66664700  0.28503200  0.33333100  1
  Ni  Ni5  1  0.33334000  0.21497000  0.66667400  1
  Cu  Cu6  1  0.15438200  0.42592800  0.84561600  1
  Cu  Cu7  1  0.15438300  0.92593000  0.84561600  1
  Cu  Cu8  1  0.69123000  0.42592900  0.84561500  1
  Cu  Cu9  1  0.69123200  0.92593000  0.84561400  1
  Cu  Cu10  1  0.15438400  0.42592900  0.30876600  1
  Cu  Cu11  1  0.15438300  0.92593000  0.30876500  1
  Cu  Cu12  1  0.84561500  0.07407100  0.69123300  1
  Cu  Cu13  1  0.84561500  0.57406900  0.69123300  1
  Cu  Cu14  1  0.30876500  0.07407000  0.15438500  1
  Cu  Cu15  1  0.30876600  0.57406900  0.15438200  1
  Cu  Cu16  1  0.84561700  0.07407100  0.15438300  1
  Cu  Cu17  1  0.84561500  0.57407000  0.15438000  1
  C  C18  1  0.33333100  0.34830600  0.66666400  1
  C  C19  1  0.33333200  0.84830600  0.66666700  1
  C  C20  1  0.66666500  0.15169300  0.33333100  1
  C  C21  1  0.66666700  0.65169400  0.33333100  1
  C  C22  1  0.49999800  0.00000100  0.99999900  1
  C  C23  1  0.50000200  0.49999900  0.00000400  1
  C  C24  1  0.49999800  0.00000200  0.49999800  1
  C  C25  1  0.49999800  0.49999800  0.49999800  1
  C  C26  1  0.99999800  0.00000200  0.49999900  1
  C  C27  1  0.00000100  0.49999800  0.50000000  1
  C  C28  1  0.84377000  0.34217100  0.15623200  1
  C  C29  1  0.84377100  0.84217500  0.15622700  1
  C  C30  1  0.31246300  0.34217300  0.15623000  1
  C  C31  1  0.31245900  0.84217500  0.15623000  1
  C  C32  1  0.84377000  0.34217200  0.68753900  1
  C  C33  1  0.84377200  0.84217600  0.68754400  1
  C  C34  1  0.15623000  0.15782600  0.31246000  1
  C  C35  1  0.15622400  0.65782500  0.31245500  1
  C  C36  1  0.68753900  0.15782700  0.84377100  1
  C  C37  1  0.68753800  0.65782500  0.84377100  1
  C  C38  1  0.15623000  0.15782700  0.84376900  1
  C  C39  1  0.15622700  0.65782400  0.84377200  1
