# generated using pymatgen
data_Cu8Ni2C13
_symmetry_space_group_name_H-M   'P 1'
_cell_length_a   7.70319265
_cell_length_b   7.70319265
_cell_length_c   14.97911673
_cell_angle_alpha   84.36470731
_cell_angle_beta   84.36470731
_cell_angle_gamma   87.84881779
_symmetry_Int_Tables_number   1
_chemical_formula_structural   Cu8Ni2C13
_chemical_formula_sum   'Cu16 Ni4 C26'
_cell_volume   879.92856244
_cell_formula_units_Z   2
loop_
 _symmetry_equiv_pos_site_id
 _symmetry_equiv_pos_as_xyz
  1  'x, y, z'
loop_
 _atom_site_type_symbol
 _atom_site_label
 _atom_site_symmetry_multiplicity
 _atom_site_fract_x
 _atom_site_fract_y
 _atom_site_fract_z
 _atom_site_occupancy
  Ni  Ni0  1  0.15704500  0.15704500  0.90290800  1
  Ni  Ni1  1  0.25225600  0.74774400  0.50000000  1
  Ni  Ni2  1  0.74774400  0.25225600  0.50000000  1
  Ni  Ni3  1  0.84295500  0.84295500  0.09709200  1
  Cu  Cu4  1  0.26004400  0.26004400  0.48141500  1
  Cu  Cu5  1  0.56550800  0.56550800  0.28409800  1
  Cu  Cu6  1  0.83794200  0.33096800  0.09865600  1
  Cu  Cu7  1  0.66903200  0.16205800  0.90134400  1
  Cu  Cu8  1  0.73995600  0.73995600  0.51858500  1
  Cu  Cu9  1  0.07583100  0.07583100  0.29933200  1
  Cu  Cu10  1  0.07927600  0.54244100  0.29452800  1
  Cu  Cu11  1  0.16205800  0.66903200  0.90134400  1
  Cu  Cu12  1  0.43449200  0.43449200  0.71590200  1
  Cu  Cu13  1  0.45755900  0.92072400  0.70547200  1
  Cu  Cu14  1  0.32562200  0.32562200  0.11654100  1
  Cu  Cu15  1  0.67437800  0.67437800  0.88345900  1
  Cu  Cu16  1  0.54244100  0.07927600  0.29452800  1
  Cu  Cu17  1  0.92072400  0.45755900  0.70547200  1
  Cu  Cu18  1  0.92416900  0.92416900  0.70066800  1
  Cu  Cu19  1  0.33096800  0.83794200  0.09865600  1
  C  C20  1  0.77086000  0.03653800  0.14028800  1
  C  C21  1  0.94209100  0.26449200  0.43169300  1
  C  C22  1  0.85854100  0.85854100  0.98110800  1
  C  C23  1  0.33049200  0.04672900  0.19377900  1
  C  C24  1  0.31121500  0.31121500  0.86367700  1
  C  C25  1  0.73550800  0.05790900  0.56830700  1
  C  C26  1  0.96346200  0.22914000  0.85971200  1
  C  C27  1  0.73050400  0.42278200  0.56836400  1
  C  C28  1  0.72791900  0.72791900  0.66734300  1
  C  C29  1  0.60924400  0.32824000  0.20912000  1
  C  C30  1  0.39075600  0.67176000  0.79088000  1
  C  C31  1  0.67176000  0.39075600  0.79088000  1
  C  C32  1  0.95327100  0.66950800  0.80622100  1
  C  C33  1  0.66950800  0.95327100  0.80622100  1
  C  C34  1  0.42278200  0.73050400  0.56836400  1
  C  C35  1  0.68878500  0.68878500  0.13632300  1
  C  C36  1  0.14145900  0.14145900  0.01889200  1
  C  C37  1  0.04672900  0.33049200  0.19377900  1
  C  C38  1  0.27208100  0.27208100  0.33265700  1
  C  C39  1  0.03653800  0.77086000  0.14028800  1
  C  C40  1  0.22914000  0.96346200  0.85971200  1
  C  C41  1  0.32824000  0.60924400  0.20912000  1
  C  C42  1  0.26949600  0.57721800  0.43163600  1
  C  C43  1  0.05790900  0.73550800  0.56830700  1
  C  C44  1  0.57721800  0.26949600  0.43163600  1
  C  C45  1  0.26449200  0.94209100  0.43169300  1
