# generated using pymatgen
data_Cu3(NiC4)2
_symmetry_space_group_name_H-M   'P 1'
_cell_length_a   7.24705188
_cell_length_b   7.24705188
_cell_length_c   7.57877900
_cell_angle_alpha   90.00000000
_cell_angle_beta   90.00000000
_cell_angle_gamma   119.99999894
_symmetry_Int_Tables_number   1
_chemical_formula_structural   Cu3(NiC4)2
_chemical_formula_sum   'Cu3 Ni2 C8'
_cell_volume   344.70899840
_cell_formula_units_Z   1
loop_
 _symmetry_equiv_pos_site_id
 _symmetry_equiv_pos_as_xyz
  1  'x, y, z'
loop_
 _atom_site_type_symbol
 _atom_site_label
 _atom_site_symmetry_multiplicity
 _atom_site_fract_x
 _atom_site_fract_y
 _atom_site_fract_z
 _atom_site_occupancy
  Ni  Ni0  1  0.66666700  0.33333300  0.68705200  1
  Ni  Ni1  1  0.33333300  0.66666700  0.31294800  1
  Cu  Cu2  1  0.50000000  0.50000000  0.00000000  1
  Cu  Cu3  1  0.00000000  0.50000000  0.00000000  1
  Cu  Cu4  1  0.50000000  0.00000000  0.00000000  1
  C  C5  1  0.18678100  0.81321900  0.17098700  1
  C  C6  1  0.33333300  0.66666700  0.56538600  1
  C  C7  1  0.66666700  0.33333300  0.43461400  1
  C  C8  1  0.81321900  0.18678100  0.82901300  1
  C  C9  1  0.81321900  0.62643800  0.82901300  1
  C  C10  1  0.37356200  0.18678100  0.82901300  1
  C  C11  1  0.62643800  0.81321900  0.17098700  1
  C  C12  1  0.18678100  0.37356200  0.17098700  1
