# generated using pymatgen
data_Cu4NiC
_symmetry_space_group_name_H-M   'P 1'
_cell_length_a   8.53191000
_cell_length_b   8.79132100
_cell_length_c   10.59780800
_cell_angle_alpha   90.00000000
_cell_angle_beta   90.00000000
_cell_angle_gamma   90.00000000
_symmetry_Int_Tables_number   1
_chemical_formula_structural   Cu4NiC
_chemical_formula_sum   'Cu32 Ni8 C8'
_cell_volume   794.90723645
_cell_formula_units_Z   8
loop_
 _symmetry_equiv_pos_site_id
 _symmetry_equiv_pos_as_xyz
  1  'x, y, z'
loop_
 _atom_site_type_symbol
 _atom_site_label
 _atom_site_symmetry_multiplicity
 _atom_site_fract_x
 _atom_site_fract_y
 _atom_site_fract_z
 _atom_site_occupancy
  C  C0  1  0.94643700  0.36619900  0.01590000  1
  C  C1  1  0.44643700  0.63380100  0.48410000  1
  C  C2  1  0.55356300  0.86619900  0.98410000  1
  C  C3  1  0.05356300  0.13380100  0.51590000  1
  C  C4  1  0.05356300  0.63380100  0.98410000  1
  C  C5  1  0.55356300  0.36619900  0.51590000  1
  C  C6  1  0.44643700  0.13380100  0.01590000  1
  C  C7  1  0.94643700  0.86619900  0.48410000  1
  Ni  Ni8  1  0.23039600  0.42120600  0.63833800  1
  Ni  Ni9  1  0.73039500  0.57879400  0.86166200  1
  Ni  Ni10  1  0.26960500  0.92120600  0.36166200  1
  Ni  Ni11  1  0.76960500  0.07879400  0.13833800  1
  Ni  Ni12  1  0.76960500  0.57879400  0.36166200  1
  Ni  Ni13  1  0.26960500  0.42120600  0.13833800  1
  Ni  Ni14  1  0.73039500  0.07879400  0.63833800  1
  Ni  Ni15  1  0.23039600  0.92120600  0.86166200  1
  Cu  Cu16  1  0.36371000  0.36716000  0.02729100  1
  Cu  Cu17  1  0.86371000  0.63284000  0.47270900  1
  Cu  Cu18  1  0.13629000  0.86716000  0.97270900  1
  Cu  Cu19  1  0.63629000  0.13284000  0.52729100  1
  Cu  Cu20  1  0.63629000  0.63284000  0.97270900  1
  Cu  Cu21  1  0.13629000  0.36716000  0.52729100  1
  Cu  Cu22  1  0.86371000  0.13284000  0.02729100  1
  Cu  Cu23  1  0.36371000  0.86716000  0.47270900  1
  Cu  Cu24  1  0.77178200  0.41242000  0.89011900  1
  Cu  Cu25  1  0.27178200  0.58758000  0.60988100  1
  Cu  Cu26  1  0.72821800  0.91242000  0.10988100  1
  Cu  Cu27  1  0.22821800  0.08758000  0.39011900  1
  Cu  Cu28  1  0.22821800  0.58758000  0.10988100  1
  Cu  Cu29  1  0.72821800  0.41242000  0.39011900  1
  Cu  Cu30  1  0.27178200  0.08758000  0.89011900  1
  Cu  Cu31  1  0.77178200  0.91242000  0.60988100  1
  Cu  Cu32  1  0.15198800  0.91291800  0.74216100  1
  Cu  Cu33  1  0.65198800  0.08708200  0.75783900  1
  Cu  Cu34  1  0.34801200  0.41291800  0.25783900  1
  Cu  Cu35  1  0.84801200  0.58708200  0.24216100  1
  Cu  Cu36  1  0.84801200  0.08708200  0.25783900  1
  Cu  Cu37  1  0.34801200  0.91291800  0.24216100  1
  Cu  Cu38  1  0.65198800  0.58708200  0.74216100  1
  Cu  Cu39  1  0.15198800  0.41291800  0.75783900  1
  Cu  Cu40  1  0.11728800  0.82761700  0.35350700  1
  Cu  Cu41  1  0.61728800  0.17238300  0.14649300  1
  Cu  Cu42  1  0.38271200  0.32761700  0.64649300  1
  Cu  Cu43  1  0.88271200  0.67238300  0.85350700  1
  Cu  Cu44  1  0.88271200  0.17238300  0.64649300  1
  Cu  Cu45  1  0.38271200  0.82761700  0.85350700  1
  Cu  Cu46  1  0.61728800  0.67238300  0.35350700  1
  Cu  Cu47  1  0.11728800  0.32761700  0.14649300  1
