# generated using pymatgen
data_Cu4NiC4
_symmetry_space_group_name_H-M   'P 1'
_cell_length_a   7.21566900
_cell_length_b   9.31342100
_cell_length_c   14.44585700
_cell_angle_alpha   90.00000000
_cell_angle_beta   90.00000000
_cell_angle_gamma   90.00000000
_symmetry_Int_Tables_number   1
_chemical_formula_structural   Cu4NiC4
_chemical_formula_sum   'Cu16 Ni4 C16'
_cell_volume   970.79861793
_cell_formula_units_Z   4
loop_
 _symmetry_equiv_pos_site_id
 _symmetry_equiv_pos_as_xyz
  1  'x, y, z'
loop_
 _atom_site_type_symbol
 _atom_site_label
 _atom_site_symmetry_multiplicity
 _atom_site_fract_x
 _atom_site_fract_y
 _atom_site_fract_z
 _atom_site_occupancy
  C  C0  1  0.00000000  0.00000000  0.00000000  1
  C  C1  1  0.50000000  0.00000000  0.50000000  1
  C  C2  1  0.00000000  0.50000000  0.00000000  1
  C  C3  1  0.50000000  0.50000000  0.50000000  1
  C  C4  1  0.99662300  0.75000000  0.45446000  1
  C  C5  1  0.49662300  0.25000000  0.04554000  1
  C  C6  1  0.00337700  0.25000000  0.54554000  1
  C  C7  1  0.50337700  0.75000000  0.95446000  1
  C  C8  1  0.85973700  0.05165200  0.26728300  1
  C  C9  1  0.35973700  0.94834800  0.23271700  1
  C  C10  1  0.14026300  0.55165200  0.73271700  1
  C  C11  1  0.64026300  0.44834800  0.76728300  1
  C  C12  1  0.14026300  0.94834800  0.73271700  1
  C  C13  1  0.64026300  0.05165200  0.76728300  1
  C  C14  1  0.85973700  0.44834800  0.26728300  1
  C  C15  1  0.35973700  0.55165200  0.23271700  1
  Ni  Ni16  1  0.77989700  0.75000000  0.16493600  1
  Ni  Ni17  1  0.27989700  0.25000000  0.33506400  1
  Ni  Ni18  1  0.22010300  0.25000000  0.83506400  1
  Ni  Ni19  1  0.72010300  0.75000000  0.66493600  1
  Cu  Cu20  1  0.65736400  0.54890800  0.09554100  1
  Cu  Cu21  1  0.15736400  0.45109200  0.40445900  1
  Cu  Cu22  1  0.34263600  0.04890800  0.90445900  1
  Cu  Cu23  1  0.84263600  0.95109200  0.59554100  1
  Cu  Cu24  1  0.34263600  0.45109200  0.90445900  1
  Cu  Cu25  1  0.84263600  0.54890800  0.59554100  1
  Cu  Cu26  1  0.65736400  0.95109200  0.09554100  1
  Cu  Cu27  1  0.15736400  0.04890800  0.40445900  1
  Cu  Cu28  1  0.68473600  0.75000000  0.31739200  1
  Cu  Cu29  1  0.18473600  0.25000000  0.18260800  1
  Cu  Cu30  1  0.31526400  0.25000000  0.68260800  1
  Cu  Cu31  1  0.81526400  0.75000000  0.81739200  1
  Cu  Cu32  1  0.09441400  0.75000000  0.13918200  1
  Cu  Cu33  1  0.59441400  0.25000000  0.36081800  1
  Cu  Cu34  1  0.90558600  0.25000000  0.86081800  1
  Cu  Cu35  1  0.40558600  0.75000000  0.63918200  1
