# generated using pymatgen
data_Cu7(NiC5)3
_symmetry_space_group_name_H-M   'P 1'
_cell_length_a   5.51204646
_cell_length_b   5.51204646
_cell_length_c   21.48371025
_cell_angle_alpha   85.57152601
_cell_angle_beta   85.57152601
_cell_angle_gamma   55.75423098
_symmetry_Int_Tables_number   1
_chemical_formula_structural   Cu7(NiC5)3
_chemical_formula_sum   'Cu14 Ni6 C30'
_cell_volume   537.50638499
_cell_formula_units_Z   2
loop_
 _symmetry_equiv_pos_site_id
 _symmetry_equiv_pos_as_xyz
  1  'x, y, z'
loop_
 _atom_site_type_symbol
 _atom_site_label
 _atom_site_symmetry_multiplicity
 _atom_site_fract_x
 _atom_site_fract_y
 _atom_site_fract_z
 _atom_site_occupancy
  Ni  Ni0  1  0.20492300  0.69994000  0.97367600  1
  Ni  Ni1  1  0.90059700  0.40963700  0.86628300  1
  Ni  Ni2  1  0.29664700  0.80394900  0.67164400  1
  Ni  Ni3  1  0.40963700  0.90059700  0.36628300  1
  Ni  Ni4  1  0.69994000  0.20492300  0.47367600  1
  Ni  Ni5  1  0.80394900  0.29664700  0.17164400  1
  Cu  Cu6  1  0.49527600  0.99446700  0.92897000  1
  Cu  Cu7  1  0.60613000  0.10860100  0.77089900  1
  Cu  Cu8  1  0.90474200  0.40272200  0.72726400  1
  Cu  Cu9  1  0.00685700  0.51018500  0.57036500  1
  Cu  Cu10  1  0.19371400  0.70393900  0.83067900  1
  Cu  Cu11  1  0.30740400  0.80389900  0.52797200  1
  Cu  Cu12  1  0.59222600  0.09041300  0.63057600  1
  Cu  Cu13  1  0.70393900  0.19371400  0.33067900  1
  Cu  Cu14  1  0.99446700  0.49527600  0.42897000  1
  Cu  Cu15  1  0.09041300  0.59222600  0.13057600  1
  Cu  Cu16  1  0.10860100  0.60613000  0.27089900  1
  Cu  Cu17  1  0.40272200  0.90474200  0.22726400  1
  Cu  Cu18  1  0.51018500  0.00685700  0.07036500  1
  Cu  Cu19  1  0.80389900  0.30740400  0.02797200  1
  C  C20  1  0.23296800  0.43435900  0.91867700  1
  C  C21  1  0.73443700  0.85078700  0.84930200  1
  C  C22  1  0.79239800  0.94709900  0.98794600  1
  C  C23  1  0.65113500  0.40762200  0.81504900  1
  C  C24  1  0.64897900  0.55048200  0.94212300  1
  C  C25  1  0.60575600  0.85024900  0.71159000  1
  C  C26  1  0.14514100  0.00157300  0.89275600  1
  C  C27  1  0.15606600  0.23909300  0.64418300  1
  C  C28  1  0.18519200  0.35478600  0.79545400  1
  C  C29  1  0.03122000  0.82961400  0.61448200  1
  C  C30  1  0.05321800  0.93537300  0.74298500  1
  C  C31  1  0.00212300  0.25849500  0.50956000  1
  C  C32  1  0.53846500  0.39248200  0.68777000  1
  C  C33  1  0.55048200  0.64897900  0.44212300  1
  C  C34  1  0.58656300  0.75562700  0.59290700  1
  C  C35  1  0.43435900  0.23296800  0.41867700  1
  C  C36  1  0.46610900  0.32632100  0.54688600  1
  C  C37  1  0.40762200  0.65113500  0.31504900  1
  C  C38  1  0.94709900  0.79239800  0.48794600  1
  C  C39  1  0.93537300  0.05321800  0.24298500  1
  C  C40  1  0.00157300  0.14514100  0.39275600  1
  C  C41  1  0.85024900  0.60575600  0.21159000  1
  C  C42  1  0.85078700  0.73443700  0.34930200  1
  C  C43  1  0.82961400  0.03122000  0.11448200  1
  C  C44  1  0.35478600  0.18519200  0.29545400  1
  C  C45  1  0.32632100  0.46610900  0.04688600  1
  C  C46  1  0.39248200  0.53846500  0.18777000  1
  C  C47  1  0.25849500  0.00212300  0.00956000  1
  C  C48  1  0.23909300  0.15606600  0.14418300  1
  C  C49  1  0.75562700  0.58656300  0.09290700  1
