# generated using pymatgen
data_CuNi2C
_symmetry_space_group_name_H-M   'P 1'
_cell_length_a   9.60076897
_cell_length_b   9.60076897
_cell_length_c   9.60076897
_cell_angle_alpha   100.26644390
_cell_angle_beta   100.26644390
_cell_angle_gamma   130.05690290
_symmetry_Int_Tables_number   1
_chemical_formula_structural   CuNi2C
_chemical_formula_sum   'Cu10 Ni20 C10'
_cell_volume   614.02485387
_cell_formula_units_Z   10
loop_
 _symmetry_equiv_pos_site_id
 _symmetry_equiv_pos_as_xyz
  1  'x, y, z'
loop_
 _atom_site_type_symbol
 _atom_site_label
 _atom_site_symmetry_multiplicity
 _atom_site_fract_x
 _atom_site_fract_y
 _atom_site_fract_z
 _atom_site_occupancy
  C  C0  1  0.49073200  0.49073200  0.00000000  1
  C  C1  1  0.93415300  0.93415300  0.00000000  1
  C  C2  1  0.16112700  0.56714600  0.00000000  1
  C  C3  1  0.56714600  0.56714600  0.40601900  1
  C  C4  1  0.16112700  0.16112700  0.59398100  1
  C  C5  1  0.56714600  0.16112700  0.00000000  1
  C  C6  1  0.15839300  0.87192600  0.28646700  1
  C  C7  1  0.87192600  0.58546000  0.71353300  1
  C  C8  1  0.87192600  0.15839300  0.28646700  1
  C  C9  1  0.58546000  0.87192600  0.71353300  1
  Ni  Ni10  1  0.20441300  0.04522800  0.84081600  1
  Ni  Ni11  1  0.36359700  0.20441300  0.15918400  1
  Ni  Ni12  1  0.96913500  0.35161800  0.61751600  1
  Ni  Ni13  1  0.35161800  0.73410200  0.38248400  1
  Ni  Ni14  1  0.58071800  0.84495300  0.00000000  1
  Ni  Ni15  1  0.35161800  0.96913500  0.61751600  1
  Ni  Ni16  1  0.73410200  0.35161800  0.38248400  1
  Ni  Ni17  1  0.84495300  0.58071800  0.00000000  1
  Ni  Ni18  1  0.58071800  0.58071800  0.73576600  1
  Ni  Ni19  1  0.84495300  0.84495300  0.26423400  1
  Ni  Ni20  1  0.26431400  0.47379500  0.50652300  1
  Ni  Ni21  1  0.47379500  0.96727200  0.20948100  1
  Ni  Ni22  1  0.75779100  0.26431400  0.79051900  1
  Ni  Ni23  1  0.96727200  0.75779100  0.49347700  1
  Ni  Ni24  1  0.75779100  0.96727200  0.49347700  1
  Ni  Ni25  1  0.47379500  0.26431400  0.50652300  1
  Ni  Ni26  1  0.26431400  0.75779100  0.79051900  1
  Ni  Ni27  1  0.96727200  0.47379500  0.20948100  1
  Ni  Ni28  1  0.04522800  0.20441300  0.84081600  1
  Ni  Ni29  1  0.20441300  0.36359700  0.15918400  1
  Cu  Cu30  1  0.18862900  0.86365300  0.00000000  1
  Cu  Cu31  1  0.09869700  0.59869700  0.50000000  1
  Cu  Cu32  1  0.59869700  0.09869700  0.50000000  1
  Cu  Cu33  1  0.86365300  0.18862900  0.00000000  1
  Cu  Cu34  1  0.18862900  0.18862900  0.32497600  1
  Cu  Cu35  1  0.86365300  0.86365300  0.67502400  1
  Cu  Cu36  1  0.73112100  0.51509100  0.21603000  1
  Cu  Cu37  1  0.51509100  0.29906000  0.78397000  1
  Cu  Cu38  1  0.51509100  0.73112100  0.21603000  1
  Cu  Cu39  1  0.29906000  0.51509100  0.78397000  1
