# generated using pymatgen
data_Cu9Ni3C
_symmetry_space_group_name_H-M   'P 1'
_cell_length_a   6.11417800
_cell_length_b   8.97515800
_cell_length_c   17.01939850
_cell_angle_alpha   65.02001448
_cell_angle_beta   90.00000000
_cell_angle_gamma   90.00000000
_symmetry_Int_Tables_number   1
_chemical_formula_structural   Cu9Ni3C
_chemical_formula_sum   'Cu36 Ni12 C4'
_cell_volume   846.58546816
_cell_formula_units_Z   4
loop_
 _symmetry_equiv_pos_site_id
 _symmetry_equiv_pos_as_xyz
  1  'x, y, z'
loop_
 _atom_site_type_symbol
 _atom_site_label
 _atom_site_symmetry_multiplicity
 _atom_site_fract_x
 _atom_site_fract_y
 _atom_site_fract_z
 _atom_site_occupancy
  C  C0  1  0.71785600  0.34774200  0.60535500  1
  C  C1  1  0.21785600  0.65225800  0.89464500  1
  C  C2  1  0.28214400  0.65225800  0.39464500  1
  C  C3  1  0.78214400  0.34774200  0.10535500  1
  Ni  Ni4  1  0.90348200  0.91500300  0.69864600  1
  Ni  Ni5  1  0.40348200  0.08499700  0.80135400  1
  Ni  Ni6  1  0.09651800  0.08499700  0.30135400  1
  Ni  Ni7  1  0.59651800  0.91500300  0.19864600  1
  Ni  Ni8  1  0.36291600  0.14339800  0.52074500  1
  Ni  Ni9  1  0.86291600  0.85660200  0.97925500  1
  Ni  Ni10  1  0.63708400  0.85660200  0.47925500  1
  Ni  Ni11  1  0.13708400  0.14339800  0.02074500  1
  Ni  Ni12  1  0.81593200  0.43238900  0.35410700  1
  Ni  Ni13  1  0.31593200  0.56761100  0.14589300  1
  Ni  Ni14  1  0.18406800  0.56761100  0.64589300  1
  Ni  Ni15  1  0.68406800  0.43238900  0.85410700  1
  Cu  Cu16  1  0.17828200  0.84514300  0.74506000  1
  Cu  Cu17  1  0.67828200  0.15485700  0.75494000  1
  Cu  Cu18  1  0.82171800  0.15485700  0.25494000  1
  Cu  Cu19  1  0.32171800  0.84514300  0.24506000  1
  Cu  Cu20  1  0.91344200  0.83461800  0.61628000  1
  Cu  Cu21  1  0.41344200  0.16538200  0.88372000  1
  Cu  Cu22  1  0.08655800  0.16538200  0.38372000  1
  Cu  Cu23  1  0.58655800  0.83461800  0.11628000  1
  Cu  Cu24  1  0.99321400  0.13001200  0.63391900  1
  Cu  Cu25  1  0.49321400  0.86998800  0.86608100  1
  Cu  Cu26  1  0.00678600  0.86998800  0.36608100  1
  Cu  Cu27  1  0.50678600  0.13001200  0.13391900  1
  Cu  Cu28  1  0.52859400  0.09653300  0.61979000  1
  Cu  Cu29  1  0.02859400  0.90346700  0.88021000  1
  Cu  Cu30  1  0.47140600  0.90346700  0.38021000  1
  Cu  Cu31  1  0.97140600  0.09653300  0.11979000  1
  Cu  Cu32  1  0.60050400  0.39589500  0.96370900  1
  Cu  Cu33  1  0.10050400  0.60410500  0.53629100  1
  Cu  Cu34  1  0.39949600  0.60410500  0.03629100  1
  Cu  Cu35  1  0.89949600  0.39589500  0.46370900  1
  Cu  Cu36  1  0.44600600  0.56291000  0.80142100  1
  Cu  Cu37  1  0.94600600  0.43709000  0.69857900  1
  Cu  Cu38  1  0.55399400  0.43709000  0.19857900  1
  Cu  Cu39  1  0.05399400  0.56291000  0.30142100  1
  Cu  Cu40  1  0.88669900  0.60153900  0.82868100  1
  Cu  Cu41  1  0.38669900  0.39846100  0.67131900  1
  Cu  Cu42  1  0.11330100  0.39846100  0.17131900  1
  Cu  Cu43  1  0.61330100  0.60153900  0.32868100  1
  Cu  Cu44  1  0.10300300  0.36635100  0.99030200  1
  Cu  Cu45  1  0.60300300  0.63364900  0.50969800  1
  Cu  Cu46  1  0.89699700  0.63364900  0.00969800  1
  Cu  Cu47  1  0.39699700  0.36635100  0.49030200  1
  Cu  Cu48  1  0.91776700  0.14238000  0.94497500  1
  Cu  Cu49  1  0.41776700  0.85762000  0.55502500  1
  Cu  Cu50  1  0.08223300  0.85762000  0.05502500  1
  Cu  Cu51  1  0.58223300  0.14238000  0.44497500  1
