# generated using pymatgen
data_Cu9Ni6C
_symmetry_space_group_name_H-M   'P 1'
_cell_length_a   7.11742440
_cell_length_b   7.11742440
_cell_length_c   10.55986400
_cell_angle_alpha   90.00000000
_cell_angle_beta   90.00000000
_cell_angle_gamma   113.06153644
_symmetry_Int_Tables_number   1
_chemical_formula_structural   Cu9Ni6C
_chemical_formula_sum   'Cu18 Ni12 C2'
_cell_volume   492.18893516
_cell_formula_units_Z   2
loop_
 _symmetry_equiv_pos_site_id
 _symmetry_equiv_pos_as_xyz
  1  'x, y, z'
loop_
 _atom_site_type_symbol
 _atom_site_label
 _atom_site_symmetry_multiplicity
 _atom_site_fract_x
 _atom_site_fract_y
 _atom_site_fract_z
 _atom_site_occupancy
  C  C0  1  0.71506600  0.28493400  0.75000000  1
  C  C1  1  0.28493400  0.71506600  0.25000000  1
  Ni  Ni2  1  0.73059600  0.55658400  0.25000000  1
  Ni  Ni3  1  0.99902300  0.29010200  0.44708700  1
  Ni  Ni4  1  0.00097700  0.70989800  0.94708700  1
  Ni  Ni5  1  0.26940400  0.44341600  0.75000000  1
  Ni  Ni6  1  0.55658400  0.73059600  0.75000000  1
  Ni  Ni7  1  0.44341600  0.26940400  0.25000000  1
  Ni  Ni8  1  0.29010200  0.99902300  0.94708700  1
  Ni  Ni9  1  0.70989800  0.00097700  0.44708700  1
  Ni  Ni10  1  0.99902300  0.29010200  0.05291300  1
  Ni  Ni11  1  0.00097700  0.70989800  0.55291300  1
  Ni  Ni12  1  0.70989800  0.00097700  0.05291300  1
  Ni  Ni13  1  0.29010200  0.99902300  0.55291300  1
  Cu  Cu14  1  0.14129700  0.42018800  0.40091300  1
  Cu  Cu15  1  0.85870300  0.57981200  0.90091300  1
  Cu  Cu16  1  0.53199700  0.46800300  0.25000000  1
  Cu  Cu17  1  0.46800300  0.53199700  0.75000000  1
  Cu  Cu18  1  0.90920600  0.64520100  0.25000000  1
  Cu  Cu19  1  0.09079400  0.35479900  0.75000000  1
  Cu  Cu20  1  0.64520100  0.90920600  0.75000000  1
  Cu  Cu21  1  0.35479900  0.09079400  0.25000000  1
  Cu  Cu22  1  0.15569500  0.84430500  0.00627000  1
  Cu  Cu23  1  0.84430500  0.15569500  0.50627000  1
  Cu  Cu24  1  0.84430500  0.15569500  0.99373000  1
  Cu  Cu25  1  0.15569500  0.84430500  0.49373000  1
  Cu  Cu26  1  0.42018800  0.14129700  0.90091300  1
  Cu  Cu27  1  0.57981200  0.85870300  0.40091300  1
  Cu  Cu28  1  0.14129700  0.42018800  0.09908700  1
  Cu  Cu29  1  0.85870300  0.57981200  0.59908700  1
  Cu  Cu30  1  0.57981200  0.85870300  0.09908700  1
  Cu  Cu31  1  0.42018800  0.14129700  0.59908700  1
