# generated using pymatgen
data_Cu(NiC2)2
_symmetry_space_group_name_H-M   'P 1'
_cell_length_a   5.74969531
_cell_length_b   5.74969531
_cell_length_c   14.18636500
_cell_angle_alpha   90.00000000
_cell_angle_beta   90.00000000
_cell_angle_gamma   119.99999203
_symmetry_Int_Tables_number   1
_chemical_formula_structural   Cu(NiC2)2
_chemical_formula_sum   'Cu6 Ni12 C24'
_cell_volume   406.15467617
_cell_formula_units_Z   6
loop_
 _symmetry_equiv_pos_site_id
 _symmetry_equiv_pos_as_xyz
  1  'x, y, z'
loop_
 _atom_site_type_symbol
 _atom_site_label
 _atom_site_symmetry_multiplicity
 _atom_site_fract_x
 _atom_site_fract_y
 _atom_site_fract_z
 _atom_site_occupancy
  Ni  Ni0  1  0.83092200  0.16907800  0.83282000  1
  Ni  Ni1  1  0.83092200  0.66184400  0.83282000  1
  Ni  Ni2  1  0.16574300  0.83425700  0.49908500  1
  Ni  Ni3  1  0.33815600  0.16907800  0.83282000  1
  Ni  Ni4  1  0.33333300  0.66666700  0.71201600  1
  Ni  Ni5  1  0.33333300  0.66666700  0.33391600  1
  Ni  Ni6  1  0.16574300  0.33148600  0.49908500  1
  Ni  Ni7  1  0.49885100  0.50114900  0.16727700  1
  Ni  Ni8  1  0.66851400  0.83425700  0.49908500  1
  Ni  Ni9  1  0.49885100  0.99770200  0.16727700  1
  Ni  Ni10  1  0.00229800  0.50114900  0.16727700  1
  Ni  Ni11  1  0.00000000  0.00000000  0.04218300  1
  Cu  Cu12  1  0.33333300  0.66666700  0.95938200  1
  Cu  Cu13  1  0.66666700  0.33333300  0.99746300  1
  Cu  Cu14  1  0.66666700  0.33333300  0.62280600  1
  Cu  Cu15  1  0.00000000  0.00000000  0.29262100  1
  Cu  Cu16  1  0.00000000  0.00000000  0.66232700  1
  Cu  Cu17  1  0.66666700  0.33333300  0.37555400  1
  C  C18  1  0.51414900  0.48585100  0.90613600  1
  C  C19  1  0.66666700  0.33333300  0.76249000  1
  C  C20  1  0.51414900  0.02829700  0.90613600  1
  C  C21  1  0.97170300  0.48585100  0.90613600  1
  C  C22  1  0.84696300  0.15303700  0.57193900  1
  C  C23  1  0.67750700  0.83875400  0.75928000  1
  C  C24  1  0.00000000  0.00000000  0.90938500  1
  C  C25  1  0.00000000  0.00000000  0.43048800  1
  C  C26  1  0.84696300  0.69392700  0.57193900  1
  C  C27  1  0.16124600  0.32249300  0.75928000  1
  C  C28  1  0.30607300  0.15303700  0.57193900  1
  C  C29  1  0.16124600  0.83875400  0.75928000  1
  C  C30  1  0.04271600  0.52135800  0.42368500  1
  C  C31  1  0.18685600  0.81314400  0.24627000  1
  C  C32  1  0.33333300  0.66666700  0.58263900  1
  C  C33  1  0.47864200  0.95728400  0.42368500  1
  C  C34  1  0.33333300  0.66666700  0.09824100  1
  C  C35  1  0.18685600  0.37371200  0.24627000  1
  C  C36  1  0.62628800  0.81314400  0.24627000  1
  C  C37  1  0.47864200  0.52135800  0.42368500  1
  C  C38  1  0.33770800  0.16885400  0.09014200  1
  C  C39  1  0.66666700  0.33333300  0.22872200  1
  C  C40  1  0.83114600  0.66229200  0.09014200  1
  C  C41  1  0.83114600  0.16885400  0.09014200  1
