# generated using pymatgen
data_Cu3NiC
_symmetry_space_group_name_H-M   'P 1'
_cell_length_a   10.71095900
_cell_length_b   7.87814400
_cell_length_c   8.04467863
_cell_angle_alpha   78.49516639
_cell_angle_beta   90.00000000
_cell_angle_gamma   90.00000000
_symmetry_Int_Tables_number   1
_chemical_formula_structural   Cu3NiC
_chemical_formula_sum   'Cu24 Ni8 C8'
_cell_volume   665.19078202
_cell_formula_units_Z   8
loop_
 _symmetry_equiv_pos_site_id
 _symmetry_equiv_pos_as_xyz
  1  'x, y, z'
loop_
 _atom_site_type_symbol
 _atom_site_label
 _atom_site_symmetry_multiplicity
 _atom_site_fract_x
 _atom_site_fract_y
 _atom_site_fract_z
 _atom_site_occupancy
  C  C0  1  0.91366800  0.00610500  0.25152800  1
  C  C1  1  0.41366800  0.49389500  0.74847200  1
  C  C2  1  0.08633200  0.99389500  0.74847200  1
  C  C3  1  0.58633200  0.50610500  0.25152800  1
  C  C4  1  0.51293800  0.00563700  0.25420100  1
  C  C5  1  0.01293800  0.49436300  0.74579900  1
  C  C6  1  0.48706200  0.99436300  0.74579900  1
  C  C7  1  0.98706200  0.50563700  0.25420100  1
  Ni  Ni8  1  0.22549100  0.18571600  0.03668200  1
  Ni  Ni9  1  0.27450900  0.68571600  0.03668200  1
  Ni  Ni10  1  0.77450900  0.81428400  0.96331800  1
  Ni  Ni11  1  0.72549100  0.31428400  0.96331800  1
  Ni  Ni12  1  0.77845400  0.19386900  0.55278500  1
  Ni  Ni13  1  0.27845400  0.30613100  0.44721500  1
  Ni  Ni14  1  0.22154600  0.80613100  0.44721500  1
  Ni  Ni15  1  0.72154600  0.69386900  0.55278500  1
  Cu  Cu16  1  0.70538000  0.77184100  0.82743900  1
  Cu  Cu17  1  0.20538000  0.72815900  0.17256100  1
  Cu  Cu18  1  0.29462000  0.22815900  0.17256100  1
  Cu  Cu19  1  0.79462000  0.27184100  0.82743900  1
  Cu  Cu20  1  0.79090000  0.72572900  0.69311200  1
  Cu  Cu21  1  0.29090000  0.77427100  0.30688800  1
  Cu  Cu22  1  0.20910000  0.27427100  0.30688800  1
  Cu  Cu23  1  0.70910000  0.22572900  0.69311200  1
  Cu  Cu24  1  0.69811900  0.85808700  0.06650800  1
  Cu  Cu25  1  0.19811900  0.64191300  0.93349200  1
  Cu  Cu26  1  0.30188100  0.14191300  0.93349200  1
  Cu  Cu27  1  0.80188100  0.35808700  0.06650800  1
  Cu  Cu28  1  0.60538100  0.71200300  0.54713700  1
  Cu  Cu29  1  0.10538100  0.78799700  0.45286300  1
  Cu  Cu30  1  0.39461900  0.28799700  0.45286300  1
  Cu  Cu31  1  0.89461900  0.21200300  0.54713700  1
  Cu  Cu32  1  0.79687400  0.64945500  0.44888000  1
  Cu  Cu33  1  0.29687400  0.85054500  0.55112000  1
  Cu  Cu34  1  0.20312600  0.35054500  0.55112000  1
  Cu  Cu35  1  0.70312600  0.14945500  0.44888000  1
  Cu  Cu36  1  0.39093500  0.69663100  0.03297600  1
  Cu  Cu37  1  0.10906500  0.19663100  0.03297600  1
  Cu  Cu38  1  0.60906500  0.30336900  0.96702400  1
  Cu  Cu39  1  0.89093500  0.80336900  0.96702400  1
