# generated using pymatgen
data_Cu4Ni4C3
_symmetry_space_group_name_H-M   'P 1'
_cell_length_a   4.21458000
_cell_length_b   6.67356600
_cell_length_c   8.02813703
_cell_angle_alpha   114.55937667
_cell_angle_beta   105.21774533
_cell_angle_gamma   90.00000000
_symmetry_Int_Tables_number   1
_chemical_formula_structural   Cu4Ni4C3
_chemical_formula_sum   'Cu4 Ni4 C3'
_cell_volume   196.63505511
_cell_formula_units_Z   1
loop_
 _symmetry_equiv_pos_site_id
 _symmetry_equiv_pos_as_xyz
  1  'x, y, z'
loop_
 _atom_site_type_symbol
 _atom_site_label
 _atom_site_symmetry_multiplicity
 _atom_site_fract_x
 _atom_site_fract_y
 _atom_site_fract_z
 _atom_site_occupancy
  C  C0  1  0.86952500  0.86952500  0.73905000  1
  C  C1  1  0.13047500  0.13047500  0.26095000  1
  C  C2  1  0.00000000  0.50000000  0.00000000  1
  Ni  Ni3  1  0.66845200  0.85745500  0.33690400  1
  Ni  Ni4  1  0.33154800  0.14254500  0.66309600  1
  Ni  Ni5  1  0.66845200  0.47944900  0.33690400  1
  Ni  Ni6  1  0.33154800  0.52055100  0.66309600  1
  Cu  Cu7  1  0.78316700  0.28316700  0.56633400  1
  Cu  Cu8  1  0.50000000  0.80888100  0.00000000  1
  Cu  Cu9  1  0.50000000  0.19111900  0.00000000  1
  Cu  Cu10  1  0.21683300  0.71683300  0.43366600  1
