# generated using pymatgen
data_CuNiC3
_symmetry_space_group_name_H-M   'P 1'
_cell_length_a   5.47333800
_cell_length_b   5.76330400
_cell_length_c   7.99952700
_cell_angle_alpha   90.00000000
_cell_angle_beta   90.00000000
_cell_angle_gamma   90.00000000
_symmetry_Int_Tables_number   1
_chemical_formula_structural   CuNiC3
_chemical_formula_sum   'Cu4 Ni4 C12'
_cell_volume   252.34116576
_cell_formula_units_Z   4
loop_
 _symmetry_equiv_pos_site_id
 _symmetry_equiv_pos_as_xyz
  1  'x, y, z'
loop_
 _atom_site_type_symbol
 _atom_site_label
 _atom_site_symmetry_multiplicity
 _atom_site_fract_x
 _atom_site_fract_y
 _atom_site_fract_z
 _atom_site_occupancy
  Ni  Ni0  1  0.98013300  0.06200800  0.75000000  1
  Ni  Ni1  1  0.48013300  0.43799200  0.25000000  1
  Ni  Ni2  1  0.51986700  0.56200800  0.75000000  1
  Ni  Ni3  1  0.01986700  0.93799200  0.25000000  1
  Cu  Cu4  1  0.00000000  0.50000000  0.50000000  1
  Cu  Cu5  1  0.50000000  0.00000000  0.50000000  1
  Cu  Cu6  1  0.50000000  0.00000000  0.00000000  1
  Cu  Cu7  1  0.00000000  0.50000000  0.00000000  1
  C  C8  1  0.69201100  0.30558500  0.56727500  1
  C  C9  1  0.19201100  0.19441500  0.43272500  1
  C  C10  1  0.80798900  0.80558500  0.93272500  1
  C  C11  1  0.30798900  0.69441500  0.06727500  1
  C  C12  1  0.30798900  0.69441500  0.43272500  1
  C  C13  1  0.80798900  0.80558500  0.56727500  1
  C  C14  1  0.19201100  0.19441500  0.06727500  1
  C  C15  1  0.69201100  0.30558500  0.93272500  1
  C  C16  1  0.87169200  0.55510900  0.25000000  1
  C  C17  1  0.37169200  0.94489100  0.75000000  1
  C  C18  1  0.62830800  0.05510900  0.25000000  1
  C  C19  1  0.12830800  0.44489100  0.75000000  1
