# generated using pymatgen
data_Cu8Ni36C5
_symmetry_space_group_name_H-M   'P 1'
_cell_length_a   8.87071100
_cell_length_b   8.87071100
_cell_length_c   8.87071100
_cell_angle_alpha   90.00000000
_cell_angle_beta   90.00000000
_cell_angle_gamma   90.00000000
_symmetry_Int_Tables_number   1
_chemical_formula_structural   Cu8Ni36C5
_chemical_formula_sum   'Cu8 Ni36 C5'
_cell_volume   698.03193428
_cell_formula_units_Z   1
loop_
 _symmetry_equiv_pos_site_id
 _symmetry_equiv_pos_as_xyz
  1  'x, y, z'
loop_
 _atom_site_type_symbol
 _atom_site_label
 _atom_site_symmetry_multiplicity
 _atom_site_fract_x
 _atom_site_fract_y
 _atom_site_fract_z
 _atom_site_occupancy
  Ni  Ni0  1  0.31202600  0.00000000  0.00000000  1
  Ni  Ni1  1  0.68797400  0.00000000  0.00000000  1
  Ni  Ni2  1  0.00000000  0.00000000  0.31202600  1
  Ni  Ni3  1  0.00000000  0.00000000  0.68797400  1
  Ni  Ni4  1  0.00000000  0.68797400  0.00000000  1
  Ni  Ni5  1  0.00000000  0.31202600  0.00000000  1
  Ni  Ni6  1  0.86157000  0.50000000  0.50000000  1
  Ni  Ni7  1  0.13843000  0.50000000  0.50000000  1
  Ni  Ni8  1  0.50000000  0.50000000  0.86157000  1
  Ni  Ni9  1  0.50000000  0.50000000  0.13843000  1
  Ni  Ni10  1  0.50000000  0.13843000  0.50000000  1
  Ni  Ni11  1  0.50000000  0.86157000  0.50000000  1
  Ni  Ni12  1  0.29404600  0.29404600  0.05470100  1
  Ni  Ni13  1  0.70595400  0.05470100  0.70595400  1
  Ni  Ni14  1  0.70595400  0.94529900  0.29404600  1
  Ni  Ni15  1  0.94529900  0.70595400  0.29404600  1
  Ni  Ni16  1  0.05470100  0.70595400  0.70595400  1
  Ni  Ni17  1  0.29404600  0.70595400  0.94529900  1
  Ni  Ni18  1  0.70595400  0.29404600  0.94529900  1
  Ni  Ni19  1  0.05470100  0.29404600  0.29404600  1
  Ni  Ni20  1  0.29404600  0.05470100  0.29404600  1
  Ni  Ni21  1  0.94529900  0.29404600  0.70595400  1
  Ni  Ni22  1  0.29404600  0.94529900  0.70595400  1
  Ni  Ni23  1  0.70595400  0.70595400  0.05470100  1
  Ni  Ni24  1  0.82050000  0.82050000  0.53911000  1
  Ni  Ni25  1  0.17950000  0.53911000  0.17950000  1
  Ni  Ni26  1  0.17950000  0.46089000  0.82050000  1
  Ni  Ni27  1  0.46089000  0.17950000  0.82050000  1
  Ni  Ni28  1  0.53911000  0.17950000  0.17950000  1
  Ni  Ni29  1  0.82050000  0.17950000  0.46089000  1
  Ni  Ni30  1  0.17950000  0.82050000  0.46089000  1
  Ni  Ni31  1  0.53911000  0.82050000  0.82050000  1
  Ni  Ni32  1  0.82050000  0.53911000  0.82050000  1
  Ni  Ni33  1  0.46089000  0.82050000  0.17950000  1
  Ni  Ni34  1  0.82050000  0.46089000  0.17950000  1
  Ni  Ni35  1  0.17950000  0.17950000  0.53911000  1
  C  C36  1  0.00000000  0.00000000  0.00000000  1
  C  C37  1  0.61539100  0.61539100  0.61539100  1
  C  C38  1  0.38460900  0.61539100  0.38460900  1
  C  C39  1  0.38460900  0.38460900  0.61539100  1
  C  C40  1  0.61539100  0.38460900  0.38460900  1
  Cu  Cu41  1  0.33548000  0.33548000  0.33548000  1
  Cu  Cu42  1  0.66452000  0.33548000  0.66452000  1
  Cu  Cu43  1  0.66452000  0.66452000  0.33548000  1
  Cu  Cu44  1  0.33548000  0.66452000  0.66452000  1
  Cu  Cu45  1  0.82470800  0.82470800  0.82470800  1
  Cu  Cu46  1  0.17529200  0.82470800  0.17529200  1
  Cu  Cu47  1  0.17529200  0.17529200  0.82470800  1
  Cu  Cu48  1  0.82470800  0.17529200  0.17529200  1
