# generated using pymatgen
data_Cu2NiC
_symmetry_space_group_name_H-M   'P 1'
_cell_length_a   3.96470000
_cell_length_b   3.99761200
_cell_length_c   8.36162448
_cell_angle_alpha   76.16980723
_cell_angle_beta   90.00000000
_cell_angle_gamma   90.00000000
_symmetry_Int_Tables_number   1
_chemical_formula_structural   Cu2NiC
_chemical_formula_sum   'Cu4 Ni2 C2'
_cell_volume   128.68402558
_cell_formula_units_Z   2
loop_
 _symmetry_equiv_pos_site_id
 _symmetry_equiv_pos_as_xyz
  1  'x, y, z'
loop_
 _atom_site_type_symbol
 _atom_site_label
 _atom_site_symmetry_multiplicity
 _atom_site_fract_x
 _atom_site_fract_y
 _atom_site_fract_z
 _atom_site_occupancy
  C  C0  1  0.25000000  0.10750700  0.78498600  1
  C  C1  1  0.75000000  0.89249300  0.21501400  1
  Ni  Ni2  1  0.75000000  0.67844300  0.64311400  1
  Ni  Ni3  1  0.25000000  0.32155700  0.35688600  1
  Cu  Cu4  1  0.25000000  0.75009400  0.49981200  1
  Cu  Cu5  1  0.75000000  0.24990600  0.50018800  1
  Cu  Cu6  1  0.75000000  0.54212000  0.91576000  1
  Cu  Cu7  1  0.25000000  0.45788000  0.08424000  1
