# generated using pymatgen
data_Cu9Ni6C
_symmetry_space_group_name_H-M   'P 1'
_cell_length_a   7.19465222
_cell_length_b   7.19465222
_cell_length_c   10.65835400
_cell_angle_alpha   90.00000000
_cell_angle_beta   90.00000000
_cell_angle_gamma   112.81984278
_symmetry_Int_Tables_number   1
_chemical_formula_structural   Cu9Ni6C
_chemical_formula_sum   'Cu18 Ni12 C2'
_cell_volume   508.52575415
_cell_formula_units_Z   2
loop_
 _symmetry_equiv_pos_site_id
 _symmetry_equiv_pos_as_xyz
  1  'x, y, z'
loop_
 _atom_site_type_symbol
 _atom_site_label
 _atom_site_symmetry_multiplicity
 _atom_site_fract_x
 _atom_site_fract_y
 _atom_site_fract_z
 _atom_site_occupancy
  C  C0  1  0.71476800  0.28523200  0.25000000  1
  C  C1  1  0.28523200  0.71476800  0.75000000  1
  Ni  Ni2  1  0.72883300  0.55493700  0.75000000  1
  Ni  Ni3  1  0.99667200  0.28894500  0.94656800  1
  Ni  Ni4  1  0.00332800  0.71105500  0.44656800  1
  Ni  Ni5  1  0.27116700  0.44506300  0.25000000  1
  Ni  Ni6  1  0.55493700  0.72883300  0.25000000  1
  Ni  Ni7  1  0.44506300  0.27116700  0.75000000  1
  Ni  Ni8  1  0.28894500  0.99667200  0.44656800  1
  Ni  Ni9  1  0.71105500  0.00332800  0.94656800  1
  Ni  Ni10  1  0.99667200  0.28894500  0.55343200  1
  Ni  Ni11  1  0.00332800  0.71105500  0.05343200  1
  Ni  Ni12  1  0.71105500  0.00332800  0.55343200  1
  Ni  Ni13  1  0.28894500  0.99667200  0.05343200  1
  Cu  Cu14  1  0.13906300  0.41603600  0.90169600  1
  Cu  Cu15  1  0.86093700  0.58396400  0.40169600  1
  Cu  Cu16  1  0.53284100  0.46715900  0.75000000  1
  Cu  Cu17  1  0.46715900  0.53284100  0.25000000  1
  Cu  Cu18  1  0.90512500  0.64336500  0.75000000  1
  Cu  Cu19  1  0.09487500  0.35663500  0.25000000  1
  Cu  Cu20  1  0.64336500  0.90512500  0.25000000  1
  Cu  Cu21  1  0.35663500  0.09487500  0.75000000  1
  Cu  Cu22  1  0.15792900  0.84207100  0.50444600  1
  Cu  Cu23  1  0.84207100  0.15792900  0.00444600  1
  Cu  Cu24  1  0.84207100  0.15792900  0.49555400  1
  Cu  Cu25  1  0.15792900  0.84207100  0.99555400  1
  Cu  Cu26  1  0.41603600  0.13906300  0.40169600  1
  Cu  Cu27  1  0.58396400  0.86093700  0.90169600  1
  Cu  Cu28  1  0.13906300  0.41603600  0.59830400  1
  Cu  Cu29  1  0.86093700  0.58396400  0.09830400  1
  Cu  Cu30  1  0.58396400  0.86093700  0.59830400  1
  Cu  Cu31  1  0.41603600  0.13906300  0.09830400  1
