# generated using pymatgen
data_CuNi3C7
_symmetry_space_group_name_H-M   'P 1'
_cell_length_a   5.15268493
_cell_length_b   5.15268493
_cell_length_c   5.15268520
_cell_angle_alpha   102.03470130
_cell_angle_beta   102.03470130
_cell_angle_gamma   102.03469881
_symmetry_Int_Tables_number   1
_chemical_formula_structural   CuNi3C7
_chemical_formula_sum   'Cu1 Ni3 C7'
_cell_volume   126.23510727
_cell_formula_units_Z   1
loop_
 _symmetry_equiv_pos_site_id
 _symmetry_equiv_pos_as_xyz
  1  'x, y, z'
loop_
 _atom_site_type_symbol
 _atom_site_label
 _atom_site_symmetry_multiplicity
 _atom_site_fract_x
 _atom_site_fract_y
 _atom_site_fract_z
 _atom_site_occupancy
  Ni  Ni0  1  0.41708800  0.02672100  0.41708800  1
  Ni  Ni1  1  0.41708800  0.41708800  0.02672100  1
  Ni  Ni2  1  0.02672100  0.41708800  0.41708800  1
  Cu  Cu3  1  0.87494000  0.87494000  0.87494000  1
  C  C4  1  0.70982500  0.02868100  0.70982500  1
  C  C5  1  0.26561600  0.26561600  0.64394600  1
  C  C6  1  0.26561600  0.64394600  0.26561600  1
  C  C7  1  0.70982500  0.70982500  0.02868100  1
  C  C8  1  0.02868100  0.70982500  0.70982500  1
  C  C9  1  0.10912100  0.10912100  0.10912100  1
  C  C10  1  0.64394600  0.26561600  0.26561600  1
