# generated using pymatgen
data_CuNiC3
_symmetry_space_group_name_H-M   'P 1'
_cell_length_a   5.55234100
_cell_length_b   5.81335200
_cell_length_c   8.04454100
_cell_angle_alpha   90.00000000
_cell_angle_beta   90.00000000
_cell_angle_gamma   90.00000000
_symmetry_Int_Tables_number   1
_chemical_formula_structural   CuNiC3
_chemical_formula_sum   'Cu4 Ni4 C12'
_cell_volume   259.65938286
_cell_formula_units_Z   4
loop_
 _symmetry_equiv_pos_site_id
 _symmetry_equiv_pos_as_xyz
  1  'x, y, z'
loop_
 _atom_site_type_symbol
 _atom_site_label
 _atom_site_symmetry_multiplicity
 _atom_site_fract_x
 _atom_site_fract_y
 _atom_site_fract_z
 _atom_site_occupancy
  Ni  Ni0  1  0.98238600  0.05932700  0.75000000  1
  Ni  Ni1  1  0.48238600  0.44067300  0.25000000  1
  Ni  Ni2  1  0.51761400  0.55932700  0.75000000  1
  Ni  Ni3  1  0.01761400  0.94067300  0.25000000  1
  Cu  Cu4  1  0.00000000  0.50000000  0.50000000  1
  Cu  Cu5  1  0.50000000  0.00000000  0.50000000  1
  Cu  Cu6  1  0.50000000  0.00000000  0.00000000  1
  Cu  Cu7  1  0.00000000  0.50000000  0.00000000  1
  C  C8  1  0.69532700  0.30305200  0.56223800  1
  C  C9  1  0.19532700  0.19694800  0.43776200  1
  C  C10  1  0.80467300  0.80305200  0.93776200  1
  C  C11  1  0.30467300  0.69694800  0.06223800  1
  C  C12  1  0.30467300  0.69694800  0.43776200  1
  C  C13  1  0.80467300  0.80305200  0.56223800  1
  C  C14  1  0.19532700  0.19694800  0.06223800  1
  C  C15  1  0.69532700  0.30305200  0.93776200  1
  C  C16  1  0.88172500  0.54762600  0.25000000  1
  C  C17  1  0.38172500  0.95237400  0.75000000  1
  C  C18  1  0.61827500  0.04762600  0.25000000  1
  C  C19  1  0.11827500  0.45237400  0.75000000  1
