# generated using pymatgen
data_CuNiC2
_symmetry_space_group_name_H-M   'P 1'
_cell_length_a   6.64331000
_cell_length_b   6.87695400
_cell_length_c   13.62514000
_cell_angle_alpha   90.00000000
_cell_angle_beta   90.00000000
_cell_angle_gamma   90.00000000
_symmetry_Int_Tables_number   1
_chemical_formula_structural   CuNiC2
_chemical_formula_sum   'Cu4 Ni4 C8'
_cell_volume   622.47456641
_cell_formula_units_Z   4
loop_
 _symmetry_equiv_pos_site_id
 _symmetry_equiv_pos_as_xyz
  1  'x, y, z'
loop_
 _atom_site_type_symbol
 _atom_site_label
 _atom_site_symmetry_multiplicity
 _atom_site_fract_x
 _atom_site_fract_y
 _atom_site_fract_z
 _atom_site_occupancy
  C  C0  1  0.75000000  0.38875700  0.66656300  1
  C  C1  1  0.25000000  0.61124300  0.33343700  1
  C  C2  1  0.75000000  0.61124300  0.16656300  1
  C  C3  1  0.25000000  0.15898000  0.51102000  1
  C  C4  1  0.25000000  0.84102000  0.01102000  1
  C  C5  1  0.75000000  0.84102000  0.48898000  1
  C  C6  1  0.75000000  0.15898000  0.98898000  1
  C  C7  1  0.25000000  0.38875700  0.83343700  1
  Ni  Ni8  1  0.50000000  0.09413900  0.25000000  1
  Ni  Ni9  1  0.00000000  0.09413900  0.25000000  1
  Ni  Ni10  1  0.00000000  0.90586100  0.75000000  1
  Ni  Ni11  1  0.50000000  0.90586100  0.75000000  1
  Cu  Cu12  1  0.25000000  0.33953900  0.10561100  1
  Cu  Cu13  1  0.25000000  0.66046100  0.60561100  1
  Cu  Cu14  1  0.75000000  0.66046100  0.89438900  1
  Cu  Cu15  1  0.75000000  0.33953900  0.39438900  1
