# generated using pymatgen
data_CuNi2C
_symmetry_space_group_name_H-M   'P 1'
_cell_length_a   5.96874418
_cell_length_b   5.96874418
_cell_length_c   8.56056200
_cell_angle_alpha   90.00000000
_cell_angle_beta   90.00000000
_cell_angle_gamma   137.24179803
_symmetry_Int_Tables_number   1
_chemical_formula_structural   CuNi2C
_chemical_formula_sum   'Cu2 Ni4 C2'
_cell_volume   207.05120570
_cell_formula_units_Z   2
loop_
 _symmetry_equiv_pos_site_id
 _symmetry_equiv_pos_as_xyz
  1  'x, y, z'
loop_
 _atom_site_type_symbol
 _atom_site_label
 _atom_site_symmetry_multiplicity
 _atom_site_fract_x
 _atom_site_fract_y
 _atom_site_fract_z
 _atom_site_occupancy
  C  C0  1  0.56569300  0.43430700  0.25000000  1
  C  C1  1  0.43430700  0.56569300  0.75000000  1
  Ni  Ni2  1  0.14321500  0.85678500  0.54892000  1
  Ni  Ni3  1  0.85678500  0.14321500  0.04892000  1
  Ni  Ni4  1  0.85678500  0.14321500  0.45108000  1
  Ni  Ni5  1  0.14321500  0.85678500  0.95108000  1
  Cu  Cu6  1  0.27783400  0.72216600  0.25000000  1
  Cu  Cu7  1  0.72216600  0.27783400  0.75000000  1
