# generated using pymatgen
data_Cu2Ni2C3
_symmetry_space_group_name_H-M   'P 1'
_cell_length_a   5.82647000
_cell_length_b   7.97073000
_cell_length_c   13.97464500
_cell_angle_alpha   90.00000000
_cell_angle_beta   90.00000000
_cell_angle_gamma   90.00000000
_symmetry_Int_Tables_number   1
_chemical_formula_structural   Cu2Ni2C3
_chemical_formula_sum   'Cu8 Ni8 C12'
_cell_volume   648.99955201
_cell_formula_units_Z   4
loop_
 _symmetry_equiv_pos_site_id
 _symmetry_equiv_pos_as_xyz
  1  'x, y, z'
loop_
 _atom_site_type_symbol
 _atom_site_label
 _atom_site_symmetry_multiplicity
 _atom_site_fract_x
 _atom_site_fract_y
 _atom_site_fract_z
 _atom_site_occupancy
  C  C0  1  0.14029500  0.60639300  0.09941000  1
  C  C1  1  0.14029500  0.89360700  0.90059000  1
  C  C2  1  0.85970500  0.10639300  0.40059000  1
  C  C3  1  0.85970500  0.39360700  0.59941000  1
  C  C4  1  0.85970500  0.39360700  0.90059000  1
  C  C5  1  0.85970500  0.10639300  0.09941000  1
  C  C6  1  0.14029500  0.89360700  0.59941000  1
  C  C7  1  0.14029500  0.60639300  0.40059000  1
  C  C8  1  0.36545400  0.25610200  0.25000000  1
  C  C9  1  0.36545400  0.24389800  0.75000000  1
  C  C10  1  0.63454600  0.75610200  0.25000000  1
  C  C11  1  0.63454600  0.74389800  0.75000000  1
  Ni  Ni12  1  0.37158300  0.25000000  0.00000000  1
  Ni  Ni13  1  0.62841700  0.75000000  0.50000000  1
  Ni  Ni14  1  0.62841700  0.75000000  0.00000000  1
  Ni  Ni15  1  0.37158300  0.25000000  0.50000000  1
  Ni  Ni16  1  0.85316900  0.40569200  0.25000000  1
  Ni  Ni17  1  0.85316900  0.09430800  0.75000000  1
  Ni  Ni18  1  0.14683100  0.90569200  0.25000000  1
  Ni  Ni19  1  0.14683100  0.59430800  0.75000000  1
  Cu  Cu20  1  0.63337800  0.46737200  0.09210300  1
  Cu  Cu21  1  0.63337800  0.03262800  0.90789700  1
  Cu  Cu22  1  0.36662200  0.96737200  0.40789700  1
  Cu  Cu23  1  0.36662200  0.53262800  0.59210300  1
  Cu  Cu24  1  0.36662200  0.53262800  0.90789700  1
  Cu  Cu25  1  0.36662200  0.96737200  0.09210300  1
  Cu  Cu26  1  0.63337800  0.03262800  0.59210300  1
  Cu  Cu27  1  0.63337800  0.46737200  0.40789700  1
