# generated using pymatgen
data_Cu2NiC4
_symmetry_space_group_name_H-M   'P 1'
_cell_length_a   7.53591247
_cell_length_b   7.53591247
_cell_length_c   7.53591247
_cell_angle_alpha   109.43741706
_cell_angle_beta   109.43741706
_cell_angle_gamma   109.53884895
_symmetry_Int_Tables_number   1
_chemical_formula_structural   Cu2NiC4
_chemical_formula_sum   'Cu4 Ni2 C8'
_cell_volume   329.44672236
_cell_formula_units_Z   2
loop_
 _symmetry_equiv_pos_site_id
 _symmetry_equiv_pos_as_xyz
  1  'x, y, z'
loop_
 _atom_site_type_symbol
 _atom_site_label
 _atom_site_symmetry_multiplicity
 _atom_site_fract_x
 _atom_site_fract_y
 _atom_site_fract_z
 _atom_site_occupancy
  Ni  Ni0  1  0.25000000  0.75000000  0.50000000  1
  Ni  Ni1  1  0.00000000  0.00000000  0.00000000  1
  Cu  Cu2  1  0.49788900  0.87500000  0.12288900  1
  Cu  Cu3  1  0.12500000  0.24788900  0.62288900  1
  Cu  Cu4  1  0.75211100  0.37500000  0.87711100  1
  Cu  Cu5  1  0.62500000  0.50211100  0.37711100  1
  C  C6  1  0.01722400  0.61450200  0.74872000  1
  C  C7  1  0.38421700  0.13549800  0.90272200  1
  C  C8  1  0.86450200  0.76722400  0.24872000  1
  C  C9  1  0.73149600  0.98277600  0.59727800  1
  C  C10  1  0.86578300  0.26850400  0.25128000  1
  C  C11  1  0.38549800  0.13421700  0.40272200  1
  C  C12  1  0.23277600  0.48149600  0.09727800  1
  C  C13  1  0.51850400  0.61578300  0.75128000  1
