# generated using pymatgen
data_Cu(NiC)2
_symmetry_space_group_name_H-M   'P 1'
_cell_length_a   10.68381268
_cell_length_b   10.68381268
_cell_length_c   10.68381205
_cell_angle_alpha   22.89528836
_cell_angle_beta   22.89528836
_cell_angle_gamma   22.89528730
_symmetry_Int_Tables_number   1
_chemical_formula_structural   Cu(NiC)2
_chemical_formula_sum   'Cu1 Ni2 C2'
_cell_volume   161.97735898
_cell_formula_units_Z   1
loop_
 _symmetry_equiv_pos_site_id
 _symmetry_equiv_pos_as_xyz
  1  'x, y, z'
loop_
 _atom_site_type_symbol
 _atom_site_label
 _atom_site_symmetry_multiplicity
 _atom_site_fract_x
 _atom_site_fract_y
 _atom_site_fract_z
 _atom_site_occupancy
  C  C0  1  0.89091000  0.89091000  0.89091000  1
  C  C1  1  0.10909000  0.10909000  0.10909000  1
  Ni  Ni2  1  0.71977000  0.71977000  0.71977000  1
  Ni  Ni3  1  0.28023000  0.28023000  0.28023000  1
  Cu  Cu4  1  0.50000000  0.50000000  0.50000000  1
