# generated using pymatgen
data_Cu6Ni2C
_symmetry_space_group_name_H-M   'P 1'
_cell_length_a   7.82114000
_cell_length_b   7.82114000
_cell_length_c   7.82114000
_cell_angle_alpha   90.00000000
_cell_angle_beta   90.00000000
_cell_angle_gamma   90.00000000
_symmetry_Int_Tables_number   1
_chemical_formula_structural   Cu6Ni2C
_chemical_formula_sum   'Cu24 Ni8 C4'
_cell_volume   478.42093970
_cell_formula_units_Z   4
loop_
 _symmetry_equiv_pos_site_id
 _symmetry_equiv_pos_as_xyz
  1  'x, y, z'
loop_
 _atom_site_type_symbol
 _atom_site_label
 _atom_site_symmetry_multiplicity
 _atom_site_fract_x
 _atom_site_fract_y
 _atom_site_fract_z
 _atom_site_occupancy
  C  C0  1  0.00000000  0.50000000  0.50000000  1
  C  C1  1  0.50000000  0.50000000  0.00000000  1
  C  C2  1  0.50000000  0.00000000  0.50000000  1
  C  C3  1  0.00000000  0.00000000  0.00000000  1
  Ni  Ni4  1  0.33685400  0.33685400  0.33685400  1
  Ni  Ni5  1  0.33685400  0.16314600  0.83685400  1
  Ni  Ni6  1  0.16314600  0.83685400  0.33685400  1
  Ni  Ni7  1  0.83685400  0.33685400  0.16314600  1
  Ni  Ni8  1  0.66314600  0.66314600  0.66314600  1
  Ni  Ni9  1  0.16314600  0.66314600  0.83685400  1
  Ni  Ni10  1  0.83685400  0.16314600  0.66314600  1
  Ni  Ni11  1  0.66314600  0.83685400  0.16314600  1
  Cu  Cu12  1  0.74604900  0.29891600  0.03467500  1
  Cu  Cu13  1  0.20108400  0.96532500  0.24604900  1
  Cu  Cu14  1  0.25395100  0.79891600  0.46532500  1
  Cu  Cu15  1  0.24604900  0.20108400  0.96532500  1
  Cu  Cu16  1  0.24604900  0.29891600  0.46532500  1
  Cu  Cu17  1  0.46532500  0.24604900  0.29891600  1
  Cu  Cu18  1  0.29891600  0.46532500  0.24604900  1
  Cu  Cu19  1  0.20108400  0.53467500  0.74604900  1
  Cu  Cu20  1  0.96532500  0.25395100  0.70108400  1
  Cu  Cu21  1  0.70108400  0.96532500  0.25395100  1
  Cu  Cu22  1  0.03467500  0.75395100  0.79891600  1
  Cu  Cu23  1  0.53467500  0.74604900  0.20108400  1
  Cu  Cu24  1  0.79891600  0.03467500  0.75395100  1
  Cu  Cu25  1  0.74604900  0.20108400  0.53467500  1
  Cu  Cu26  1  0.75395100  0.79891600  0.03467500  1
  Cu  Cu27  1  0.25395100  0.70108400  0.96532500  1
  Cu  Cu28  1  0.75395100  0.70108400  0.53467500  1
  Cu  Cu29  1  0.53467500  0.75395100  0.70108400  1
  Cu  Cu30  1  0.70108400  0.53467500  0.75395100  1
  Cu  Cu31  1  0.79891600  0.46532500  0.25395100  1
  Cu  Cu32  1  0.03467500  0.74604900  0.29891600  1
  Cu  Cu33  1  0.29891600  0.03467500  0.74604900  1
  Cu  Cu34  1  0.96532500  0.24604900  0.20108400  1
  Cu  Cu35  1  0.46532500  0.25395100  0.79891600  1
