# generated using pymatgen
data_Cu4Ni4C3
_symmetry_space_group_name_H-M   'P 1'
_cell_length_a   4.15883000
_cell_length_b   6.55806600
_cell_length_c   7.90366653
_cell_angle_alpha   114.51143968
_cell_angle_beta   105.25378696
_cell_angle_gamma   90.00000000
_symmetry_Int_Tables_number   1
_chemical_formula_structural   Cu4Ni4C3
_chemical_formula_sum   'Cu4 Ni4 C3'
_cell_volume   187.75828312
_cell_formula_units_Z   1
loop_
 _symmetry_equiv_pos_site_id
 _symmetry_equiv_pos_as_xyz
  1  'x, y, z'
loop_
 _atom_site_type_symbol
 _atom_site_label
 _atom_site_symmetry_multiplicity
 _atom_site_fract_x
 _atom_site_fract_y
 _atom_site_fract_z
 _atom_site_occupancy
  C  C0  1  0.87002600  0.87002600  0.74005200  1
  C  C1  1  0.12997400  0.12997400  0.25994800  1
  C  C2  1  0.00000000  0.50000000  0.00000000  1
  Ni  Ni3  1  0.33196900  0.52207600  0.66393800  1
  Ni  Ni4  1  0.66803100  0.85813900  0.33606300  1
  Ni  Ni5  1  0.33196900  0.14186100  0.66393700  1
  Ni  Ni6  1  0.66803100  0.47792400  0.33606200  1
  Cu  Cu7  1  0.50000000  0.81589700  0.00000000  1
  Cu  Cu8  1  0.50000000  0.18410300  0.00000000  1
  Cu  Cu9  1  0.78409100  0.28409100  0.56818200  1
  Cu  Cu10  1  0.21590900  0.71590900  0.43181800  1
