# generated using pymatgen
data_CuNiC8
_symmetry_space_group_name_H-M   'P 1'
_cell_length_a   3.98400900
_cell_length_b   5.65729600
_cell_length_c   22.44184700
_cell_angle_alpha   90.00000000
_cell_angle_beta   90.00000000
_cell_angle_gamma   90.00000000
_symmetry_Int_Tables_number   1
_chemical_formula_structural   CuNiC8
_chemical_formula_sum   'Cu4 Ni4 C32'
_cell_volume   505.81046496
_cell_formula_units_Z   4
loop_
 _symmetry_equiv_pos_site_id
 _symmetry_equiv_pos_as_xyz
  1  'x, y, z'
loop_
 _atom_site_type_symbol
 _atom_site_label
 _atom_site_symmetry_multiplicity
 _atom_site_fract_x
 _atom_site_fract_y
 _atom_site_fract_z
 _atom_site_occupancy
  C  C0  1  0.00000000  0.75000000  0.80809700  1
  C  C1  1  0.00000000  0.25000000  0.93597700  1
  C  C2  1  0.00000000  0.75000000  0.06402300  1
  C  C3  1  0.00000000  0.25000000  0.19190300  1
  C  C4  1  0.00000000  0.75000000  0.31946700  1
  C  C5  1  0.00000000  0.75000000  0.56335000  1
  C  C6  1  0.00000000  0.25000000  0.43665000  1
  C  C7  1  0.00000000  0.25000000  0.68053300  1
  Ni  Ni8  1  0.50000000  0.75000000  0.93594900  1
  Ni  Ni9  1  0.50000000  0.75000000  0.19293300  1
  Ni  Ni10  1  0.50000000  0.25000000  0.06405100  1
  Ni  Ni11  1  0.50000000  0.25000000  0.80706700  1
  Cu  Cu12  1  0.50000000  0.75000000  0.43913200  1
  Cu  Cu13  1  0.50000000  0.25000000  0.31579200  1
  Cu  Cu14  1  0.50000000  0.25000000  0.56086800  1
  Cu  Cu15  1  0.50000000  0.75000000  0.68420800  1
  C  C16  1  0.50000000  0.50065200  0.87193600  1
  C  C17  1  0.50000000  0.00000000  0.00000000  1
  C  C18  1  0.50000000  0.49934800  0.12806400  1
  C  C19  1  0.50000000  0.50036800  0.37725400  1
  C  C20  1  0.50000000  0.98571100  0.25620300  1
  C  C21  1  0.50000000  0.00000000  0.50000000  1
  C  C22  1  0.50000000  0.49963200  0.62274600  1
  C  C23  1  0.50000000  0.01428900  0.74379700  1
  C  C24  1  0.50000000  0.99934800  0.87193600  1
  C  C25  1  0.50000000  0.50000000  0.00000000  1
  C  C26  1  0.50000000  0.00065200  0.12806400  1
  C  C27  1  0.50000000  0.51428900  0.25620300  1
  C  C28  1  0.50000000  0.99963200  0.37725400  1
  C  C29  1  0.50000000  0.00036800  0.62274600  1
  C  C30  1  0.50000000  0.50000000  0.50000000  1
  C  C31  1  0.50000000  0.48571100  0.74379700  1
  C  C32  1  0.00000000  0.75000000  0.93628100  1
  C  C33  1  0.00000000  0.25000000  0.06371900  1
  C  C34  1  0.00000000  0.75000000  0.19521400  1
  C  C35  1  0.00000000  0.25000000  0.32334700  1
  C  C36  1  0.00000000  0.75000000  0.43591400  1
  C  C37  1  0.00000000  0.25000000  0.56408600  1
  C  C38  1  0.00000000  0.75000000  0.67665300  1
  C  C39  1  0.00000000  0.25000000  0.80478600  1
