# generated using pymatgen
data_Cu(NiC2)2
_symmetry_space_group_name_H-M   'P 1'
_cell_length_a   7.76980095
_cell_length_b   7.76980095
_cell_length_c   7.76979991
_cell_angle_alpha   108.01475681
_cell_angle_beta   108.01475681
_cell_angle_gamma   108.01475480
_symmetry_Int_Tables_number   1
_chemical_formula_structural   Cu(NiC2)2
_chemical_formula_sum   'Cu6 Ni12 C24'
_cell_volume   379.30612558
_cell_formula_units_Z   6
loop_
 _symmetry_equiv_pos_site_id
 _symmetry_equiv_pos_as_xyz
  1  'x, y, z'
loop_
 _atom_site_type_symbol
 _atom_site_label
 _atom_site_symmetry_multiplicity
 _atom_site_fract_x
 _atom_site_fract_y
 _atom_site_fract_z
 _atom_site_occupancy
  Ni  Ni0  1  0.87292600  0.10148400  0.27877000  1
  Ni  Ni1  1  0.10148400  0.27877000  0.87292600  1
  Ni  Ni2  1  0.27877000  0.87292600  0.10148400  1
  Ni  Ni3  1  0.12707400  0.89851600  0.72123000  1
  Ni  Ni4  1  0.89851600  0.72123000  0.12707400  1
  Ni  Ni5  1  0.72123000  0.12707400  0.89851600  1
  Ni  Ni6  1  0.39007300  0.79419200  0.56887300  1
  Ni  Ni7  1  0.56887300  0.39007300  0.79419200  1
  Ni  Ni8  1  0.79419200  0.56887300  0.39007300  1
  Ni  Ni9  1  0.60992700  0.20580800  0.43112700  1
  Ni  Ni10  1  0.43112700  0.60992700  0.20580800  1
  Ni  Ni11  1  0.20580800  0.43112700  0.60992700  1
  Cu  Cu12  1  0.53862100  0.76566600  0.94556900  1
  Cu  Cu13  1  0.76566600  0.94556900  0.53862100  1
  Cu  Cu14  1  0.94556900  0.53862100  0.76566600  1
  Cu  Cu15  1  0.46137900  0.23433400  0.05443100  1
  Cu  Cu16  1  0.23433400  0.05443100  0.46137900  1
  Cu  Cu17  1  0.05443100  0.46137900  0.23433400  1
  C  C18  1  0.29357500  0.62394800  0.32907500  1
  C  C19  1  0.32907500  0.29357500  0.62394800  1
  C  C20  1  0.62394800  0.32907500  0.29357500  1
  C  C21  1  0.70642500  0.37605200  0.67092500  1
  C  C22  1  0.67092500  0.70642500  0.37605200  1
  C  C23  1  0.37605200  0.67092500  0.70642500  1
  C  C24  1  0.04050600  0.33721100  0.37135100  1
  C  C25  1  0.37135100  0.04050600  0.33721100  1
  C  C26  1  0.33721100  0.37135100  0.04050600  1
  C  C27  1  0.95949400  0.66278900  0.62864900  1
  C  C28  1  0.62864900  0.95949400  0.66278900  1
  C  C29  1  0.66278900  0.62864900  0.95949400  1
  C  C30  1  0.91618900  0.58356400  0.25058800  1
  C  C31  1  0.25058800  0.91618900  0.58356400  1
  C  C32  1  0.58356400  0.25058800  0.91618900  1
  C  C33  1  0.08381100  0.41643600  0.74941200  1
  C  C34  1  0.74941200  0.08381100  0.41643600  1
  C  C35  1  0.41643600  0.74941200  0.08381100  1
  C  C36  1  0.96238500  0.29404600  0.99699100  1
  C  C37  1  0.99699100  0.96238500  0.29404600  1
  C  C38  1  0.29404600  0.99699100  0.96238500  1
  C  C39  1  0.03761500  0.70595400  0.00300900  1
  C  C40  1  0.00300900  0.03761500  0.70595400  1
  C  C41  1  0.70595400  0.00300900  0.03761500  1
