# generated using pymatgen
data_Cu(NiC2)2
_symmetry_space_group_name_H-M   'P 1'
_cell_length_a   4.96975900
_cell_length_b   6.10276300
_cell_length_c   10.44234900
_cell_angle_alpha   90.00000000
_cell_angle_beta   90.00000000
_cell_angle_gamma   90.00000000
_symmetry_Int_Tables_number   1
_chemical_formula_structural   Cu(NiC2)2
_chemical_formula_sum   'Cu4 Ni8 C16'
_cell_volume   316.70873187
_cell_formula_units_Z   4
loop_
 _symmetry_equiv_pos_site_id
 _symmetry_equiv_pos_as_xyz
  1  'x, y, z'
loop_
 _atom_site_type_symbol
 _atom_site_label
 _atom_site_symmetry_multiplicity
 _atom_site_fract_x
 _atom_site_fract_y
 _atom_site_fract_z
 _atom_site_occupancy
  Ni  Ni0  1  0.00000000  0.00000000  0.00000000  1
  Ni  Ni1  1  0.50000000  0.00000000  0.50000000  1
  Ni  Ni2  1  0.00000000  0.50000000  0.00000000  1
  Ni  Ni3  1  0.50000000  0.50000000  0.50000000  1
  Ni  Ni4  1  0.49343700  0.75000000  0.77609400  1
  Ni  Ni5  1  0.99343700  0.25000000  0.72390600  1
  Ni  Ni6  1  0.50656300  0.25000000  0.22390600  1
  Ni  Ni7  1  0.00656300  0.75000000  0.27609400  1
  Cu  Cu8  1  0.56384200  0.75000000  0.09432400  1
  Cu  Cu9  1  0.06384200  0.25000000  0.40567600  1
  Cu  Cu10  1  0.43615800  0.25000000  0.90567600  1
  Cu  Cu11  1  0.93615800  0.75000000  0.59432400  1
  C  C12  1  0.23316600  0.47864200  0.33562100  1
  C  C13  1  0.73316600  0.52135800  0.16437900  1
  C  C14  1  0.76683400  0.97864200  0.66437900  1
  C  C15  1  0.26683400  0.02135800  0.83562100  1
  C  C16  1  0.76683400  0.52135800  0.66437900  1
  C  C17  1  0.26683400  0.47864200  0.83562100  1
  C  C18  1  0.23316600  0.02135800  0.33562100  1
  C  C19  1  0.73316600  0.97864200  0.16437900  1
  C  C20  1  0.72984700  0.75000000  0.94012400  1
  C  C21  1  0.22984700  0.25000000  0.55987600  1
  C  C22  1  0.27015300  0.25000000  0.05987600  1
  C  C23  1  0.77015300  0.75000000  0.44012400  1
  C  C24  1  0.21107600  0.75000000  0.09209600  1
  C  C25  1  0.71107600  0.25000000  0.40790400  1
  C  C26  1  0.78892400  0.25000000  0.90790400  1
  C  C27  1  0.28892400  0.75000000  0.59209600  1
