# generated using pymatgen
data_Cu2Ni5
_symmetry_space_group_name_H-M   'P 1'
_cell_length_a   8.34008880
_cell_length_b   8.34008880
_cell_length_c   8.83548500
_cell_angle_alpha   90.00000000
_cell_angle_beta   90.00000000
_cell_angle_gamma   120.00000634
_symmetry_Int_Tables_number   1
_chemical_formula_structural   Cu2Ni5
_chemical_formula_sum   'Cu8 Ni20'
_cell_volume   532.23367242
_cell_formula_units_Z   4
loop_
 _symmetry_equiv_pos_site_id
 _symmetry_equiv_pos_as_xyz
  1  'x, y, z'
loop_
 _atom_site_type_symbol
 _atom_site_label
 _atom_site_symmetry_multiplicity
 _atom_site_fract_x
 _atom_site_fract_y
 _atom_site_fract_z
 _atom_site_occupancy
  Ni  Ni0  1  0.20338400  0.40676800  0.95820200  1
  Ni  Ni1  1  0.79661600  0.20338400  0.45820200  1
  Ni  Ni2  1  0.40676800  0.20338400  0.45820200  1
  Ni  Ni3  1  0.59323200  0.79661600  0.95820200  1
  Ni  Ni4  1  0.20338400  0.79661600  0.95820200  1
  Ni  Ni5  1  0.79661600  0.59323200  0.04179800  1
  Ni  Ni6  1  0.79661600  0.20338400  0.04179800  1
  Ni  Ni7  1  0.79661600  0.59323200  0.45820200  1
  Ni  Ni8  1  0.40676800  0.20338400  0.04179800  1
  Ni  Ni9  1  0.59323200  0.79661600  0.54179800  1
  Ni  Ni10  1  0.20338400  0.40676800  0.54179800  1
  Ni  Ni11  1  0.20338400  0.79661600  0.54179800  1
  Ni  Ni12  1  0.53721700  0.07443400  0.75000000  1
  Ni  Ni13  1  0.46278300  0.53721700  0.25000000  1
  Ni  Ni14  1  0.07443400  0.53721700  0.25000000  1
  Ni  Ni15  1  0.92556600  0.46278300  0.75000000  1
  Ni  Ni16  1  0.53721700  0.46278300  0.75000000  1
  Ni  Ni17  1  0.46278300  0.92556600  0.25000000  1
  Ni  Ni18  1  0.00000000  0.00000000  0.50000000  1
  Ni  Ni19  1  0.00000000  0.00000000  0.00000000  1
  Cu  Cu20  1  0.88887200  0.77774300  0.75000000  1
  Cu  Cu21  1  0.11112800  0.88887200  0.25000000  1
  Cu  Cu22  1  0.77774300  0.88887200  0.25000000  1
  Cu  Cu23  1  0.22225700  0.11112800  0.75000000  1
  Cu  Cu24  1  0.88887200  0.11112800  0.75000000  1
  Cu  Cu25  1  0.11112800  0.22225700  0.25000000  1
  Cu  Cu26  1  0.66666700  0.33333300  0.25000000  1
  Cu  Cu27  1  0.33333300  0.66666700  0.75000000  1
