# generated using pymatgen
data_CuNi3C17
_symmetry_space_group_name_H-M   'P 1'
_cell_length_a   10.04316609
_cell_length_b   10.04316609
_cell_length_c   6.97645700
_cell_angle_alpha   90.00000000
_cell_angle_beta   90.00000000
_cell_angle_gamma   120.00000063
_symmetry_Int_Tables_number   1
_chemical_formula_structural   CuNi3C17
_chemical_formula_sum   'Cu2 Ni6 C34'
_cell_volume   609.40616168
_cell_formula_units_Z   2
loop_
 _symmetry_equiv_pos_site_id
 _symmetry_equiv_pos_as_xyz
  1  'x, y, z'
loop_
 _atom_site_type_symbol
 _atom_site_label
 _atom_site_symmetry_multiplicity
 _atom_site_fract_x
 _atom_site_fract_y
 _atom_site_fract_z
 _atom_site_occupancy
  C  C0  1  0.33333300  0.66666700  0.50304700  1
  C  C1  1  0.66666700  0.33333300  0.00304700  1
  C  C2  1  0.01535900  0.75779000  0.24682900  1
  C  C3  1  0.33333300  0.66666700  0.99712700  1
  C  C4  1  0.24221000  0.25756900  0.24682900  1
  C  C5  1  0.74243100  0.98464100  0.24682900  1
  C  C6  1  0.25756900  0.01535900  0.74682900  1
  C  C7  1  0.75779000  0.74243100  0.74682900  1
  C  C8  1  0.66666700  0.33333300  0.49712700  1
  C  C9  1  0.98464100  0.24221000  0.74682900  1
  Ni  Ni10  1  0.02771300  0.40449200  0.25149000  1
  Ni  Ni11  1  0.37677900  0.97228700  0.25149000  1
  Ni  Ni12  1  0.40449200  0.37677900  0.75149000  1
  Ni  Ni13  1  0.59550800  0.62322100  0.25149000  1
  Ni  Ni14  1  0.62322100  0.02771300  0.75149000  1
  Ni  Ni15  1  0.97228700  0.59550800  0.75149000  1
  Cu  Cu16  1  0.00000000  0.00000000  0.99920300  1
  Cu  Cu17  1  0.00000000  0.00000000  0.49920300  1
  C  C18  1  0.25691100  0.89853400  0.43506200  1
  C  C19  1  0.26401100  0.91532700  0.06054800  1
  C  C20  1  0.15691100  0.67110000  0.77924300  1
  C  C21  1  0.11707300  0.59479900  0.22703500  1
  C  C22  1  0.08467300  0.34868300  0.06054800  1
  C  C23  1  0.10146600  0.35837700  0.43506200  1
  C  C24  1  0.47772600  0.88292700  0.22703500  1
  C  C25  1  0.51418900  0.84308900  0.77924300  1
  C  C26  1  0.32890000  0.48581100  0.77924300  1
  C  C27  1  0.40520100  0.52227400  0.22703500  1
  C  C28  1  0.34868300  0.26401100  0.56054800  1
  C  C29  1  0.35837700  0.25691100  0.93506200  1
  C  C30  1  0.65131700  0.73598900  0.06054800  1
  C  C31  1  0.64162300  0.74308900  0.43506200  1
  C  C32  1  0.59479900  0.47772600  0.72703500  1
  C  C33  1  0.67110000  0.51418900  0.27924300  1
  C  C34  1  0.48581100  0.15691100  0.27924300  1
  C  C35  1  0.52227400  0.11707300  0.72703500  1
  C  C36  1  0.91532700  0.65131700  0.56054800  1
  C  C37  1  0.89853400  0.64162300  0.93506200  1
  C  C38  1  0.88292700  0.40520100  0.72703500  1
  C  C39  1  0.84308900  0.32890000  0.27924300  1
  C  C40  1  0.74308900  0.10146600  0.93506200  1
  C  C41  1  0.73598900  0.08467300  0.56054800  1
