# generated using pymatgen
data_Cu9Ni2C3
_symmetry_space_group_name_H-M   'P 1'
_cell_length_a   6.72015100
_cell_length_b   7.53965900
_cell_length_c   8.03491681
_cell_angle_alpha   62.47775084
_cell_angle_beta   90.00000000
_cell_angle_gamma   90.00000000
_symmetry_Int_Tables_number   1
_chemical_formula_structural   Cu9Ni2C3
_chemical_formula_sum   'Cu18 Ni4 C6'
_cell_volume   361.03824659
_cell_formula_units_Z   2
loop_
 _symmetry_equiv_pos_site_id
 _symmetry_equiv_pos_as_xyz
  1  'x, y, z'
loop_
 _atom_site_type_symbol
 _atom_site_label
 _atom_site_symmetry_multiplicity
 _atom_site_fract_x
 _atom_site_fract_y
 _atom_site_fract_z
 _atom_site_occupancy
  C  C0  1  0.50000000  0.00000000  0.00000000  1
  C  C1  1  0.00000000  0.00000000  0.00000000  1
  C  C2  1  0.25000000  0.37721300  0.74439400  1
  C  C3  1  0.75000000  0.62278700  0.25560600  1
  C  C4  1  0.25000000  0.16709200  0.22580200  1
  C  C5  1  0.75000000  0.83290800  0.77419800  1
  Ni  Ni6  1  0.25000000  0.55703700  0.28587600  1
  Ni  Ni7  1  0.75000000  0.44296300  0.71412400  1
  Ni  Ni8  1  0.25000000  0.84797300  0.69979200  1
  Ni  Ni9  1  0.75000000  0.15202700  0.30020800  1
  Cu  Cu10  1  0.25000000  0.13128100  0.99258900  1
  Cu  Cu11  1  0.75000000  0.86871900  0.00741100  1
  Cu  Cu12  1  0.92905900  0.31065400  0.75921600  1
  Cu  Cu13  1  0.42905900  0.68934600  0.24078400  1
  Cu  Cu14  1  0.07094100  0.68934600  0.24078400  1
  Cu  Cu15  1  0.57094100  0.31065400  0.75921600  1
  Cu  Cu16  1  0.92985700  0.10915300  0.21380100  1
  Cu  Cu17  1  0.42985700  0.89084700  0.78619900  1
  Cu  Cu18  1  0.07014300  0.89084700  0.78619900  1
  Cu  Cu19  1  0.57014300  0.10915300  0.21380100  1
  Cu  Cu20  1  0.75000000  0.54805500  0.83128800  1
  Cu  Cu21  1  0.25000000  0.45194500  0.16871200  1
  Cu  Cu22  1  0.75000000  0.59457700  0.51433800  1
  Cu  Cu23  1  0.25000000  0.40542300  0.48566200  1
  Cu  Cu24  1  0.75000000  0.02595400  0.50414100  1
  Cu  Cu25  1  0.25000000  0.97404600  0.49585900  1
  Cu  Cu26  1  0.25000000  0.63560600  0.74405400  1
  Cu  Cu27  1  0.75000000  0.36439400  0.25594600  1
