# generated using pymatgen
data_Cu2NiC
_symmetry_space_group_name_H-M   'P 1'
_cell_length_a   3.60175000
_cell_length_b   3.60764300
_cell_length_c   3.65102300
_cell_angle_alpha   90.00000000
_cell_angle_beta   90.00000000
_cell_angle_gamma   90.00000000
_symmetry_Int_Tables_number   1
_chemical_formula_structural   Cu2NiC
_chemical_formula_sum   'Cu4 Ni2 C2'
_cell_volume   47.44076553
_cell_formula_units_Z   2
loop_
 _symmetry_equiv_pos_site_id
 _symmetry_equiv_pos_as_xyz
  1  'x, y, z'
loop_
 _atom_site_type_symbol
 _atom_site_label
 _atom_site_symmetry_multiplicity
 _atom_site_fract_x
 _atom_site_fract_y
 _atom_site_fract_z
 _atom_site_occupancy
  Ni  Ni0  1  0.74722700  0.50000000  0.00000000  1
  Ni  Ni1  1  0.25277300  0.00000000  0.00000000  1
  Cu  Cu2  1  0.74487400  0.00000000  0.50000000  1
  Cu  Cu3  1  0.25512600  0.50000000  0.50000000  1
  Cu  Cu4  1  0.50000000  0.75000000  0.74249600  1
  Cu  Cu5  1  0.50000000  0.25000000  0.25750400  1
  C  C6  1  0.00000000  0.25000000  0.74193000  1
  C  C7  1  0.00000000  0.75000000  0.25807000  1
