# generated using pymatgen
data_CuNiC4
_symmetry_space_group_name_H-M   'P 1'
_cell_length_a   5.17264400
_cell_length_b   5.20513221
_cell_length_c   7.42035610
_cell_angle_alpha   110.16349468
_cell_angle_beta   110.39829705
_cell_angle_gamma   90.00000000
_symmetry_Int_Tables_number   1
_chemical_formula_structural   CuNiC4
_chemical_formula_sum   'Cu2 Ni2 C8'
_cell_volume   174.13649681
_cell_formula_units_Z   2
loop_
 _symmetry_equiv_pos_site_id
 _symmetry_equiv_pos_as_xyz
  1  'x, y, z'
loop_
 _atom_site_type_symbol
 _atom_site_label
 _atom_site_symmetry_multiplicity
 _atom_site_fract_x
 _atom_site_fract_y
 _atom_site_fract_z
 _atom_site_occupancy
  Ni  Ni0  1  0.00000000  0.50000000  0.50000000  1
  Ni  Ni1  1  0.50000000  0.00000000  0.50000000  1
  Cu  Cu2  1  0.25661500  0.25000000  0.00000000  1
  Cu  Cu3  1  0.74338500  0.75000000  0.00000000  1
  C  C4  1  0.08034800  0.64012300  0.77318200  1
  C  C5  1  0.30716600  0.85987700  0.22681800  1
  C  C6  1  0.91965200  0.35987700  0.22681800  1
  C  C7  1  0.69283400  0.14012300  0.77318200  1
  C  C8  1  0.29501200  0.74270700  0.53745100  1
  C  C9  1  0.75756100  0.75729300  0.46254900  1
  C  C10  1  0.70498800  0.25729300  0.46254900  1
  C  C11  1  0.24243900  0.24270700  0.53745100  1
