# generated using pymatgen
data_Cu(NiC)2
_symmetry_space_group_name_H-M   'P 1'
_cell_length_a   4.27706673
_cell_length_b   4.27706673
_cell_length_c   10.85019555
_cell_angle_alpha   78.63278193
_cell_angle_beta   78.63278193
_cell_angle_gamma   59.99998864
_symmetry_Int_Tables_number   1
_chemical_formula_structural   Cu(NiC)2
_chemical_formula_sum   'Cu1 Ni2 C2'
_cell_volume   167.38290112
_cell_formula_units_Z   1
loop_
 _symmetry_equiv_pos_site_id
 _symmetry_equiv_pos_as_xyz
  1  'x, y, z'
loop_
 _atom_site_type_symbol
 _atom_site_label
 _atom_site_symmetry_multiplicity
 _atom_site_fract_x
 _atom_site_fract_y
 _atom_site_fract_z
 _atom_site_occupancy
  Ni  Ni0  1  0.59937400  0.59937400  0.20187800  1
  Ni  Ni1  1  0.40062600  0.40062600  0.79812200  1
  Cu  Cu2  1  0.00000000  0.00000000  0.00000000  1
  C  C3  1  0.21819800  0.21819800  0.34540600  1
  C  C4  1  0.78180200  0.78180200  0.65459400  1
