# generated using pymatgen
data_Cu10NiC4
_symmetry_space_group_name_H-M   'P 1'
_cell_length_a   7.29631072
_cell_length_b   7.29631072
_cell_length_c   7.29630981
_cell_angle_alpha   59.96536155
_cell_angle_beta   59.96536155
_cell_angle_gamma   59.96535855
_symmetry_Int_Tables_number   1
_chemical_formula_structural   Cu10NiC4
_chemical_formula_sum   'Cu10 Ni1 C4'
_cell_volume   274.44392548
_cell_formula_units_Z   1
loop_
 _symmetry_equiv_pos_site_id
 _symmetry_equiv_pos_as_xyz
  1  'x, y, z'
loop_
 _atom_site_type_symbol
 _atom_site_label
 _atom_site_symmetry_multiplicity
 _atom_site_fract_x
 _atom_site_fract_y
 _atom_site_fract_z
 _atom_site_occupancy
  C  C0  1  0.00007900  0.00007900  0.00007900  1
  C  C1  1  0.86635100  0.37581800  0.37581800  1
  C  C2  1  0.37581800  0.86635100  0.37581800  1
  C  C3  1  0.37581800  0.37581800  0.86635100  1
  Ni  Ni4  1  0.42682500  0.42682500  0.42682500  1
  Cu  Cu5  1  0.99638600  0.50545100  0.99638600  1
  Cu  Cu6  1  0.99638600  0.99638600  0.50545100  1
  Cu  Cu7  1  0.87320000  0.87320000  0.87320000  1
  Cu  Cu8  1  0.87491600  0.38053500  0.87491600  1
  Cu  Cu9  1  0.98836400  0.50482800  0.50482800  1
  Cu  Cu10  1  0.50545100  0.99638600  0.99638600  1
  Cu  Cu11  1  0.87491600  0.87491600  0.38053500  1
  Cu  Cu12  1  0.38053500  0.87491600  0.87491600  1
  Cu  Cu13  1  0.50482800  0.50482800  0.98836400  1
  Cu  Cu14  1  0.50482800  0.98836400  0.50482800  1
