# generated using pymatgen
data_Cu6Ni3C2
_symmetry_space_group_name_H-M   'P 1'
_cell_length_a   5.81556300
_cell_length_b   9.95427500
_cell_length_c   14.30669400
_cell_angle_alpha   90.00000000
_cell_angle_beta   90.00000000
_cell_angle_gamma   90.00000000
_symmetry_Int_Tables_number   1
_chemical_formula_structural   Cu6Ni3C2
_chemical_formula_sum   'Cu24 Ni12 C8'
_cell_volume   828.21041510
_cell_formula_units_Z   4
loop_
 _symmetry_equiv_pos_site_id
 _symmetry_equiv_pos_as_xyz
  1  'x, y, z'
loop_
 _atom_site_type_symbol
 _atom_site_label
 _atom_site_symmetry_multiplicity
 _atom_site_fract_x
 _atom_site_fract_y
 _atom_site_fract_z
 _atom_site_occupancy
  C  C0  1  0.25000000  0.81738400  0.23528200  1
  C  C1  1  0.75000000  0.18261600  0.76471800  1
  C  C2  1  0.25000000  0.31738400  0.26471800  1
  C  C3  1  0.75000000  0.68261600  0.73528200  1
  C  C4  1  0.25000000  0.86509800  0.91079800  1
  C  C5  1  0.75000000  0.13490200  0.08920200  1
  C  C6  1  0.25000000  0.36509800  0.58920200  1
  C  C7  1  0.75000000  0.63490200  0.41079800  1
  Ni  Ni8  1  0.25000000  0.70236700  0.53254000  1
  Ni  Ni9  1  0.75000000  0.29763300  0.46746000  1
  Ni  Ni10  1  0.25000000  0.20236700  0.96746000  1
  Ni  Ni11  1  0.75000000  0.79763300  0.03254000  1
  Ni  Ni12  1  0.25000000  0.91369800  0.54131400  1
  Ni  Ni13  1  0.75000000  0.08630200  0.45868600  1
  Ni  Ni14  1  0.25000000  0.41369800  0.95868600  1
  Ni  Ni15  1  0.75000000  0.58630200  0.04131400  1
  Ni  Ni16  1  0.25000000  0.97078000  0.68474900  1
  Ni  Ni17  1  0.75000000  0.02922000  0.31525100  1
  Ni  Ni18  1  0.25000000  0.47078000  0.81525100  1
  Ni  Ni19  1  0.75000000  0.52922000  0.18474900  1
  Cu  Cu20  1  0.53952800  0.35129300  0.42449600  1
  Cu  Cu21  1  0.03952800  0.64870700  0.57550400  1
  Cu  Cu22  1  0.96047200  0.85129300  0.07550400  1
  Cu  Cu23  1  0.46047200  0.14870700  0.92449600  1
  Cu  Cu24  1  0.46047200  0.64870700  0.57550400  1
  Cu  Cu25  1  0.96047200  0.35129300  0.42449600  1
  Cu  Cu26  1  0.03952800  0.14870700  0.92449600  1
  Cu  Cu27  1  0.53952800  0.85129300  0.07550400  1
  Cu  Cu28  1  0.53935700  0.08025800  0.27114600  1
  Cu  Cu29  1  0.03935700  0.91974200  0.72885400  1
  Cu  Cu30  1  0.96064300  0.58025800  0.22885400  1
  Cu  Cu31  1  0.46064300  0.41974200  0.77114600  1
  Cu  Cu32  1  0.46064300  0.91974200  0.72885400  1
  Cu  Cu33  1  0.96064300  0.08025800  0.27114600  1
  Cu  Cu34  1  0.03935700  0.41974200  0.77114600  1
  Cu  Cu35  1  0.53935700  0.58025800  0.22885400  1
  Cu  Cu36  1  0.25000000  0.69159100  0.42966600  1
  Cu  Cu37  1  0.75000000  0.30840900  0.57033400  1
  Cu  Cu38  1  0.25000000  0.19159100  0.07033400  1
  Cu  Cu39  1  0.75000000  0.80840900  0.92966600  1
  Cu  Cu40  1  0.75000000  0.38274000  0.17167200  1
  Cu  Cu41  1  0.25000000  0.61726000  0.82832800  1
  Cu  Cu42  1  0.75000000  0.88274000  0.32832800  1
  Cu  Cu43  1  0.25000000  0.11726000  0.67167200  1
