# generated using pymatgen
data_Cu8Ni7C4
_symmetry_space_group_name_H-M   'P 1'
_cell_length_a   4.12424200
_cell_length_b   13.07853800
_cell_length_c   13.63517509
_cell_angle_alpha   81.85636930
_cell_angle_beta   90.00000000
_cell_angle_gamma   90.00000000
_symmetry_Int_Tables_number   1
_chemical_formula_structural   Cu8Ni7C4
_chemical_formula_sum   'Cu16 Ni14 C8'
_cell_volume   728.05205965
_cell_formula_units_Z   2
loop_
 _symmetry_equiv_pos_site_id
 _symmetry_equiv_pos_as_xyz
  1  'x, y, z'
loop_
 _atom_site_type_symbol
 _atom_site_label
 _atom_site_symmetry_multiplicity
 _atom_site_fract_x
 _atom_site_fract_y
 _atom_site_fract_z
 _atom_site_occupancy
  C  C0  1  0.25000000  0.10114800  0.79825100  1
  C  C1  1  0.75000000  0.89885200  0.20174900  1
  C  C2  1  0.25000000  0.28877900  0.10481000  1
  C  C3  1  0.75000000  0.71122100  0.89519000  1
  C  C4  1  0.25000000  0.51464800  0.29044300  1
  C  C5  1  0.75000000  0.48535200  0.70955700  1
  C  C6  1  0.25000000  0.21412100  0.43269800  1
  C  C7  1  0.75000000  0.78587900  0.56730200  1
  Ni  Ni8  1  0.25000000  0.06009700  0.10143700  1
  Ni  Ni9  1  0.75000000  0.93990300  0.89856300  1
  Ni  Ni10  1  0.25000000  0.30867900  0.68919700  1
  Ni  Ni11  1  0.75000000  0.69132100  0.31080300  1
  Ni  Ni12  1  0.25000000  0.60868900  0.56585400  1
  Ni  Ni13  1  0.75000000  0.39131100  0.43414600  1
  Ni  Ni14  1  0.25000000  0.84885600  0.72102800  1
  Ni  Ni15  1  0.75000000  0.15114400  0.27897200  1
  Ni  Ni16  1  0.75000000  0.25595500  0.91952800  1
  Ni  Ni17  1  0.25000000  0.74404500  0.08047200  1
  Ni  Ni18  1  0.75000000  0.09675600  0.58457700  1
  Ni  Ni19  1  0.25000000  0.90324400  0.41542300  1
  Ni  Ni20  1  0.75000000  0.46898100  0.12825700  1
  Ni  Ni21  1  0.25000000  0.53101900  0.87174300  1
  Cu  Cu22  1  0.25000000  0.98584400  0.57266900  1
  Cu  Cu23  1  0.75000000  0.01415600  0.42733100  1
  Cu  Cu24  1  0.25000000  0.66542300  0.72953000  1
  Cu  Cu25  1  0.75000000  0.33457700  0.27047000  1
  Cu  Cu26  1  0.25000000  0.55505500  0.04800900  1
  Cu  Cu27  1  0.75000000  0.44494500  0.95199100  1
  Cu  Cu28  1  0.25000000  0.05331800  0.28100000  1
  Cu  Cu29  1  0.75000000  0.94668200  0.71900000  1
  Cu  Cu30  1  0.25000000  0.42489200  0.52765500  1
  Cu  Cu31  1  0.75000000  0.57510800  0.47234500  1
  Cu  Cu32  1  0.25000000  0.92085700  0.99813300  1
  Cu  Cu33  1  0.75000000  0.07914300  0.00186700  1
  Cu  Cu34  1  0.25000000  0.72038200  0.40080700  1
  Cu  Cu35  1  0.75000000  0.27961800  0.59919300  1
  Cu  Cu36  1  0.25000000  0.34240700  0.86077000  1
  Cu  Cu37  1  0.75000000  0.65759300  0.13923000  1
