# generated using pymatgen
data_CuNi2C
_symmetry_space_group_name_H-M   'P 1'
_cell_length_a   5.40075751
_cell_length_b   5.40075751
_cell_length_c   6.69900289
_cell_angle_alpha   65.57328145
_cell_angle_beta   65.57328145
_cell_angle_gamma   59.70399604
_symmetry_Int_Tables_number   1
_chemical_formula_structural   CuNi2C
_chemical_formula_sum   'Cu2 Ni4 C2'
_cell_volume   148.30086339
_cell_formula_units_Z   2
loop_
 _symmetry_equiv_pos_site_id
 _symmetry_equiv_pos_as_xyz
  1  'x, y, z'
loop_
 _atom_site_type_symbol
 _atom_site_label
 _atom_site_symmetry_multiplicity
 _atom_site_fract_x
 _atom_site_fract_y
 _atom_site_fract_z
 _atom_site_occupancy
  C  C0  1  0.24653100  0.77707300  0.24860800  1
  C  C1  1  0.77707300  0.24653100  0.74860800  1
  Ni  Ni2  1  0.78693100  0.57399600  0.63208500  1
  Ni  Ni3  1  0.07390800  0.99880900  0.63004600  1
  Ni  Ni4  1  0.57399600  0.78693100  0.13208500  1
  Ni  Ni5  1  0.99880900  0.07390800  0.13004600  1
  Cu  Cu6  1  0.49347900  0.29167300  0.62566000  1
  Cu  Cu7  1  0.29167300  0.49347900  0.12566000  1
