# generated using pymatgen
data_Cu2NiC
_symmetry_space_group_name_H-M   'P 1'
_cell_length_a   4.53189081
_cell_length_b   4.53189081
_cell_length_c   7.56647900
_cell_angle_alpha   90.00000000
_cell_angle_beta   90.00000000
_cell_angle_gamma   93.67880866
_symmetry_Int_Tables_number   1
_chemical_formula_structural   Cu2NiC
_chemical_formula_sum   'Cu4 Ni2 C2'
_cell_volume   155.08038979
_cell_formula_units_Z   2
loop_
 _symmetry_equiv_pos_site_id
 _symmetry_equiv_pos_as_xyz
  1  'x, y, z'
loop_
 _atom_site_type_symbol
 _atom_site_label
 _atom_site_symmetry_multiplicity
 _atom_site_fract_x
 _atom_site_fract_y
 _atom_site_fract_z
 _atom_site_occupancy
  C  C0  1  0.00000000  0.00000000  0.00000000  1
  C  C1  1  0.00000000  0.00000000  0.50000000  1
  Ni  Ni2  1  0.46535400  0.53464600  0.25000000  1
  Ni  Ni3  1  0.53464600  0.46535400  0.75000000  1
  Cu  Cu4  1  0.53490100  0.88250600  0.25000000  1
  Cu  Cu5  1  0.46509900  0.11749400  0.75000000  1
  Cu  Cu6  1  0.11749400  0.46509900  0.25000000  1
  Cu  Cu7  1  0.88250600  0.53490100  0.75000000  1
