# generated using pymatgen
data_CuNiC8
_symmetry_space_group_name_H-M   'P 1'
_cell_length_a   5.64711200
_cell_length_b   5.68593414
_cell_length_c   7.69024753
_cell_angle_alpha   90.69012661
_cell_angle_beta   90.00003497
_cell_angle_gamma   90.00008076
_symmetry_Int_Tables_number   1
_chemical_formula_structural   CuNiC8
_chemical_formula_sum   'Cu2 Ni2 C16'
_cell_volume   246.90906787
_cell_formula_units_Z   2
loop_
 _symmetry_equiv_pos_site_id
 _symmetry_equiv_pos_as_xyz
  1  'x, y, z'
loop_
 _atom_site_type_symbol
 _atom_site_label
 _atom_site_symmetry_multiplicity
 _atom_site_fract_x
 _atom_site_fract_y
 _atom_site_fract_z
 _atom_site_occupancy
  C  C0  1  0.00722900  0.99862400  0.25076300  1
  C  C1  1  0.49277300  0.49862100  0.75076400  1
  C  C2  1  0.51307700  0.51124400  0.25001100  1
  C  C3  1  0.98692200  0.01124300  0.75001700  1
  Ni  Ni4  1  0.49814600  0.00139400  0.50187800  1
  Ni  Ni5  1  0.00185100  0.50139600  0.00187800  1
  Cu  Cu6  1  0.00088200  0.50287700  0.50001300  1
  Cu  Cu7  1  0.49911300  0.00287700  0.99999600  1
  C  C8  1  0.00397700  0.57838900  0.74532900  1
  C  C9  1  0.49602800  0.07838700  0.24533200  1
  C  C10  1  0.24159700  0.22498900  0.53839100  1
  C  C11  1  0.25840200  0.72499100  0.03839300  1
  C  C12  1  0.22722700  0.24273500  0.96045300  1
  C  C13  1  0.27277200  0.74273400  0.46044900  1
  C  C14  1  0.50699800  0.93821200  0.75426400  1
  C  C15  1  0.99300200  0.43820400  0.25425800  1
  C  C16  1  0.74019300  0.24188500  0.53649600  1
  C  C17  1  0.75980800  0.74188400  0.03649500  1
  C  C18  1  0.75438700  0.25965900  0.96241200  1
  C  C19  1  0.74561300  0.75965700  0.46240700  1
