# generated using pymatgen
data_Cu5Ni2C3
_symmetry_space_group_name_H-M   'P 1'
_cell_length_a   6.38704200
_cell_length_b   6.81623600
_cell_length_c   21.81445800
_cell_angle_alpha   90.00000000
_cell_angle_beta   90.00000000
_cell_angle_gamma   90.00000000
_symmetry_Int_Tables_number   1
_chemical_formula_structural   Cu5Ni2C3
_chemical_formula_sum   'Cu20 Ni8 C12'
_cell_volume   949.70520388
_cell_formula_units_Z   4
loop_
 _symmetry_equiv_pos_site_id
 _symmetry_equiv_pos_as_xyz
  1  'x, y, z'
loop_
 _atom_site_type_symbol
 _atom_site_label
 _atom_site_symmetry_multiplicity
 _atom_site_fract_x
 _atom_site_fract_y
 _atom_site_fract_z
 _atom_site_occupancy
  C  C0  1  0.04911200  0.38001500  0.40190100  1
  C  C1  1  0.54911200  0.11998500  0.59809900  1
  C  C2  1  0.45088800  0.88001500  0.09809900  1
  C  C3  1  0.95088800  0.61998500  0.90190100  1
  C  C4  1  0.95088800  0.61998500  0.59809900  1
  C  C5  1  0.45088800  0.88001500  0.40190100  1
  C  C6  1  0.54911200  0.11998500  0.90190100  1
  C  C7  1  0.04911200  0.38001500  0.09809900  1
  C  C8  1  0.55040800  0.53746400  0.75000000  1
  C  C9  1  0.05040800  0.96253600  0.25000000  1
  C  C10  1  0.94959200  0.03746400  0.75000000  1
  C  C11  1  0.44959200  0.46253600  0.25000000  1
  Ni  Ni12  1  0.80829400  0.32856900  0.67233000  1
  Ni  Ni13  1  0.30829400  0.17143100  0.17233000  1
  Ni  Ni14  1  0.80829400  0.32856900  0.82767000  1
  Ni  Ni15  1  0.19170600  0.67143100  0.32767000  1
  Ni  Ni16  1  0.69170600  0.82856900  0.67233000  1
  Ni  Ni17  1  0.69170600  0.82856900  0.82767000  1
  Ni  Ni18  1  0.19170600  0.67143100  0.17233000  1
  Ni  Ni19  1  0.30829400  0.17143100  0.32767000  1
  Cu  Cu20  1  0.15454400  0.68238500  0.75000000  1
  Cu  Cu21  1  0.65454400  0.81761500  0.25000000  1
  Cu  Cu22  1  0.34545600  0.18238600  0.75000000  1
  Cu  Cu23  1  0.84545600  0.31761500  0.25000000  1
  Cu  Cu24  1  0.83489100  0.03873300  0.11738700  1
  Cu  Cu25  1  0.83489100  0.03873300  0.38261300  1
  Cu  Cu26  1  0.33489100  0.46126700  0.88261300  1
  Cu  Cu27  1  0.66510900  0.53873300  0.38261300  1
  Cu  Cu28  1  0.16510900  0.96126700  0.61738700  1
  Cu  Cu29  1  0.16510900  0.96126700  0.88261300  1
  Cu  Cu30  1  0.66510900  0.53873300  0.11738700  1
  Cu  Cu31  1  0.33489100  0.46126700  0.61738700  1
  Cu  Cu32  1  0.32332900  0.16762700  0.02018500  1
  Cu  Cu33  1  0.82332900  0.33237300  0.97981500  1
  Cu  Cu34  1  0.17667100  0.66762700  0.47981500  1
  Cu  Cu35  1  0.67667100  0.83237300  0.52018500  1
  Cu  Cu36  1  0.67667100  0.83237300  0.97981500  1
  Cu  Cu37  1  0.17667100  0.66762700  0.02018500  1
  Cu  Cu38  1  0.82332900  0.33237300  0.52018500  1
  Cu  Cu39  1  0.32332900  0.16762700  0.47981500  1
