# generated using pymatgen
data_Cu3Ni4
_symmetry_space_group_name_H-M   'P 1'
_cell_length_a   9.94166679
_cell_length_b   9.94166679
_cell_length_c   9.94166679
_cell_angle_alpha   109.47122063
_cell_angle_beta   109.47122063
_cell_angle_gamma   109.47122063
_symmetry_Int_Tables_number   1
_chemical_formula_structural   Cu3Ni4
_chemical_formula_sum   'Cu24 Ni32'
_cell_volume   756.40731280
_cell_formula_units_Z   8
loop_
 _symmetry_equiv_pos_site_id
 _symmetry_equiv_pos_as_xyz
  1  'x, y, z'
loop_
 _atom_site_type_symbol
 _atom_site_label
 _atom_site_symmetry_multiplicity
 _atom_site_fract_x
 _atom_site_fract_y
 _atom_site_fract_z
 _atom_site_occupancy
  Ni  Ni0  1  0.50000000  0.00000000  0.00000000  1
  Ni  Ni1  1  0.50000000  0.50000000  0.00000000  1
  Ni  Ni2  1  0.00000000  0.50000000  0.50000000  1
  Ni  Ni3  1  0.00000000  0.00000000  0.00000000  1
  Ni  Ni4  1  0.00000000  0.00000000  0.50000000  1
  Ni  Ni5  1  0.50000000  0.50000000  0.50000000  1
  Ni  Ni6  1  0.00000000  0.50000000  0.00000000  1
  Ni  Ni7  1  0.50000000  0.00000000  0.50000000  1
  Ni  Ni8  1  0.26230400  0.75000000  0.01230400  1
  Ni  Ni9  1  0.25000000  0.26230400  0.01230400  1
  Ni  Ni10  1  0.75000000  0.23769600  0.48769600  1
  Ni  Ni11  1  0.26230400  0.01230400  0.25000000  1
  Ni  Ni12  1  0.23769600  0.48769600  0.75000000  1
  Ni  Ni13  1  0.01230400  0.25000000  0.26230400  1
  Ni  Ni14  1  0.01230400  0.26230400  0.75000000  1
  Ni  Ni15  1  0.25000000  0.48769600  0.23769600  1
  Ni  Ni16  1  0.48769600  0.23769600  0.25000000  1
  Ni  Ni17  1  0.75000000  0.01230400  0.26230400  1
  Ni  Ni18  1  0.23769600  0.25000000  0.48769600  1
  Ni  Ni19  1  0.48769600  0.75000000  0.23769600  1
  Ni  Ni20  1  0.73769600  0.25000000  0.98769600  1
  Ni  Ni21  1  0.75000000  0.73769600  0.98769600  1
  Ni  Ni22  1  0.25000000  0.76230400  0.51230400  1
  Ni  Ni23  1  0.73769600  0.98769600  0.75000000  1
  Ni  Ni24  1  0.76230400  0.51230400  0.25000000  1
  Ni  Ni25  1  0.98769600  0.75000000  0.73769600  1
  Ni  Ni26  1  0.98769600  0.73769600  0.25000000  1
  Ni  Ni27  1  0.75000000  0.51230400  0.76230400  1
  Ni  Ni28  1  0.51230400  0.76230400  0.75000000  1
  Ni  Ni29  1  0.25000000  0.98769600  0.73769600  1
  Ni  Ni30  1  0.76230400  0.75000000  0.51230400  1
  Ni  Ni31  1  0.51230400  0.25000000  0.76230400  1
  Cu  Cu32  1  0.74190500  0.48380900  0.49190500  1
  Cu  Cu33  1  0.25000000  0.74190500  0.75809500  1
  Cu  Cu34  1  0.48380900  0.49190500  0.74190500  1
  Cu  Cu35  1  0.00809500  0.49190500  0.25000000  1
  Cu  Cu36  1  0.49190500  0.74190500  0.48380900  1
  Cu  Cu37  1  0.75809500  0.25000000  0.74190500  1
  Cu  Cu38  1  0.49190500  0.25000000  0.00809500  1
  Cu  Cu39  1  0.75809500  0.00809500  0.01619100  1
  Cu  Cu40  1  0.25000000  0.00809500  0.49190500  1
  Cu  Cu41  1  0.01619100  0.75809500  0.00809500  1
  Cu  Cu42  1  0.74190500  0.75809500  0.25000000  1
  Cu  Cu43  1  0.00809500  0.01619100  0.75809500  1
  Cu  Cu44  1  0.25809500  0.51619100  0.50809500  1
  Cu  Cu45  1  0.75000000  0.25809500  0.24190500  1
  Cu  Cu46  1  0.51619100  0.50809500  0.25809500  1
  Cu  Cu47  1  0.99190500  0.50809500  0.75000000  1
  Cu  Cu48  1  0.50809500  0.25809500  0.51619100  1
  Cu  Cu49  1  0.24190500  0.75000000  0.25809500  1
  Cu  Cu50  1  0.50809500  0.75000000  0.99190500  1
  Cu  Cu51  1  0.24190500  0.99190500  0.98380900  1
  Cu  Cu52  1  0.75000000  0.99190500  0.50809500  1
  Cu  Cu53  1  0.98380900  0.24190500  0.99190500  1
  Cu  Cu54  1  0.25809500  0.24190500  0.75000000  1
  Cu  Cu55  1  0.99190500  0.98380900  0.24190500  1
