# generated using pymatgen
data_Cu3(NiC)2
_symmetry_space_group_name_H-M   'P 1'
_cell_length_a   7.30201900
_cell_length_b   14.22666900
_cell_length_c   15.55216019
_cell_angle_alpha   89.73591879
_cell_angle_beta   90.00000000
_cell_angle_gamma   90.00000000
_symmetry_Int_Tables_number   1
_chemical_formula_structural   Cu3(NiC)2
_chemical_formula_sum   'Cu24 Ni16 C16'
_cell_volume   1615.59423161
_cell_formula_units_Z   8
loop_
 _symmetry_equiv_pos_site_id
 _symmetry_equiv_pos_as_xyz
  1  'x, y, z'
loop_
 _atom_site_type_symbol
 _atom_site_label
 _atom_site_symmetry_multiplicity
 _atom_site_fract_x
 _atom_site_fract_y
 _atom_site_fract_z
 _atom_site_occupancy
  C  C0  1  0.06782900  0.43925500  0.09742100  1
  C  C1  1  0.43217100  0.43925500  0.59742100  1
  C  C2  1  0.93217100  0.56074500  0.90257900  1
  C  C3  1  0.56782900  0.56074500  0.40257900  1
  C  C4  1  0.04204600  0.92087100  0.38732100  1
  C  C5  1  0.54204600  0.07912900  0.11267900  1
  C  C6  1  0.95795400  0.07912900  0.61267900  1
  C  C7  1  0.45795400  0.92087100  0.88732100  1
  C  C8  1  0.06694700  0.64872000  0.47877800  1
  C  C9  1  0.56694700  0.35128000  0.02122200  1
  C  C10  1  0.93305300  0.35128000  0.52122200  1
  C  C11  1  0.43305300  0.64872000  0.97877800  1
  C  C12  1  0.45510600  0.13505200  0.51192500  1
  C  C13  1  0.95510600  0.86494800  0.98807500  1
  C  C14  1  0.54489400  0.86494800  0.48807500  1
  C  C15  1  0.04489400  0.13505200  0.01192500  1
  Ni  Ni16  1  0.71036100  0.68718500  0.16151200  1
  Ni  Ni17  1  0.77033300  0.40801300  0.76157300  1
  Ni  Ni18  1  0.72966700  0.40801300  0.26157300  1
  Ni  Ni19  1  0.22966700  0.59198700  0.23842700  1
  Ni  Ni20  1  0.26468200  0.81180100  0.66874300  1
  Ni  Ni21  1  0.76468200  0.18819900  0.83125700  1
  Ni  Ni22  1  0.73531800  0.18819900  0.33125700  1
  Ni  Ni23  1  0.23531800  0.81180100  0.16874300  1
  Ni  Ni24  1  0.29221900  0.09487800  0.77131200  1
  Ni  Ni25  1  0.79221900  0.90512200  0.72868800  1
  Ni  Ni26  1  0.70778100  0.90512200  0.22868800  1
  Ni  Ni27  1  0.20778100  0.09487800  0.27131200  1
  Ni  Ni28  1  0.21036100  0.31281500  0.33848800  1
  Ni  Ni29  1  0.78963900  0.68718500  0.66151200  1
  Ni  Ni30  1  0.28963900  0.31281500  0.83848800  1
  Ni  Ni31  1  0.27033300  0.59198700  0.73842700  1
  Cu  Cu32  1  0.54703700  0.84216300  0.08134500  1
  Cu  Cu33  1  0.53074900  0.02864600  0.33168200  1
  Cu  Cu34  1  0.96925100  0.02864600  0.83168200  1
  Cu  Cu35  1  0.46925100  0.97135400  0.66831800  1
  Cu  Cu36  1  0.03074900  0.97135400  0.16831800  1
  Cu  Cu37  1  0.04703700  0.15783700  0.41865500  1
  Cu  Cu38  1  0.45296300  0.15783700  0.91865500  1
  Cu  Cu39  1  0.95296300  0.84216300  0.58134500  1
  Cu  Cu40  1  0.04833800  0.66234800  0.09649100  1
  Cu  Cu41  1  0.54833800  0.33765200  0.40350900  1
  Cu  Cu42  1  0.95166200  0.33765200  0.90350900  1
  Cu  Cu43  1  0.45166200  0.66234800  0.59649100  1
  Cu  Cu44  1  0.17390800  0.75007700  0.83061900  1
  Cu  Cu45  1  0.67390800  0.24992300  0.66938100  1
  Cu  Cu46  1  0.82609200  0.24992300  0.16938100  1
  Cu  Cu47  1  0.32609200  0.75007700  0.33061900  1
  Cu  Cu48  1  0.52584500  0.52100700  0.15656800  1
  Cu  Cu49  1  0.02584500  0.47899300  0.34343200  1
  Cu  Cu50  1  0.47415500  0.47899300  0.84343200  1
  Cu  Cu51  1  0.97415500  0.52100700  0.65656800  1
  Cu  Cu52  1  0.77266600  0.74652100  0.82665200  1
  Cu  Cu53  1  0.27266600  0.25347900  0.67334800  1
  Cu  Cu54  1  0.22733400  0.25347900  0.17334800  1
  Cu  Cu55  1  0.72733400  0.74652100  0.32665200  1
