# generated using pymatgen
data_Cu2Ni5C2
_symmetry_space_group_name_H-M   'P 1'
_cell_length_a   4.65688200
_cell_length_b   9.58714900
_cell_length_c   10.52450640
_cell_angle_alpha   88.53196971
_cell_angle_beta   90.00000000
_cell_angle_gamma   90.00000000
_symmetry_Int_Tables_number   1
_chemical_formula_structural   Cu2Ni5C2
_chemical_formula_sum   'Cu4 Ni10 C4'
_cell_volume   469.72521916
_cell_formula_units_Z   2
loop_
 _symmetry_equiv_pos_site_id
 _symmetry_equiv_pos_as_xyz
  1  'x, y, z'
loop_
 _atom_site_type_symbol
 _atom_site_label
 _atom_site_symmetry_multiplicity
 _atom_site_fract_x
 _atom_site_fract_y
 _atom_site_fract_z
 _atom_site_occupancy
  C  C0  1  0.75000000  0.63982900  0.24707800  1
  C  C1  1  0.25000000  0.36017100  0.75292200  1
  C  C2  1  0.75000000  0.09900100  0.24713900  1
  C  C3  1  0.25000000  0.90099900  0.75286100  1
  Ni  Ni4  1  0.25000000  0.13560900  0.47681600  1
  Ni  Ni5  1  0.75000000  0.86439100  0.52318400  1
  Ni  Ni6  1  0.25000000  0.37115700  0.24263700  1
  Ni  Ni7  1  0.75000000  0.62884300  0.75736300  1
  Ni  Ni8  1  0.25000000  0.60544200  0.52088600  1
  Ni  Ni9  1  0.75000000  0.39455800  0.47911400  1
  Ni  Ni10  1  0.25000000  0.61400100  0.98352200  1
  Ni  Ni11  1  0.75000000  0.38599900  0.01647800  1
  Ni  Ni12  1  0.75000000  0.10621500  0.88694400  1
  Ni  Ni13  1  0.25000000  0.89378500  0.11305600  1
  Cu  Cu14  1  0.75000000  0.14555600  0.62740000  1
  Cu  Cu15  1  0.25000000  0.85444400  0.37260000  1
  Cu  Cu16  1  0.75000000  0.82064500  0.97182800  1
  Cu  Cu17  1  0.25000000  0.17935500  0.02817200  1
