# generated using pymatgen
data_Cu9Ni10C
_symmetry_space_group_name_H-M   'P 1'
_cell_length_a   7.47403900
_cell_length_b   8.69916237
_cell_length_c   9.77023608
_cell_angle_alpha   101.87747569
_cell_angle_beta   96.82771865
_cell_angle_gamma   107.01606235
_symmetry_Int_Tables_number   1
_chemical_formula_structural   Cu9Ni10C
_chemical_formula_sum   'Cu9 Ni10 C1'
_cell_volume   583.43459888
_cell_formula_units_Z   1
loop_
 _symmetry_equiv_pos_site_id
 _symmetry_equiv_pos_as_xyz
  1  'x, y, z'
loop_
 _atom_site_type_symbol
 _atom_site_label
 _atom_site_symmetry_multiplicity
 _atom_site_fract_x
 _atom_site_fract_y
 _atom_site_fract_z
 _atom_site_occupancy
  Ni  Ni0  1  0.90018300  0.54943700  0.80028500  1
  Ni  Ni1  1  0.69947700  0.15178400  0.39953400  1
  Ni  Ni2  1  0.50039300  0.75023300  0.99995500  1
  Ni  Ni3  1  0.69600500  0.64711900  0.39907800  1
  Ni  Ni4  1  0.30399500  0.35288100  0.60092200  1
  Ni  Ni5  1  0.10290100  0.94957000  0.19722000  1
  Ni  Ni6  1  0.49960700  0.24976700  0.00004500  1
  Ni  Ni7  1  0.30052300  0.84821600  0.60046600  1
  Ni  Ni8  1  0.09981700  0.45056300  0.19971500  1
  Ni  Ni9  1  0.89709900  0.05043000  0.80278000  1
  Cu  Cu10  1  0.80144600  0.60216300  0.10340100  1
  Cu  Cu11  1  0.59939300  0.19923100  0.69836000  1
  Cu  Cu12  1  0.40060700  0.80076900  0.30164000  1
  Cu  Cu13  1  0.79944700  0.09964300  0.10385400  1
  Cu  Cu14  1  0.19855400  0.39783700  0.89659900  1
  Cu  Cu15  1  0.60611300  0.70326200  0.70006100  1
  Cu  Cu16  1  0.39388700  0.29673800  0.29993900  1
  Cu  Cu17  1  0.20055300  0.90035700  0.89614600  1
  Cu  Cu18  1  0.00000000  0.50000000  0.50000000  1
  C  C19  1  0.00000000  0.00000000  0.50000000  1
