# generated using pymatgen
data_Cu3(NiC4)2
_symmetry_space_group_name_H-M   'P 1'
_cell_length_a   9.47934217
_cell_length_b   9.47934217
_cell_length_c   9.47934217
_cell_angle_alpha   105.98038984
_cell_angle_beta   105.98038984
_cell_angle_gamma   116.70412573
_symmetry_Int_Tables_number   1
_chemical_formula_structural   Cu3(NiC4)2
_chemical_formula_sum   'Cu12 Ni8 C32'
_cell_volume   647.78001160
_cell_formula_units_Z   4
loop_
 _symmetry_equiv_pos_site_id
 _symmetry_equiv_pos_as_xyz
  1  'x, y, z'
loop_
 _atom_site_type_symbol
 _atom_site_label
 _atom_site_symmetry_multiplicity
 _atom_site_fract_x
 _atom_site_fract_y
 _atom_site_fract_z
 _atom_site_occupancy
  Ni  Ni0  1  0.80853500  0.42838100  0.22792500  1
  Ni  Ni1  1  0.67838100  0.95045500  0.11984500  1
  Ni  Ni2  1  0.83061000  0.55853500  0.88015500  1
  Ni  Ni3  1  0.20045500  0.58061000  0.77207500  1
  Ni  Ni4  1  0.44146500  0.32161900  0.27207500  1
  Ni  Ni5  1  0.57161900  0.79954500  0.38015500  1
  Ni  Ni6  1  0.41939000  0.19146500  0.61984500  1
  Ni  Ni7  1  0.04954500  0.16939000  0.72792500  1
  Cu  Cu8  1  0.50000000  0.50000000  0.00000000  1
  Cu  Cu9  1  0.75000000  0.25000000  0.50000000  1
  Cu  Cu10  1  0.00000000  0.00000000  0.00000000  1
  Cu  Cu11  1  0.25000000  0.75000000  0.50000000  1
  Cu  Cu12  1  0.26525500  0.85696400  0.18252900  1
  Cu  Cu13  1  0.10696400  0.42443500  0.09170900  1
  Cu  Cu14  1  0.33272600  0.01525500  0.90829100  1
  Cu  Cu15  1  0.67443500  0.08272600  0.81747100  1
  Cu  Cu16  1  0.98474500  0.89303600  0.31747100  1
  Cu  Cu17  1  0.14303600  0.32556500  0.40829100  1
  Cu  Cu18  1  0.91727400  0.73474500  0.59170900  1
  Cu  Cu19  1  0.57556500  0.66727400  0.68252900  1
  C  C20  1  0.82921900  0.44590700  0.03415700  1
  C  C21  1  0.69590700  0.16174900  0.11668800  1
  C  C22  1  0.04506100  0.57921900  0.88331200  1
  C  C23  1  0.41174900  0.79506100  0.96584300  1
  C  C24  1  0.42078100  0.30409300  0.46584300  1
  C  C25  1  0.55409300  0.58825100  0.38331200  1
  C  C26  1  0.20493900  0.17078100  0.61668800  1
  C  C27  1  0.83825100  0.95493900  0.53415700  1
  C  C28  1  0.93290000  0.06679200  0.25877500  1
  C  C29  1  0.31679200  0.55801700  0.63389200  1
  C  C30  1  0.92412500  0.68290000  0.36610800  1
  C  C31  1  0.80801700  0.67412500  0.74122500  1
  C  C32  1  0.31710000  0.68320800  0.24122500  1
  C  C33  1  0.93320800  0.19198300  0.86610800  1
  C  C34  1  0.32587500  0.06710000  0.13389200  1
  C  C35  1  0.44198300  0.07587500  0.75877500  1
  C  C36  1  0.54056500  0.35543300  0.10897500  1
  C  C37  1  0.60543300  0.99645800  0.31486800  1
  C  C38  1  0.68159000  0.29056500  0.68513200  1
  C  C39  1  0.24645800  0.43159000  0.89102500  1
  C  C40  1  0.10544600  0.02846200  0.81870300  1
  C  C41  1  0.27846200  0.95976000  0.42301600  1
  C  C42  1  0.53674400  0.85544600  0.57698400  1
  C  C43  1  0.20976000  0.28674400  0.18129700  1
  C  C44  1  0.14455400  0.72153800  0.68129700  1
  C  C45  1  0.97153800  0.79024000  0.07698400  1
  C  C46  1  0.71325600  0.89455400  0.92301600  1
  C  C47  1  0.04024000  0.46325600  0.31870300  1
  C  C48  1  0.00354200  0.31841000  0.60897500  1
  C  C49  1  0.56841000  0.45943500  0.81486800  1
  C  C50  1  0.64456700  0.75354200  0.18513200  1
  C  C51  1  0.70943500  0.39456700  0.39102500  1
