# generated using pymatgen
data_Cu10Ni17
_symmetry_space_group_name_H-M   'P 1'
_cell_length_a   5.87987600
_cell_length_b   5.87987600
_cell_length_c   48.23391200
_cell_angle_alpha   90.00000000
_cell_angle_beta   90.00000000
_cell_angle_gamma   90.00000000
_symmetry_Int_Tables_number   1
_chemical_formula_structural   Cu10Ni17
_chemical_formula_sum   'Cu40 Ni68'
_cell_volume   1667.58823117
_cell_formula_units_Z   4
loop_
 _symmetry_equiv_pos_site_id
 _symmetry_equiv_pos_as_xyz
  1  'x, y, z'
loop_
 _atom_site_type_symbol
 _atom_site_label
 _atom_site_symmetry_multiplicity
 _atom_site_fract_x
 _atom_site_fract_y
 _atom_site_fract_z
 _atom_site_occupancy
  Ni  Ni0  1  0.17166800  0.17166800  0.25000000  1
  Ni  Ni1  1  0.17166800  0.82833200  0.75000000  1
  Ni  Ni2  1  0.82833200  0.17166800  0.75000000  1
  Ni  Ni3  1  0.82833200  0.82833200  0.25000000  1
  Ni  Ni4  1  0.34709900  0.23306900  0.01515900  1
  Ni  Ni5  1  0.23306900  0.65290100  0.98484100  1
  Ni  Ni6  1  0.76693100  0.34709900  0.98484100  1
  Ni  Ni7  1  0.65290100  0.76693100  0.01515900  1
  Ni  Ni8  1  0.23306900  0.34709900  0.48484100  1
  Ni  Ni9  1  0.76693100  0.65290100  0.48484100  1
  Ni  Ni10  1  0.65290100  0.23306900  0.51515900  1
  Ni  Ni11  1  0.34709900  0.76693100  0.51515900  1
  Ni  Ni12  1  0.79890400  0.15627200  0.04498900  1
  Ni  Ni13  1  0.15627200  0.20109600  0.95501100  1
  Ni  Ni14  1  0.84372800  0.79890400  0.95501100  1
  Ni  Ni15  1  0.20109600  0.84372800  0.04498900  1
  Ni  Ni16  1  0.15627200  0.79890400  0.45501100  1
  Ni  Ni17  1  0.84372800  0.20109600  0.45501100  1
  Ni  Ni18  1  0.20109600  0.15627200  0.54498900  1
  Ni  Ni19  1  0.79890400  0.84372800  0.54498900  1
  Ni  Ni20  1  0.16693500  0.32271600  0.07378200  1
  Ni  Ni21  1  0.32271600  0.83306500  0.92621800  1
  Ni  Ni22  1  0.67728400  0.16693500  0.92621800  1
  Ni  Ni23  1  0.83306500  0.67728400  0.07378200  1
  Ni  Ni24  1  0.32271600  0.16693500  0.42621800  1
  Ni  Ni25  1  0.67728400  0.83306500  0.42621800  1
  Ni  Ni26  1  0.83306500  0.32271600  0.57378200  1
  Ni  Ni27  1  0.16693500  0.67728400  0.57378200  1
  Ni  Ni28  1  0.66256500  0.31547900  0.10252500  1
  Ni  Ni29  1  0.31547900  0.33743500  0.89747500  1
  Ni  Ni30  1  0.68452100  0.66256500  0.89747500  1
  Ni  Ni31  1  0.33743500  0.68452100  0.10252500  1
  Ni  Ni32  1  0.31547900  0.66256500  0.39747500  1
  Ni  Ni33  1  0.68452100  0.33743500  0.39747500  1
  Ni  Ni34  1  0.33743500  0.31547900  0.60252500  1
  Ni  Ni35  1  0.66256500  0.68452100  0.60252500  1
  Ni  Ni36  1  0.28867100  0.15441000  0.13154100  1
  Ni  Ni37  1  0.15441000  0.71132900  0.86845900  1
  Ni  Ni38  1  0.84559000  0.28867100  0.86845900  1
  Ni  Ni39  1  0.71132900  0.84559000  0.13154100  1
  Ni  Ni40  1  0.15441000  0.28867100  0.36845900  1
  Ni  Ni41  1  0.84559000  0.71132900  0.36845900  1
  Ni  Ni42  1  0.71132900  0.15441000  0.63154100  1
  Ni  Ni43  1  0.28867100  0.84559000  0.63154100  1
  Ni  Ni44  1  0.84772900  0.24466600  0.16163400  1
  Ni  Ni45  1  0.24466600  0.15227100  0.83836600  1
  Ni  Ni46  1  0.75533400  0.84772900  0.83836600  1
  Ni  Ni47  1  0.15227100  0.75533400  0.16163400  1
  Ni  Ni48  1  0.24466600  0.84772900  0.33836600  1
  Ni  Ni49  1  0.75533400  0.15227100  0.33836600  1
  Ni  Ni50  1  0.15227100  0.24466600  0.66163400  1
  Ni  Ni51  1  0.84772900  0.75533400  0.66163400  1
  Ni  Ni52  1  0.27861500  0.34648900  0.19197200  1
  Ni  Ni53  1  0.34648900  0.72138500  0.80802800  1
  Ni  Ni54  1  0.65351100  0.27861500  0.80802800  1
  Ni  Ni55  1  0.72138500  0.65351100  0.19197200  1
  Ni  Ni56  1  0.34648900  0.27861500  0.30802800  1
  Ni  Ni57  1  0.65351100  0.72138500  0.30802800  1
  Ni  Ni58  1  0.72138500  0.34648900  0.69197200  1
  Ni  Ni59  1  0.27861500  0.65351100  0.69197200  1
  Ni  Ni60  1  0.65924900  0.19203900  0.22130100  1
  Ni  Ni61  1  0.19203900  0.34075100  0.77869900  1
  Ni  Ni62  1  0.80796100  0.65924900  0.77869900  1
  Ni  Ni63  1  0.34075100  0.80796100  0.22130100  1
  Ni  Ni64  1  0.19203900  0.65924900  0.27869900  1
  Ni  Ni65  1  0.80796100  0.34075100  0.27869900  1
  Ni  Ni66  1  0.34075100  0.19203900  0.72130100  1
  Ni  Ni67  1  0.65924900  0.80796100  0.72130100  1
  Cu  Cu68  1  0.50000000  0.50000000  0.25000000  1
  Cu  Cu69  1  0.50000000  0.50000000  0.75000000  1
  Cu  Cu70  1  0.00000000  0.00000000  0.00000000  1
  Cu  Cu71  1  0.00000000  0.00000000  0.50000000  1
  Cu  Cu72  1  0.00000000  0.00000000  0.09874200  1
  Cu  Cu73  1  0.00000000  0.00000000  0.90125800  1
  Cu  Cu74  1  0.00000000  0.00000000  0.40125800  1
  Cu  Cu75  1  0.00000000  0.00000000  0.59874200  1
  Cu  Cu76  1  0.00000000  0.00000000  0.20125500  1
  Cu  Cu77  1  0.00000000  0.00000000  0.79874500  1
  Cu  Cu78  1  0.00000000  0.00000000  0.29874500  1
  Cu  Cu79  1  0.00000000  0.00000000  0.70125500  1
  Cu  Cu80  1  0.50000000  0.50000000  0.05158700  1
  Cu  Cu81  1  0.50000000  0.50000000  0.94841300  1
  Cu  Cu82  1  0.50000000  0.50000000  0.44841300  1
  Cu  Cu83  1  0.50000000  0.50000000  0.55158700  1
  Cu  Cu84  1  0.50000000  0.50000000  0.14940500  1
  Cu  Cu85  1  0.50000000  0.50000000  0.85059500  1
  Cu  Cu86  1  0.50000000  0.50000000  0.35059500  1
  Cu  Cu87  1  0.50000000  0.50000000  0.64940500  1
  Cu  Cu88  1  0.00000000  0.50000000  0.02597400  1
  Cu  Cu89  1  0.50000000  0.00000000  0.97402600  1
  Cu  Cu90  1  0.50000000  0.00000000  0.47402600  1
  Cu  Cu91  1  0.00000000  0.50000000  0.52597400  1
  Cu  Cu92  1  0.00000000  0.50000000  0.12350900  1
  Cu  Cu93  1  0.50000000  0.00000000  0.87649100  1
  Cu  Cu94  1  0.50000000  0.00000000  0.37649100  1
  Cu  Cu95  1  0.00000000  0.50000000  0.62350900  1
  Cu  Cu96  1  0.00000000  0.50000000  0.22655700  1
  Cu  Cu97  1  0.50000000  0.00000000  0.77344300  1
  Cu  Cu98  1  0.50000000  0.00000000  0.27344300  1
  Cu  Cu99  1  0.00000000  0.50000000  0.72655700  1
  Cu  Cu100  1  0.00000000  0.50000000  0.32469300  1
  Cu  Cu101  1  0.50000000  0.00000000  0.67530700  1
  Cu  Cu102  1  0.50000000  0.00000000  0.17530700  1
  Cu  Cu103  1  0.00000000  0.50000000  0.82469300  1
  Cu  Cu104  1  0.00000000  0.50000000  0.42427200  1
  Cu  Cu105  1  0.50000000  0.00000000  0.57572800  1
  Cu  Cu106  1  0.50000000  0.00000000  0.07572800  1
  Cu  Cu107  1  0.00000000  0.50000000  0.92427200  1
