# generated using pymatgen
data_Cu4NiC16
_symmetry_space_group_name_H-M   'P 1'
_cell_length_a   10.18163926
_cell_length_b   10.18163926
_cell_length_c   11.09703145
_cell_angle_alpha   79.54599082
_cell_angle_beta   79.54599082
_cell_angle_gamma   32.30817443
_symmetry_Int_Tables_number   1
_chemical_formula_structural   Cu4NiC16
_chemical_formula_sum   'Cu8 Ni2 C32'
_cell_volume   603.77817299
_cell_formula_units_Z   2
loop_
 _symmetry_equiv_pos_site_id
 _symmetry_equiv_pos_as_xyz
  1  'x, y, z'
loop_
 _atom_site_type_symbol
 _atom_site_label
 _atom_site_symmetry_multiplicity
 _atom_site_fract_x
 _atom_site_fract_y
 _atom_site_fract_z
 _atom_site_occupancy
  Ni  Ni0  1  0.60708700  0.39291300  0.25000000  1
  Ni  Ni1  1  0.39291300  0.60708700  0.75000000  1
  Cu  Cu2  1  0.80566900  0.69324100  0.37098600  1
  Cu  Cu3  1  0.30675900  0.19433100  0.12901400  1
  Cu  Cu4  1  0.98785300  0.79983400  0.07379800  1
  Cu  Cu5  1  0.20016600  0.01214700  0.42620200  1
  Cu  Cu6  1  0.01214700  0.20016600  0.92620200  1
  Cu  Cu7  1  0.79983400  0.98785300  0.57379800  1
  Cu  Cu8  1  0.69324100  0.80566900  0.87098600  1
  Cu  Cu9  1  0.19433100  0.30675900  0.62901400  1
  C  C10  1  0.72812800  0.26346400  0.60870500  1
  C  C11  1  0.73653600  0.27187200  0.89129500  1
  C  C12  1  0.27187200  0.73653600  0.39129500  1
  C  C13  1  0.26346400  0.72812800  0.10870500  1
  C  C14  1  0.61879800  0.61832800  0.66346800  1
  C  C15  1  0.38167200  0.38120200  0.83653200  1
  C  C16  1  0.38120200  0.38167200  0.33653200  1
  C  C17  1  0.61832800  0.61879800  0.16346800  1
  C  C18  1  0.01151200  0.26928600  0.71966800  1
  C  C19  1  0.73071400  0.98848800  0.78033200  1
  C  C20  1  0.88563300  0.99448900  0.36603600  1
  C  C21  1  0.00551100  0.11436700  0.13396400  1
  C  C22  1  0.11436700  0.00551100  0.63396400  1
  C  C23  1  0.99448900  0.88563300  0.86603600  1
  C  C24  1  0.65751000  0.22136000  0.08223300  1
  C  C25  1  0.77864000  0.34249000  0.41776700  1
  C  C26  1  0.34249000  0.77864000  0.91776700  1
  C  C27  1  0.22136000  0.65751000  0.58223300  1
  C  C28  1  0.32189500  0.39629900  0.04155900  1
  C  C29  1  0.60370100  0.67810500  0.45844100  1
  C  C30  1  0.67810500  0.60370100  0.95844100  1
  C  C31  1  0.39629900  0.32189500  0.54155900  1
  C  C32  1  0.72198000  0.85294100  0.05382600  1
  C  C33  1  0.14705900  0.27802000  0.44617400  1
  C  C34  1  0.27802000  0.14705900  0.94617400  1
  C  C35  1  0.85294100  0.72198000  0.55382600  1
  C  C36  1  0.44393100  0.11442700  0.31221400  1
  C  C37  1  0.88557300  0.55606900  0.18778600  1
  C  C38  1  0.55606900  0.88557300  0.68778600  1
  C  C39  1  0.11442700  0.44393100  0.81221400  1
  C  C40  1  0.26928600  0.01151200  0.21966800  1
  C  C41  1  0.98848800  0.73071400  0.28033200  1
