# generated using pymatgen
data_Cu(Ni2C3)2
_symmetry_space_group_name_H-M   'P 1'
_cell_length_a   9.52394281
_cell_length_b   9.52394281
_cell_length_c   9.52394275
_cell_angle_alpha   89.08636912
_cell_angle_beta   89.08636912
_cell_angle_gamma   89.08637269
_symmetry_Int_Tables_number   1
_chemical_formula_structural   Cu(Ni2C3)2
_chemical_formula_sum   'Cu2 Ni8 C12'
_cell_volume   863.54784429
_cell_formula_units_Z   2
loop_
 _symmetry_equiv_pos_site_id
 _symmetry_equiv_pos_as_xyz
  1  'x, y, z'
loop_
 _atom_site_type_symbol
 _atom_site_label
 _atom_site_symmetry_multiplicity
 _atom_site_fract_x
 _atom_site_fract_y
 _atom_site_fract_z
 _atom_site_occupancy
  C  C0  1  0.05767300  0.92989600  0.72506200  1
  C  C1  1  0.92989600  0.72506200  0.05767300  1
  C  C2  1  0.72506200  0.05767300  0.92989600  1
  C  C3  1  0.57010400  0.44232700  0.77493800  1
  C  C4  1  0.77493800  0.57010400  0.44232700  1
  C  C5  1  0.44232700  0.77493800  0.57010400  1
  C  C6  1  0.07010400  0.27493800  0.94232700  1
  C  C7  1  0.94232700  0.07010400  0.27493800  1
  C  C8  1  0.27493800  0.94232700  0.07010400  1
  C  C9  1  0.42989600  0.55767300  0.22506200  1
  C  C10  1  0.22506200  0.42989600  0.55767300  1
  C  C11  1  0.55767300  0.22506200  0.42989600  1
  Ni  Ni12  1  0.75000000  0.75000000  0.75000000  1
  Ni  Ni13  1  0.25000000  0.25000000  0.25000000  1
  Ni  Ni14  1  0.75000000  0.37902100  0.12097900  1
  Ni  Ni15  1  0.12097900  0.75000000  0.37902100  1
  Ni  Ni16  1  0.37902100  0.12097900  0.75000000  1
  Ni  Ni17  1  0.25000000  0.62097900  0.87902100  1
  Ni  Ni18  1  0.87902100  0.25000000  0.62097900  1
  Ni  Ni19  1  0.62097900  0.87902100  0.25000000  1
  Cu  Cu20  1  0.50000000  0.50000000  0.50000000  1
  Cu  Cu21  1  0.00000000  0.00000000  0.00000000  1
