# generated using pymatgen
data_Cu4Ni2C3
_symmetry_space_group_name_H-M   'P 1'
_cell_length_a   10.18690951
_cell_length_b   10.18690951
_cell_length_c   13.74616308
_cell_angle_alpha   55.95885043
_cell_angle_beta   55.95885043
_cell_angle_gamma   30.53958365
_symmetry_Int_Tables_number   1
_chemical_formula_structural   Cu4Ni2C3
_chemical_formula_sum   'Cu16 Ni8 C12'
_cell_volume   590.32800711
_cell_formula_units_Z   4
loop_
 _symmetry_equiv_pos_site_id
 _symmetry_equiv_pos_as_xyz
  1  'x, y, z'
loop_
 _atom_site_type_symbol
 _atom_site_label
 _atom_site_symmetry_multiplicity
 _atom_site_fract_x
 _atom_site_fract_y
 _atom_site_fract_z
 _atom_site_occupancy
  C  C0  1  0.75245300  0.48088400  0.04641300  1
  C  C1  1  0.53398100  0.30235300  0.15783400  1
  C  C2  1  0.51911600  0.24754700  0.45358700  1
  C  C3  1  0.46601900  0.69764700  0.84216600  1
  C  C4  1  0.29255700  0.03594000  0.13898600  1
  C  C5  1  0.96406000  0.70744300  0.36101400  1
  C  C6  1  0.70744300  0.96406000  0.86101400  1
  C  C7  1  0.03594000  0.29255700  0.63898600  1
  C  C8  1  0.24754700  0.51911600  0.95358700  1
  C  C9  1  0.48088400  0.75245300  0.54641300  1
  C  C10  1  0.30235300  0.53398100  0.65783400  1
  C  C11  1  0.69764700  0.46601900  0.34216600  1
  Ni  Ni12  1  0.64506300  0.82682200  0.28279000  1
  Ni  Ni13  1  0.82682200  0.64506300  0.78279000  1
  Ni  Ni14  1  0.35493700  0.17317800  0.71721000  1
  Ni  Ni15  1  0.17317800  0.35493700  0.21721000  1
  Ni  Ni16  1  0.13845000  0.91239400  0.07683600  1
  Ni  Ni17  1  0.08760600  0.86155000  0.42316400  1
  Ni  Ni18  1  0.86155000  0.08760600  0.92316400  1
  Ni  Ni19  1  0.91239400  0.13845000  0.57683600  1
  Cu  Cu20  1  0.88811500  0.11188500  0.25000000  1
  Cu  Cu21  1  0.11188500  0.88811500  0.75000000  1
  Cu  Cu22  1  0.36055600  0.63944400  0.25000000  1
  Cu  Cu23  1  0.63944400  0.36055600  0.75000000  1
  Cu  Cu24  1  0.00136900  0.22980500  0.87500200  1
  Cu  Cu25  1  0.77019500  0.99863100  0.62499800  1
  Cu  Cu26  1  0.99863100  0.77019500  0.12499800  1
  Cu  Cu27  1  0.22980500  0.00136900  0.37500200  1
  Cu  Cu28  1  0.60215400  0.04874600  0.07200300  1
  Cu  Cu29  1  0.95125400  0.39784600  0.42799700  1
  Cu  Cu30  1  0.39784600  0.95125400  0.92799700  1
  Cu  Cu31  1  0.04874600  0.60215400  0.57200300  1
  Cu  Cu32  1  0.39308500  0.15213300  0.38974400  1
  Cu  Cu33  1  0.84786700  0.60691500  0.11025600  1
  Cu  Cu34  1  0.60691500  0.84786700  0.61025600  1
  Cu  Cu35  1  0.15213300  0.39308500  0.88974400  1
