# generated using pymatgen
data_Cu(NiC6)2
_symmetry_space_group_name_H-M   'P 1'
_cell_length_a   5.82541600
_cell_length_b   12.37449903
_cell_length_c   12.37449903
_cell_angle_alpha   109.24985722
_cell_angle_beta   90.00000000
_cell_angle_gamma   90.00000000
_symmetry_Int_Tables_number   1
_chemical_formula_structural   Cu(NiC6)2
_chemical_formula_sum   'Cu4 Ni8 C48'
_cell_volume   842.16176704
_cell_formula_units_Z   4
loop_
 _symmetry_equiv_pos_site_id
 _symmetry_equiv_pos_as_xyz
  1  'x, y, z'
loop_
 _atom_site_type_symbol
 _atom_site_label
 _atom_site_symmetry_multiplicity
 _atom_site_fract_x
 _atom_site_fract_y
 _atom_site_fract_z
 _atom_site_occupancy
  C  C0  1  0.50000000  0.25000000  0.75000000  1
  C  C1  1  0.00000000  0.00000000  0.00000000  1
  C  C2  1  0.00000000  0.50000000  0.50000000  1
  C  C3  1  0.50000000  0.75000000  0.25000000  1
  C  C4  1  0.00000000  0.50251900  0.83585200  1
  C  C5  1  0.50000000  0.25251900  0.08585200  1
  C  C6  1  0.50000000  0.75251900  0.58585200  1
  C  C7  1  0.00000000  0.00251900  0.33585200  1
  C  C8  1  0.50000000  0.74748100  0.91414800  1
  C  C9  1  0.00000000  0.49748100  0.16414800  1
  C  C10  1  0.00000000  0.99748100  0.66414800  1
  C  C11  1  0.50000000  0.24748100  0.41414800  1
  Ni  Ni12  1  0.50000000  0.50486100  0.67152800  1
  Ni  Ni13  1  0.00000000  0.25486100  0.92152800  1
  Ni  Ni14  1  0.00000000  0.75486100  0.42152800  1
  Ni  Ni15  1  0.50000000  0.00486100  0.17152800  1
  Ni  Ni16  1  0.00000000  0.74513900  0.07847200  1
  Ni  Ni17  1  0.50000000  0.49513900  0.32847200  1
  Ni  Ni18  1  0.50000000  0.99513900  0.82847200  1
  Ni  Ni19  1  0.00000000  0.24513900  0.57847200  1
  Cu  Cu20  1  0.50000000  0.50000000  0.00000000  1
  Cu  Cu21  1  0.00000000  0.75000000  0.75000000  1
  Cu  Cu22  1  0.00000000  0.25000000  0.25000000  1
  Cu  Cu23  1  0.50000000  0.00000000  0.50000000  1
  C  C24  1  0.00000000  0.25000000  0.75000000  1
  C  C25  1  0.50000000  0.00000000  0.00000000  1
  C  C26  1  0.50000000  0.50000000  0.50000000  1
  C  C27  1  0.00000000  0.75000000  0.25000000  1
  C  C28  1  0.75000000  0.37500000  0.62500000  1
  C  C29  1  0.25000000  0.12500000  0.87500000  1
  C  C30  1  0.25000000  0.62500000  0.37500000  1
  C  C31  1  0.75000000  0.87500000  0.12500000  1
  C  C32  1  0.25000000  0.37500000  0.62500000  1
  C  C33  1  0.75000000  0.12500000  0.87500000  1
  C  C34  1  0.75000000  0.62500000  0.37500000  1
  C  C35  1  0.25000000  0.87500000  0.12500000  1
  C  C36  1  0.75757300  0.63056900  0.04471100  1
  C  C37  1  0.25757300  0.38056900  0.29471100  1
  C  C38  1  0.25757300  0.88056900  0.79471100  1
  C  C39  1  0.75757300  0.13056900  0.54471100  1
  C  C40  1  0.24242600  0.63056900  0.04471100  1
  C  C41  1  0.74242600  0.38056900  0.29471100  1
  C  C42  1  0.74242600  0.88056900  0.79471100  1
  C  C43  1  0.24242600  0.13056900  0.54471100  1
  C  C44  1  0.00000000  0.75178200  0.92349800  1
  C  C45  1  0.50000000  0.50178200  0.17349800  1
  C  C46  1  0.50000000  0.00178200  0.67349800  1
  C  C47  1  0.00000000  0.25178200  0.42349800  1
  C  C48  1  0.25757200  0.61943100  0.70528900  1
  C  C49  1  0.75757200  0.36943100  0.95528900  1
  C  C50  1  0.75757200  0.86943100  0.45528900  1
  C  C51  1  0.25757200  0.11943100  0.20528900  1
  C  C52  1  0.74242800  0.61943100  0.70528900  1
  C  C53  1  0.24242800  0.36943100  0.95528900  1
  C  C54  1  0.24242800  0.86943100  0.45528900  1
  C  C55  1  0.74242800  0.11943100  0.20528900  1
  C  C56  1  0.50000000  0.49821800  0.82650300  1
  C  C57  1  0.00000000  0.24821800  0.07650300  1
  C  C58  1  0.00000000  0.74821800  0.57650300  1
  C  C59  1  0.50000000  0.99821800  0.32650300  1
