# generated using pymatgen
data_Cu4NiC
_symmetry_space_group_name_H-M   'P 1'
_cell_length_a   6.51049400
_cell_length_b   8.69401100
_cell_length_c   12.55836784
_cell_angle_alpha   59.48527050
_cell_angle_beta   90.00000000
_cell_angle_gamma   90.00000000
_symmetry_Int_Tables_number   1
_chemical_formula_structural   Cu4NiC
_chemical_formula_sum   'Cu16 Ni4 C4'
_cell_volume   612.38131574
_cell_formula_units_Z   4
loop_
 _symmetry_equiv_pos_site_id
 _symmetry_equiv_pos_as_xyz
  1  'x, y, z'
loop_
 _atom_site_type_symbol
 _atom_site_label
 _atom_site_symmetry_multiplicity
 _atom_site_fract_x
 _atom_site_fract_y
 _atom_site_fract_z
 _atom_site_occupancy
  C  C0  1  0.32227100  0.55512700  0.83557200  1
  C  C1  1  0.82227100  0.44487300  0.66442800  1
  C  C2  1  0.67772900  0.44487300  0.16442800  1
  C  C3  1  0.17772900  0.55512700  0.33557100  1
  Ni  Ni4  1  0.22991200  0.68425100  0.03934600  1
  Ni  Ni5  1  0.72991200  0.31574900  0.46065400  1
  Ni  Ni6  1  0.77008800  0.31574900  0.96065400  1
  Ni  Ni7  1  0.27008800  0.68425100  0.53934600  1
  Cu  Cu8  1  0.22833100  0.41988600  0.58749500  1
  Cu  Cu9  1  0.72833100  0.58011400  0.91250500  1
  Cu  Cu10  1  0.77166900  0.58011400  0.41250500  1
  Cu  Cu11  1  0.27166900  0.41988600  0.08749500  1
  Cu  Cu12  1  0.25493400  0.84238900  0.35477400  1
  Cu  Cu13  1  0.75493400  0.15761100  0.14522600  1
  Cu  Cu14  1  0.74506600  0.15761100  0.64522600  1
  Cu  Cu15  1  0.24506600  0.84238900  0.85477400  1
  Cu  Cu16  1  0.53899400  0.71522300  0.61516100  1
  Cu  Cu17  1  0.03899400  0.28477700  0.88483900  1
  Cu  Cu18  1  0.46100600  0.28477700  0.38483900  1
  Cu  Cu19  1  0.96100600  0.71522300  0.11516100  1
  Cu  Cu20  1  0.05087500  0.73533900  0.63613100  1
  Cu  Cu21  1  0.55087500  0.26466100  0.86386900  1
  Cu  Cu22  1  0.94912500  0.26466100  0.36386900  1
  Cu  Cu23  1  0.44912500  0.73533900  0.13613100  1
