# generated using pymatgen
data_Cu7NiC12
_symmetry_space_group_name_H-M   'P 1'
_cell_length_a   10.91414699
_cell_length_b   10.91414699
_cell_length_c   10.91414699
_cell_angle_alpha   116.03078483
_cell_angle_beta   116.03078483
_cell_angle_gamma   97.02439865
_symmetry_Int_Tables_number   1
_chemical_formula_structural   Cu7NiC12
_chemical_formula_sum   'Cu14 Ni2 C24'
_cell_volume   966.57440879
_cell_formula_units_Z   2
loop_
 _symmetry_equiv_pos_site_id
 _symmetry_equiv_pos_as_xyz
  1  'x, y, z'
loop_
 _atom_site_type_symbol
 _atom_site_label
 _atom_site_symmetry_multiplicity
 _atom_site_fract_x
 _atom_site_fract_y
 _atom_site_fract_z
 _atom_site_occupancy
  C  C0  1  0.85245100  0.57171000  0.13370100  1
  C  C1  1  0.56199100  0.28124900  0.13370100  1
  C  C2  1  0.14754900  0.42829000  0.86629900  1
  C  C3  1  0.93800900  0.07171000  0.71925900  1
  C  C4  1  0.28124900  0.14754900  0.71925900  1
  C  C5  1  0.42829000  0.56199100  0.28074100  1
  C  C6  1  0.64754900  0.78124900  0.71925900  1
  C  C7  1  0.78124900  0.06199100  0.13370100  1
  C  C8  1  0.92829000  0.64754900  0.86629900  1
  C  C9  1  0.43800900  0.71875100  0.86629900  1
  C  C10  1  0.67711700  0.17711700  0.85423500  1
  C  C11  1  0.06199100  0.92829000  0.28074100  1
  C  C12  1  0.71875100  0.85245100  0.28074100  1
  C  C13  1  0.57171000  0.43800900  0.71925900  1
  C  C14  1  0.63328100  0.13328100  0.50000000  1
  C  C15  1  0.13328100  0.63328100  0.50000000  1
  C  C16  1  0.86671900  0.36671900  0.50000000  1
  C  C17  1  0.36671900  0.86671900  0.50000000  1
  C  C18  1  0.17711700  0.32288300  0.50000000  1
  C  C19  1  0.21875100  0.93800900  0.86629900  1
  C  C20  1  0.82288300  0.67711700  0.50000000  1
  C  C21  1  0.32288300  0.82288300  0.14576500  1
  C  C22  1  0.35245100  0.21875100  0.28074100  1
  C  C23  1  0.07171000  0.35245100  0.13370100  1
  Ni  Ni24  1  0.50000000  0.50000000  0.00000000  1
  Ni  Ni25  1  0.00000000  0.00000000  0.00000000  1
  Cu  Cu26  1  0.02078500  0.86378500  0.50000000  1
  Cu  Cu27  1  0.97921500  0.13621500  0.50000000  1
  Cu  Cu28  1  0.63621500  0.47921500  0.50000000  1
  Cu  Cu29  1  0.52078500  0.02078500  0.15700000  1
  Cu  Cu30  1  0.13621500  0.63621500  0.15700000  1
  Cu  Cu31  1  0.47921500  0.97921500  0.84300000  1
  Cu  Cu32  1  0.12832300  0.62832300  0.75664600  1
  Cu  Cu33  1  0.62832300  0.87167700  0.50000000  1
  Cu  Cu34  1  0.37167700  0.12832300  0.50000000  1
  Cu  Cu35  1  0.87167700  0.37167700  0.24335400  1
  Cu  Cu36  1  0.25000000  0.25000000  0.00000000  1
  Cu  Cu37  1  0.75000000  0.75000000  0.00000000  1
  Cu  Cu38  1  0.36378500  0.52078500  0.50000000  1
  Cu  Cu39  1  0.86378500  0.36378500  0.84300000  1
