# generated using pymatgen
data_Cu(NiC2)2
_symmetry_space_group_name_H-M   'P 1'
_cell_length_a   6.11319617
_cell_length_b   6.11319617
_cell_length_c   14.74257279
_cell_angle_alpha   87.05947953
_cell_angle_beta   87.05947953
_cell_angle_gamma   58.12699615
_symmetry_Int_Tables_number   1
_chemical_formula_structural   Cu(NiC2)2
_chemical_formula_sum   'Cu6 Ni12 C24'
_cell_volume   467.06918480
_cell_formula_units_Z   6
loop_
 _symmetry_equiv_pos_site_id
 _symmetry_equiv_pos_as_xyz
  1  'x, y, z'
loop_
 _atom_site_type_symbol
 _atom_site_label
 _atom_site_symmetry_multiplicity
 _atom_site_fract_x
 _atom_site_fract_y
 _atom_site_fract_z
 _atom_site_occupancy
  Ni  Ni0  1  0.00514800  0.00514800  0.00435800  1
  Ni  Ni1  1  0.33510800  0.83139400  0.79139500  1
  Ni  Ni2  1  0.83139400  0.33510800  0.79139500  1
  Ni  Ni3  1  0.33910400  0.33910400  0.67034300  1
  Ni  Ni4  1  0.83239200  0.83239200  0.79252800  1
  Ni  Ni5  1  0.67024700  0.16751100  0.45804800  1
  Ni  Ni6  1  0.16751100  0.67024700  0.45804800  1
  Ni  Ni7  1  0.16708800  0.16708800  0.45904500  1
  Ni  Ni8  1  0.99843400  0.49838200  0.12538100  1
  Ni  Ni9  1  0.49838200  0.99843400  0.12538100  1
  Ni  Ni10  1  0.33269100  0.33269100  0.29222800  1
  Ni  Ni11  1  0.49911800  0.49911800  0.12579100  1
  Cu  Cu12  1  0.32996700  0.32996700  0.91303300  1
  Cu  Cu13  1  0.66514400  0.66514400  0.57772500  1
  Cu  Cu14  1  0.66641800  0.66641800  0.95778300  1
  Cu  Cu15  1  0.99625900  0.99625900  0.24893700  1
  Cu  Cu16  1  0.00161800  0.00161800  0.62437900  1
  Cu  Cu17  1  0.66953700  0.66953700  0.33571300  1
  C  C18  1  0.50760100  0.50760100  0.86627300  1
  C  C19  1  0.50774900  0.96486300  0.86527200  1
  C  C20  1  0.65590100  0.65590100  0.71570500  1
  C  C21  1  0.84426900  0.84426900  0.53477400  1
  C  C22  1  0.70407200  0.15460900  0.71824100  1
  C  C23  1  0.96486300  0.50774900  0.86527200  1
  C  C24  1  0.00944100  0.00944100  0.86592700  1
  C  C25  1  0.84610300  0.30303000  0.53354000  1
  C  C26  1  0.15460900  0.70407200  0.71824100  1
  C  C27  1  0.99284100  0.99284100  0.38359300  1
  C  C28  1  0.17534500  0.17534500  0.20034000  1
  C  C29  1  0.03641000  0.48622800  0.38032000  1
  C  C30  1  0.15567700  0.15567700  0.71604800  1
  C  C31  1  0.30303000  0.84610300  0.53354000  1
  C  C32  1  0.34267400  0.34267400  0.53130900  1
  C  C33  1  0.17863800  0.62849800  0.20217900  1
  C  C34  1  0.48622800  0.03641000  0.38032000  1
  C  C35  1  0.32506500  0.32506500  0.04914300  1
  C  C36  1  0.62849800  0.17863800  0.20217900  1
  C  C37  1  0.49038500  0.49038500  0.38086000  1
  C  C38  1  0.36978200  0.81887000  0.05111200  1
  C  C39  1  0.67355400  0.67355400  0.20123300  1
  C  C40  1  0.81887000  0.36978200  0.05111200  1
  C  C41  1  0.82292200  0.82292200  0.05195000  1
