# generated using pymatgen
data_CuNi4C
_symmetry_space_group_name_H-M   'P 1'
_cell_length_a   7.69711100
_cell_length_b   8.88420100
_cell_length_c   9.54489700
_cell_angle_alpha   90.00000000
_cell_angle_beta   90.00000000
_cell_angle_gamma   90.00000000
_symmetry_Int_Tables_number   1
_chemical_formula_structural   CuNi4C
_chemical_formula_sum   'Cu6 Ni24 C6'
_cell_volume   652.70564905
_cell_formula_units_Z   6
loop_
 _symmetry_equiv_pos_site_id
 _symmetry_equiv_pos_as_xyz
  1  'x, y, z'
loop_
 _atom_site_type_symbol
 _atom_site_label
 _atom_site_symmetry_multiplicity
 _atom_site_fract_x
 _atom_site_fract_y
 _atom_site_fract_z
 _atom_site_occupancy
  C  C0  1  0.16337400  0.75356100  0.25000000  1
  C  C1  1  0.16337400  0.24643900  0.25000000  1
  C  C2  1  0.83662600  0.75356100  0.75000000  1
  C  C3  1  0.83662600  0.24643900  0.75000000  1
  C  C4  1  0.67716100  0.50000000  0.25000000  1
  C  C5  1  0.32283900  0.50000000  0.75000000  1
  Ni  Ni6  1  0.00000000  0.50000000  0.50000000  1
  Ni  Ni7  1  0.00000000  0.50000000  0.00000000  1
  Ni  Ni8  1  0.12994700  0.00000000  0.75000000  1
  Ni  Ni9  1  0.87005300  0.00000000  0.25000000  1
  Ni  Ni10  1  0.33754800  0.00000000  0.06445300  1
  Ni  Ni11  1  0.33754800  0.00000000  0.43554700  1
  Ni  Ni12  1  0.66245200  0.00000000  0.93554700  1
  Ni  Ni13  1  0.66245200  0.00000000  0.56445300  1
  Ni  Ni14  1  0.65593000  0.50000000  0.58962700  1
  Ni  Ni15  1  0.65593000  0.50000000  0.91037300  1
  Ni  Ni16  1  0.34407000  0.50000000  0.41037300  1
  Ni  Ni17  1  0.34407000  0.50000000  0.08962700  1
  Ni  Ni18  1  0.82247300  0.76145200  0.07946800  1
  Ni  Ni19  1  0.82247300  0.23854800  0.42053200  1
  Ni  Ni20  1  0.17752700  0.76145200  0.92053200  1
  Ni  Ni21  1  0.17752700  0.23854800  0.57946800  1
  Ni  Ni22  1  0.17752700  0.23854800  0.92053200  1
  Ni  Ni23  1  0.17752700  0.76145200  0.57946800  1
  Ni  Ni24  1  0.82247300  0.23854800  0.07946800  1
  Ni  Ni25  1  0.82247300  0.76145200  0.42053200  1
  Ni  Ni26  1  0.54633300  0.84269100  0.25000000  1
  Ni  Ni27  1  0.54633300  0.15730900  0.25000000  1
  Ni  Ni28  1  0.45366700  0.84269100  0.75000000  1
  Ni  Ni29  1  0.45366700  0.15730900  0.75000000  1
  Cu  Cu30  1  0.50000000  0.73979400  0.00000000  1
  Cu  Cu31  1  0.50000000  0.26020600  0.50000000  1
  Cu  Cu32  1  0.50000000  0.26020600  0.00000000  1
  Cu  Cu33  1  0.50000000  0.73979400  0.50000000  1
  Cu  Cu34  1  0.00000000  0.00000000  0.00000000  1
  Cu  Cu35  1  0.00000000  0.00000000  0.50000000  1
