# generated using pymatgen
data_Cu3(NiC4)2
_symmetry_space_group_name_H-M   'P 1'
_cell_length_a   6.94813510
_cell_length_b   6.94813510
_cell_length_c   12.05545873
_cell_angle_alpha   81.07370590
_cell_angle_beta   81.07370590
_cell_angle_gamma   44.84817753
_symmetry_Int_Tables_number   1
_chemical_formula_structural   Cu3(NiC4)2
_chemical_formula_sum   'Cu6 Ni4 C16'
_cell_volume   404.61808257
_cell_formula_units_Z   2
loop_
 _symmetry_equiv_pos_site_id
 _symmetry_equiv_pos_as_xyz
  1  'x, y, z'
loop_
 _atom_site_type_symbol
 _atom_site_label
 _atom_site_symmetry_multiplicity
 _atom_site_fract_x
 _atom_site_fract_y
 _atom_site_fract_z
 _atom_site_occupancy
  Ni  Ni0  1  0.44845100  0.00599300  0.15945400  1
  Ni  Ni1  1  0.99400700  0.55154900  0.34054600  1
  Ni  Ni2  1  0.55154900  0.99400700  0.84054600  1
  Ni  Ni3  1  0.00599300  0.44845100  0.65945400  1
  Cu  Cu4  1  0.12641200  0.87358800  0.75000000  1
  Cu  Cu5  1  0.87358800  0.12641200  0.25000000  1
  Cu  Cu6  1  0.33926700  0.93679800  0.44631100  1
  Cu  Cu7  1  0.06320200  0.66073300  0.05368900  1
  Cu  Cu8  1  0.66073300  0.06320200  0.55368900  1
  Cu  Cu9  1  0.93679800  0.33926700  0.94631100  1
  C  C10  1  0.24669800  0.28641700  0.95997200  1
  C  C11  1  0.71358300  0.75330200  0.54002800  1
  C  C12  1  0.75330200  0.71358300  0.04002800  1
  C  C13  1  0.28641700  0.24669800  0.45997200  1
  C  C14  1  0.80456400  0.58635800  0.81493500  1
  C  C15  1  0.41364200  0.19543600  0.68506500  1
  C  C16  1  0.19543600  0.41364200  0.18506500  1
  C  C17  1  0.58635800  0.80456400  0.31493500  1
  C  C18  1  0.21575000  0.01286000  0.85779300  1
  C  C19  1  0.98714000  0.78425000  0.64220700  1
  C  C20  1  0.17453700  0.98824400  0.14432200  1
  C  C21  1  0.01175600  0.82546300  0.35567800  1
  C  C22  1  0.82546300  0.01175600  0.85567800  1
  C  C23  1  0.98824400  0.17453700  0.64432200  1
  C  C24  1  0.01286000  0.21575000  0.35779300  1
  C  C25  1  0.78425000  0.98714000  0.14220700  1
