# generated using pymatgen
data_Cu5NiC8
_symmetry_space_group_name_H-M   'P 1'
_cell_length_a   6.07038161
_cell_length_b   6.07038161
_cell_length_c   6.07038161
_cell_angle_alpha   60.00000000
_cell_angle_beta   60.00000000
_cell_angle_gamma   60.00000000
_symmetry_Int_Tables_number   1
_chemical_formula_structural   Cu5NiC8
_chemical_formula_sum   'Cu5 Ni1 C8'
_cell_volume   158.17322972
_cell_formula_units_Z   1
loop_
 _symmetry_equiv_pos_site_id
 _symmetry_equiv_pos_as_xyz
  1  'x, y, z'
loop_
 _atom_site_type_symbol
 _atom_site_label
 _atom_site_symmetry_multiplicity
 _atom_site_fract_x
 _atom_site_fract_y
 _atom_site_fract_z
 _atom_site_occupancy
  Ni  Ni0  1  0.25000000  0.25000000  0.25000000  1
  Cu  Cu1  1  0.50000000  0.50000000  0.50000000  1
  Cu  Cu2  1  0.87511400  0.37465900  0.87511400  1
  Cu  Cu3  1  0.37465900  0.87511400  0.87511400  1
  Cu  Cu4  1  0.87511400  0.87511400  0.37465900  1
  Cu  Cu5  1  0.87511400  0.87511400  0.87511400  1
  C  C6  1  0.63764900  0.63764900  0.63764900  1
  C  C7  1  0.08705400  0.63764900  0.63764900  1
  C  C8  1  0.63764900  0.63764900  0.08705400  1
  C  C9  1  0.63764900  0.08705400  0.63764900  1
  C  C10  1  0.11472400  0.65582900  0.11472400  1
  C  C11  1  0.11472400  0.11472400  0.65582900  1
  C  C12  1  0.65582900  0.11472400  0.11472400  1
  C  C13  1  0.11472400  0.11472400  0.11472400  1
