# generated using pymatgen
data_Cu2Ni2C3
_symmetry_space_group_name_H-M   'P 1'
_cell_length_a   9.67094600
_cell_length_b   10.37238775
_cell_length_c   10.07436108
_cell_angle_alpha   90.53353911
_cell_angle_beta   90.00000000
_cell_angle_gamma   117.78707393
_symmetry_Int_Tables_number   1
_chemical_formula_structural   Cu2Ni2C3
_chemical_formula_sum   'Cu8 Ni8 C12'
_cell_volume   893.98533385
_cell_formula_units_Z   4
loop_
 _symmetry_equiv_pos_site_id
 _symmetry_equiv_pos_as_xyz
  1  'x, y, z'
loop_
 _atom_site_type_symbol
 _atom_site_label
 _atom_site_symmetry_multiplicity
 _atom_site_fract_x
 _atom_site_fract_y
 _atom_site_fract_z
 _atom_site_occupancy
  C  C0  1  0.34957400  0.24628800  0.20203800  1
  C  C1  1  0.10328600  0.75371200  0.79796200  1
  C  C2  1  0.65042600  0.75371200  0.79796200  1
  C  C3  1  0.89671400  0.24628800  0.20203800  1
  C  C4  1  0.50000000  0.50000000  0.50000000  1
  C  C5  1  0.00000000  0.50000000  0.50000000  1
  C  C6  1  0.23590900  0.00000000  0.50000000  1
  C  C7  1  0.76409100  0.00000000  0.50000000  1
  C  C8  1  0.52438400  0.04876800  0.77086400  1
  C  C9  1  0.47561600  0.95123200  0.22913600  1
  C  C10  1  0.23069200  0.46138400  0.78729300  1
  C  C11  1  0.76930800  0.53861600  0.21270700  1
  Ni  Ni12  1  0.25230100  0.03058000  0.75313200  1
  Ni  Ni13  1  0.77827900  0.03058000  0.75313200  1
  Ni  Ni14  1  0.74769900  0.96942000  0.24686800  1
  Ni  Ni15  1  0.02379000  0.52421300  0.24689100  1
  Ni  Ni16  1  0.49957700  0.47578700  0.75310900  1
  Ni  Ni17  1  0.97621000  0.47578700  0.75310900  1
  Ni  Ni18  1  0.50042300  0.52421300  0.24689100  1
  Ni  Ni19  1  0.22172100  0.96942000  0.24686800  1
  Cu  Cu20  1  0.37590300  0.75180600  0.51043700  1
  Cu  Cu21  1  0.87447000  0.74894000  0.52396500  1
  Cu  Cu22  1  0.12553000  0.25106000  0.47603500  1
  Cu  Cu23  1  0.87775600  0.75551200  0.99126700  1
  Cu  Cu24  1  0.12224400  0.24448800  0.00873300  1
  Cu  Cu25  1  0.62168100  0.24336200  0.02689000  1
  Cu  Cu26  1  0.37831900  0.75663800  0.97311000  1
  Cu  Cu27  1  0.62409700  0.24819400  0.48956300  1
