# generated using pymatgen
data_Cu(NiC8)2
_symmetry_space_group_name_H-M   'P 1'
_cell_length_a   9.60657907
_cell_length_b   11.18721570
_cell_length_c   9.68842085
_cell_angle_alpha   90.00002772
_cell_angle_beta   99.67648140
_cell_angle_gamma   106.92579891
_symmetry_Int_Tables_number   1
_chemical_formula_structural   Cu(NiC8)2
_chemical_formula_sum   'Cu4 Ni8 C64'
_cell_volume   980.62485599
_cell_formula_units_Z   4
loop_
 _symmetry_equiv_pos_site_id
 _symmetry_equiv_pos_as_xyz
  1  'x, y, z'
loop_
 _atom_site_type_symbol
 _atom_site_label
 _atom_site_symmetry_multiplicity
 _atom_site_fract_x
 _atom_site_fract_y
 _atom_site_fract_z
 _atom_site_occupancy
  C  C0  1  0.60240800  0.40060200  0.93373500  1
  C  C1  1  0.60240800  0.90060200  0.93373500  1
  C  C2  1  0.60240800  0.15060200  0.43373400  1
  C  C3  1  0.60240800  0.65060200  0.43373500  1
  C  C4  1  0.39759200  0.84939800  0.56626600  1
  C  C5  1  0.39759200  0.34939900  0.56626600  1
  C  C6  1  0.39759200  0.59939800  0.06626500  1
  C  C7  1  0.39759200  0.09939800  0.06626600  1
  C  C8  1  0.87544800  0.96886200  0.64590800  1
  C  C9  1  0.87544900  0.46886300  0.64590800  1
  C  C10  1  0.87544900  0.71886200  0.14590900  1
  C  C11  1  0.87544800  0.21886300  0.14590800  1
  C  C12  1  0.12455200  0.28113800  0.85409200  1
  C  C13  1  0.12455200  0.78113700  0.85409100  1
  C  C14  1  0.12455200  0.03113700  0.35409200  1
  C  C15  1  0.12455100  0.53113800  0.35409100  1
  Ni  Ni16  1  0.73926600  0.18481700  0.78987700  1
  Ni  Ni17  1  0.73926700  0.68481600  0.78987700  1
  Ni  Ni18  1  0.73926600  0.93481600  0.28987700  1
  Ni  Ni19  1  0.73926600  0.43481600  0.28987700  1
  Ni  Ni20  1  0.26073400  0.06518300  0.71012300  1
  Ni  Ni21  1  0.26073300  0.56518400  0.71012300  1
  Ni  Ni22  1  0.26073500  0.81518300  0.21012300  1
  Ni  Ni23  1  0.26073400  0.31518400  0.21012300  1
  Cu  Cu24  1  0.00000000  0.75000000  0.50000000  1
  Cu  Cu25  1  0.00000000  0.50000000  0.00000000  1
  Cu  Cu26  1  0.00000000  0.25000000  0.50000000  1
  Cu  Cu27  1  0.00000000  0.00000000  0.00000000  1
  C  C28  1  0.63104200  0.15776100  0.93434000  1
  C  C29  1  0.63104200  0.65776100  0.93433900  1
  C  C30  1  0.63104200  0.90776100  0.43434000  1
  C  C31  1  0.63104200  0.40776100  0.43434000  1
  C  C32  1  0.63104100  0.27963500  0.69059100  1
  C  C33  1  0.63104100  0.77963600  0.69059000  1
  C  C34  1  0.63104100  0.02963600  0.19059000  1
  C  C35  1  0.63104200  0.52963500  0.19059100  1
  C  C36  1  0.63104100  0.03588600  0.69059000  1
  C  C37  1  0.63104200  0.53588700  0.69059100  1
  C  C38  1  0.63104200  0.78588700  0.19059000  1
  C  C39  1  0.63104100  0.28588600  0.19059000  1
  C  C40  1  0.36895900  0.21411400  0.80941000  1
  C  C41  1  0.36895800  0.71411300  0.80940900  1
  C  C42  1  0.36895900  0.96411400  0.30941000  1
  C  C43  1  0.36895800  0.46411300  0.30941000  1
  C  C44  1  0.36895800  0.09223900  0.56566000  1
  C  C45  1  0.36895800  0.59223900  0.56566000  1
  C  C46  1  0.36895800  0.84223900  0.06566000  1
  C  C47  1  0.36895800  0.34223900  0.06566000  1
  C  C48  1  0.36895900  0.97036500  0.80940900  1
  C  C49  1  0.36895900  0.47036400  0.80941000  1
  C  C50  1  0.36895900  0.72036500  0.30941000  1
  C  C51  1  0.36895900  0.22036400  0.30941000  1
  C  C52  1  0.13016900  0.03254200  0.84802900  1
  C  C53  1  0.13017100  0.53254200  0.84802700  1
  C  C54  1  0.13017000  0.78254100  0.34802800  1
  C  C55  1  0.13017000  0.28254100  0.34802900  1
  C  C56  1  0.86983100  0.09770700  0.89147200  1
  C  C57  1  0.86982900  0.59770800  0.89147000  1
  C  C58  1  0.86982900  0.84770800  0.39147200  1
  C  C59  1  0.86983100  0.34770700  0.39147200  1
  C  C60  1  0.86983000  0.21745800  0.65197100  1
  C  C61  1  0.86982900  0.71745800  0.65197300  1
  C  C62  1  0.86983000  0.96745900  0.15197100  1
  C  C63  1  0.86982900  0.46745900  0.15197200  1
  C  C64  1  0.86983000  0.33720800  0.89147100  1
  C  C65  1  0.86983000  0.83720800  0.89147200  1
  C  C66  1  0.86983100  0.08720900  0.39147200  1
  C  C67  1  0.86983000  0.58720800  0.39147100  1
  C  C68  1  0.13017000  0.91279200  0.60852800  1
  C  C69  1  0.13017000  0.41279200  0.60852800  1
  C  C70  1  0.13017000  0.66279200  0.10852900  1
  C  C71  1  0.13016900  0.16279100  0.10852800  1
  C  C72  1  0.13016900  0.15229300  0.60852800  1
  C  C73  1  0.13017100  0.65229200  0.60853000  1
  C  C74  1  0.13016900  0.90229300  0.10852800  1
  C  C75  1  0.13017100  0.40229200  0.10852900  1
