# generated using pymatgen
data_Cu4NiC
_symmetry_space_group_name_H-M   'P 1'
_cell_length_a   12.46772949
_cell_length_b   12.46772949
_cell_length_c   12.46772949
_cell_angle_alpha   127.43213623
_cell_angle_beta   127.43213623
_cell_angle_gamma   77.54676795
_symmetry_Int_Tables_number   1
_chemical_formula_structural   Cu4NiC
_chemical_formula_sum   'Cu32 Ni8 C8'
_cell_volume   1185.12471624
_cell_formula_units_Z   8
loop_
 _symmetry_equiv_pos_site_id
 _symmetry_equiv_pos_as_xyz
  1  'x, y, z'
loop_
 _atom_site_type_symbol
 _atom_site_label
 _atom_site_symmetry_multiplicity
 _atom_site_fract_x
 _atom_site_fract_y
 _atom_site_fract_z
 _atom_site_occupancy
  C  C0  1  0.50000000  0.50000000  0.00000000  1
  C  C1  1  0.25000000  0.75000000  0.50000000  1
  C  C2  1  0.75000000  0.25000000  0.50000000  1
  C  C3  1  0.00000000  0.00000000  0.00000000  1
  C  C4  1  0.25000000  0.25000000  0.00000000  1
  C  C5  1  0.00000000  0.50000000  0.50000000  1
  C  C6  1  0.50000000  0.00000000  0.50000000  1
  C  C7  1  0.75000000  0.75000000  0.00000000  1
  Ni  Ni8  1  0.62500000  0.91232700  0.78732700  1
  Ni  Ni9  1  0.62500000  0.41232700  0.28732700  1
  Ni  Ni10  1  0.16232700  0.37500000  0.28732700  1
  Ni  Ni11  1  0.08767300  0.87500000  0.71267300  1
  Ni  Ni12  1  0.12500000  0.33767300  0.71267300  1
  Ni  Ni13  1  0.12500000  0.83767300  0.21267300  1
  Ni  Ni14  1  0.58767300  0.87500000  0.21267300  1
  Ni  Ni15  1  0.66232700  0.37500000  0.78732700  1
  Cu  Cu16  1  0.98784700  0.71576200  0.45662600  1
  Cu  Cu17  1  0.25913600  0.53122100  0.54337400  1
  Cu  Cu18  1  0.28122100  0.23784700  0.77208500  1
  Cu  Cu19  1  0.46576200  0.50913600  0.22791500  1
  Cu  Cu20  1  0.99086400  0.03423800  0.77208500  1
  Cu  Cu21  1  0.26215300  0.21877900  0.22791500  1
  Cu  Cu22  1  0.78423800  0.51215300  0.54337400  1
  Cu  Cu23  1  0.96877900  0.24086400  0.45662600  1
  Cu  Cu24  1  0.77821500  0.96435300  0.31719700  1
  Cu  Cu25  1  0.71435300  0.89715600  0.68613800  1
  Cu  Cu26  1  0.21101800  0.02821500  0.31386200  1
  Cu  Cu27  1  0.47178500  0.28898200  0.68613800  1
  Cu  Cu28  1  0.60284400  0.78564700  0.31386200  1
  Cu  Cu29  1  0.03898200  0.85284400  0.31719700  1
  Cu  Cu30  1  0.53564700  0.72178500  0.68280300  1
  Cu  Cu31  1  0.64715600  0.46101800  0.68280300  1
  Cu  Cu32  1  0.97178500  0.28564700  0.18280300  1
  Cu  Cu33  1  0.03564700  0.35284400  0.81386200  1
  Cu  Cu34  1  0.53898200  0.22178500  0.18613800  1
  Cu  Cu35  1  0.27821500  0.96101800  0.81386200  1
  Cu  Cu36  1  0.14715600  0.46435300  0.18613800  1
  Cu  Cu37  1  0.71101800  0.39715600  0.18280300  1
  Cu  Cu38  1  0.21435300  0.52821500  0.81719700  1
  Cu  Cu39  1  0.10284400  0.78898200  0.81719700  1
  Cu  Cu40  1  0.49086400  0.71877900  0.95662600  1
  Cu  Cu41  1  0.46877900  0.01215300  0.72791500  1
  Cu  Cu42  1  0.28423800  0.74086400  0.27208500  1
  Cu  Cu43  1  0.75913600  0.21576200  0.72791500  1
  Cu  Cu44  1  0.48784700  0.03122100  0.27208500  1
  Cu  Cu45  1  0.96576200  0.73784700  0.95662600  1
  Cu  Cu46  1  0.78122100  0.00913600  0.04337400  1
  Cu  Cu47  1  0.76215300  0.53423800  0.04337400  1
