# generated using pymatgen
data_Cu2NiC4
_symmetry_space_group_name_H-M   'P 1'
_cell_length_a   7.57297073
_cell_length_b   7.57297073
_cell_length_c   7.57297073
_cell_angle_alpha   109.47683007
_cell_angle_beta   109.47683007
_cell_angle_gamma   109.46000235
_symmetry_Int_Tables_number   1
_chemical_formula_structural   Cu2NiC4
_chemical_formula_sum   'Cu4 Ni2 C8'
_cell_volume   334.33121834
_cell_formula_units_Z   2
loop_
 _symmetry_equiv_pos_site_id
 _symmetry_equiv_pos_as_xyz
  1  'x, y, z'
loop_
 _atom_site_type_symbol
 _atom_site_label
 _atom_site_symmetry_multiplicity
 _atom_site_fract_x
 _atom_site_fract_y
 _atom_site_fract_z
 _atom_site_occupancy
  Ni  Ni0  1  0.75000000  0.25000000  0.50000000  1
  Ni  Ni1  1  0.00000000  0.00000000  0.00000000  1
  Cu  Cu2  1  0.87500000  0.49769300  0.12269300  1
  Cu  Cu3  1  0.37500000  0.75230700  0.87730700  1
  Cu  Cu4  1  0.24769300  0.12500000  0.62269300  1
  Cu  Cu5  1  0.50230700  0.62500000  0.37730700  1
  C  C6  1  0.61572700  0.01853000  0.74918200  1
  C  C7  1  0.61654500  0.51934900  0.75081800  1
  C  C8  1  0.13427300  0.38345500  0.90280300  1
  C  C9  1  0.76853000  0.86572700  0.24918200  1
  C  C10  1  0.98147000  0.73065100  0.59719700  1
  C  C11  1  0.26934900  0.86654500  0.25081800  1
  C  C12  1  0.13345500  0.38427300  0.40280300  1
  C  C13  1  0.48065100  0.23147000  0.09719700  1
