# generated using pymatgen
data_Cu3NiC10
_symmetry_space_group_name_H-M   'P 1'
_cell_length_a   10.39014005
_cell_length_b   8.92000734
_cell_length_c   7.53025286
_cell_angle_alpha   77.83189836
_cell_angle_beta   57.05776101
_cell_angle_gamma   45.11034062
_symmetry_Int_Tables_number   1
_chemical_formula_structural   Cu3NiC10
_chemical_formula_sum   'Cu6 Ni2 C20'
_cell_volume   396.99215158
_cell_formula_units_Z   2
loop_
 _symmetry_equiv_pos_site_id
 _symmetry_equiv_pos_as_xyz
  1  'x, y, z'
loop_
 _atom_site_type_symbol
 _atom_site_label
 _atom_site_symmetry_multiplicity
 _atom_site_fract_x
 _atom_site_fract_y
 _atom_site_fract_z
 _atom_site_occupancy
  Ni  Ni0  1  0.00000000  0.00000000  0.00000000  1
  Ni  Ni1  1  0.25000000  0.25000000  0.25000000  1
  Cu  Cu2  1  0.73873500  0.73873500  0.26126500  1
  Cu  Cu3  1  0.26126500  0.26126500  0.73873500  1
  Cu  Cu4  1  0.51126500  0.51126500  0.98873500  1
  Cu  Cu5  1  0.98873500  0.98873500  0.51126500  1
  Cu  Cu6  1  0.50000000  0.50000000  0.50000000  1
  Cu  Cu7  1  0.75000000  0.75000000  0.75000000  1
  C  C8  1  0.79692900  0.20307100  0.79692900  1
  C  C9  1  0.20307100  0.79692900  0.20307100  1
  C  C10  1  0.45307100  0.04692900  0.45307100  1
  C  C11  1  0.04692900  0.45307100  0.04692900  1
  C  C12  1  0.88421100  0.88421100  0.11578900  1
  C  C13  1  0.11578900  0.11578900  0.88421100  1
  C  C14  1  0.36578900  0.36578900  0.13421100  1
  C  C15  1  0.13421100  0.13421100  0.36578900  1
  C  C16  1  0.84999300  0.65446800  0.44792700  1
  C  C17  1  0.04761300  0.44792700  0.65446800  1
  C  C18  1  0.44792700  0.04761300  0.84999300  1
  C  C19  1  0.65446800  0.84999300  0.04761300  1
  C  C20  1  0.40000700  0.59553200  0.80207300  1
  C  C21  1  0.20238700  0.80207300  0.59553200  1
  C  C22  1  0.80207300  0.20238700  0.40000700  1
  C  C23  1  0.59553200  0.40000700  0.20238700  1
  C  C24  1  0.87393500  0.87393500  0.62606500  1
  C  C25  1  0.62606500  0.62606500  0.87393500  1
  C  C26  1  0.37606500  0.37606500  0.62393500  1
  C  C27  1  0.62393500  0.62393500  0.37606500  1
