# generated using pymatgen
data_Cu8Ni7C27
_symmetry_space_group_name_H-M   'P 1'
_cell_length_a   6.88469600
_cell_length_b   7.15881108
_cell_length_c   10.18161203
_cell_angle_alpha   71.34065922
_cell_angle_beta   71.62292032
_cell_angle_gamma   62.59131221
_symmetry_Int_Tables_number   1
_chemical_formula_structural   Cu8Ni7C27
_chemical_formula_sum   'Cu8 Ni7 C27'
_cell_volume   413.56269317
_cell_formula_units_Z   1
loop_
 _symmetry_equiv_pos_site_id
 _symmetry_equiv_pos_as_xyz
  1  'x, y, z'
loop_
 _atom_site_type_symbol
 _atom_site_label
 _atom_site_symmetry_multiplicity
 _atom_site_fract_x
 _atom_site_fract_y
 _atom_site_fract_z
 _atom_site_occupancy
  C  C0  1  0.00000000  0.00000000  0.00000000  1
  C  C1  1  0.19079300  0.57383500  0.06918900  1
  C  C2  1  0.56327100  0.16647100  0.06854000  1
  C  C3  1  0.17114100  0.18942600  0.06498700  1
  C  C4  1  0.34613100  0.75285800  0.83862100  1
  C  C5  1  0.87180900  0.34254200  0.78296100  1
  C  C6  1  0.74969500  0.06223800  0.84302400  1
  C  C7  1  0.99862400  0.88150900  0.78963600  1
  C  C8  1  0.06670900  0.34950000  0.84011000  1
  C  C9  1  0.34555800  0.99637900  0.78481700  1
  C  C10  1  0.56703400  0.57614100  0.54018000  1
  C  C11  1  0.33401000  0.59655500  0.54027200  1
  C  C12  1  0.66599000  0.40344500  0.45972800  1
  C  C13  1  0.43296600  0.42385900  0.45982000  1
  C  C14  1  0.65444200  0.00362100  0.21518300  1
  C  C15  1  0.93329100  0.65050000  0.15989000  1
  C  C16  1  0.00137600  0.11849100  0.21036400  1
  C  C17  1  0.25030500  0.93776200  0.15697600  1
  C  C18  1  0.12819100  0.65745800  0.21703900  1
  C  C19  1  0.65386900  0.24714200  0.16137900  1
  C  C20  1  0.82885900  0.81057400  0.93501300  1
  C  C21  1  0.43672900  0.83352900  0.93146000  1
  C  C22  1  0.80920700  0.42616500  0.93081100  1
  Ni  Ni23  1  0.68344200  0.11404300  0.12728600  1
  Ni  Ni24  1  0.07222400  0.68611000  0.12771300  1
  Ni  Ni25  1  0.11570600  0.06914700  0.12257400  1
  Ni  Ni26  1  0.50000000  0.50000000  0.50000000  1
  Ni  Ni27  1  0.88429400  0.93085300  0.87742600  1
  Ni  Ni28  1  0.92777600  0.31389000  0.87228700  1
  Ni  Ni29  1  0.31655800  0.88595700  0.87271400  1
  C  C30  1  0.18422600  0.19473800  0.43840600  1
  C  C31  1  0.37077300  0.37171500  0.88914900  1
  C  C32  1  0.62922700  0.62828500  0.11085100  1
  C  C33  1  0.81577400  0.80526200  0.56159400  1
  Cu  Cu34  1  0.13408800  0.14326900  0.59224000  1
  Cu  Cu35  1  0.70001200  0.65652500  0.61217200  1
  Cu  Cu36  1  0.02430900  0.69543900  0.61649600  1
  Cu  Cu37  1  0.67554800  0.99780000  0.61797400  1
  Cu  Cu38  1  0.32445200  0.00220000  0.38202600  1
  Cu  Cu39  1  0.97569100  0.30456100  0.38350400  1
  Cu  Cu40  1  0.29998800  0.34347500  0.38782800  1
  Cu  Cu41  1  0.86591200  0.85673100  0.40776000  1
