# generated using pymatgen
data_Cu3Ni3C17
_symmetry_space_group_name_H-M   'P 1'
_cell_length_a   9.18852400
_cell_length_b   9.18852400
_cell_length_c   9.18852400
_cell_angle_alpha   90.00000000
_cell_angle_beta   90.00000000
_cell_angle_gamma   90.00000000
_symmetry_Int_Tables_number   1
_chemical_formula_structural   Cu3Ni3C17
_chemical_formula_sum   'Cu6 Ni6 C34'
_cell_volume   775.77764745
_cell_formula_units_Z   2
loop_
 _symmetry_equiv_pos_site_id
 _symmetry_equiv_pos_as_xyz
  1  'x, y, z'
loop_
 _atom_site_type_symbol
 _atom_site_label
 _atom_site_symmetry_multiplicity
 _atom_site_fract_x
 _atom_site_fract_y
 _atom_site_fract_z
 _atom_site_occupancy
  C  C0  1  0.80658900  0.80658900  0.19341100  1
  C  C1  1  0.80658900  0.19341100  0.80658900  1
  C  C2  1  0.19341100  0.80658900  0.80658900  1
  C  C3  1  0.19341100  0.19341100  0.19341100  1
  C  C4  1  0.30658900  0.30658900  0.69341100  1
  C  C5  1  0.30658900  0.69341100  0.30658900  1
  C  C6  1  0.69341100  0.30658900  0.30658900  1
  C  C7  1  0.69341100  0.69341100  0.69341100  1
  Ni  Ni8  1  0.00000000  0.50000000  0.25000000  1
  Ni  Ni9  1  0.00000000  0.50000000  0.75000000  1
  Ni  Ni10  1  0.25000000  0.00000000  0.50000000  1
  Ni  Ni11  1  0.50000000  0.75000000  0.00000000  1
  Ni  Ni12  1  0.50000000  0.25000000  0.00000000  1
  Ni  Ni13  1  0.75000000  0.00000000  0.50000000  1
  Cu  Cu14  1  0.75000000  0.50000000  0.00000000  1
  Cu  Cu15  1  0.00000000  0.75000000  0.50000000  1
  Cu  Cu16  1  0.25000000  0.50000000  0.00000000  1
  Cu  Cu17  1  0.50000000  0.00000000  0.75000000  1
  Cu  Cu18  1  0.50000000  0.00000000  0.25000000  1
  Cu  Cu19  1  0.00000000  0.25000000  0.50000000  1
  C  C20  1  0.00000000  0.00000000  0.00000000  1
  C  C21  1  0.50000000  0.50000000  0.50000000  1
  C  C22  1  0.56233400  0.86241200  0.15408100  1
  C  C23  1  0.56233400  0.13758800  0.84591900  1
  C  C24  1  0.84591900  0.56233400  0.13758800  1
  C  C25  1  0.84591900  0.43766600  0.86241200  1
  C  C26  1  0.86241200  0.15408100  0.56233400  1
  C  C27  1  0.86241200  0.84591900  0.43766600  1
  C  C28  1  0.06233400  0.34591900  0.63758800  1
  C  C29  1  0.06233400  0.65408100  0.36241200  1
  C  C30  1  0.13758800  0.84591900  0.56233400  1
  C  C31  1  0.13758800  0.15408100  0.43766600  1
  C  C32  1  0.15408100  0.56233400  0.86241200  1
  C  C33  1  0.15408100  0.43766600  0.13758800  1
  C  C34  1  0.34591900  0.36241200  0.93766600  1
  C  C35  1  0.34591900  0.63758800  0.06233400  1
  C  C36  1  0.36241200  0.06233400  0.65408100  1
  C  C37  1  0.36241200  0.93766600  0.34591900  1
  C  C38  1  0.43766600  0.86241200  0.84591900  1
  C  C39  1  0.43766600  0.13758800  0.15408100  1
  C  C40  1  0.63758800  0.06233400  0.34591900  1
  C  C41  1  0.63758800  0.93766600  0.65408100  1
  C  C42  1  0.65408100  0.36241200  0.06233400  1
  C  C43  1  0.65408100  0.63758800  0.93766600  1
  C  C44  1  0.93766600  0.34591900  0.36241200  1
  C  C45  1  0.93766600  0.65408100  0.63758800  1
