# generated using pymatgen
data_Cu3Ni3C17
_symmetry_space_group_name_H-M   'P 1'
_cell_length_a   9.03960992
_cell_length_b   9.03960992
_cell_length_c   9.04404820
_cell_angle_alpha   89.99153222
_cell_angle_beta   89.99153222
_cell_angle_gamma   90.04395805
_symmetry_Int_Tables_number   1
_chemical_formula_structural   Cu3Ni3C17
_chemical_formula_sum   'Cu6 Ni6 C34'
_cell_volume   739.03007165
_cell_formula_units_Z   2
loop_
 _symmetry_equiv_pos_site_id
 _symmetry_equiv_pos_as_xyz
  1  'x, y, z'
loop_
 _atom_site_type_symbol
 _atom_site_label
 _atom_site_symmetry_multiplicity
 _atom_site_fract_x
 _atom_site_fract_y
 _atom_site_fract_z
 _atom_site_occupancy
  C  C0  1  0.81211000  0.30967800  0.19057000  1
  C  C1  1  0.68887200  0.19042200  0.68945700  1
  C  C2  1  0.30967800  0.81211000  0.69057000  1
  C  C3  1  0.68942400  0.80969700  0.30968400  1
  C  C4  1  0.19042200  0.68887200  0.18945700  1
  C  C5  1  0.80969700  0.68942400  0.80968400  1
  Ni  Ni6  1  0.49853500  0.49967300  0.74971600  1
  Ni  Ni7  1  0.00181500  0.24995200  0.50113600  1
  Ni  Ni8  1  0.75002200  0.99994500  0.00007600  1
  Ni  Ni9  1  0.24995200  0.00181500  0.00113600  1
  Ni  Ni10  1  0.99994500  0.75002100  0.50007600  1
  Ni  Ni11  1  0.49967300  0.49853500  0.24971600  1
  Cu  Cu12  1  0.25003300  0.50054700  0.50056300  1
  Cu  Cu13  1  0.50054700  0.25003300  0.00056300  1
  Cu  Cu14  1  0.00006800  0.99984400  0.24968100  1
  Cu  Cu15  1  0.99984400  0.00006800  0.74968100  1
  Cu  Cu16  1  0.49952700  0.74998000  0.00035200  1
  Cu  Cu17  1  0.74998000  0.49952700  0.50035200  1
  C  C18  1  0.16499300  0.33506200  0.83593400  1
  C  C19  1  0.33506200  0.16499300  0.33593400  1
  C  C20  1  0.99703000  0.50286300  0.00115700  1
  C  C21  1  0.50286300  0.99703000  0.50115700  1
  C  C22  1  0.34810900  0.44307100  0.35881000  1
  C  C23  1  0.65079000  0.44355300  0.64164000  1
  C  C24  1  0.14955700  0.36195600  0.56050000  1
  C  C25  1  0.85032000  0.35925100  0.44446300  1
  C  C26  1  0.44307100  0.34810900  0.85881000  1
  C  C27  1  0.56068200  0.35202000  0.13772900  1
  C  C28  1  0.36195600  0.14955700  0.06050000  1
  C  C29  1  0.64090600  0.15034000  0.94279400  1
  C  C30  1  0.05662300  0.14108200  0.34885100  1
  C  C31  1  0.94087400  0.13777700  0.64808100  1
  C  C32  1  0.14108200  0.05662300  0.84885100  1
  C  C33  1  0.85820100  0.05655900  0.15156700  1
  C  C34  1  0.13777700  0.94087400  0.14808100  1
  C  C35  1  0.85932700  0.94315900  0.84961600  1
  C  C36  1  0.05655900  0.85820100  0.65156700  1
  C  C37  1  0.94315900  0.85932700  0.34961600  1
  C  C38  1  0.35925100  0.85032000  0.94446300  1
  C  C39  1  0.64147200  0.84839700  0.05620700  1
  C  C40  1  0.44355300  0.65079000  0.14164000  1
  C  C41  1  0.55531100  0.65040000  0.85938400  1
  C  C42  1  0.15034000  0.64090600  0.44279400  1
  C  C43  1  0.84839700  0.64147200  0.55620700  1
  C  C44  1  0.35202000  0.56068200  0.63772900  1
  C  C45  1  0.65040000  0.55531100  0.35938400  1
