# generated using pymatgen
data_CuNi2C3
_symmetry_space_group_name_H-M   'P 1'
_cell_length_a   6.85460299
_cell_length_b   6.85460299
_cell_length_c   6.85460299
_cell_angle_alpha   145.70537558
_cell_angle_beta   131.98347886
_cell_angle_gamma   60.32580146
_symmetry_Int_Tables_number   1
_chemical_formula_structural   CuNi2C3
_chemical_formula_sum   'Cu1 Ni2 C3'
_cell_volume   133.61250651
_cell_formula_units_Z   1
loop_
 _symmetry_equiv_pos_site_id
 _symmetry_equiv_pos_as_xyz
  1  'x, y, z'
loop_
 _atom_site_type_symbol
 _atom_site_label
 _atom_site_symmetry_multiplicity
 _atom_site_fract_x
 _atom_site_fract_y
 _atom_site_fract_z
 _atom_site_occupancy
  Ni  Ni0  1  0.09542600  0.83273100  0.26269500  1
  Ni  Ni1  1  0.42996500  0.16726900  0.26269500  1
  Cu  Cu2  1  0.73337300  0.50000000  0.23337300  1
  C  C3  1  0.66788000  0.67078200  0.99709800  1
  C  C4  1  0.32631600  0.32921800  0.99709800  1
  C  C5  1  0.00904100  0.00000000  0.00904100  1
