# generated using pymatgen
data_CuNiC4
_symmetry_space_group_name_H-M   'P 1'
_cell_length_a   5.00913598
_cell_length_b   5.00913598
_cell_length_c   11.24743000
_cell_angle_alpha   90.00000000
_cell_angle_beta   90.00000000
_cell_angle_gamma   119.99999969
_symmetry_Int_Tables_number   1
_chemical_formula_structural   CuNiC4
_chemical_formula_sum   'Cu3 Ni3 C12'
_cell_volume   244.40471174
_cell_formula_units_Z   3
loop_
 _symmetry_equiv_pos_site_id
 _symmetry_equiv_pos_as_xyz
  1  'x, y, z'
loop_
 _atom_site_type_symbol
 _atom_site_label
 _atom_site_symmetry_multiplicity
 _atom_site_fract_x
 _atom_site_fract_y
 _atom_site_fract_z
 _atom_site_occupancy
  Ni  Ni0  1  0.53926300  0.53926300  0.00000000  1
  Ni  Ni1  1  0.00000000  0.46073700  0.66666700  1
  Ni  Ni2  1  0.46073700  0.00000000  0.33333300  1
  Cu  Cu3  1  0.53768600  0.53768600  0.50000000  1
  Cu  Cu4  1  0.00000000  0.46231400  0.16666700  1
  Cu  Cu5  1  0.46231400  0.00000000  0.83333300  1
  C  C6  1  0.26657600  0.41246800  0.12573600  1
  C  C7  1  0.58753200  0.85410800  0.45906900  1
  C  C8  1  0.14589200  0.73342400  0.79240200  1
  C  C9  1  0.85410800  0.58753200  0.54093100  1
  C  C10  1  0.73342400  0.14589200  0.20759800  1
  C  C11  1  0.41246800  0.26657600  0.87426400  1
  C  C12  1  0.40804000  0.31059800  0.39420300  1
  C  C13  1  0.68940200  0.09744200  0.72753600  1
  C  C14  1  0.90255800  0.59196000  0.06086900  1
  C  C15  1  0.09744200  0.68940200  0.27246400  1
  C  C16  1  0.59196000  0.90255800  0.93913100  1
  C  C17  1  0.31059800  0.40804000  0.60579700  1
