# generated using pymatgen
data_Cu3NiC2
_symmetry_space_group_name_H-M   'P 1'
_cell_length_a   15.61533900
_cell_length_b   5.87339900
_cell_length_c   6.96167774
_cell_angle_alpha   66.36398837
_cell_angle_beta   90.00000000
_cell_angle_gamma   90.00000000
_symmetry_Int_Tables_number   1
_chemical_formula_structural   Cu3NiC2
_chemical_formula_sum   'Cu12 Ni4 C8'
_cell_volume   584.92865512
_cell_formula_units_Z   4
loop_
 _symmetry_equiv_pos_site_id
 _symmetry_equiv_pos_as_xyz
  1  'x, y, z'
loop_
 _atom_site_type_symbol
 _atom_site_label
 _atom_site_symmetry_multiplicity
 _atom_site_fract_x
 _atom_site_fract_y
 _atom_site_fract_z
 _atom_site_occupancy
  C  C0  1  0.16829300  0.98307600  0.54886300  1
  C  C1  1  0.83170700  0.01692400  0.45113700  1
  C  C2  1  0.33170700  0.48307600  0.54886300  1
  C  C3  1  0.66829300  0.51692400  0.45113700  1
  C  C4  1  0.53040700  0.83598700  0.78446500  1
  C  C5  1  0.03040700  0.66401300  0.21553500  1
  C  C6  1  0.46959300  0.16401300  0.21553500  1
  C  C7  1  0.96959300  0.33598700  0.78446500  1
  Ni  Ni8  1  0.67154600  0.15064200  0.04987600  1
  Ni  Ni9  1  0.17154600  0.34935800  0.95012400  1
  Ni  Ni10  1  0.32845400  0.84935800  0.95012400  1
  Ni  Ni11  1  0.82845400  0.65064200  0.04987600  1
  Cu  Cu12  1  0.85627900  0.55128500  0.38367000  1
  Cu  Cu13  1  0.64372100  0.05128500  0.38367000  1
  Cu  Cu14  1  0.35627900  0.94871500  0.61633000  1
  Cu  Cu15  1  0.14372100  0.44871500  0.61633000  1
  Cu  Cu16  1  0.93119300  0.83073700  0.82590800  1
  Cu  Cu17  1  0.43119300  0.66926300  0.17409200  1
  Cu  Cu18  1  0.06880700  0.16926300  0.17409200  1
  Cu  Cu19  1  0.56880700  0.33073700  0.82590800  1
  Cu  Cu20  1  0.69290600  0.80499400  0.97979200  1
  Cu  Cu21  1  0.19290600  0.69500600  0.02020800  1
  Cu  Cu22  1  0.30709400  0.19500600  0.02020800  1
  Cu  Cu23  1  0.80709400  0.30499400  0.97979200  1
