# generated using pymatgen
data_Cu6NiC5
_symmetry_space_group_name_H-M   'P 1'
_cell_length_a   9.27133310
_cell_length_b   9.27133310
_cell_length_c   10.61499103
_cell_angle_alpha   68.53906144
_cell_angle_beta   68.53906144
_cell_angle_gamma   94.27708162
_symmetry_Int_Tables_number   1
_chemical_formula_structural   Cu6NiC5
_chemical_formula_sum   'Cu24 Ni4 C20'
_cell_volume   767.07580577
_cell_formula_units_Z   4
loop_
 _symmetry_equiv_pos_site_id
 _symmetry_equiv_pos_as_xyz
  1  'x, y, z'
loop_
 _atom_site_type_symbol
 _atom_site_label
 _atom_site_symmetry_multiplicity
 _atom_site_fract_x
 _atom_site_fract_y
 _atom_site_fract_z
 _atom_site_occupancy
  C  C0  1  0.59784000  0.85320000  0.73335300  1
  C  C1  1  0.00438100  0.25530000  0.49850900  1
  C  C2  1  0.74470000  0.99561900  0.00149100  1
  C  C3  1  0.85320000  0.59784000  0.23335300  1
  C  C4  1  0.14680000  0.40216000  0.76664700  1
  C  C5  1  0.25530000  0.00438100  0.99850900  1
  C  C6  1  0.99561900  0.74470000  0.50149100  1
  C  C7  1  0.40216000  0.14680000  0.26664700  1
  C  C8  1  0.09431000  0.90569000  0.75000000  1
  C  C9  1  0.34720000  0.65280000  0.25000000  1
  C  C10  1  0.65280000  0.34720000  0.75000000  1
  C  C11  1  0.90569000  0.09431000  0.25000000  1
  C  C12  1  0.37609200  0.74152500  0.59782600  1
  C  C13  1  0.25847500  0.62390800  0.90217400  1
  C  C14  1  0.62723200  0.49011700  0.09464400  1
  C  C15  1  0.49011700  0.62723200  0.59464400  1
  C  C16  1  0.50988300  0.37276800  0.40535600  1
  C  C17  1  0.37276800  0.50988300  0.90535600  1
  C  C18  1  0.74152500  0.37609200  0.09782600  1
  C  C19  1  0.62390800  0.25847500  0.40217400  1
  Ni  Ni20  1  0.48808800  0.73903900  0.56976500  1
  Ni  Ni21  1  0.26096100  0.51191200  0.93023500  1
  Ni  Ni22  1  0.73903900  0.48808800  0.06976500  1
  Ni  Ni23  1  0.51191200  0.26096100  0.43023500  1
  Cu  Cu24  1  0.00245300  0.83461800  0.97211900  1
  Cu  Cu25  1  0.30414800  0.90204600  0.76406200  1
  Cu  Cu26  1  0.47020500  0.79126800  0.02854500  1
  Cu  Cu27  1  0.55299800  0.64790200  0.27007500  1
  Cu  Cu28  1  0.13108200  0.10844200  0.22830300  1
  Cu  Cu29  1  0.20873200  0.52979500  0.47145500  1
  Cu  Cu30  1  0.10844200  0.13108200  0.72830300  1
  Cu  Cu31  1  0.35209800  0.44700200  0.22992500  1
  Cu  Cu32  1  0.16538200  0.99754700  0.52788100  1
  Cu  Cu33  1  0.85639100  0.33552200  0.77532100  1
  Cu  Cu34  1  0.09795400  0.69585200  0.73593800  1
  Cu  Cu35  1  0.33552200  0.85639100  0.27532100  1
  Cu  Cu36  1  0.66447800  0.14360900  0.72467900  1
  Cu  Cu37  1  0.90204600  0.30414800  0.26406200  1
  Cu  Cu38  1  0.14360900  0.66447800  0.22467900  1
  Cu  Cu39  1  0.83461800  0.00245300  0.47211900  1
  Cu  Cu40  1  0.64790200  0.55299800  0.77007500  1
  Cu  Cu41  1  0.89155800  0.86891800  0.27169700  1
  Cu  Cu42  1  0.79126800  0.47020500  0.52854500  1
  Cu  Cu43  1  0.86891800  0.89155800  0.77169700  1
  Cu  Cu44  1  0.44700200  0.35209800  0.72992500  1
  Cu  Cu45  1  0.52979500  0.20873200  0.97145500  1
  Cu  Cu46  1  0.69585200  0.09795400  0.23593800  1
  Cu  Cu47  1  0.99754700  0.16538200  0.02788100  1
