# generated using pymatgen
data_Cu5NiC3
_symmetry_space_group_name_H-M   'P 1'
_cell_length_a   7.42560136
_cell_length_b   7.42560136
_cell_length_c   7.42560136
_cell_angle_alpha   121.18814210
_cell_angle_beta   120.90100442
_cell_angle_gamma   88.20025751
_symmetry_Int_Tables_number   1
_chemical_formula_structural   Cu5NiC3
_chemical_formula_sum   'Cu10 Ni2 C6'
_cell_volume   284.79487155
_cell_formula_units_Z   2
loop_
 _symmetry_equiv_pos_site_id
 _symmetry_equiv_pos_as_xyz
  1  'x, y, z'
loop_
 _atom_site_type_symbol
 _atom_site_label
 _atom_site_symmetry_multiplicity
 _atom_site_fract_x
 _atom_site_fract_y
 _atom_site_fract_z
 _atom_site_occupancy
  C  C0  1  0.12540300  0.37540300  0.75000000  1
  C  C1  1  0.87459700  0.62459700  0.25000000  1
  C  C2  1  0.50000000  0.00000000  0.00000000  1
  C  C3  1  0.50000000  0.50000000  0.50000000  1
  C  C4  1  0.00000000  0.00000000  0.00000000  1
  C  C5  1  0.50000000  0.00000000  0.50000000  1
  Ni  Ni6  1  0.53429900  0.28429900  0.25000000  1
  Ni  Ni7  1  0.46570100  0.71570100  0.75000000  1
  Cu  Cu8  1  0.81767500  0.09281700  0.15749100  1
  Cu  Cu9  1  0.82505500  0.07505500  0.75000000  1
  Cu  Cu10  1  0.43532600  0.09281700  0.77514200  1
  Cu  Cu11  1  0.81767500  0.66018400  0.72485800  1
  Cu  Cu12  1  0.56467400  0.33981600  0.65749100  1
  Cu  Cu13  1  0.43532600  0.66018400  0.34250900  1
  Cu  Cu14  1  0.18232500  0.33981600  0.27514200  1
  Cu  Cu15  1  0.56467400  0.90718300  0.22485800  1
  Cu  Cu16  1  0.18232500  0.90718300  0.84250900  1
  Cu  Cu17  1  0.17494500  0.92494500  0.25000000  1
