# generated using pymatgen
data_Cu21Ni9C20
_symmetry_space_group_name_H-M   'P 1'
_cell_length_a   4.13157600
_cell_length_b   4.13789900
_cell_length_c   41.51311700
_cell_angle_alpha   90.00000000
_cell_angle_beta   90.00000000
_cell_angle_gamma   90.00000000
_symmetry_Int_Tables_number   1
_chemical_formula_structural   Cu21Ni9C20
_chemical_formula_sum   'Cu21 Ni9 C20'
_cell_volume   709.71008306
_cell_formula_units_Z   1
loop_
 _symmetry_equiv_pos_site_id
 _symmetry_equiv_pos_as_xyz
  1  'x, y, z'
loop_
 _atom_site_type_symbol
 _atom_site_label
 _atom_site_symmetry_multiplicity
 _atom_site_fract_x
 _atom_site_fract_y
 _atom_site_fract_z
 _atom_site_occupancy
  C  C0  1  0.00000000  0.00000000  0.79846500  1
  C  C1  1  0.00000000  0.00000000  0.90028500  1
  C  C2  1  0.00000000  0.00000000  0.00000000  1
  C  C3  1  0.00000000  0.00000000  0.20153500  1
  C  C4  1  0.00000000  0.00000000  0.30031800  1
  C  C5  1  0.00000000  0.00000000  0.59993000  1
  C  C6  1  0.00000000  0.00000000  0.09971500  1
  C  C7  1  0.00000000  0.00000000  0.50000000  1
  C  C8  1  0.00000000  0.00000000  0.40007000  1
  C  C9  1  0.00000000  0.00000000  0.69968200  1
  C  C10  1  0.50000000  0.50000000  0.85258600  1
  C  C11  1  0.50000000  0.50000000  0.04880700  1
  C  C12  1  0.50000000  0.50000000  0.95119300  1
  C  C13  1  0.50000000  0.50000000  0.14741400  1
  C  C14  1  0.50000000  0.50000000  0.34994800  1
  C  C15  1  0.50000000  0.50000000  0.24966500  1
  C  C16  1  0.50000000  0.50000000  0.55000400  1
  C  C17  1  0.50000000  0.50000000  0.44999600  1
  C  C18  1  0.50000000  0.50000000  0.75033500  1
  C  C19  1  0.50000000  0.50000000  0.65005200  1
  Ni  Ni20  1  0.50000000  0.50000000  0.00000000  1
  Ni  Ni21  1  0.50000000  0.50000000  0.89888800  1
  Ni  Ni22  1  0.50000000  0.50000000  0.10111200  1
  Ni  Ni23  1  0.50000000  0.00000000  0.35001200  1
  Ni  Ni24  1  0.50000000  0.00000000  0.45001500  1
  Ni  Ni25  1  0.50000000  0.00000000  0.54998500  1
  Ni  Ni26  1  0.50000000  0.00000000  0.24978200  1
  Ni  Ni27  1  0.50000000  0.00000000  0.64998800  1
  Ni  Ni28  1  0.50000000  0.00000000  0.75021800  1
  Cu  Cu29  1  0.00000000  0.50000000  0.84885500  1
  Cu  Cu30  1  0.00000000  0.50000000  0.94979300  1
  Cu  Cu31  1  0.00000000  0.50000000  0.05020700  1
  Cu  Cu32  1  0.00000000  0.50000000  0.15114500  1
  Cu  Cu33  1  0.00000000  0.50000000  0.35002800  1
  Cu  Cu34  1  0.00000000  0.50000000  0.45001600  1
  Cu  Cu35  1  0.00000000  0.50000000  0.54998400  1
  Cu  Cu36  1  0.00000000  0.50000000  0.64997200  1
  Cu  Cu37  1  0.50000000  0.00000000  0.84936500  1
  Cu  Cu38  1  0.50000000  0.50000000  0.79946400  1
  Cu  Cu39  1  0.50000000  0.00000000  0.05017200  1
  Cu  Cu40  1  0.50000000  0.50000000  0.20053600  1
  Cu  Cu41  1  0.50000000  0.00000000  0.94982800  1
  Cu  Cu42  1  0.50000000  0.50000000  0.40004200  1
  Cu  Cu43  1  0.50000000  0.50000000  0.30012400  1
  Cu  Cu44  1  0.50000000  0.00000000  0.15063500  1
  Cu  Cu45  1  0.50000000  0.50000000  0.50000000  1
  Cu  Cu46  1  0.50000000  0.50000000  0.59995800  1
  Cu  Cu47  1  0.50000000  0.50000000  0.69987600  1
  Cu  Cu48  1  0.00000000  0.50000000  0.25008500  1
  Cu  Cu49  1  0.00000000  0.50000000  0.74991500  1
