# generated using pymatgen
data_Cu3NiC18
_symmetry_space_group_name_H-M   'P 1'
_cell_length_a   7.29054000
_cell_length_b   7.30736600
_cell_length_c   12.60025845
_cell_angle_alpha   54.95194304
_cell_angle_beta   90.00000000
_cell_angle_gamma   90.00000000
_symmetry_Int_Tables_number   1
_chemical_formula_structural   Cu3NiC18
_chemical_formula_sum   'Cu6 Ni2 C36'
_cell_volume   549.55256696
_cell_formula_units_Z   2
loop_
 _symmetry_equiv_pos_site_id
 _symmetry_equiv_pos_as_xyz
  1  'x, y, z'
loop_
 _atom_site_type_symbol
 _atom_site_label
 _atom_site_symmetry_multiplicity
 _atom_site_fract_x
 _atom_site_fract_y
 _atom_site_fract_z
 _atom_site_occupancy
  Ni  Ni0  1  0.00000000  0.50000000  0.50000000  1
  Ni  Ni1  1  0.00000000  0.50000000  0.00000000  1
  Cu  Cu2  1  0.22669200  0.00000000  0.75000000  1
  Cu  Cu3  1  0.24582300  0.50000000  0.75000000  1
  Cu  Cu4  1  0.77330800  0.00000000  0.25000000  1
  Cu  Cu5  1  0.50000000  0.50000000  0.50000000  1
  Cu  Cu6  1  0.75417700  0.50000000  0.25000000  1
  Cu  Cu7  1  0.50000000  0.50000000  0.00000000  1
  C  C8  1  0.26301100  0.00000000  0.25000000  1
  C  C9  1  0.50000000  0.00000000  0.00000000  1
  C  C10  1  0.73698900  0.00000000  0.75000000  1
  C  C11  1  0.50000000  0.00000000  0.50000000  1
  C  C12  1  0.25461200  0.50000000  0.25000000  1
  C  C13  1  0.00000000  0.00000000  0.50000000  1
  C  C14  1  0.74538800  0.50000000  0.75000000  1
  C  C15  1  0.00000000  0.00000000  0.00000000  1
  C  C16  1  0.26355800  0.63480400  0.86726200  1
  C  C17  1  0.04844500  0.05680300  0.13320400  1
  C  C18  1  0.26976900  0.67635500  0.32414000  1
  C  C19  1  0.73644200  0.63480400  0.36726200  1
  C  C20  1  0.04270200  0.66892900  0.12938300  1
  C  C21  1  0.55352500  0.07591200  0.62122200  1
  C  C22  1  0.04270200  0.33107100  0.37061700  1
  C  C23  1  0.95155500  0.05680300  0.63320400  1
  C  C24  1  0.74937700  0.07800000  0.42111700  1
  C  C25  1  0.73023100  0.67635500  0.82414000  1
  C  C26  1  0.25062300  0.92200000  0.57888300  1
  C  C27  1  0.54316100  0.67443900  0.62265500  1
  C  C28  1  0.04844500  0.94319700  0.36679600  1
  C  C29  1  0.95729800  0.66892900  0.62938300  1
  C  C30  1  0.95729800  0.33107100  0.87061700  1
  C  C31  1  0.44647500  0.07591200  0.12122200  1
  C  C32  1  0.54316100  0.32556100  0.87734500  1
  C  C33  1  0.25062300  0.07800000  0.92111700  1
  C  C34  1  0.73023100  0.32364500  0.67586000  1
  C  C35  1  0.26355800  0.36519600  0.63273800  1
  C  C36  1  0.74937700  0.92200000  0.07888300  1
  C  C37  1  0.95155500  0.94319700  0.86679600  1
  C  C38  1  0.55352500  0.92408800  0.87877800  1
  C  C39  1  0.45683900  0.67443900  0.12265500  1
  C  C40  1  0.45683900  0.32556100  0.37734500  1
  C  C41  1  0.73644200  0.36519600  0.13273800  1
  C  C42  1  0.26976900  0.32364500  0.17586000  1
  C  C43  1  0.44647500  0.92408800  0.37877800  1
