# generated using pymatgen
data_Cu2NiC
_symmetry_space_group_name_H-M   'P 1'
_cell_length_a   4.07964600
_cell_length_b   4.12833400
_cell_length_c   21.40033900
_cell_angle_alpha   90.00000000
_cell_angle_beta   90.00000000
_cell_angle_gamma   90.00000000
_symmetry_Int_Tables_number   1
_chemical_formula_structural   Cu2NiC
_chemical_formula_sum   'Cu8 Ni4 C4'
_cell_volume   360.42753309
_cell_formula_units_Z   4
loop_
 _symmetry_equiv_pos_site_id
 _symmetry_equiv_pos_as_xyz
  1  'x, y, z'
loop_
 _atom_site_type_symbol
 _atom_site_label
 _atom_site_symmetry_multiplicity
 _atom_site_fract_x
 _atom_site_fract_y
 _atom_site_fract_z
 _atom_site_occupancy
  C  C0  1  0.25000000  0.77501200  0.61598600  1
  C  C1  1  0.75000000  0.22498800  0.38401400  1
  C  C2  1  0.75000000  0.27501200  0.88401400  1
  C  C3  1  0.25000000  0.72498800  0.11598600  1
  Ni  Ni4  1  0.25000000  0.22416200  0.25009400  1
  Ni  Ni5  1  0.75000000  0.72416200  0.24990600  1
  Ni  Ni6  1  0.75000000  0.77583800  0.74990600  1
  Ni  Ni7  1  0.25000000  0.27583800  0.75009400  1
  Cu  Cu8  1  0.25000000  0.77585300  0.83848500  1
  Cu  Cu9  1  0.75000000  0.22414700  0.16151500  1
  Cu  Cu10  1  0.75000000  0.27585300  0.66151500  1
  Cu  Cu11  1  0.25000000  0.72414700  0.33848500  1
  Cu  Cu12  1  0.25000000  0.30019900  0.50185100  1
  Cu  Cu13  1  0.25000000  0.19980100  0.00185100  1
  Cu  Cu14  1  0.75000000  0.80019900  0.99814900  1
  Cu  Cu15  1  0.75000000  0.69980100  0.49814900  1
