# generated using pymatgen
data_Cu9Ni3C10
_symmetry_space_group_name_H-M   'P 1'
_cell_length_a   9.15609500
_cell_length_b   7.00350900
_cell_length_c   10.65804618
_cell_angle_alpha   79.12384070
_cell_angle_beta   90.00000000
_cell_angle_gamma   90.00000000
_symmetry_Int_Tables_number   1
_chemical_formula_structural   Cu9Ni3C10
_chemical_formula_sum   'Cu18 Ni6 C20'
_cell_volume   671.16850201
_cell_formula_units_Z   2
loop_
 _symmetry_equiv_pos_site_id
 _symmetry_equiv_pos_as_xyz
  1  'x, y, z'
loop_
 _atom_site_type_symbol
 _atom_site_label
 _atom_site_symmetry_multiplicity
 _atom_site_fract_x
 _atom_site_fract_y
 _atom_site_fract_z
 _atom_site_occupancy
  C  C0  1  0.99967700  0.99945100  0.74997600  1
  C  C1  1  0.49967700  0.00054900  0.25002400  1
  C  C2  1  0.31145700  0.88042500  0.56236700  1
  C  C3  1  0.81716400  0.86412800  0.06362800  1
  C  C4  1  0.37821400  0.50164700  0.24844900  1
  C  C5  1  0.87821400  0.49835300  0.75155100  1
  C  C6  1  0.31716400  0.13587200  0.93637200  1
  C  C7  1  0.81145700  0.11957500  0.43763300  1
  C  C8  1  0.49375400  0.64418100  0.89483700  1
  C  C9  1  0.00341300  0.64397100  0.39191200  1
  C  C10  1  0.99375400  0.35581900  0.10516300  1
  C  C11  1  0.50341300  0.35602900  0.60808800  1
  Ni  Ni12  1  0.14247800  0.01053100  0.25698600  1
  Ni  Ni13  1  0.64247800  0.98946900  0.74301400  1
  Ni  Ni14  1  0.17758500  0.64688000  0.92869200  1
  Ni  Ni15  1  0.17580700  0.35202700  0.56206100  1
  Ni  Ni16  1  0.67580700  0.64797300  0.43793900  1
  Ni  Ni17  1  0.67758500  0.35312000  0.07130800  1
  Cu  Cu18  1  0.00002600  0.99786300  0.25047700  1
  Cu  Cu19  1  0.21393600  0.87317500  0.32839400  1
  Cu  Cu20  1  0.50002600  0.00213700  0.74952300  1
  Cu  Cu21  1  0.70648700  0.83714000  0.80898700  1
  Cu  Cu22  1  0.24585000  0.79887200  0.86958100  1
  Cu  Cu23  1  0.24244900  0.48735400  0.48179900  1
  Cu  Cu24  1  0.03598000  0.64009900  0.93662500  1
  Cu  Cu25  1  0.75100500  0.77253900  0.35810800  1
  Cu  Cu26  1  0.03380300  0.34730500  0.55877300  1
  Cu  Cu27  1  0.25390100  0.49552600  0.98169900  1
  Cu  Cu28  1  0.75390100  0.50447400  0.01830100  1
  Cu  Cu29  1  0.53380300  0.65269500  0.44122700  1
  Cu  Cu30  1  0.53598000  0.35990100  0.06337500  1
  Cu  Cu31  1  0.74244900  0.51264600  0.51820100  1
  Cu  Cu32  1  0.20648700  0.16286000  0.19101300  1
  Cu  Cu33  1  0.25100500  0.22746100  0.64189200  1
  Cu  Cu34  1  0.71393600  0.12682500  0.67160600  1
  Cu  Cu35  1  0.74585000  0.20112800  0.13041900  1
  C  C36  1  0.50001000  0.80794000  0.05639200  1
  C  C37  1  0.00298200  0.80298600  0.55607700  1
  C  C38  1  0.10743000  0.59077400  0.20231500  1
  C  C39  1  0.38169300  0.57216900  0.71247400  1
  C  C40  1  0.60743000  0.40922600  0.79768500  1
  C  C41  1  0.88169300  0.42783100  0.28752600  1
  C  C42  1  0.00001000  0.19206000  0.94360800  1
  C  C43  1  0.50298200  0.19701400  0.44392300  1
