# generated using pymatgen
data_Cu14Ni5C2
_symmetry_space_group_name_H-M   'P 1'
_cell_length_a   10.41905056
_cell_length_b   10.41905056
_cell_length_c   10.41905056
_cell_angle_alpha   133.03590103
_cell_angle_beta   133.03590103
_cell_angle_gamma   68.59777306
_symmetry_Int_Tables_number   1
_chemical_formula_structural   Cu14Ni5C2
_chemical_formula_sum   'Cu28 Ni10 C4'
_cell_volume   593.41041129
_cell_formula_units_Z   2
loop_
 _symmetry_equiv_pos_site_id
 _symmetry_equiv_pos_as_xyz
  1  'x, y, z'
loop_
 _atom_site_type_symbol
 _atom_site_label
 _atom_site_symmetry_multiplicity
 _atom_site_fract_x
 _atom_site_fract_y
 _atom_site_fract_z
 _atom_site_occupancy
  C  C0  1  0.78394300  0.78394300  0.00000000  1
  C  C1  1  0.53394300  0.03394300  0.50000000  1
  C  C2  1  0.96605700  0.46605700  0.50000000  1
  C  C3  1  0.21605700  0.21605700  0.00000000  1
  Ni  Ni4  1  0.25000000  0.75000000  0.50000000  1
  Ni  Ni5  1  0.50000000  0.50000000  0.00000000  1
  Ni  Ni6  1  0.37500000  0.33580500  0.46080500  1
  Ni  Ni7  1  0.08580500  0.12500000  0.46080500  1
  Ni  Ni8  1  0.66419500  0.62500000  0.53919500  1
  Ni  Ni9  1  0.87500000  0.91419500  0.53919500  1
  Ni  Ni10  1  0.37500000  0.91419500  0.03919500  1
  Ni  Ni11  1  0.66419500  0.12500000  0.03919500  1
  Ni  Ni12  1  0.08580500  0.62500000  0.96080500  1
  Ni  Ni13  1  0.87500000  0.33580500  0.96080500  1
  Cu  Cu14  1  0.80757000  0.47627700  0.66870700  1
  Cu  Cu15  1  0.86113700  0.19243000  0.66870700  1
  Cu  Cu16  1  0.31278800  0.31278800  0.62557700  1
  Cu  Cu17  1  0.06278800  0.93721200  0.50000000  1
  Cu  Cu18  1  0.43721200  0.56278800  0.50000000  1
  Cu  Cu19  1  0.68721200  0.68721200  0.37442300  1
  Cu  Cu20  1  0.43721200  0.93721200  0.87442300  1
  Cu  Cu21  1  0.68721200  0.31278800  0.00000000  1
  Cu  Cu22  1  0.31278800  0.68721200  0.00000000  1
  Cu  Cu23  1  0.06278800  0.56278800  0.12557700  1
  Cu  Cu24  1  0.37500000  0.62500000  0.75000000  1
  Cu  Cu25  1  0.37500000  0.12500000  0.75000000  1
  Cu  Cu26  1  0.37500000  0.62500000  0.25000000  1
  Cu  Cu27  1  0.87500000  0.62500000  0.25000000  1
  Cu  Cu28  1  0.80757000  0.13886300  0.33129300  1
  Cu  Cu29  1  0.88886300  0.05757000  0.83129300  1
  Cu  Cu30  1  0.22627700  0.05757000  0.16870700  1
  Cu  Cu31  1  0.94243000  0.77372300  0.83129300  1
  Cu  Cu32  1  0.94243000  0.11113700  0.16870700  1
  Cu  Cu33  1  0.52372300  0.19243000  0.33129300  1
  Cu  Cu34  1  0.56951200  0.35568900  0.21382300  1
  Cu  Cu35  1  0.64431100  0.85813400  0.21382300  1
  Cu  Cu36  1  0.64431100  0.43048800  0.78617700  1
  Cu  Cu37  1  0.18048800  0.89431100  0.28617700  1
  Cu  Cu38  1  0.60813400  0.89431100  0.71382300  1
  Cu  Cu39  1  0.10568900  0.39186600  0.28617700  1
  Cu  Cu40  1  0.10568900  0.81951200  0.71382300  1
  Cu  Cu41  1  0.14186600  0.35568900  0.78617700  1
