# generated using pymatgen
data_CuNiC2
_symmetry_space_group_name_H-M   'P 1'
_cell_length_a   6.99388178
_cell_length_b   6.99388178
_cell_length_c   6.99388178
_cell_angle_alpha   131.37791890
_cell_angle_beta   131.37791890
_cell_angle_gamma   71.21332887
_symmetry_Int_Tables_number   1
_chemical_formula_structural   CuNiC2
_chemical_formula_sum   'Cu2 Ni2 C4'
_cell_volume   188.56610421
_cell_formula_units_Z   2
loop_
 _symmetry_equiv_pos_site_id
 _symmetry_equiv_pos_as_xyz
  1  'x, y, z'
loop_
 _atom_site_type_symbol
 _atom_site_label
 _atom_site_symmetry_multiplicity
 _atom_site_fract_x
 _atom_site_fract_y
 _atom_site_fract_z
 _atom_site_occupancy
  Ni  Ni0  1  0.00000000  0.00000000  0.00000000  1
  Ni  Ni1  1  0.75000000  0.25000000  0.50000000  1
  Cu  Cu2  1  0.50000000  0.50000000  0.00000000  1
  Cu  Cu3  1  0.25000000  0.75000000  0.50000000  1
  C  C4  1  0.62461900  0.62500000  0.49961900  1
  C  C5  1  0.37500000  0.87461900  0.99961900  1
  C  C6  1  0.87500000  0.37538100  0.00038100  1
  C  C7  1  0.12538100  0.12500000  0.50038100  1
