# generated using pymatgen
data_CuNi4
_symmetry_space_group_name_H-M   'P 1'
_cell_length_a   6.29926430
_cell_length_b   6.29926430
_cell_length_c   7.89416800
_cell_angle_alpha   90.00000000
_cell_angle_beta   90.00000000
_cell_angle_gamma   120.00000319
_symmetry_Int_Tables_number   1
_chemical_formula_structural   CuNi4
_chemical_formula_sum   'Cu3 Ni12'
_cell_volume   271.27929240
_cell_formula_units_Z   3
loop_
 _symmetry_equiv_pos_site_id
 _symmetry_equiv_pos_as_xyz
  1  'x, y, z'
loop_
 _atom_site_type_symbol
 _atom_site_label
 _atom_site_symmetry_multiplicity
 _atom_site_fract_x
 _atom_site_fract_y
 _atom_site_fract_z
 _atom_site_occupancy
  Ni  Ni0  1  0.00000000  0.61828300  0.66666700  1
  Ni  Ni1  1  0.00000000  0.07921000  0.66666700  1
  Ni  Ni2  1  0.77863000  0.26542900  0.88591700  1
  Ni  Ni3  1  0.38171700  0.38171700  0.00000000  1
  Ni  Ni4  1  0.22137000  0.48680000  0.44741600  1
  Ni  Ni5  1  0.48680000  0.22137000  0.55258400  1
  Ni  Ni6  1  0.51320000  0.73457100  0.78074900  1
  Ni  Ni7  1  0.61828300  0.00000000  0.33333300  1
  Ni  Ni8  1  0.92079000  0.92079000  0.00000000  1
  Ni  Ni9  1  0.07921000  0.00000000  0.33333300  1
  Ni  Ni10  1  0.26542900  0.77863000  0.11408300  1
  Ni  Ni11  1  0.73457100  0.51320000  0.21925100  1
  Cu  Cu12  1  0.68241300  0.68241300  0.50000000  1
  Cu  Cu13  1  0.00000000  0.31758700  0.16666700  1
  Cu  Cu14  1  0.31758700  0.00000000  0.83333300  1
