# generated using pymatgen
data_Cu2Ni3C37
_symmetry_space_group_name_H-M   'P 1'
_cell_length_a   6.82800000
_cell_length_b   9.77436800
_cell_length_c   9.84524649
_cell_angle_alpha   60.68429545
_cell_angle_beta   90.00000000
_cell_angle_gamma   90.00000000
_symmetry_Int_Tables_number   1
_chemical_formula_structural   Cu2Ni3C37
_chemical_formula_sum   'Cu2 Ni3 C37'
_cell_volume   572.91864188
_cell_formula_units_Z   1
loop_
 _symmetry_equiv_pos_site_id
 _symmetry_equiv_pos_as_xyz
  1  'x, y, z'
loop_
 _atom_site_type_symbol
 _atom_site_label
 _atom_site_symmetry_multiplicity
 _atom_site_fract_x
 _atom_site_fract_y
 _atom_site_fract_z
 _atom_site_occupancy
  C  C0  1  0.00000000  0.02812300  0.73932000  1
  C  C1  1  0.00000000  0.27393300  0.96137900  1
  C  C2  1  0.25510800  0.66108900  0.68610700  1
  C  C3  1  0.74489200  0.66108900  0.68610700  1
  C  C4  1  0.50000000  0.26046100  0.75476400  1
  C  C5  1  0.00000000  0.73290100  0.25392100  1
  C  C6  1  0.74010800  0.32527900  0.35438100  1
  C  C7  1  0.25989200  0.32527900  0.35438100  1
  C  C8  1  0.50000000  0.77380000  0.95989700  1
  C  C9  1  0.50000000  0.01919800  0.26777600  1
  C  C10  1  0.50000000  0.40345600  0.97511800  1
  C  C11  1  0.50000000  0.96321900  0.62101200  1
  C  C12  1  0.00000000  0.38563300  0.58670500  1
  Ni  Ni13  1  0.50000000  0.62976500  0.40368700  1
  Ni  Ni14  1  0.00000000  0.03119000  0.37517800  1
  Ni  Ni15  1  0.00000000  0.58081600  0.04085400  1
  Cu  Cu16  1  0.24724000  0.99237400  0.01211500  1
  Cu  Cu17  1  0.75276000  0.99237400  0.01211500  1
  C  C18  1  0.30411600  0.90635100  0.73511100  1
  C  C19  1  0.69588400  0.90635100  0.73511100  1
  C  C20  1  0.50000000  0.59774600  0.87883200  1
  C  C21  1  0.00000000  0.63607200  0.87106300  1
  C  C22  1  0.69108100  0.35692300  0.90375900  1
  C  C23  1  0.30891900  0.35692300  0.90375900  1
  C  C24  1  0.50000000  0.85781700  0.53029800  1
  C  C25  1  0.00000000  0.85903300  0.48156900  1
  C  C26  1  0.00000000  0.51254900  0.65099900  1
  C  C27  1  0.50000000  0.54198600  0.57825300  1
  C  C28  1  0.19281500  0.26831400  0.64164200  1
  C  C29  1  0.80718500  0.26831400  0.64164200  1
  C  C30  1  0.67662000  0.73090500  0.34855100  1
  C  C31  1  0.32338000  0.73090500  0.34855100  1
  C  C32  1  0.00000000  0.47224100  0.39272400  1
  C  C33  1  0.50000000  0.51729300  0.34231200  1
  C  C34  1  0.50000000  0.15000000  0.49349000  1
  C  C35  1  0.00000000  0.11939800  0.46467500  1
  C  C36  1  0.17646900  0.63916400  0.08604800  1
  C  C37  1  0.82353100  0.63916400  0.08604800  1
  C  C38  1  0.50000000  0.32289400  0.16590800  1
  C  C39  1  0.00000000  0.40482000  0.12874600  1
  C  C40  1  0.17463000  0.08243000  0.27304700  1
  C  C41  1  0.82537000  0.08243000  0.27304700  1
