# generated using pymatgen
data_Cu2NiC
_symmetry_space_group_name_H-M   'P 1'
_cell_length_a   3.82490900
_cell_length_b   6.11957000
_cell_length_c   14.44988500
_cell_angle_alpha   90.00000000
_cell_angle_beta   90.00000000
_cell_angle_gamma   90.00000000
_symmetry_Int_Tables_number   1
_chemical_formula_structural   Cu2NiC
_chemical_formula_sum   'Cu8 Ni4 C4'
_cell_volume   338.22554465
_cell_formula_units_Z   4
loop_
 _symmetry_equiv_pos_site_id
 _symmetry_equiv_pos_as_xyz
  1  'x, y, z'
loop_
 _atom_site_type_symbol
 _atom_site_label
 _atom_site_symmetry_multiplicity
 _atom_site_fract_x
 _atom_site_fract_y
 _atom_site_fract_z
 _atom_site_occupancy
  C  C0  1  0.25000000  0.74885200  0.32808400  1
  C  C1  1  0.25000000  0.24885200  0.17191600  1
  C  C2  1  0.75000000  0.25114800  0.67191600  1
  C  C3  1  0.75000000  0.75114800  0.82808400  1
  Ni  Ni4  1  0.25000000  0.22927800  0.93800400  1
  Ni  Ni5  1  0.75000000  0.77072200  0.06199600  1
  Ni  Ni6  1  0.25000000  0.72927800  0.56199600  1
  Ni  Ni7  1  0.75000000  0.27072200  0.43800400  1
  Cu  Cu8  1  0.25000000  0.62677200  0.90317100  1
  Cu  Cu9  1  0.75000000  0.37322800  0.09682900  1
  Cu  Cu10  1  0.25000000  0.12677200  0.59682900  1
  Cu  Cu11  1  0.75000000  0.87322800  0.40317100  1
  Cu  Cu12  1  0.75000000  0.12606100  0.82266000  1
  Cu  Cu13  1  0.25000000  0.37393900  0.32266000  1
  Cu  Cu14  1  0.75000000  0.62606100  0.67734000  1
  Cu  Cu15  1  0.25000000  0.87393900  0.17734000  1
