# generated using pymatgen
data_CuNiC7
_symmetry_space_group_name_H-M   'P 1'
_cell_length_a   7.22035900
_cell_length_b   7.85344700
_cell_length_c   10.01202800
_cell_angle_alpha   90.00000000
_cell_angle_beta   90.00000000
_cell_angle_gamma   90.00000000
_symmetry_Int_Tables_number   1
_chemical_formula_structural   CuNiC7
_chemical_formula_sum   'Cu4 Ni4 C28'
_cell_volume   567.72911149
_cell_formula_units_Z   4
loop_
 _symmetry_equiv_pos_site_id
 _symmetry_equiv_pos_as_xyz
  1  'x, y, z'
loop_
 _atom_site_type_symbol
 _atom_site_label
 _atom_site_symmetry_multiplicity
 _atom_site_fract_x
 _atom_site_fract_y
 _atom_site_fract_z
 _atom_site_occupancy
  Ni  Ni0  1  0.25000000  0.63612700  0.74278900  1
  Ni  Ni1  1  0.75000000  0.36387300  0.25721100  1
  Ni  Ni2  1  0.25000000  0.13612700  0.75721100  1
  Ni  Ni3  1  0.75000000  0.86387300  0.24278900  1
  Cu  Cu4  1  0.25000000  0.80032600  0.05994200  1
  Cu  Cu5  1  0.75000000  0.19967400  0.94005800  1
  Cu  Cu6  1  0.25000000  0.30032600  0.44005800  1
  Cu  Cu7  1  0.75000000  0.69967400  0.55994200  1
  C  C8  1  0.92473700  0.12564900  0.82933600  1
  C  C9  1  0.42473700  0.87435100  0.17066400  1
  C  C10  1  0.57526300  0.62564900  0.67066400  1
  C  C11  1  0.07526300  0.37435100  0.32933600  1
  C  C12  1  0.07526300  0.87435100  0.17066400  1
  C  C13  1  0.57526300  0.12564900  0.82933600  1
  C  C14  1  0.42473700  0.37435100  0.32933600  1
  C  C15  1  0.92473700  0.62564900  0.67066400  1
  C  C16  1  0.75000000  0.61097400  0.19380500  1
  C  C17  1  0.25000000  0.38902600  0.80619500  1
  C  C18  1  0.75000000  0.11097400  0.30619500  1
  C  C19  1  0.25000000  0.88902600  0.69380500  1
  C  C20  1  0.75000000  0.49357700  0.48259800  1
  C  C21  1  0.25000000  0.50642300  0.51740200  1
  C  C22  1  0.75000000  0.99357700  0.01740200  1
  C  C23  1  0.25000000  0.00642300  0.98259800  1
  C  C24  1  0.75000000  0.89922000  0.63468500  1
  C  C25  1  0.25000000  0.10078000  0.36531500  1
  C  C26  1  0.75000000  0.39922000  0.86531500  1
  C  C27  1  0.25000000  0.60078000  0.13468500  1
  C  C28  1  0.92216400  0.76716900  0.44198400  1
  C  C29  1  0.42216400  0.23283100  0.55801600  1
  C  C30  1  0.57783600  0.26716900  0.05801600  1
  C  C31  1  0.07783600  0.73283100  0.94198400  1
  C  C32  1  0.07783600  0.23283100  0.55801600  1
  C  C33  1  0.57783600  0.76716900  0.44198400  1
  C  C34  1  0.42216400  0.73283100  0.94198400  1
  C  C35  1  0.92216400  0.26716900  0.05801600  1
