# generated using pymatgen
data_Cu4NiC2
_symmetry_space_group_name_H-M   'P 1'
_cell_length_a   5.86759700
_cell_length_b   7.59625600
_cell_length_c   10.25860600
_cell_angle_alpha   90.00000000
_cell_angle_beta   90.00000000
_cell_angle_gamma   90.00000000
_symmetry_Int_Tables_number   1
_chemical_formula_structural   Cu4NiC2
_chemical_formula_sum   'Cu16 Ni4 C8'
_cell_volume   457.24421604
_cell_formula_units_Z   4
loop_
 _symmetry_equiv_pos_site_id
 _symmetry_equiv_pos_as_xyz
  1  'x, y, z'
loop_
 _atom_site_type_symbol
 _atom_site_label
 _atom_site_symmetry_multiplicity
 _atom_site_fract_x
 _atom_site_fract_y
 _atom_site_fract_z
 _atom_site_occupancy
  C  C0  1  0.75000000  0.00751900  0.70255200  1
  C  C1  1  0.25000000  0.99248100  0.29744800  1
  C  C2  1  0.75000000  0.50751900  0.79744800  1
  C  C3  1  0.25000000  0.49248100  0.20255200  1
  C  C4  1  0.25000000  0.67360700  0.58629500  1
  C  C5  1  0.75000000  0.32639300  0.41370500  1
  C  C6  1  0.25000000  0.17360700  0.91370500  1
  C  C7  1  0.75000000  0.82639300  0.08629500  1
  Ni  Ni8  1  0.25000000  0.23091800  0.58074600  1
  Ni  Ni9  1  0.75000000  0.76908200  0.41925400  1
  Ni  Ni10  1  0.25000000  0.73091800  0.91925400  1
  Ni  Ni11  1  0.75000000  0.26908200  0.08074600  1
  Cu  Cu12  1  0.54156900  0.70234500  0.35085200  1
  Cu  Cu13  1  0.04156900  0.29765500  0.64914800  1
  Cu  Cu14  1  0.95843100  0.20234500  0.14914800  1
  Cu  Cu15  1  0.45843100  0.79765500  0.85085200  1
  Cu  Cu16  1  0.45843100  0.29765500  0.64914800  1
  Cu  Cu17  1  0.95843100  0.70234500  0.35085200  1
  Cu  Cu18  1  0.04156900  0.79765500  0.85085200  1
  Cu  Cu19  1  0.54156900  0.20234500  0.14914800  1
  Cu  Cu20  1  0.25000000  0.30007100  0.44354600  1
  Cu  Cu21  1  0.75000000  0.69992900  0.55645400  1
  Cu  Cu22  1  0.25000000  0.80007100  0.05645400  1
  Cu  Cu23  1  0.75000000  0.19992900  0.94354600  1
  Cu  Cu24  1  0.75000000  0.46480300  0.08064200  1
  Cu  Cu25  1  0.25000000  0.53519700  0.91935800  1
  Cu  Cu26  1  0.75000000  0.96480300  0.41935800  1
  Cu  Cu27  1  0.25000000  0.03519700  0.58064200  1
