# generated using pymatgen
data_Cu4NiC2
_symmetry_space_group_name_H-M   'P 1'
_cell_length_a   5.02946200
_cell_length_b   8.38130100
_cell_length_c   8.58567878
_cell_angle_alpha   72.33292197
_cell_angle_beta   90.00000000
_cell_angle_gamma   90.00000000
_symmetry_Int_Tables_number   1
_chemical_formula_structural   Cu4NiC2
_chemical_formula_sum   'Cu16 Ni4 C8'
_cell_volume   344.84645956
_cell_formula_units_Z   4
loop_
 _symmetry_equiv_pos_site_id
 _symmetry_equiv_pos_as_xyz
  1  'x, y, z'
loop_
 _atom_site_type_symbol
 _atom_site_label
 _atom_site_symmetry_multiplicity
 _atom_site_fract_x
 _atom_site_fract_y
 _atom_site_fract_z
 _atom_site_occupancy
  C  C0  1  0.92755600  0.06521600  0.12896100  1
  C  C1  1  0.42755600  0.43478400  0.87103900  1
  C  C2  1  0.07244400  0.93478400  0.87103900  1
  C  C3  1  0.57244400  0.56521600  0.12896100  1
  C  C4  1  0.93239300  0.30501700  0.37868100  1
  C  C5  1  0.43239300  0.19498300  0.62131900  1
  C  C6  1  0.06760700  0.69498300  0.62131900  1
  C  C7  1  0.56760700  0.80501700  0.37868100  1
  Ni  Ni8  1  0.43885600  0.19125600  0.25141600  1
  Ni  Ni9  1  0.56114400  0.80874400  0.74858400  1
  Ni  Ni10  1  0.06114400  0.69125600  0.25141600  1
  Ni  Ni11  1  0.93885600  0.30874400  0.74858400  1
  Cu  Cu12  1  0.55348000  0.22722000  0.39780400  1
  Cu  Cu13  1  0.44652000  0.77278000  0.60219600  1
  Cu  Cu14  1  0.05348000  0.27278000  0.60219600  1
  Cu  Cu15  1  0.64690700  0.33648700  0.72653600  1
  Cu  Cu16  1  0.35309300  0.66351300  0.27346400  1
  Cu  Cu17  1  0.85309300  0.83648700  0.72653600  1
  Cu  Cu18  1  0.93309600  0.53961200  0.22882300  1
  Cu  Cu19  1  0.14690700  0.16351300  0.27346400  1
  Cu  Cu20  1  0.43309600  0.96038800  0.77117700  1
  Cu  Cu21  1  0.06690400  0.46038800  0.77117700  1
  Cu  Cu22  1  0.00401800  0.83786100  0.10616800  1
  Cu  Cu23  1  0.56690400  0.03961200  0.22882300  1
  Cu  Cu24  1  0.49598200  0.33786100  0.10616800  1
  Cu  Cu25  1  0.99598200  0.16213900  0.89383200  1
  Cu  Cu26  1  0.50401800  0.66213900  0.89383200  1
  Cu  Cu27  1  0.94652000  0.72722000  0.39780400  1
