# generated using pymatgen
data_Cu(NiC)2
_symmetry_space_group_name_H-M   'P 1'
_cell_length_a   5.17655800
_cell_length_b   5.54408233
_cell_length_c   5.54408233
_cell_angle_alpha   116.49879236
_cell_angle_beta   90.00000000
_cell_angle_gamma   90.00000000
_symmetry_Int_Tables_number   1
_chemical_formula_structural   Cu(NiC)2
_chemical_formula_sum   'Cu2 Ni4 C4'
_cell_volume   142.39547007
_cell_formula_units_Z   2
loop_
 _symmetry_equiv_pos_site_id
 _symmetry_equiv_pos_as_xyz
  1  'x, y, z'
loop_
 _atom_site_type_symbol
 _atom_site_label
 _atom_site_symmetry_multiplicity
 _atom_site_fract_x
 _atom_site_fract_y
 _atom_site_fract_z
 _atom_site_occupancy
  C  C0  1  0.38244500  0.32949800  0.97911500  1
  C  C1  1  0.88244500  0.67050200  0.02088500  1
  C  C2  1  0.88244500  0.02088500  0.67050200  1
  C  C3  1  0.38244500  0.97911500  0.32949800  1
  Ni  Ni4  1  0.23112400  0.08135400  0.66333800  1
  Ni  Ni5  1  0.73112400  0.91864600  0.33666200  1
  Ni  Ni6  1  0.73112400  0.33666200  0.91864600  1
  Ni  Ni7  1  0.23112400  0.66333800  0.08135400  1
  Cu  Cu8  1  0.30086100  0.24134500  0.24134500  1
  Cu  Cu9  1  0.80086100  0.75865500  0.75865500  1
