# generated using pymatgen
data_Cu12NiC10
_symmetry_space_group_name_H-M   'P 1'
_cell_length_a   8.98611400
_cell_length_b   8.98611400
_cell_length_c   9.03606000
_cell_angle_alpha   90.00000000
_cell_angle_beta   90.00000000
_cell_angle_gamma   90.00000000
_symmetry_Int_Tables_number   1
_chemical_formula_structural   Cu12NiC10
_chemical_formula_sum   'Cu24 Ni2 C20'
_cell_volume   729.66405722
_cell_formula_units_Z   2
loop_
 _symmetry_equiv_pos_site_id
 _symmetry_equiv_pos_as_xyz
  1  'x, y, z'
loop_
 _atom_site_type_symbol
 _atom_site_label
 _atom_site_symmetry_multiplicity
 _atom_site_fract_x
 _atom_site_fract_y
 _atom_site_fract_z
 _atom_site_occupancy
  C  C0  1  0.18654100  0.32146000  0.06627900  1
  C  C1  1  0.67854000  0.18654100  0.93372100  1
  C  C2  1  0.32146000  0.81345900  0.93372100  1
  C  C3  1  0.81345900  0.67854000  0.06627900  1
  C  C4  1  0.70238500  0.82032400  0.56094000  1
  C  C5  1  0.17967600  0.70238500  0.43906000  1
  C  C6  1  0.82032400  0.29761500  0.43906000  1
  C  C7  1  0.29761500  0.17967600  0.56094000  1
  C  C8  1  0.00000000  0.00000000  0.50000000  1
  C  C9  1  0.75209400  0.49987400  0.75033600  1
  C  C10  1  0.50012600  0.75209400  0.24966400  1
  C  C11  1  0.49987400  0.24790600  0.24966400  1
  C  C12  1  0.24790600  0.50012600  0.75033600  1
  C  C13  1  0.00000000  0.00000000  0.00000000  1
  C  C14  1  0.50000000  0.50000000  0.00000000  1
  C  C15  1  0.75903500  0.99601100  0.25481400  1
  C  C16  1  0.24096500  0.00398900  0.25481400  1
  C  C17  1  0.50000000  0.50000000  0.50000000  1
  C  C18  1  0.99601100  0.24096500  0.74518600  1
  C  C19  1  0.00398900  0.75903500  0.74518600  1
  Ni  Ni20  1  0.50000000  0.00000000  0.75384100  1
  Ni  Ni21  1  0.00000000  0.50000000  0.24615900  1
  Cu  Cu22  1  0.35500000  0.45028500  0.90369500  1
  Cu  Cu23  1  0.04382400  0.14371200  0.89835400  1
  Cu  Cu24  1  0.85491200  0.34140100  0.80082100  1
  Cu  Cu25  1  0.14508800  0.65859900  0.80082100  1
  Cu  Cu26  1  0.64500000  0.54971500  0.90369500  1
  Cu  Cu27  1  0.95617600  0.85628800  0.89835400  1
  Cu  Cu28  1  0.54971500  0.35500000  0.09630500  1
  Cu  Cu29  1  0.14371200  0.95617600  0.10164600  1
  Cu  Cu30  1  0.85628800  0.04382400  0.10164600  1
  Cu  Cu31  1  0.45028500  0.64500000  0.09630500  1
  Cu  Cu32  1  0.65859900  0.85491200  0.19917900  1
  Cu  Cu33  1  0.85785200  0.95292300  0.39568500  1
  Cu  Cu34  1  0.54905300  0.64617500  0.40385700  1
  Cu  Cu35  1  0.34113200  0.85690200  0.29012400  1
  Cu  Cu36  1  0.65886800  0.14309800  0.29012400  1
  Cu  Cu37  1  0.34140100  0.14508800  0.19917900  1
  Cu  Cu38  1  0.14214800  0.04707700  0.39568500  1
  Cu  Cu39  1  0.45094700  0.35382500  0.40385700  1
  Cu  Cu40  1  0.04707700  0.85785200  0.60431500  1
  Cu  Cu41  1  0.64617500  0.45094700  0.59614300  1
  Cu  Cu42  1  0.95292300  0.14214800  0.60431500  1
  Cu  Cu43  1  0.35382500  0.54905300  0.59614300  1
  Cu  Cu44  1  0.14309800  0.34113200  0.70987600  1
  Cu  Cu45  1  0.85690200  0.65886800  0.70987600  1
