# generated using pymatgen
data_Cu7(NiC3)2
_symmetry_space_group_name_H-M   'P 1'
_cell_length_a   7.22199846
_cell_length_b   7.22199846
_cell_length_c   15.34021656
_cell_angle_alpha   80.10128518
_cell_angle_beta   80.10128518
_cell_angle_gamma   97.00239320
_symmetry_Int_Tables_number   1
_chemical_formula_structural   Cu7(NiC3)2
_chemical_formula_sum   'Cu14 Ni4 C12'
_cell_volume   766.94364765
_cell_formula_units_Z   2
loop_
 _symmetry_equiv_pos_site_id
 _symmetry_equiv_pos_as_xyz
  1  'x, y, z'
loop_
 _atom_site_type_symbol
 _atom_site_label
 _atom_site_symmetry_multiplicity
 _atom_site_fract_x
 _atom_site_fract_y
 _atom_site_fract_z
 _atom_site_occupancy
  C  C0  1  0.95134200  0.23883200  0.42732800  1
  C  C1  1  0.76116800  0.04865800  0.07267200  1
  C  C2  1  0.04865800  0.76116800  0.57267200  1
  C  C3  1  0.23883200  0.95134200  0.92732800  1
  C  C4  1  0.50371900  0.96186100  0.63642100  1
  C  C5  1  0.03813900  0.49628100  0.86357900  1
  C  C6  1  0.43159000  0.56841000  0.25000000  1
  C  C7  1  0.56841000  0.43159000  0.75000000  1
  C  C8  1  0.50000000  0.50000000  0.00000000  1
  C  C9  1  0.50000000  0.50000000  0.50000000  1
  C  C10  1  0.49628100  0.03813900  0.36357900  1
  C  C11  1  0.96186100  0.50371900  0.13642100  1
  Ni  Ni12  1  0.24826400  0.07052900  0.13737600  1
  Ni  Ni13  1  0.92947100  0.75173600  0.36262400  1
  Ni  Ni14  1  0.75173600  0.92947100  0.86262400  1
  Ni  Ni15  1  0.07052900  0.24826400  0.63737600  1
  Cu  Cu16  1  0.77094700  0.31131100  0.60364400  1
  Cu  Cu17  1  0.22905300  0.68868900  0.39635600  1
  Cu  Cu18  1  0.85703600  0.73361000  0.98311700  1
  Cu  Cu19  1  0.26639000  0.14296400  0.51688300  1
  Cu  Cu20  1  0.14296400  0.26639000  0.01688300  1
  Cu  Cu21  1  0.73361000  0.85703600  0.48311700  1
  Cu  Cu22  1  0.75987300  0.48835200  0.31877100  1
  Cu  Cu23  1  0.51164800  0.24012700  0.18122900  1
  Cu  Cu24  1  0.24012700  0.51164800  0.68122900  1
  Cu  Cu25  1  0.48835200  0.75987300  0.81877100  1
  Cu  Cu26  1  0.95390400  0.04609600  0.25000000  1
  Cu  Cu27  1  0.04609600  0.95390400  0.75000000  1
  Cu  Cu28  1  0.31131100  0.77094700  0.10364400  1
  Cu  Cu29  1  0.68868900  0.22905300  0.89635600  1
