# generated using pymatgen
data_Cu5NiC3
_symmetry_space_group_name_H-M   'P 1'
_cell_length_a   7.40781650
_cell_length_b   7.41771315
_cell_length_c   12.67944479
_cell_angle_alpha   91.30660910
_cell_angle_beta   106.98656939
_cell_angle_gamma   60.04136986
_symmetry_Int_Tables_number   1
_chemical_formula_structural   Cu5NiC3
_chemical_formula_sum   'Cu20 Ni4 C12'
_cell_volume   570.89185011
_cell_formula_units_Z   4
loop_
 _symmetry_equiv_pos_site_id
 _symmetry_equiv_pos_as_xyz
  1  'x, y, z'
loop_
 _atom_site_type_symbol
 _atom_site_label
 _atom_site_symmetry_multiplicity
 _atom_site_fract_x
 _atom_site_fract_y
 _atom_site_fract_z
 _atom_site_occupancy
  C  C0  1  0.62652400  0.93522500  0.18825400  1
  C  C1  1  0.62650400  0.43522700  0.68825500  1
  C  C2  1  0.37349700  0.56478000  0.31174700  1
  C  C3  1  0.37347700  0.06478000  0.81174800  1
  C  C4  1  0.99999900  0.00000500  0.00000100  1
  C  C5  1  0.00000100  0.50000000  0.50000200  1
  C  C6  1  0.99991700  0.25000300  0.25000200  1
  C  C7  1  0.00008400  0.75000300  0.75000100  1
  C  C8  1  0.50003600  0.99995000  0.49999800  1
  C  C9  1  0.99998700  0.50001700  0.00000100  1
  C  C10  1  0.49996300  0.50001600  0.99997600  1
  C  C11  1  0.99999400  0.99993300  0.49999100  1
  Ni  Ni12  1  0.95753300  0.43871700  0.35377400  1
  Ni  Ni13  1  0.95753800  0.93871200  0.85376900  1
  Ni  Ni14  1  0.04246300  0.06129300  0.14623300  1
  Ni  Ni15  1  0.04246900  0.56128900  0.64622900  1
  Cu  Cu16  1  0.67814900  0.10779300  0.46408800  1
  Cu  Cu17  1  0.67815300  0.60779300  0.96408800  1
  Cu  Cu18  1  0.32184800  0.39221300  0.03591400  1
  Cu  Cu19  1  0.32185200  0.89221200  0.53591400  1
  Cu  Cu20  1  0.31406900  0.78925600  0.04121200  1
  Cu  Cu21  1  0.31406900  0.28925200  0.54121100  1
  Cu  Cu22  1  0.93788000  0.78930000  0.04120400  1
  Cu  Cu23  1  0.93787700  0.28930100  0.54120400  1
  Cu  Cu24  1  0.31403200  0.08280700  0.33477000  1
  Cu  Cu25  1  0.31404600  0.58281500  0.83476700  1
  Cu  Cu26  1  0.06210100  0.41722600  0.16524600  1
  Cu  Cu27  1  0.06212300  0.91721500  0.66524500  1
  Cu  Cu28  1  0.93787800  0.08279000  0.33475800  1
  Cu  Cu29  1  0.93790000  0.58277900  0.83475600  1
  Cu  Cu30  1  0.68595500  0.41719000  0.16523400  1
  Cu  Cu31  1  0.68597000  0.91719800  0.66523200  1
  Cu  Cu32  1  0.06212400  0.71070300  0.45879700  1
  Cu  Cu33  1  0.06212100  0.21070600  0.95879800  1
  Cu  Cu34  1  0.68593300  0.71075300  0.45879100  1
  Cu  Cu35  1  0.68593200  0.21075000  0.95879000  1
