# generated using pymatgen
data_CuNiC7
_symmetry_space_group_name_H-M   'P 1'
_cell_length_a   7.30453006
_cell_length_b   7.48562002
_cell_length_c   10.70377400
_cell_angle_alpha   89.99837818
_cell_angle_beta   89.98350273
_cell_angle_gamma   89.99097402
_symmetry_Int_Tables_number   1
_chemical_formula_structural   CuNiC7
_chemical_formula_sum   'Cu4 Ni4 C28'
_cell_volume   585.27094642
_cell_formula_units_Z   4
loop_
 _symmetry_equiv_pos_site_id
 _symmetry_equiv_pos_as_xyz
  1  'x, y, z'
loop_
 _atom_site_type_symbol
 _atom_site_label
 _atom_site_symmetry_multiplicity
 _atom_site_fract_x
 _atom_site_fract_y
 _atom_site_fract_z
 _atom_site_occupancy
  C  C0  1  0.99988900  0.75008100  0.37869400  1
  C  C1  1  0.49995500  0.24982800  0.87863200  1
  C  C2  1  0.00011200  0.24991500  0.62130500  1
  C  C3  1  0.50004700  0.75017000  0.12136700  1
  Ni  Ni4  1  0.24994500  0.24917600  0.24995700  1
  Ni  Ni5  1  0.75005400  0.75082800  0.75004600  1
  Ni  Ni6  1  0.75004800  0.24920600  0.24996000  1
  Ni  Ni7  1  0.24995000  0.75079600  0.75004100  1
  Cu  Cu8  1  0.50000100  0.50000000  0.50000000  1
  Cu  Cu9  1  0.00000000  0.50000000  0.00000000  1
  Cu  Cu10  1  0.00000000  0.00000100  0.00000000  1
  Cu  Cu11  1  0.49999900  0.00000100  0.50000100  1
  C  C12  1  0.99995100  0.24965600  0.28874300  1
  C  C13  1  0.49999200  0.75023500  0.78868900  1
  C  C14  1  0.00005100  0.75034500  0.71125900  1
  C  C15  1  0.50000800  0.24976500  0.21130900  1
  C  C16  1  0.99985900  0.74968900  0.07152200  1
  C  C17  1  0.49965900  0.25040400  0.57172600  1
  C  C18  1  0.00014300  0.25031300  0.92847800  1
  C  C19  1  0.50034000  0.74959500  0.42827300  1
  C  C20  1  0.29110500  0.43594900  0.37523600  1
  C  C21  1  0.78874600  0.93713200  0.87644800  1
  C  C22  1  0.70866900  0.43615500  0.37518300  1
  C  C23  1  0.21127000  0.93711200  0.87644400  1
  C  C24  1  0.28899800  0.06263700  0.37625100  1
  C  C25  1  0.79123200  0.56395600  0.87524300  1
  C  C26  1  0.28897700  0.93728100  0.62371000  1
  C  C27  1  0.79131300  0.43614200  0.12480300  1
  C  C28  1  0.71102000  0.06272000  0.37628900  1
  C  C29  1  0.20868300  0.56386000  0.87519600  1
  C  C30  1  0.71100200  0.93736300  0.62374900  1
  C  C31  1  0.20876800  0.43604300  0.12475600  1
  C  C32  1  0.29133500  0.56384300  0.62481800  1
  C  C33  1  0.78873100  0.06288700  0.12355700  1
  C  C34  1  0.70889400  0.56405100  0.62476500  1
  C  C35  1  0.21125400  0.06286600  0.12355200  1
