# generated using pymatgen
data_Cu5NiC2
_symmetry_space_group_name_H-M   'P 1'
_cell_length_a   5.72965583
_cell_length_b   5.72965583
_cell_length_c   7.85891285
_cell_angle_alpha   62.74351566
_cell_angle_beta   62.74351566
_cell_angle_gamma   68.10021961
_symmetry_Int_Tables_number   1
_chemical_formula_structural   Cu5NiC2
_chemical_formula_sum   'Cu10 Ni2 C4'
_cell_volume   199.48938179
_cell_formula_units_Z   2
loop_
 _symmetry_equiv_pos_site_id
 _symmetry_equiv_pos_as_xyz
  1  'x, y, z'
loop_
 _atom_site_type_symbol
 _atom_site_label
 _atom_site_symmetry_multiplicity
 _atom_site_fract_x
 _atom_site_fract_y
 _atom_site_fract_z
 _atom_site_occupancy
  C  C0  1  0.08014000  0.08014000  0.78111200  1
  C  C1  1  0.91986000  0.91986000  0.21888800  1
  C  C2  1  0.00000000  0.50000000  0.00000000  1
  C  C3  1  0.50000000  0.00000000  0.00000000  1
  Ni  Ni4  1  0.59594600  0.59594600  0.68598600  1
  Ni  Ni5  1  0.40405400  0.40405400  0.31401400  1
  Cu  Cu6  1  0.70864700  0.32540800  0.24520600  1
  Cu  Cu7  1  0.67459200  0.29135300  0.75479400  1
  Cu  Cu8  1  0.29135300  0.67459200  0.75479400  1
  Cu  Cu9  1  0.32540800  0.70864700  0.24520600  1
  Cu  Cu10  1  0.14943000  0.14943000  0.98229900  1
  Cu  Cu11  1  0.85057000  0.85057000  0.01770100  1
  Cu  Cu12  1  0.29993600  0.29993600  0.23020500  1
  Cu  Cu13  1  0.70006400  0.70006400  0.76979500  1
  Cu  Cu14  1  0.69452700  0.69452700  0.46013700  1
  Cu  Cu15  1  0.30547300  0.30547300  0.53986300  1
