# generated using pymatgen
data_Cu(NiC2)2
_symmetry_space_group_name_H-M   'P 1'
_cell_length_a   6.55861392
_cell_length_b   6.55861392
_cell_length_c   6.55861392
_cell_angle_alpha   128.98983843
_cell_angle_beta   128.98983843
_cell_angle_gamma   75.02692470
_symmetry_Int_Tables_number   1
_chemical_formula_structural   Cu(NiC2)2
_chemical_formula_sum   'Cu1 Ni2 C4'
_cell_volume   165.96430478
_cell_formula_units_Z   1
loop_
 _symmetry_equiv_pos_site_id
 _symmetry_equiv_pos_as_xyz
  1  'x, y, z'
loop_
 _atom_site_type_symbol
 _atom_site_label
 _atom_site_symmetry_multiplicity
 _atom_site_fract_x
 _atom_site_fract_y
 _atom_site_fract_z
 _atom_site_occupancy
  Ni  Ni0  1  0.25000000  0.75000000  0.50000000  1
  Ni  Ni1  1  0.50000000  0.50000000  0.00000000  1
  Cu  Cu2  1  0.00000000  0.00000000  0.00000000  1
  C  C3  1  0.13692700  0.59415900  0.00417800  1
  C  C4  1  0.86725100  0.86307300  0.45723200  1
  C  C5  1  0.40584100  0.41001900  0.54276800  1
  C  C6  1  0.58998100  0.13274900  0.99582200  1
