# generated using pymatgen
data_Cu3NiC2
_symmetry_space_group_name_H-M   'P 1'
_cell_length_a   6.94929400
_cell_length_b   8.87065400
_cell_length_c   8.95624900
_cell_angle_alpha   90.00000000
_cell_angle_beta   90.00000000
_cell_angle_gamma   90.00000000
_symmetry_Int_Tables_number   1
_chemical_formula_structural   Cu3NiC2
_chemical_formula_sum   'Cu12 Ni4 C8'
_cell_volume   552.10602268
_cell_formula_units_Z   4
loop_
 _symmetry_equiv_pos_site_id
 _symmetry_equiv_pos_as_xyz
  1  'x, y, z'
loop_
 _atom_site_type_symbol
 _atom_site_label
 _atom_site_symmetry_multiplicity
 _atom_site_fract_x
 _atom_site_fract_y
 _atom_site_fract_z
 _atom_site_occupancy
  Ni  Ni0  1  0.25000000  0.00000000  0.89961800  1
  Ni  Ni1  1  0.75000000  0.50000000  0.60038200  1
  Ni  Ni2  1  0.75000000  0.00000000  0.10038200  1
  Ni  Ni3  1  0.25000000  0.50000000  0.39961800  1
  Cu  Cu4  1  0.25000000  0.00000000  0.33910900  1
  Cu  Cu5  1  0.38719300  0.69440900  0.09683300  1
  Cu  Cu6  1  0.61280700  0.19440900  0.40316700  1
  Cu  Cu7  1  0.11280700  0.30559100  0.09683300  1
  Cu  Cu8  1  0.61280700  0.30559100  0.90316700  1
  Cu  Cu9  1  0.11280700  0.19440900  0.59683300  1
  Cu  Cu10  1  0.38719300  0.80559100  0.59683300  1
  Cu  Cu11  1  0.88719300  0.69440900  0.90316700  1
  Cu  Cu12  1  0.75000000  0.00000000  0.66089100  1
  Cu  Cu13  1  0.25000000  0.50000000  0.83910900  1
  Cu  Cu14  1  0.88719300  0.80559100  0.40316700  1
  Cu  Cu15  1  0.75000000  0.50000000  0.16089100  1
  C  C16  1  0.98759200  0.31973500  0.83137200  1
  C  C17  1  0.48759200  0.18026500  0.66862800  1
  C  C18  1  0.01240800  0.81973500  0.66862800  1
  C  C19  1  0.51240800  0.68026500  0.83137200  1
  C  C20  1  0.98759200  0.18026500  0.33137200  1
  C  C21  1  0.48759200  0.31973500  0.16862800  1
  C  C22  1  0.01240800  0.68026500  0.16862800  1
  C  C23  1  0.51240800  0.81973500  0.33137200  1
