# generated using pymatgen
data_Cu(NiC)3
_symmetry_space_group_name_H-M   'P 1'
_cell_length_a   6.98793500
_cell_length_b   6.98793500
_cell_length_c   6.98793579
_cell_angle_alpha   100.75071545
_cell_angle_beta   100.75071545
_cell_angle_gamma   100.75070959
_symmetry_Int_Tables_number   1
_chemical_formula_structural   Cu(NiC)3
_chemical_formula_sum   'Cu2 Ni6 C6'
_cell_volume   320.57989650
_cell_formula_units_Z   2
loop_
 _symmetry_equiv_pos_site_id
 _symmetry_equiv_pos_as_xyz
  1  'x, y, z'
loop_
 _atom_site_type_symbol
 _atom_site_label
 _atom_site_symmetry_multiplicity
 _atom_site_fract_x
 _atom_site_fract_y
 _atom_site_fract_z
 _atom_site_occupancy
  Ni  Ni0  1  0.91830700  0.25764300  0.47209500  1
  Ni  Ni1  1  0.47209500  0.91830700  0.25764300  1
  Ni  Ni2  1  0.25764300  0.47209500  0.91830700  1
  Ni  Ni3  1  0.97209500  0.75764300  0.41830700  1
  Ni  Ni4  1  0.75764300  0.41830700  0.97209500  1
  Ni  Ni5  1  0.41830700  0.97209500  0.75764300  1
  Cu  Cu6  1  0.99399700  0.99399700  0.99399700  1
  Cu  Cu7  1  0.49399700  0.49399700  0.49399700  1
  C  C8  1  0.77376400  0.09759800  0.76769700  1
  C  C9  1  0.76769700  0.77376400  0.09759800  1
  C  C10  1  0.26769700  0.59759800  0.27376400  1
  C  C11  1  0.09759800  0.76769700  0.77376400  1
  C  C12  1  0.27376400  0.26769700  0.59759800  1
  C  C13  1  0.59759800  0.27376400  0.26769700  1
