# generated using pymatgen
data_Cu(Ni3C2)2
_symmetry_space_group_name_H-M   'P 1'
_cell_length_a   7.35546300
_cell_length_b   7.35546300
_cell_length_c   10.41017100
_cell_angle_alpha   90.00000000
_cell_angle_beta   90.00000000
_cell_angle_gamma   90.00000000
_symmetry_Int_Tables_number   1
_chemical_formula_structural   Cu(Ni3C2)2
_chemical_formula_sum   'Cu4 Ni24 C16'
_cell_volume   563.21977377
_cell_formula_units_Z   4
loop_
 _symmetry_equiv_pos_site_id
 _symmetry_equiv_pos_as_xyz
  1  'x, y, z'
loop_
 _atom_site_type_symbol
 _atom_site_label
 _atom_site_symmetry_multiplicity
 _atom_site_fract_x
 _atom_site_fract_y
 _atom_site_fract_z
 _atom_site_occupancy
  C  C0  1  0.76936500  0.00000000  0.25000000  1
  C  C1  1  0.00000000  0.76936500  0.00000000  1
  C  C2  1  0.00000000  0.23063500  0.50000000  1
  C  C3  1  0.23063500  0.00000000  0.75000000  1
  C  C4  1  0.50000000  0.78358100  0.00000000  1
  C  C5  1  0.21641900  0.50000000  0.75000000  1
  C  C6  1  0.50000000  0.21641900  0.50000000  1
  C  C7  1  0.78358100  0.50000000  0.25000000  1
  C  C8  1  0.50000000  0.26711200  0.00000000  1
  C  C9  1  0.50000000  0.73288800  0.50000000  1
  C  C10  1  0.26711200  0.50000000  0.25000000  1
  C  C11  1  0.73288800  0.50000000  0.75000000  1
  C  C12  1  0.74029500  0.00000000  0.75000000  1
  C  C13  1  0.00000000  0.74029500  0.50000000  1
  C  C14  1  0.00000000  0.25970500  0.00000000  1
  C  C15  1  0.25970500  0.00000000  0.25000000  1
  Ni  Ni16  1  0.06419200  0.93580800  0.37500000  1
  Ni  Ni17  1  0.25096900  0.72329500  0.57401900  1
  Ni  Ni18  1  0.45189100  0.94683500  0.38295100  1
  Ni  Ni19  1  0.54810900  0.05316500  0.88295100  1
  Ni  Ni20  1  0.54506000  0.45494000  0.87500000  1
  Ni  Ni21  1  0.54810900  0.94683500  0.61704900  1
  Ni  Ni22  1  0.74903100  0.27670500  0.07401900  1
  Ni  Ni23  1  0.72329500  0.74903100  0.82401900  1
  Ni  Ni24  1  0.74903100  0.72329500  0.42598100  1
  Ni  Ni25  1  0.72329500  0.25096900  0.67598100  1
  Ni  Ni26  1  0.93580800  0.93580800  0.62500000  1
  Ni  Ni27  1  0.93580800  0.06419200  0.87500000  1
  Ni  Ni28  1  0.94683500  0.45189100  0.86704900  1
  Ni  Ni29  1  0.05316500  0.45189100  0.13295100  1
  Ni  Ni30  1  0.05316500  0.54810900  0.36704900  1
  Ni  Ni31  1  0.06419200  0.06419200  0.12500000  1
  Ni  Ni32  1  0.25096900  0.27670500  0.92598100  1
  Ni  Ni33  1  0.27670500  0.25096900  0.32401900  1
  Ni  Ni34  1  0.27670500  0.74903100  0.17598100  1
  Ni  Ni35  1  0.45189100  0.05316500  0.11704900  1
  Ni  Ni36  1  0.45494000  0.54506000  0.37500000  1
  Ni  Ni37  1  0.45494000  0.45494000  0.12500000  1
  Ni  Ni38  1  0.54506000  0.54506000  0.62500000  1
  Ni  Ni39  1  0.94683500  0.54810900  0.63295100  1
  Cu  Cu40  1  0.75274600  0.75274600  0.12500000  1
  Cu  Cu41  1  0.24725400  0.24725400  0.62500000  1
  Cu  Cu42  1  0.75274600  0.24725400  0.37500000  1
  Cu  Cu43  1  0.24725400  0.75274600  0.87500000  1
