# generated using pymatgen
data_Cu2NiC
_symmetry_space_group_name_H-M   'P 1'
_cell_length_a   3.99297600
_cell_length_b   4.04566600
_cell_length_c   8.34714432
_cell_angle_alpha   75.97540842
_cell_angle_beta   90.00000000
_cell_angle_gamma   90.00000000
_symmetry_Int_Tables_number   1
_chemical_formula_structural   Cu2NiC
_chemical_formula_sum   'Cu4 Ni2 C2'
_cell_volume   130.82244122
_cell_formula_units_Z   2
loop_
 _symmetry_equiv_pos_site_id
 _symmetry_equiv_pos_as_xyz
  1  'x, y, z'
loop_
 _atom_site_type_symbol
 _atom_site_label
 _atom_site_symmetry_multiplicity
 _atom_site_fract_x
 _atom_site_fract_y
 _atom_site_fract_z
 _atom_site_occupancy
  C  C0  1  0.25000000  0.10723200  0.78553600  1
  C  C1  1  0.75000000  0.89276800  0.21446400  1
  Ni  Ni2  1  0.75000000  0.67983800  0.64032400  1
  Ni  Ni3  1  0.25000000  0.32016200  0.35967600  1
  Cu  Cu4  1  0.25000000  0.75020700  0.49958600  1
  Cu  Cu5  1  0.75000000  0.24979300  0.50041400  1
  Cu  Cu6  1  0.75000000  0.54269500  0.91461000  1
  Cu  Cu7  1  0.25000000  0.45730500  0.08539000  1
