# generated using pymatgen
data_CuNiC
_symmetry_space_group_name_H-M   'P 1'
_cell_length_a   5.19022300
_cell_length_b   5.23162800
_cell_length_c   5.28808369
_cell_angle_alpha   80.15798501
_cell_angle_beta   90.00000000
_cell_angle_gamma   90.00000000
_symmetry_Int_Tables_number   1
_chemical_formula_structural   CuNiC
_chemical_formula_sum   'Cu4 Ni4 C4'
_cell_volume   141.47578178
_cell_formula_units_Z   4
loop_
 _symmetry_equiv_pos_site_id
 _symmetry_equiv_pos_as_xyz
  1  'x, y, z'
loop_
 _atom_site_type_symbol
 _atom_site_label
 _atom_site_symmetry_multiplicity
 _atom_site_fract_x
 _atom_site_fract_y
 _atom_site_fract_z
 _atom_site_occupancy
  C  C0  1  0.52627900  0.30854400  0.28770900  1
  C  C1  1  0.02627900  0.69145600  0.21229100  1
  C  C2  1  0.47372100  0.69145600  0.71229100  1
  C  C3  1  0.97372100  0.30854400  0.78770900  1
  Ni  Ni4  1  0.25366700  0.45799600  0.01231700  1
  Ni  Ni5  1  0.75366700  0.54200400  0.48768300  1
  Ni  Ni6  1  0.74633300  0.54200400  0.98768300  1
  Ni  Ni7  1  0.24633300  0.45799600  0.51231700  1
  Cu  Cu8  1  0.67480400  0.05603800  0.65792800  1
  Cu  Cu9  1  0.17480400  0.94396200  0.84207200  1
  Cu  Cu10  1  0.32519600  0.94396200  0.34207200  1
  Cu  Cu11  1  0.82519600  0.05603800  0.15792800  1
