# generated using pymatgen
data_CuNiC8
_symmetry_space_group_name_H-M   'P 1'
_cell_length_a   5.45382800
_cell_length_b   5.50013800
_cell_length_c   7.72145000
_cell_angle_alpha   90.00000000
_cell_angle_beta   90.00000000
_cell_angle_gamma   90.00000000
_symmetry_Int_Tables_number   1
_chemical_formula_structural   CuNiC8
_chemical_formula_sum   'Cu2 Ni2 C16'
_cell_volume   231.61884254
_cell_formula_units_Z   2
loop_
 _symmetry_equiv_pos_site_id
 _symmetry_equiv_pos_as_xyz
  1  'x, y, z'
loop_
 _atom_site_type_symbol
 _atom_site_label
 _atom_site_symmetry_multiplicity
 _atom_site_fract_x
 _atom_site_fract_y
 _atom_site_fract_z
 _atom_site_occupancy
  Ni  Ni0  1  0.49010700  0.20890000  0.00000000  1
  Ni  Ni1  1  0.99010700  0.79110000  0.50000000  1
  Cu  Cu2  1  0.00895700  0.71357800  0.00000000  1
  Cu  Cu3  1  0.50895700  0.28642200  0.50000000  1
  C  C4  1  0.00031700  0.24874300  0.75040200  1
  C  C5  1  0.00031700  0.24874300  0.24959800  1
  C  C6  1  0.50031700  0.75125700  0.25040200  1
  C  C7  1  0.50031700  0.75125700  0.74959800  1
  C  C8  1  0.07227300  0.23314800  0.50000000  1
  C  C9  1  0.21896900  0.96860900  0.78905500  1
  C  C10  1  0.21896900  0.96860900  0.21094500  1
  C  C11  1  0.28408600  0.46620800  0.20829100  1
  C  C12  1  0.28408600  0.46620800  0.79170900  1
  C  C13  1  0.42189900  0.73558600  0.50000000  1
  C  C14  1  0.57227300  0.76685200  0.00000000  1
  C  C15  1  0.71896900  0.03139100  0.71094500  1
  C  C16  1  0.71896900  0.03139100  0.28905500  1
  C  C17  1  0.78408600  0.53379200  0.70829100  1
  C  C18  1  0.78408600  0.53379200  0.29170900  1
  C  C19  1  0.92189900  0.26441400  0.00000000  1
