# generated using pymatgen
data_CuNiC3
_symmetry_space_group_name_H-M   'P 1'
_cell_length_a   6.64847680
_cell_length_b   6.64847680
_cell_length_c   5.23244092
_cell_angle_alpha   81.87577436
_cell_angle_beta   81.87577436
_cell_angle_gamma   85.94575449
_symmetry_Int_Tables_number   1
_chemical_formula_structural   CuNiC3
_chemical_formula_sum   'Cu4 Ni4 C12'
_cell_volume   226.36268199
_cell_formula_units_Z   4
loop_
 _symmetry_equiv_pos_site_id
 _symmetry_equiv_pos_as_xyz
  1  'x, y, z'
loop_
 _atom_site_type_symbol
 _atom_site_label
 _atom_site_symmetry_multiplicity
 _atom_site_fract_x
 _atom_site_fract_y
 _atom_site_fract_z
 _atom_site_occupancy
  Ni  Ni0  1  0.09353400  0.90646600  0.25000000  1
  Ni  Ni1  1  0.90646600  0.09353400  0.75000000  1
  Ni  Ni2  1  0.72976400  0.27023600  0.25000000  1
  Ni  Ni3  1  0.27023600  0.72976400  0.75000000  1
  Cu  Cu4  1  0.60558300  0.79515200  0.21142000  1
  Cu  Cu5  1  0.20484800  0.39441700  0.28858000  1
  Cu  Cu6  1  0.39441700  0.20484800  0.78858000  1
  Cu  Cu7  1  0.79515200  0.60558300  0.71142000  1
  C  C8  1  0.70949000  0.57005800  0.40357600  1
  C  C9  1  0.42994200  0.29051000  0.09642400  1
  C  C10  1  0.29051000  0.42994200  0.59642400  1
  C  C11  1  0.57005800  0.70949000  0.90357600  1
  C  C12  1  0.85929900  0.37423000  0.88203200  1
  C  C13  1  0.62577000  0.14070100  0.61796800  1
  C  C14  1  0.14070100  0.62577000  0.11796800  1
  C  C15  1  0.37423000  0.85929900  0.38203200  1
  C  C16  1  0.79413600  0.97536700  0.13191200  1
  C  C17  1  0.02463300  0.20586400  0.36808800  1
  C  C18  1  0.20586400  0.02463300  0.86808800  1
  C  C19  1  0.97536700  0.79413600  0.63191200  1
