# generated using pymatgen
data_Cu4NiC
_symmetry_space_group_name_H-M   'P 1'
_cell_length_a   12.25727939
_cell_length_b   12.25727939
_cell_length_c   12.25727939
_cell_angle_alpha   127.55789772
_cell_angle_beta   127.55789772
_cell_angle_gamma   77.34231880
_symmetry_Int_Tables_number   1
_chemical_formula_structural   Cu4NiC
_chemical_formula_sum   'Cu32 Ni8 C8'
_cell_volume   1122.72311640
_cell_formula_units_Z   8
loop_
 _symmetry_equiv_pos_site_id
 _symmetry_equiv_pos_as_xyz
  1  'x, y, z'
loop_
 _atom_site_type_symbol
 _atom_site_label
 _atom_site_symmetry_multiplicity
 _atom_site_fract_x
 _atom_site_fract_y
 _atom_site_fract_z
 _atom_site_occupancy
  C  C0  1  0.50000000  0.50000000  0.00000000  1
  C  C1  1  0.25000000  0.75000000  0.50000000  1
  C  C2  1  0.75000000  0.25000000  0.50000000  1
  C  C3  1  0.00000000  0.00000000  0.00000000  1
  C  C4  1  0.25000000  0.25000000  0.00000000  1
  C  C5  1  0.00000000  0.50000000  0.50000000  1
  C  C6  1  0.50000000  0.00000000  0.50000000  1
  C  C7  1  0.75000000  0.75000000  0.00000000  1
  Ni  Ni8  1  0.62500000  0.91309300  0.78809300  1
  Ni  Ni9  1  0.62500000  0.41309300  0.28809300  1
  Ni  Ni10  1  0.16309300  0.37500000  0.28809300  1
  Ni  Ni11  1  0.08690700  0.87500000  0.71190700  1
  Ni  Ni12  1  0.12500000  0.33690700  0.71190700  1
  Ni  Ni13  1  0.12500000  0.83690700  0.21190700  1
  Ni  Ni14  1  0.58690700  0.87500000  0.21190700  1
  Ni  Ni15  1  0.66309300  0.37500000  0.78809300  1
  Cu  Cu16  1  0.98642900  0.71039700  0.45196700  1
  Cu  Cu17  1  0.25843000  0.53446300  0.54803300  1
  Cu  Cu18  1  0.28446300  0.23642900  0.77603300  1
  Cu  Cu19  1  0.46039700  0.50843000  0.22396700  1
  Cu  Cu20  1  0.99157000  0.03960300  0.77603300  1
  Cu  Cu21  1  0.26357100  0.21553700  0.22396700  1
  Cu  Cu22  1  0.78960300  0.51357100  0.54803300  1
  Cu  Cu23  1  0.96553700  0.24157000  0.45196700  1
  Cu  Cu24  1  0.77915700  0.96791900  0.31774100  1
  Cu  Cu25  1  0.71791900  0.90017800  0.68876200  1
  Cu  Cu26  1  0.21141600  0.02915700  0.31123800  1
  Cu  Cu27  1  0.47084300  0.28858400  0.68876200  1
  Cu  Cu28  1  0.59982200  0.78208100  0.31123800  1
  Cu  Cu29  1  0.03858400  0.84982200  0.31774100  1
  Cu  Cu30  1  0.53208100  0.72084300  0.68225900  1
  Cu  Cu31  1  0.65017800  0.46141600  0.68225900  1
  Cu  Cu32  1  0.97084300  0.28208100  0.18225900  1
  Cu  Cu33  1  0.03208100  0.34982200  0.81123800  1
  Cu  Cu34  1  0.53858400  0.22084300  0.18876200  1
  Cu  Cu35  1  0.27915700  0.96141600  0.81123800  1
  Cu  Cu36  1  0.15017800  0.46791900  0.18876200  1
  Cu  Cu37  1  0.71141600  0.40017800  0.18225900  1
  Cu  Cu38  1  0.21791900  0.52915700  0.81774100  1
  Cu  Cu39  1  0.09982200  0.78858400  0.81774100  1
  Cu  Cu40  1  0.49157000  0.71553700  0.95196700  1
  Cu  Cu41  1  0.46553700  0.01357100  0.72396700  1
  Cu  Cu42  1  0.28960300  0.74157000  0.27603300  1
  Cu  Cu43  1  0.75843000  0.21039700  0.72396700  1
  Cu  Cu44  1  0.48642900  0.03446300  0.27603300  1
  Cu  Cu45  1  0.96039700  0.73642900  0.95196700  1
  Cu  Cu46  1  0.78446300  0.00843000  0.04803300  1
  Cu  Cu47  1  0.76357100  0.53960300  0.04803300  1
