# generated using pymatgen
data_Cu10Ni10C9
_symmetry_space_group_name_H-M   'P 1'
_cell_length_a   9.98585175
_cell_length_b   9.98585175
_cell_length_c   9.98585175
_cell_angle_alpha   148.86701789
_cell_angle_beta   96.99044756
_cell_angle_gamma   91.27932253
_symmetry_Int_Tables_number   1
_chemical_formula_structural   Cu10Ni10C9
_chemical_formula_sum   'Cu10 Ni10 C9'
_cell_volume   495.23898141
_cell_formula_units_Z   1
loop_
 _symmetry_equiv_pos_site_id
 _symmetry_equiv_pos_as_xyz
  1  'x, y, z'
loop_
 _atom_site_type_symbol
 _atom_site_label
 _atom_site_symmetry_multiplicity
 _atom_site_fract_x
 _atom_site_fract_y
 _atom_site_fract_z
 _atom_site_occupancy
  C  C0  1  0.50000000  0.00000000  0.50000000  1
  C  C1  1  0.77946600  0.00000000  0.77946600  1
  C  C2  1  0.22053400  0.00000000  0.22053400  1
  C  C3  1  0.19675500  0.19675500  0.00000000  1
  C  C4  1  0.80324500  0.80324500  0.00000000  1
  C  C5  1  0.98858300  0.63516600  0.35341700  1
  C  C6  1  0.01141700  0.36483400  0.64658300  1
  C  C7  1  0.71825200  0.36483400  0.35341700  1
  C  C8  1  0.28174800  0.63516600  0.64658300  1
  Ni  Ni9  1  0.40698000  0.40698000  0.00000000  1
  Ni  Ni10  1  0.59302000  0.59302000  0.00000000  1
  Ni  Ni11  1  0.20206100  0.10270800  0.61344600  1
  Ni  Ni12  1  0.79793900  0.41138500  0.90064600  1
  Ni  Ni13  1  0.51073900  0.89729200  0.09935400  1
  Ni  Ni14  1  0.48926100  0.58861500  0.38655400  1
  Ni  Ni15  1  0.79793900  0.89729200  0.38655400  1
  Ni  Ni16  1  0.20206100  0.58861500  0.09935400  1
  Ni  Ni17  1  0.48926100  0.10270800  0.90064600  1
  Ni  Ni18  1  0.51073900  0.41138500  0.61344600  1
  Cu  Cu19  1  0.00000000  0.75229200  0.75229200  1
  Cu  Cu20  1  0.00000000  0.24770800  0.24770800  1
  Cu  Cu21  1  0.67187600  0.50000000  0.17187600  1
  Cu  Cu22  1  0.32812400  0.50000000  0.82812400  1
  Cu  Cu23  1  0.29172300  0.79172300  0.50000000  1
  Cu  Cu24  1  0.70827700  0.20827700  0.50000000  1
  Cu  Cu25  1  0.99299100  0.20511400  0.78787700  1
  Cu  Cu26  1  0.00700900  0.79488600  0.21212300  1
  Cu  Cu27  1  0.58276300  0.79488600  0.78787700  1
  Cu  Cu28  1  0.41723700  0.20511400  0.21212300  1
