# generated using pymatgen
data_CuNiC8
_symmetry_space_group_name_H-M   'P 1'
_cell_length_a   5.84494300
_cell_length_b   5.56712500
_cell_length_c   9.52306468
_cell_angle_alpha   54.89942791
_cell_angle_beta   90.00000000
_cell_angle_gamma   90.00000000
_symmetry_Int_Tables_number   1
_chemical_formula_structural   CuNiC8
_chemical_formula_sum   'Cu2 Ni2 C16'
_cell_volume   253.52320938
_cell_formula_units_Z   2
loop_
 _symmetry_equiv_pos_site_id
 _symmetry_equiv_pos_as_xyz
  1  'x, y, z'
loop_
 _atom_site_type_symbol
 _atom_site_label
 _atom_site_symmetry_multiplicity
 _atom_site_fract_x
 _atom_site_fract_y
 _atom_site_fract_z
 _atom_site_occupancy
  Ni  Ni0  1  0.28000600  0.50249900  0.99708000  1
  Ni  Ni1  1  0.71999400  0.50249900  0.49708000  1
  Cu  Cu2  1  0.69358600  0.25776300  0.25238200  1
  Cu  Cu3  1  0.30641400  0.25776300  0.75238200  1
  C  C4  1  0.18149600  0.73283200  0.25274200  1
  C  C5  1  0.81850400  0.73283200  0.75274200  1
  C  C6  1  0.73999700  0.99951900  0.00064300  1
  C  C7  1  0.26000300  0.99951900  0.50064300  1
  C  C8  1  0.70898900  0.14355700  0.76018700  1
  C  C9  1  0.45819700  0.77659500  0.04990400  1
  C  C10  1  0.43514000  0.33559700  0.45347700  1
  C  C11  1  0.92251300  0.66791100  0.04575900  1
  C  C12  1  0.97674200  0.22958500  0.44724500  1
  C  C13  1  0.22277700  0.85414300  0.74058100  1
  C  C14  1  0.29101100  0.14355700  0.26018700  1
  C  C15  1  0.54180300  0.77659500  0.54990400  1
  C  C16  1  0.56486000  0.33559700  0.95347700  1
  C  C17  1  0.07748700  0.66791100  0.54575900  1
  C  C18  1  0.02325800  0.22958500  0.94724500  1
  C  C19  1  0.77722300  0.85414300  0.24058100  1
