# generated using pymatgen
data_Cu(NiC7)6
_symmetry_space_group_name_H-M   'P 1'
_cell_length_a   9.16741200
_cell_length_b   9.16741200
_cell_length_c   9.16741200
_cell_angle_alpha   90.00000000
_cell_angle_beta   90.00000000
_cell_angle_gamma   90.00000000
_symmetry_Int_Tables_number   1
_chemical_formula_structural   Cu(NiC7)6
_chemical_formula_sum   'Cu1 Ni6 C42'
_cell_volume   770.44253102
_cell_formula_units_Z   1
loop_
 _symmetry_equiv_pos_site_id
 _symmetry_equiv_pos_as_xyz
  1  'x, y, z'
loop_
 _atom_site_type_symbol
 _atom_site_label
 _atom_site_symmetry_multiplicity
 _atom_site_fract_x
 _atom_site_fract_y
 _atom_site_fract_z
 _atom_site_occupancy
  C  C0  1  0.19306500  0.19306500  0.19306500  1
  C  C1  1  0.19306500  0.80693500  0.80693500  1
  C  C2  1  0.24140300  0.24140300  0.75859700  1
  C  C3  1  0.24140300  0.75859700  0.24140300  1
  C  C4  1  0.75859700  0.24140300  0.24140300  1
  C  C5  1  0.75859700  0.75859700  0.75859700  1
  C  C6  1  0.80693500  0.19306500  0.80693500  1
  C  C7  1  0.80693500  0.80693500  0.19306500  1
  C  C8  1  0.00000000  0.25049200  0.50000000  1
  C  C9  1  0.00000000  0.74950800  0.50000000  1
  C  C10  1  0.25049200  0.50000000  0.00000000  1
  C  C11  1  0.50000000  0.00000000  0.74950800  1
  C  C12  1  0.50000000  0.00000000  0.25049200  1
  C  C13  1  0.74950800  0.50000000  0.00000000  1
  Ni  Ni14  1  0.00000000  0.50000000  0.24962700  1
  Ni  Ni15  1  0.00000000  0.50000000  0.75037300  1
  Ni  Ni16  1  0.24962700  0.00000000  0.50000000  1
  Ni  Ni17  1  0.50000000  0.75037300  0.00000000  1
  Ni  Ni18  1  0.50000000  0.24962700  0.00000000  1
  Ni  Ni19  1  0.75037300  0.00000000  0.50000000  1
  Cu  Cu20  1  0.00000000  0.00000000  0.00000000  1
  C  C21  1  0.04470200  0.35755200  0.65228100  1
  C  C22  1  0.04470200  0.64244800  0.34771900  1
  C  C23  1  0.09402800  0.09402800  0.90597200  1
  C  C24  1  0.09402800  0.90597200  0.09402800  1
  C  C25  1  0.15171700  0.14238300  0.45364800  1
  C  C26  1  0.14238300  0.45364800  0.15171700  1
  C  C27  1  0.14238300  0.54635200  0.84828300  1
  C  C28  1  0.15171700  0.85761700  0.54635200  1
  C  C29  1  0.34771900  0.04470200  0.64244800  1
  C  C30  1  0.35755200  0.34771900  0.95529800  1
  C  C31  1  0.35755200  0.65228100  0.04470200  1
  C  C32  1  0.34771900  0.95529800  0.35755200  1
  C  C33  1  0.45364800  0.15171700  0.14238300  1
  C  C34  1  0.45364800  0.84828300  0.85761700  1
  C  C35  1  0.54635200  0.15171700  0.85761700  1
  C  C36  1  0.54635200  0.84828300  0.14238300  1
  C  C37  1  0.65228100  0.04470200  0.35755200  1
  C  C38  1  0.64244800  0.34771900  0.04470200  1
  C  C39  1  0.64244800  0.65228100  0.95529800  1
  C  C40  1  0.65228100  0.95529800  0.64244800  1
  C  C41  1  0.84828300  0.14238300  0.54635200  1
  C  C42  1  0.85761700  0.45364800  0.84828300  1
  C  C43  1  0.85761700  0.54635200  0.15171700  1
  C  C44  1  0.84828300  0.85761700  0.45364800  1
  C  C45  1  0.90597200  0.09402800  0.09402800  1
  C  C46  1  0.90597200  0.90597200  0.90597200  1
  C  C47  1  0.95529800  0.35755200  0.34771900  1
  C  C48  1  0.95529800  0.64244800  0.65228100  1
