# generated using pymatgen
data_Cu4NiC20
_symmetry_space_group_name_H-M   'P 1'
_cell_length_a   9.92250549
_cell_length_b   9.92250549
_cell_length_c   9.92250549
_cell_angle_alpha   110.99503922
_cell_angle_beta   110.99503922
_cell_angle_gamma   106.46477200
_symmetry_Int_Tables_number   1
_chemical_formula_structural   Cu4NiC20
_chemical_formula_sum   'Cu8 Ni2 C40'
_cell_volume   750.49947766
_cell_formula_units_Z   2
loop_
 _symmetry_equiv_pos_site_id
 _symmetry_equiv_pos_as_xyz
  1  'x, y, z'
loop_
 _atom_site_type_symbol
 _atom_site_label
 _atom_site_symmetry_multiplicity
 _atom_site_fract_x
 _atom_site_fract_y
 _atom_site_fract_z
 _atom_site_occupancy
  C  C0  1  0.50625100  0.39308200  0.34045300  1
  C  C1  1  0.05262900  0.16579800  0.65954700  1
  C  C2  1  0.91579800  0.75625100  0.61316900  1
  C  C3  1  0.83420200  0.49374900  0.88683100  1
  C  C4  1  0.24374900  0.85691800  0.15954700  1
  C  C5  1  0.14308200  0.30262900  0.38683100  1
  C  C6  1  0.60691800  0.94737100  0.11316900  1
  C  C7  1  0.69737100  0.08420200  0.84045300  1
  Ni  Ni8  1  0.25000000  0.75000000  0.50000000  1
  Ni  Ni9  1  0.50000000  0.50000000  0.00000000  1
  Cu  Cu10  1  0.16597700  0.42994600  0.09325400  1
  Cu  Cu11  1  0.41330800  0.17727800  0.59325400  1
  Cu  Cu12  1  0.58402300  0.82005400  0.40674600  1
  Cu  Cu13  1  0.82272200  0.41597700  0.23603000  1
  Cu  Cu14  1  0.33669200  0.07272200  0.90674600  1
  Cu  Cu15  1  0.92727800  0.83402300  0.26397000  1
  Cu  Cu16  1  0.17994600  0.58669200  0.76397000  1
  Cu  Cu17  1  0.57005400  0.66330800  0.73603000  1
  C  C18  1  0.80009700  0.92411800  0.53643900  1
  C  C19  1  0.73456600  0.48431700  0.08980200  1
  C  C20  1  0.35548500  0.60523600  0.58980200  1
  C  C21  1  0.01365800  0.05009700  0.37597900  1
  C  C22  1  0.07428600  0.37976700  0.60267800  1
  C  C23  1  0.50800600  0.84028800  0.55276000  1
  C  C24  1  0.04475400  0.49199400  0.33228200  1
  C  C25  1  0.67571400  0.87023300  0.89732200  1
  C  C26  1  0.28752800  0.95524600  0.44724000  1
  C  C27  1  0.24199400  0.40971200  0.94724000  1
  C  C28  1  0.77708900  0.47160800  0.39732200  1
  C  C29  1  0.12976700  0.02708900  0.80548100  1
  C  C30  1  0.62023300  0.22291100  0.69451900  1
  C  C31  1  0.39476400  0.98456600  0.75025000  1
  C  C32  1  0.73634200  0.19990300  0.12402100  1
  C  C33  1  0.36232100  0.98634200  0.03643900  1
  C  C34  1  0.51568300  0.60548500  0.25025000  1
  C  C35  1  0.97291100  0.77839200  0.10267800  1
  C  C36  1  0.38767900  0.26365800  0.46356100  1
  C  C37  1  0.35523600  0.26543400  0.74975000  1
  C  C38  1  0.70524600  0.75800600  0.16771800  1
  C  C39  1  0.94990300  0.32588200  0.96356100  1
  C  C40  1  0.46247200  0.29475400  0.05276000  1
  C  C41  1  0.07588200  0.61232100  0.87597900  1
  C  C42  1  0.67411800  0.63767900  0.62402100  1
  C  C43  1  0.01543400  0.76568300  0.41019800  1
  C  C44  1  0.39451500  0.64476400  0.91019800  1
  C  C45  1  0.15971200  0.71247200  0.66771800  1
  C  C46  1  0.22160800  0.32428600  0.19451900  1
  C  C47  1  0.52839200  0.92571400  0.30548100  1
  C  C48  1  0.23431700  0.64451500  0.24975000  1
  C  C49  1  0.59028800  0.53752800  0.83228200  1
