# generated using pymatgen
data_CuNiC3
_symmetry_space_group_name_H-M   'P 1'
_cell_length_a   5.88928100
_cell_length_b   12.20024500
_cell_length_c   14.01640900
_cell_angle_alpha   90.00000000
_cell_angle_beta   90.00000000
_cell_angle_gamma   90.00000000
_symmetry_Int_Tables_number   1
_chemical_formula_structural   CuNiC3
_chemical_formula_sum   'Cu8 Ni8 C24'
_cell_volume   1007.08839270
_cell_formula_units_Z   8
loop_
 _symmetry_equiv_pos_site_id
 _symmetry_equiv_pos_as_xyz
  1  'x, y, z'
loop_
 _atom_site_type_symbol
 _atom_site_label
 _atom_site_symmetry_multiplicity
 _atom_site_fract_x
 _atom_site_fract_y
 _atom_site_fract_z
 _atom_site_occupancy
  Ni  Ni0  1  0.75073800  0.58153500  0.87682900  1
  Ni  Ni1  1  0.25073800  0.91846500  0.87682900  1
  Ni  Ni2  1  0.24926200  0.41846500  0.12317100  1
  Ni  Ni3  1  0.74926200  0.58153500  0.37682900  1
  Ni  Ni4  1  0.24926200  0.91846500  0.37682900  1
  Ni  Ni5  1  0.75073800  0.08153500  0.62317100  1
  Ni  Ni6  1  0.74926200  0.08153500  0.12317100  1
  Ni  Ni7  1  0.25073800  0.41846500  0.62317100  1
  Cu  Cu8  1  0.54281900  0.25026400  0.87451300  1
  Cu  Cu9  1  0.54281900  0.75026400  0.62548700  1
  Cu  Cu10  1  0.45718100  0.74973600  0.12548700  1
  Cu  Cu11  1  0.45718100  0.24973600  0.37451300  1
  Cu  Cu12  1  0.04281900  0.24973600  0.87451300  1
  Cu  Cu13  1  0.95718100  0.25026400  0.37451300  1
  Cu  Cu14  1  0.95718100  0.75026400  0.12548700  1
  Cu  Cu15  1  0.04281900  0.74973600  0.62548700  1
  C  C16  1  0.79449600  0.59146600  0.62532600  1
  C  C17  1  0.70408100  0.32886700  0.25588000  1
  C  C18  1  0.79469600  0.32843300  0.99444800  1
  C  C19  1  0.79591900  0.32886700  0.75588000  1
  C  C20  1  0.20530400  0.17156700  0.49444800  1
  C  C21  1  0.20550400  0.90853400  0.12532600  1
  C  C22  1  0.70550400  0.59146600  0.12532600  1
  C  C23  1  0.70530400  0.82843300  0.00555200  1
  C  C24  1  0.79469600  0.82843300  0.50555200  1
  C  C25  1  0.70530400  0.32843300  0.49444800  1
  C  C26  1  0.29449600  0.90853400  0.62532600  1
  C  C27  1  0.20408100  0.67113300  0.24412000  1
  C  C28  1  0.29469600  0.17156700  0.99444800  1
  C  C29  1  0.20530400  0.67156700  0.00555200  1
  C  C30  1  0.29591900  0.17113300  0.75588000  1
  C  C31  1  0.20550400  0.40853400  0.37467400  1
  C  C32  1  0.79591900  0.82886700  0.74412000  1
  C  C33  1  0.29449600  0.40853400  0.87467400  1
  C  C34  1  0.79449600  0.09146600  0.87467400  1
  C  C35  1  0.70550400  0.09146600  0.37467400  1
  C  C36  1  0.29469600  0.67156700  0.50555200  1
  C  C37  1  0.70408100  0.82886700  0.24412000  1
  C  C38  1  0.20408100  0.17113300  0.25588000  1
  C  C39  1  0.29591900  0.67113300  0.74412000  1
