# generated using pymatgen
data_Cu3(Ni7C3)2
_symmetry_space_group_name_H-M   'P 1'
_cell_length_a   6.68472500
_cell_length_b   6.90851077
_cell_length_c   10.15535933
_cell_angle_alpha   96.78616095
_cell_angle_beta   107.86650538
_cell_angle_gamma   88.38720590
_symmetry_Int_Tables_number   1
_chemical_formula_structural   Cu3(Ni7C3)2
_chemical_formula_sum   'Cu6 Ni28 C12'
_cell_volume   443.22857967
_cell_formula_units_Z   2
loop_
 _symmetry_equiv_pos_site_id
 _symmetry_equiv_pos_as_xyz
  1  'x, y, z'
loop_
 _atom_site_type_symbol
 _atom_site_label
 _atom_site_symmetry_multiplicity
 _atom_site_fract_x
 _atom_site_fract_y
 _atom_site_fract_z
 _atom_site_occupancy
  Ni  Ni0  1  0.51382200  0.07211200  0.79850900  1
  Ni  Ni1  1  0.09245000  0.71173700  0.20519300  1
  Ni  Ni2  1  0.79768700  0.69918200  0.60755000  1
  Ni  Ni3  1  0.64864100  0.03483700  0.66931100  1
  Ni  Ni4  1  0.09120700  0.78264300  0.53227400  1
  Ni  Ni5  1  0.90755000  0.28826300  0.79480700  1
  Ni  Ni6  1  0.39364900  0.41083100  0.85524100  1
  Ni  Ni7  1  0.35135900  0.96516300  0.33068900  1
  Ni  Ni8  1  0.62520000  0.90822600  0.38165900  1
  Ni  Ni9  1  0.91349800  0.17237400  0.22238100  1
  Ni  Ni10  1  0.40916200  0.63315700  0.36999600  1
  Ni  Ni11  1  0.90879300  0.21735700  0.46772600  1
  Ni  Ni12  1  0.18093800  0.47377400  0.15561200  1
  Ni  Ni13  1  0.45565100  0.60368000  0.76878400  1
  Ni  Ni14  1  0.81906200  0.52622600  0.84438800  1
  Ni  Ni15  1  0.78202200  0.32176400  0.92880100  1
  Ni  Ni16  1  0.73708600  0.57832900  0.32673400  1
  Ni  Ni17  1  0.48617800  0.92788800  0.20149100  1
  Ni  Ni18  1  0.20231300  0.30081800  0.39245000  1
  Ni  Ni19  1  0.60635100  0.58916900  0.14475900  1
  Ni  Ni20  1  0.37480000  0.09177400  0.61834100  1
  Ni  Ni21  1  0.08650200  0.82762600  0.77761900  1
  Ni  Ni22  1  0.23171700  0.06574600  0.95044200  1
  Ni  Ni23  1  0.76828300  0.93425400  0.04955800  1
  Ni  Ni24  1  0.59083800  0.36684300  0.63000400  1
  Ni  Ni25  1  0.21797800  0.67823600  0.07119900  1
  Ni  Ni26  1  0.26291400  0.42167100  0.67326600  1
  Ni  Ni27  1  0.54434900  0.39632000  0.23121600  1
  Cu  Cu28  1  0.78778200  0.36934600  0.83090900  1
  Cu  Cu29  1  0.47501800  0.88395500  0.29919100  1
  Cu  Cu30  1  0.58983700  0.54953500  0.24227800  1
  Cu  Cu31  1  0.21221800  0.63065400  0.16909100  1
  Cu  Cu32  1  0.52498200  0.11604500  0.70080900  1
  Cu  Cu33  1  0.41016300  0.45046500  0.75772200  1
  C  C34  1  0.42081600  0.67170000  0.27712000  1
  C  C35  1  0.57918400  0.32830000  0.72288000  1
  C  C36  1  0.64735700  0.65684500  0.57895800  1
  C  C37  1  0.00787900  0.76277400  0.64702200  1
  C  C38  1  0.14620300  0.86897900  0.88431200  1
  C  C39  1  0.14095700  0.79115300  0.45141700  1
  C  C40  1  0.29439200  0.19150500  0.99717500  1
  C  C41  1  0.70560800  0.80849500  0.00282500  1
  C  C42  1  0.85904300  0.20884700  0.54858300  1
  C  C43  1  0.85379700  0.13102100  0.11568800  1
  C  C44  1  0.35264300  0.34315500  0.42104200  1
  C  C45  1  0.99212100  0.23722600  0.35297800  1
