# generated using pymatgen
data_Cu9Ni9C4
_symmetry_space_group_name_H-M   'P 1'
_cell_length_a   10.60631800
_cell_length_b   10.76849700
_cell_length_c   11.14268116
_cell_angle_alpha   91.85431046
_cell_angle_beta   104.15181237
_cell_angle_gamma   109.59384260
_symmetry_Int_Tables_number   1
_chemical_formula_structural   Cu9Ni9C4
_chemical_formula_sum   'Cu18 Ni18 C8'
_cell_volume   1153.42565565
_cell_formula_units_Z   2
loop_
 _symmetry_equiv_pos_site_id
 _symmetry_equiv_pos_as_xyz
  1  'x, y, z'
loop_
 _atom_site_type_symbol
 _atom_site_label
 _atom_site_symmetry_multiplicity
 _atom_site_fract_x
 _atom_site_fract_y
 _atom_site_fract_z
 _atom_site_occupancy
  C  C0  1  0.35869200  0.99651800  0.63110400  1
  C  C1  1  0.64130800  0.00348200  0.36889600  1
  C  C2  1  0.38876600  0.62846300  0.86905100  1
  C  C3  1  0.61123400  0.37153700  0.13094900  1
  C  C4  1  0.24831900  0.37067400  0.52608200  1
  C  C5  1  0.75168100  0.62932600  0.47391800  1
  C  C6  1  0.17079200  0.61579100  0.25469700  1
  C  C7  1  0.82920800  0.38420900  0.74530300  1
  Ni  Ni8  1  0.87412800  0.86253000  0.91482200  1
  Ni  Ni9  1  0.12587200  0.13747000  0.08517800  1
  Ni  Ni10  1  0.87979000  0.02361100  0.87856000  1
  Ni  Ni11  1  0.12021000  0.97638900  0.12144000  1
  Ni  Ni12  1  0.83896200  0.96744100  0.01798100  1
  Ni  Ni13  1  0.16103800  0.03255900  0.98201900  1
  Ni  Ni14  1  0.94054900  0.86979600  0.07938400  1
  Ni  Ni15  1  0.05945100  0.13020400  0.92061600  1
  Ni  Ni16  1  0.04717100  0.86617900  0.97774600  1
  Ni  Ni17  1  0.95282900  0.13382100  0.02225400  1
  Ni  Ni18  1  0.00991300  0.96219200  0.85572700  1
  Ni  Ni19  1  0.99008700  0.03780800  0.14427300  1
  Ni  Ni20  1  0.63720500  0.82073400  0.68705100  1
  Ni  Ni21  1  0.36279500  0.17926600  0.31294900  1
  Ni  Ni22  1  0.66767700  0.76098600  0.14334100  1
  Ni  Ni23  1  0.33232300  0.23901400  0.85665900  1
  Ni  Ni24  1  0.07707600  0.74448700  0.74332500  1
  Ni  Ni25  1  0.92292400  0.25551300  0.25667500  1
  Cu  Cu26  1  0.71806600  0.71138600  0.79957400  1
  Cu  Cu27  1  0.28193400  0.28861400  0.20042600  1
  Cu  Cu28  1  0.72574000  0.01839500  0.72756800  1
  Cu  Cu29  1  0.27426000  0.98160500  0.27243200  1
  Cu  Cu30  1  0.65154300  0.91260500  0.05201300  1
  Cu  Cu31  1  0.34845700  0.08739500  0.94798700  1
  Cu  Cu32  1  0.84412600  0.72378200  0.16989100  1
  Cu  Cu33  1  0.15587400  0.27621800  0.83010900  1
  Cu  Cu34  1  0.09466300  0.71128100  0.92151000  1
  Cu  Cu35  1  0.90533700  0.28871900  0.07849000  1
  Cu  Cu36  1  0.02648600  0.89975800  0.69031100  1
  Cu  Cu37  1  0.97351400  0.10024200  0.30968900  1
  Cu  Cu38  1  0.47936900  0.74103300  0.54568800  1
  Cu  Cu39  1  0.52063100  0.25896700  0.45431200  1
  Cu  Cu40  1  0.51853900  0.65104800  0.20406600  1
  Cu  Cu41  1  0.48146100  0.34895200  0.79593400  1
  Cu  Cu42  1  0.10180100  0.62825000  0.62502500  1
  Cu  Cu43  1  0.89819900  0.37175000  0.37497500  1
