# generated using pymatgen
data_Cu2Ni2C7
_symmetry_space_group_name_H-M   'P 1'
_cell_length_a   4.53049300
_cell_length_b   9.33814500
_cell_length_c   11.93812662
_cell_angle_alpha   65.32758350
_cell_angle_beta   90.00000000
_cell_angle_gamma   90.00000000
_symmetry_Int_Tables_number   1
_chemical_formula_structural   Cu2Ni2C7
_chemical_formula_sum   'Cu8 Ni8 C28'
_cell_volume   458.95193286
_cell_formula_units_Z   4
loop_
 _symmetry_equiv_pos_site_id
 _symmetry_equiv_pos_as_xyz
  1  'x, y, z'
loop_
 _atom_site_type_symbol
 _atom_site_label
 _atom_site_symmetry_multiplicity
 _atom_site_fract_x
 _atom_site_fract_y
 _atom_site_fract_z
 _atom_site_occupancy
  C  C0  1  0.52725100  0.22959500  0.84539100  1
  C  C1  1  0.97274900  0.22959500  0.34539100  1
  C  C2  1  0.47274900  0.77040500  0.15460900  1
  C  C3  1  0.02725100  0.77040500  0.65460900  1
  Ni  Ni4  1  0.56120300  0.90892000  0.80715900  1
  Ni  Ni5  1  0.43879700  0.09108000  0.19284100  1
  Ni  Ni6  1  0.59695900  0.57801800  0.54721700  1
  Ni  Ni7  1  0.09695900  0.42198200  0.95278300  1
  Ni  Ni8  1  0.93879700  0.90892000  0.30715900  1
  Ni  Ni9  1  0.40304100  0.42198200  0.45278300  1
  Ni  Ni10  1  0.06120300  0.09108000  0.69284100  1
  Ni  Ni11  1  0.90304100  0.57801800  0.04721700  1
  Cu  Cu12  1  0.43842500  0.40464300  0.14423200  1
  Cu  Cu13  1  0.09178900  0.86986000  0.92391600  1
  Cu  Cu14  1  0.90821100  0.13014000  0.07608400  1
  Cu  Cu15  1  0.56157500  0.59535700  0.85576800  1
  Cu  Cu16  1  0.06157500  0.40464300  0.64423200  1
  Cu  Cu17  1  0.40821100  0.86986000  0.42391600  1
  Cu  Cu18  1  0.59178900  0.13014000  0.57608400  1
  Cu  Cu19  1  0.93842500  0.59535700  0.35576800  1
  C  C20  1  0.99151300  0.24841000  0.71150300  1
  C  C21  1  0.08187300  0.05920300  0.18218600  1
  C  C22  1  0.00848700  0.75159000  0.28849700  1
  C  C23  1  0.50848700  0.24841000  0.21150300  1
  C  C24  1  0.41812700  0.05920300  0.68218600  1
  C  C25  1  0.33661500  0.44041200  0.58622700  1
  C  C26  1  0.87221800  0.52131700  0.64048700  1
  C  C27  1  0.12778200  0.47868300  0.35951300  1
  C  C28  1  0.87904900  0.07716100  0.57989200  1
  C  C29  1  0.62778200  0.52131700  0.14048700  1
  C  C30  1  0.51122400  0.75258100  0.53069200  1
  C  C31  1  0.83661500  0.55958800  0.91377300  1
  C  C32  1  0.66338500  0.55958800  0.41377300  1
  C  C33  1  0.48877600  0.24741900  0.46930800  1
  C  C34  1  0.98877600  0.75258100  0.03069200  1
  C  C35  1  0.91812700  0.94079700  0.81781400  1
  C  C36  1  0.49151300  0.75159000  0.78849700  1
  C  C37  1  0.12095100  0.92283900  0.42010800  1
  C  C38  1  0.58187300  0.94079700  0.31781400  1
  C  C39  1  0.37221800  0.47868300  0.85951300  1
  C  C40  1  0.01122400  0.24741900  0.96930800  1
  C  C41  1  0.62095100  0.07716100  0.07989200  1
  C  C42  1  0.16338500  0.44041200  0.08622700  1
  C  C43  1  0.37904900  0.92283900  0.92010800  1
