# generated using pymatgen
data_CuNi5C3
_symmetry_space_group_name_H-M   'P 1'
_cell_length_a   9.66052606
_cell_length_b   9.66052606
_cell_length_c   18.71689300
_cell_angle_alpha   90.00000000
_cell_angle_beta   90.00000000
_cell_angle_gamma   120.00000042
_symmetry_Int_Tables_number   1
_chemical_formula_structural   CuNi5C3
_chemical_formula_sum   'Cu6 Ni30 C18'
_cell_volume   1512.74574597
_cell_formula_units_Z   6
loop_
 _symmetry_equiv_pos_site_id
 _symmetry_equiv_pos_as_xyz
  1  'x, y, z'
loop_
 _atom_site_type_symbol
 _atom_site_label
 _atom_site_symmetry_multiplicity
 _atom_site_fract_x
 _atom_site_fract_y
 _atom_site_fract_z
 _atom_site_occupancy
  C  C0  1  0.66666700  0.33333300  0.04483200  1
  C  C1  1  0.33333300  0.66666700  0.95516800  1
  C  C2  1  0.66666700  0.33333300  0.45516800  1
  C  C3  1  0.33333300  0.66666700  0.54483200  1
  C  C4  1  0.66666700  0.33333300  0.75000000  1
  C  C5  1  0.33333300  0.66666700  0.25000000  1
  C  C6  1  0.18829700  0.01655000  0.81194100  1
  C  C7  1  0.98345000  0.17174700  0.81194100  1
  C  C8  1  0.81170300  0.82825300  0.31194100  1
  C  C9  1  0.98345000  0.81170300  0.68805900  1
  C  C10  1  0.01655000  0.18829700  0.31194100  1
  C  C11  1  0.17174700  0.98345000  0.31194100  1
  C  C12  1  0.18829700  0.17174700  0.68805900  1
  C  C13  1  0.82825300  0.81170300  0.81194100  1
  C  C14  1  0.01655000  0.82825300  0.18805900  1
  C  C15  1  0.82825300  0.01655000  0.68805900  1
  C  C16  1  0.81170300  0.98345000  0.18805900  1
  C  C17  1  0.17174700  0.18829700  0.18805900  1
  Ni  Ni18  1  0.53107500  0.92487200  0.12051600  1
  Ni  Ni19  1  0.39379700  0.92487200  0.37948400  1
  Ni  Ni20  1  0.20233300  0.22085200  0.90947600  1
  Ni  Ni21  1  0.46892500  0.39379700  0.62051600  1
  Ni  Ni22  1  0.78717200  0.21282800  0.25000000  1
  Ni  Ni23  1  0.07512800  0.46892500  0.37948400  1
  Ni  Ni24  1  0.53107500  0.60620300  0.37948400  1
  Ni  Ni25  1  0.20233300  0.98148100  0.59052400  1
  Ni  Ni26  1  0.01851900  0.22085200  0.59052400  1
  Ni  Ni27  1  0.98148100  0.20233300  0.09052400  1
  Ni  Ni28  1  0.22085200  0.20233300  0.40947600  1
  Ni  Ni29  1  0.46892500  0.07512800  0.87948400  1
  Ni  Ni30  1  0.79766700  0.77914800  0.09052400  1
  Ni  Ni31  1  0.42565600  0.21282800  0.25000000  1
  Ni  Ni32  1  0.57434400  0.78717200  0.75000000  1
  Ni  Ni33  1  0.60620300  0.07512800  0.62051600  1
  Ni  Ni34  1  0.78717200  0.57434400  0.25000000  1
  Ni  Ni35  1  0.77914800  0.79766700  0.59052400  1
  Ni  Ni36  1  0.07512800  0.60620300  0.12051600  1
  Ni  Ni37  1  0.21282800  0.42565600  0.75000000  1
  Ni  Ni38  1  0.92487200  0.53107500  0.62051600  1
  Ni  Ni39  1  0.01851900  0.79766700  0.90947600  1
  Ni  Ni40  1  0.22085200  0.01851900  0.09052400  1
  Ni  Ni41  1  0.60620300  0.53107500  0.87948400  1
  Ni  Ni42  1  0.39379700  0.46892500  0.12051600  1
  Ni  Ni43  1  0.98148100  0.77914800  0.40947600  1
  Ni  Ni44  1  0.79766700  0.01851900  0.40947600  1
  Ni  Ni45  1  0.21282800  0.78717200  0.75000000  1
  Ni  Ni46  1  0.92487200  0.39379700  0.87948400  1
  Ni  Ni47  1  0.77914800  0.98148100  0.90947600  1
  Cu  Cu48  1  0.17988800  0.35977500  0.25000000  1
  Cu  Cu49  1  0.64022500  0.82011200  0.25000000  1
  Cu  Cu50  1  0.17988800  0.82011200  0.25000000  1
  Cu  Cu51  1  0.82011200  0.17988800  0.75000000  1
  Cu  Cu52  1  0.82011200  0.64022500  0.75000000  1
  Cu  Cu53  1  0.35977500  0.17988800  0.75000000  1
