# generated using pymatgen
data_Cu7Ni2C3
_symmetry_space_group_name_H-M   'P 1'
_cell_length_a   13.84644986
_cell_length_b   13.84644986
_cell_length_c   4.59159600
_cell_angle_alpha   90.00000000
_cell_angle_beta   90.00000000
_cell_angle_gamma   160.79986646
_symmetry_Int_Tables_number   1
_chemical_formula_structural   Cu7Ni2C3
_chemical_formula_sum   'Cu7 Ni2 C3'
_cell_volume   289.50980746
_cell_formula_units_Z   1
loop_
 _symmetry_equiv_pos_site_id
 _symmetry_equiv_pos_as_xyz
  1  'x, y, z'
loop_
 _atom_site_type_symbol
 _atom_site_label
 _atom_site_symmetry_multiplicity
 _atom_site_fract_x
 _atom_site_fract_y
 _atom_site_fract_z
 _atom_site_occupancy
  C  C0  1  0.50000000  0.50000000  0.50000000  1
  C  C1  1  0.81482500  0.18517500  0.00000000  1
  C  C2  1  0.18517500  0.81482500  0.00000000  1
  Ni  Ni3  1  0.62753600  0.37246400  0.50000000  1
  Ni  Ni4  1  0.37246400  0.62753600  0.50000000  1
  Cu  Cu5  1  0.00000000  0.00000000  0.00000000  1
  Cu  Cu6  1  0.58838700  0.41161300  0.00000000  1
  Cu  Cu7  1  0.41161300  0.58838700  0.00000000  1
  Cu  Cu8  1  0.91093300  0.08906700  0.50000000  1
  Cu  Cu9  1  0.08906700  0.91093300  0.50000000  1
  Cu  Cu10  1  0.71850900  0.28149100  0.50000000  1
  Cu  Cu11  1  0.28149100  0.71850900  0.50000000  1
