# generated using pymatgen
data_Cu2Ni4C23
_symmetry_space_group_name_H-M   'P 1'
_cell_length_a   11.34001112
_cell_length_b   11.34001112
_cell_length_c   11.43249847
_cell_angle_alpha   81.51830859
_cell_angle_beta   81.51830859
_cell_angle_gamma   18.51500443
_symmetry_Int_Tables_number   1
_chemical_formula_structural   Cu2Ni4C23
_chemical_formula_sum   'Cu2 Ni4 C23'
_cell_volume   461.61505463
_cell_formula_units_Z   1
loop_
 _symmetry_equiv_pos_site_id
 _symmetry_equiv_pos_as_xyz
  1  'x, y, z'
loop_
 _atom_site_type_symbol
 _atom_site_label
 _atom_site_symmetry_multiplicity
 _atom_site_fract_x
 _atom_site_fract_y
 _atom_site_fract_z
 _atom_site_occupancy
  C  C0  1  0.69355000  0.69355000  0.42980100  1
  C  C1  1  0.68724900  0.68724900  0.10220500  1
  C  C2  1  0.68647100  0.68647100  0.77485300  1
  C  C3  1  0.31352900  0.31352900  0.22514700  1
  C  C4  1  0.50946700  0.50946700  0.19242300  1
  C  C5  1  0.50000000  0.50000000  0.50000000  1
  C  C6  1  0.30645000  0.30645000  0.57019900  1
  C  C7  1  0.49053300  0.49053300  0.80757700  1
  C  C8  1  0.31275100  0.31275100  0.89779500  1
  Ni  Ni9  1  0.88966300  0.88966300  0.70268400  1
  Ni  Ni10  1  0.89746800  0.89746800  0.03898200  1
  Ni  Ni11  1  0.10253200  0.10253200  0.96101800  1
  Ni  Ni12  1  0.11033700  0.11033700  0.29731600  1
  Cu  Cu13  1  0.10647200  0.10647200  0.62404700  1
  Cu  Cu14  1  0.89352800  0.89352800  0.37595300  1
  C  C15  1  0.20303300  0.20303300  0.26889600  1
  C  C16  1  0.80282800  0.80282800  0.07008200  1
  C  C17  1  0.97515800  0.97515800  0.35027200  1
  C  C18  1  0.08803200  0.08803200  0.13553800  1
  C  C19  1  0.80954300  0.80954300  0.40148600  1
  C  C20  1  0.59377000  0.59377000  0.35935500  1
  C  C21  1  0.19717200  0.19717200  0.92991800  1
  C  C22  1  0.79696700  0.79696700  0.73110400  1
  C  C23  1  0.41899500  0.41899500  0.09403100  1
  C  C24  1  0.19045700  0.19045700  0.59851400  1
  C  C25  1  0.02484200  0.02484200  0.64972800  1
  C  C26  1  0.58100500  0.58100500  0.90596900  1
  C  C27  1  0.91196800  0.91196800  0.86446200  1
  C  C28  1  0.40623000  0.40623000  0.64064500  1
