# generated using pymatgen
data_CuNiC10
_symmetry_space_group_name_H-M   'P 1'
_cell_length_a   10.54698840
_cell_length_b   10.54698840
_cell_length_c   6.03637800
_cell_angle_alpha   90.00000000
_cell_angle_beta   90.00000000
_cell_angle_gamma   120.00000249
_symmetry_Int_Tables_number   1
_chemical_formula_structural   CuNiC10
_chemical_formula_sum   'Cu2 Ni2 C20'
_cell_volume   581.51910159
_cell_formula_units_Z   2
loop_
 _symmetry_equiv_pos_site_id
 _symmetry_equiv_pos_as_xyz
  1  'x, y, z'
loop_
 _atom_site_type_symbol
 _atom_site_label
 _atom_site_symmetry_multiplicity
 _atom_site_fract_x
 _atom_site_fract_y
 _atom_site_fract_z
 _atom_site_occupancy
  C  C0  1  0.64503900  0.77212500  0.74153300  1
  C  C1  1  0.22787500  0.87291400  0.74153300  1
  C  C2  1  0.35496100  0.22787500  0.24153300  1
  C  C3  1  0.87291400  0.64503900  0.24153300  1
  C  C4  1  0.12708600  0.35496100  0.74153300  1
  C  C5  1  0.77212500  0.12708600  0.24153300  1
  Ni  Ni6  1  0.00000000  0.00000000  0.72281900  1
  Ni  Ni7  1  0.00000000  0.00000000  0.22281900  1
  Cu  Cu8  1  0.66666700  0.33333300  0.82950300  1
  Cu  Cu9  1  0.33333300  0.66666700  0.32950300  1
  C  C10  1  0.89560600  0.41644900  0.98161100  1
  C  C11  1  0.66666700  0.33333300  0.45376300  1
  C  C12  1  0.90789400  0.74262000  0.72662400  1
  C  C13  1  0.83472600  0.09210600  0.72662400  1
  C  C14  1  0.33333300  0.66666700  0.95376300  1
  C  C15  1  0.25738000  0.16527400  0.72662400  1
  C  C16  1  0.41644900  0.52084300  0.48161100  1
  C  C17  1  0.74262000  0.83472600  0.22662400  1
  C  C18  1  0.09210600  0.25738000  0.22662400  1
  C  C19  1  0.47915700  0.89560600  0.48161100  1
  C  C20  1  0.58355100  0.47915700  0.98161100  1
  C  C21  1  0.16527400  0.90789400  0.22662400  1
  C  C22  1  0.52084300  0.10439400  0.98161100  1
  C  C23  1  0.10439400  0.58355100  0.48161100  1
