# generated using pymatgen
data_CuNiC3
_symmetry_space_group_name_H-M   'P 1'
_cell_length_a   5.38003200
_cell_length_b   8.85871000
_cell_length_c   9.36608100
_cell_angle_alpha   90.00000000
_cell_angle_beta   90.00000000
_cell_angle_gamma   90.00000000
_symmetry_Int_Tables_number   1
_chemical_formula_structural   CuNiC3
_chemical_formula_sum   'Cu8 Ni8 C24'
_cell_volume   446.38876242
_cell_formula_units_Z   8
loop_
 _symmetry_equiv_pos_site_id
 _symmetry_equiv_pos_as_xyz
  1  'x, y, z'
loop_
 _atom_site_type_symbol
 _atom_site_label
 _atom_site_symmetry_multiplicity
 _atom_site_fract_x
 _atom_site_fract_y
 _atom_site_fract_z
 _atom_site_occupancy
  Ni  Ni0  1  0.25000000  0.90175300  0.00000000  1
  Ni  Ni1  1  0.75000000  0.59824700  0.50000000  1
  Ni  Ni2  1  0.75000000  0.09824700  0.00000000  1
  Ni  Ni3  1  0.25000000  0.40175300  0.50000000  1
  Ni  Ni4  1  0.75000000  0.73812400  0.00000000  1
  Ni  Ni5  1  0.25000000  0.76187600  0.50000000  1
  Ni  Ni6  1  0.25000000  0.26187600  0.00000000  1
  Ni  Ni7  1  0.75000000  0.23812400  0.50000000  1
  Cu  Cu8  1  0.93559700  0.90933400  0.29204000  1
  Cu  Cu9  1  0.43559700  0.59066600  0.20796000  1
  Cu  Cu10  1  0.56440300  0.90933400  0.70796000  1
  Cu  Cu11  1  0.06440300  0.59066600  0.79204000  1
  Cu  Cu12  1  0.06440300  0.09066600  0.70796000  1
  Cu  Cu13  1  0.56440300  0.40933400  0.79204000  1
  Cu  Cu14  1  0.43559700  0.09066600  0.29204000  1
  Cu  Cu15  1  0.93559700  0.40933400  0.20796000  1
  C  C16  1  0.71236800  0.52517500  0.15149100  1
  C  C17  1  0.21236800  0.97482500  0.34850900  1
  C  C18  1  0.78763200  0.52517500  0.84850900  1
  C  C19  1  0.28763200  0.97482500  0.65149100  1
  C  C20  1  0.28763200  0.47482500  0.84850900  1
  C  C21  1  0.78763200  0.02517500  0.65149100  1
  C  C22  1  0.21236800  0.47482500  0.15149100  1
  C  C23  1  0.71236800  0.02517500  0.34850900  1
  C  C24  1  0.93193900  0.25236700  0.12188000  1
  C  C25  1  0.43193900  0.24763300  0.37812000  1
  C  C26  1  0.56806100  0.25236700  0.87812000  1
  C  C27  1  0.06806100  0.24763300  0.62188000  1
  C  C28  1  0.06806100  0.74763300  0.87812000  1
  C  C29  1  0.56806100  0.75236700  0.62188000  1
  C  C30  1  0.43193900  0.74763300  0.12188000  1
  C  C31  1  0.93193900  0.75236700  0.37812000  1
  C  C32  1  0.92292300  0.90613300  0.11799800  1
  C  C33  1  0.42292300  0.59386700  0.38200200  1
  C  C34  1  0.57707700  0.90613300  0.88200200  1
  C  C35  1  0.07707700  0.59386700  0.61799800  1
  C  C36  1  0.07707700  0.09386700  0.88200200  1
  C  C37  1  0.57707700  0.40613300  0.61799800  1
  C  C38  1  0.42292300  0.09386700  0.11799800  1
  C  C39  1  0.92292300  0.40613300  0.38200200  1
