# generated using pymatgen
data_CuNiC19
_symmetry_space_group_name_H-M   'P 1'
_cell_length_a   5.14827840
_cell_length_b   5.14827840
_cell_length_c   23.18747000
_cell_angle_alpha   90.00000000
_cell_angle_beta   90.00000000
_cell_angle_gamma   120.00000519
_symmetry_Int_Tables_number   1
_chemical_formula_structural   CuNiC19
_chemical_formula_sum   'Cu2 Ni2 C38'
_cell_volume   532.24062759
_cell_formula_units_Z   2
loop_
 _symmetry_equiv_pos_site_id
 _symmetry_equiv_pos_as_xyz
  1  'x, y, z'
loop_
 _atom_site_type_symbol
 _atom_site_label
 _atom_site_symmetry_multiplicity
 _atom_site_fract_x
 _atom_site_fract_y
 _atom_site_fract_z
 _atom_site_occupancy
  Ni  Ni0  1  0.00000000  0.00000000  0.00000000  1
  Ni  Ni1  1  0.00000000  0.00000000  0.50000000  1
  Cu  Cu2  1  0.33333300  0.66666700  0.75000000  1
  Cu  Cu3  1  0.66666700  0.33333300  0.25000000  1
  C  C4  1  0.33333300  0.66666700  0.35311700  1
  C  C5  1  0.66666700  0.33333300  0.85311700  1
  C  C6  1  0.66666700  0.33333300  0.64688300  1
  C  C7  1  0.33333300  0.66666700  0.14688300  1
  C  C8  1  0.00000000  0.00000000  0.67739700  1
  C  C9  1  0.00000000  0.00000000  0.17739700  1
  C  C10  1  0.00000000  0.00000000  0.32260300  1
  C  C11  1  0.00000000  0.00000000  0.82260300  1
  C  C12  1  0.66666700  0.33333300  0.43298700  1
  C  C13  1  0.33333300  0.66666700  0.93298700  1
  C  C14  1  0.33333300  0.66666700  0.56701300  1
  C  C15  1  0.66666700  0.33333300  0.06701300  1
  C  C16  1  0.14518200  0.29036400  0.67611700  1
  C  C17  1  0.85481800  0.14518200  0.17611700  1
  C  C18  1  0.29036400  0.14518200  0.17611700  1
  C  C19  1  0.70963600  0.85481800  0.67611700  1
  C  C20  1  0.14518200  0.85481800  0.67611700  1
  C  C21  1  0.85481800  0.70963600  0.32388300  1
  C  C22  1  0.85481800  0.14518200  0.32388300  1
  C  C23  1  0.85481800  0.70963600  0.17611700  1
  C  C24  1  0.29036400  0.14518200  0.32388300  1
  C  C25  1  0.70963600  0.85481800  0.82388300  1
  C  C26  1  0.14518200  0.29036400  0.82388300  1
  C  C27  1  0.14518200  0.85481800  0.82388300  1
  C  C28  1  0.52110900  0.04221800  0.43433200  1
  C  C29  1  0.47889100  0.52110900  0.93433200  1
  C  C30  1  0.04221800  0.52110900  0.93433200  1
  C  C31  1  0.95778200  0.47889100  0.43433200  1
  C  C32  1  0.52110900  0.47889100  0.43433200  1
  C  C33  1  0.47889100  0.95778200  0.56566800  1
  C  C34  1  0.47889100  0.52110900  0.56566800  1
  C  C35  1  0.47889100  0.95778200  0.93433200  1
  C  C36  1  0.04221800  0.52110900  0.56566800  1
  C  C37  1  0.95778200  0.47889100  0.06566800  1
  C  C38  1  0.52110900  0.04221800  0.06566800  1
  C  C39  1  0.52110900  0.47889100  0.06566800  1
  C  C40  1  0.33333300  0.66666700  0.25000000  1
  C  C41  1  0.66666700  0.33333300  0.75000000  1
