# generated using pymatgen
data_Cu2NiC8
_symmetry_space_group_name_H-M   'P 1'
_cell_length_a   6.86194826
_cell_length_b   6.86194826
_cell_length_c   14.20611194
_cell_angle_alpha   75.00440445
_cell_angle_beta   75.00440445
_cell_angle_gamma   80.80799920
_symmetry_Int_Tables_number   1
_chemical_formula_structural   Cu2NiC8
_chemical_formula_sum   'Cu8 Ni4 C32'
_cell_volume   621.03645294
_cell_formula_units_Z   4
loop_
 _symmetry_equiv_pos_site_id
 _symmetry_equiv_pos_as_xyz
  1  'x, y, z'
loop_
 _atom_site_type_symbol
 _atom_site_label
 _atom_site_symmetry_multiplicity
 _atom_site_fract_x
 _atom_site_fract_y
 _atom_site_fract_z
 _atom_site_occupancy
  C  C0  1  0.76455300  0.04192000  0.11925100  1
  C  C1  1  0.23544700  0.95808000  0.88074900  1
  C  C2  1  0.95808000  0.23544700  0.38074900  1
  C  C3  1  0.04192000  0.76455300  0.61925100  1
  Ni  Ni4  1  0.87128800  0.40609400  0.85955700  1
  Ni  Ni5  1  0.40609400  0.87128800  0.35955700  1
  Ni  Ni6  1  0.59390600  0.12871200  0.64044300  1
  Ni  Ni7  1  0.12871200  0.59390600  0.14044300  1
  Cu  Cu8  1  0.58099800  0.66653300  0.57565300  1
  Cu  Cu9  1  0.66653300  0.58099800  0.07565300  1
  Cu  Cu10  1  0.33346700  0.41900200  0.92434700  1
  Cu  Cu11  1  0.90983600  0.75266500  0.36549200  1
  Cu  Cu12  1  0.09016400  0.24733500  0.63450800  1
  Cu  Cu13  1  0.75266500  0.90983600  0.86549200  1
  Cu  Cu14  1  0.24733500  0.09016400  0.13450800  1
  Cu  Cu15  1  0.41900200  0.33346700  0.42434700  1
  C  C16  1  0.07195000  0.88423800  0.39296500  1
  C  C17  1  0.03037000  0.57340000  0.30134500  1
  C  C18  1  0.92805000  0.11576200  0.60703500  1
  C  C19  1  0.79438900  0.38799600  0.02086900  1
  C  C20  1  0.96963000  0.42660000  0.69865500  1
  C  C21  1  0.07956400  0.27022000  0.18343300  1
  C  C22  1  0.32447100  0.18825400  0.36934400  1
  C  C23  1  0.57340000  0.03037000  0.80134500  1
  C  C24  1  0.59426500  0.79353100  0.98134000  1
  C  C25  1  0.20561100  0.61200400  0.97913100  1
  C  C26  1  0.92043600  0.72978000  0.81656700  1
  C  C27  1  0.20646900  0.40573500  0.51866000  1
  C  C28  1  0.40573500  0.20646900  0.01866000  1
  C  C29  1  0.88423800  0.07195000  0.89296500  1
  C  C30  1  0.61200400  0.20561100  0.47913100  1
  C  C31  1  0.81174600  0.67552900  0.13065600  1
  C  C32  1  0.67552900  0.81174600  0.63065600  1
  C  C33  1  0.51359700  0.44093200  0.65003300  1
  C  C34  1  0.44093200  0.51359700  0.15003300  1
  C  C35  1  0.42660000  0.96963000  0.19865500  1
  C  C36  1  0.72978000  0.92043600  0.31656700  1
  C  C37  1  0.27022000  0.07956400  0.68343300  1
  C  C38  1  0.79353100  0.59426500  0.48134000  1
  C  C39  1  0.18825400  0.32447100  0.86934400  1
  C  C40  1  0.55906800  0.48640300  0.84996700  1
  C  C41  1  0.38799600  0.79438900  0.52086900  1
  C  C42  1  0.48640300  0.55906800  0.34996700  1
  C  C43  1  0.11576200  0.92805000  0.10703500  1
