# generated using pymatgen
data_CuNiC
_symmetry_space_group_name_H-M   'P 1'
_cell_length_a   5.46432472
_cell_length_b   5.46432472
_cell_length_c   6.49987100
_cell_angle_alpha   90.00000000
_cell_angle_beta   90.00000000
_cell_angle_gamma   107.45198728
_symmetry_Int_Tables_number   1
_chemical_formula_structural   CuNiC
_chemical_formula_sum   'Cu4 Ni4 C4'
_cell_volume   185.14492744
_cell_formula_units_Z   4
loop_
 _symmetry_equiv_pos_site_id
 _symmetry_equiv_pos_as_xyz
  1  'x, y, z'
loop_
 _atom_site_type_symbol
 _atom_site_label
 _atom_site_symmetry_multiplicity
 _atom_site_fract_x
 _atom_site_fract_y
 _atom_site_fract_z
 _atom_site_occupancy
  Ni  Ni0  1  0.82435000  0.17565000  0.00000000  1
  Ni  Ni1  1  0.17565000  0.82435000  0.00000000  1
  Ni  Ni2  1  0.32435000  0.67565000  0.50000000  1
  Ni  Ni3  1  0.67565000  0.32435000  0.50000000  1
  Cu  Cu4  1  0.12521600  0.12521600  0.37395600  1
  Cu  Cu5  1  0.62521600  0.62521600  0.12604400  1
  Cu  Cu6  1  0.37478400  0.37478400  0.87395600  1
  Cu  Cu7  1  0.87478400  0.87478400  0.62604400  1
  C  C8  1  0.33038100  0.33038100  0.16706800  1
  C  C9  1  0.16961900  0.16961900  0.66706800  1
  C  C10  1  0.66961900  0.66961900  0.83293200  1
  C  C11  1  0.83038100  0.83038100  0.33293200  1
