# generated using pymatgen
data_Cu6NiC
_symmetry_space_group_name_H-M   'P 1'
_cell_length_a   7.89686774
_cell_length_b   7.89686774
_cell_length_c   14.28401100
_cell_angle_alpha   90.00000000
_cell_angle_beta   90.00000000
_cell_angle_gamma   119.99999784
_symmetry_Int_Tables_number   1
_chemical_formula_structural   Cu6NiC
_chemical_formula_sum   'Cu12 Ni2 C2'
_cell_volume   771.41938131
_cell_formula_units_Z   2
loop_
 _symmetry_equiv_pos_site_id
 _symmetry_equiv_pos_as_xyz
  1  'x, y, z'
loop_
 _atom_site_type_symbol
 _atom_site_label
 _atom_site_symmetry_multiplicity
 _atom_site_fract_x
 _atom_site_fract_y
 _atom_site_fract_z
 _atom_site_occupancy
  C  C0  1  0.33333300  0.66666700  0.25000000  1
  C  C1  1  0.66666700  0.33333300  0.75000000  1
  Ni  Ni2  1  0.00000000  0.00000000  0.00000000  1
  Ni  Ni3  1  0.00000000  0.00000000  0.50000000  1
  Cu  Cu4  1  0.34022600  0.35069900  0.12586100  1
  Cu  Cu5  1  0.64930100  0.98952700  0.12586100  1
  Cu  Cu6  1  0.01047300  0.65977400  0.12586100  1
  Cu  Cu7  1  0.64930100  0.65977400  0.37413900  1
  Cu  Cu8  1  0.01047300  0.35069900  0.37413900  1
  Cu  Cu9  1  0.34022600  0.98952700  0.37413900  1
  Cu  Cu10  1  0.65977400  0.64930100  0.87413900  1
  Cu  Cu11  1  0.35069900  0.01047300  0.87413900  1
  Cu  Cu12  1  0.98952700  0.34022600  0.87413900  1
  Cu  Cu13  1  0.35069900  0.34022600  0.62586100  1
  Cu  Cu14  1  0.98952700  0.64930100  0.62586100  1
  Cu  Cu15  1  0.65977400  0.01047300  0.62586100  1
