# generated using pymatgen
data_Cu2NiC9
_symmetry_space_group_name_H-M   'P 1'
_cell_length_a   5.02450400
_cell_length_b   10.19625500
_cell_length_c   12.58556832
_cell_angle_alpha   89.81259152
_cell_angle_beta   90.00000000
_cell_angle_gamma   90.00000000
_symmetry_Int_Tables_number   1
_chemical_formula_structural   Cu2NiC9
_chemical_formula_sum   'Cu8 Ni4 C36'
_cell_volume   644.76936274
_cell_formula_units_Z   4
loop_
 _symmetry_equiv_pos_site_id
 _symmetry_equiv_pos_as_xyz
  1  'x, y, z'
loop_
 _atom_site_type_symbol
 _atom_site_label
 _atom_site_symmetry_multiplicity
 _atom_site_fract_x
 _atom_site_fract_y
 _atom_site_fract_z
 _atom_site_occupancy
  Ni  Ni0  1  0.23285700  0.35967500  0.25006300  1
  Ni  Ni1  1  0.26714300  0.85967500  0.25006300  1
  Ni  Ni2  1  0.76714300  0.64032500  0.74993700  1
  Ni  Ni3  1  0.73285700  0.14032500  0.74993700  1
  Cu  Cu4  1  0.70708600  0.34786900  0.99932700  1
  Cu  Cu5  1  0.20708600  0.15213100  0.00067300  1
  Cu  Cu6  1  0.20994200  0.14959000  0.49900400  1
  Cu  Cu7  1  0.29291400  0.65213100  0.00067300  1
  Cu  Cu8  1  0.79005800  0.85041000  0.50099600  1
  Cu  Cu9  1  0.70994200  0.35041000  0.50099600  1
  Cu  Cu10  1  0.79291400  0.84786900  0.99932700  1
  Cu  Cu11  1  0.29005800  0.64959000  0.49900400  1
  C  C12  1  0.72476000  0.10095800  0.36590700  1
  C  C13  1  0.21385100  0.40270800  0.86778200  1
  C  C14  1  0.27524000  0.89904200  0.63409300  1
  C  C15  1  0.78614900  0.59729200  0.13221800  1
  C  C16  1  0.71385100  0.09729200  0.13221800  1
  C  C17  1  0.77524000  0.60095800  0.36590700  1
  C  C18  1  0.22476000  0.39904200  0.63409300  1
  C  C19  1  0.28614900  0.90270800  0.86778200  1
  C  C20  1  0.12983200  0.80408100  0.55535400  1
  C  C21  1  0.80278100  0.95322400  0.12043300  1
  C  C22  1  0.32385100  0.54106500  0.61836800  1
  C  C23  1  0.67614900  0.45893500  0.38163200  1
  C  C24  1  0.40806300  0.11047900  0.12175700  1
  C  C25  1  0.17614900  0.04106500  0.61836800  1
  C  C26  1  0.69992800  0.64972800  0.24775000  1
  C  C27  1  0.69721900  0.45322400  0.12043300  1
  C  C28  1  0.41950400  0.11045000  0.37960700  1
  C  C29  1  0.30007200  0.35027200  0.75225000  1
  C  C30  1  0.59193700  0.88952100  0.87824300  1
  C  C31  1  0.91950400  0.38955000  0.62039300  1
  C  C32  1  0.85635900  0.18670500  0.04813400  1
  C  C33  1  0.19721900  0.04677600  0.87956700  1
  C  C34  1  0.08049600  0.61045000  0.37960700  1
  C  C35  1  0.35635900  0.31329500  0.95186600  1
  C  C36  1  0.30278100  0.54677600  0.87956700  1
  C  C37  1  0.19992800  0.85027200  0.75225000  1
  C  C38  1  0.87016800  0.19591900  0.44464600  1
  C  C39  1  0.90806300  0.38952100  0.87824300  1
  C  C40  1  0.62983200  0.69591900  0.44464600  1
  C  C41  1  0.82385100  0.95893500  0.38163200  1
  C  C42  1  0.09193700  0.61047900  0.12175700  1
  C  C43  1  0.14364100  0.81329500  0.95186600  1
  C  C44  1  0.37016800  0.30408100  0.55535400  1
  C  C45  1  0.64364100  0.68670500  0.04813400  1
  C  C46  1  0.80007200  0.14972800  0.24775000  1
  C  C47  1  0.58049600  0.88955000  0.62039300  1
