# generated using pymatgen
data_CuNiC3
_symmetry_space_group_name_H-M   'P 1'
_cell_length_a   7.52912600
_cell_length_b   5.52890900
_cell_length_c   7.05462631
_cell_angle_alpha   78.91008507
_cell_angle_beta   90.00000000
_cell_angle_gamma   90.00000000
_symmetry_Int_Tables_number   1
_chemical_formula_structural   CuNiC3
_chemical_formula_sum   'Cu4 Ni4 C12'
_cell_volume   288.18512707
_cell_formula_units_Z   4
loop_
 _symmetry_equiv_pos_site_id
 _symmetry_equiv_pos_as_xyz
  1  'x, y, z'
loop_
 _atom_site_type_symbol
 _atom_site_label
 _atom_site_symmetry_multiplicity
 _atom_site_fract_x
 _atom_site_fract_y
 _atom_site_fract_z
 _atom_site_occupancy
  Ni  Ni0  1  0.50000000  0.00000000  0.00000000  1
  Ni  Ni1  1  0.00000000  0.00000000  0.00000000  1
  Ni  Ni2  1  0.75000000  0.44299400  0.81380700  1
  Ni  Ni3  1  0.25000000  0.55700600  0.18619300  1
  Cu  Cu4  1  0.25000000  0.48073100  0.68299800  1
  Cu  Cu5  1  0.75000000  0.51926900  0.31700200  1
  Cu  Cu6  1  0.00000000  0.00000000  0.50000000  1
  Cu  Cu7  1  0.50000000  0.00000000  0.50000000  1
  C  C8  1  0.48813700  0.76854600  0.32623400  1
  C  C9  1  0.93558300  0.26066000  0.27674000  1
  C  C10  1  0.25000000  0.33639500  0.94526900  1
  C  C11  1  0.25000000  0.10475600  0.43672100  1
  C  C12  1  0.01186300  0.76854600  0.32623400  1
  C  C13  1  0.75000000  0.89524400  0.56327900  1
  C  C14  1  0.56441700  0.26066000  0.27674000  1
  C  C15  1  0.06441700  0.73934000  0.72326000  1
  C  C16  1  0.98813700  0.23145400  0.67376600  1
  C  C17  1  0.51186300  0.23145400  0.67376600  1
  C  C18  1  0.43558300  0.73934000  0.72326000  1
  C  C19  1  0.75000000  0.66360500  0.05473100  1
