# generated using pymatgen
data_Cu5Ni4C3
_symmetry_space_group_name_H-M   'P 1'
_cell_length_a   4.99416700
_cell_length_b   8.05037451
_cell_length_c   9.95786973
_cell_angle_alpha   110.37744234
_cell_angle_beta   97.75929109
_cell_angle_gamma   90.44747445
_symmetry_Int_Tables_number   1
_chemical_formula_structural   Cu5Ni4C3
_chemical_formula_sum   'Cu10 Ni8 C6'
_cell_volume   371.21621565
_cell_formula_units_Z   2
loop_
 _symmetry_equiv_pos_site_id
 _symmetry_equiv_pos_as_xyz
  1  'x, y, z'
loop_
 _atom_site_type_symbol
 _atom_site_label
 _atom_site_symmetry_multiplicity
 _atom_site_fract_x
 _atom_site_fract_y
 _atom_site_fract_z
 _atom_site_occupancy
  C  C0  1  0.96678700  0.81734000  0.19928700  1
  C  C1  1  0.03321300  0.18266000  0.80071300  1
  C  C2  1  0.57723400  0.38833700  0.33279200  1
  C  C3  1  0.11818700  0.28852900  0.48632000  1
  C  C4  1  0.42276600  0.61166300  0.66720800  1
  C  C5  1  0.88181300  0.71147100  0.51368000  1
  Ni  Ni6  1  0.93687800  0.17400600  0.47342500  1
  Ni  Ni7  1  0.06312200  0.82599400  0.52657500  1
  Ni  Ni8  1  0.46893900  0.66146900  0.78830700  1
  Ni  Ni9  1  0.53106100  0.33853100  0.21169300  1
  Ni  Ni10  1  0.13437500  0.35426400  0.38963400  1
  Ni  Ni11  1  0.86562500  0.64573600  0.61036600  1
  Ni  Ni12  1  0.29287300  0.34019400  0.60346200  1
  Ni  Ni13  1  0.70712700  0.65980600  0.39653800  1
  Cu  Cu14  1  0.10527400  0.75112500  0.02464600  1
  Cu  Cu15  1  0.32471400  0.34681400  0.91883200  1
  Cu  Cu16  1  0.15842600  0.61686800  0.21601800  1
  Cu  Cu17  1  0.69191500  0.04050500  0.73160600  1
  Cu  Cu18  1  0.81038100  0.99474700  0.12803400  1
  Cu  Cu19  1  0.30808500  0.95949500  0.26839400  1
  Cu  Cu20  1  0.18961900  0.00525300  0.87196600  1
  Cu  Cu21  1  0.67528600  0.65318600  0.08116800  1
  Cu  Cu22  1  0.89472600  0.24887500  0.97535400  1
  Cu  Cu23  1  0.84157400  0.38313200  0.78398200  1
