# generated using pymatgen
data_Cu7NiC4
_symmetry_space_group_name_H-M   'P 1'
_cell_length_a   10.07127029
_cell_length_b   10.07127029
_cell_length_c   5.87278700
_cell_angle_alpha   90.00000000
_cell_angle_beta   90.00000000
_cell_angle_gamma   120.00000189
_symmetry_Int_Tables_number   1
_chemical_formula_structural   Cu7NiC4
_chemical_formula_sum   'Cu14 Ni2 C8'
_cell_volume   515.87368651
_cell_formula_units_Z   2
loop_
 _symmetry_equiv_pos_site_id
 _symmetry_equiv_pos_as_xyz
  1  'x, y, z'
loop_
 _atom_site_type_symbol
 _atom_site_label
 _atom_site_symmetry_multiplicity
 _atom_site_fract_x
 _atom_site_fract_y
 _atom_site_fract_z
 _atom_site_occupancy
  C  C0  1  0.12948900  0.77290800  0.74602100  1
  C  C1  1  0.35658100  0.12948900  0.24602100  1
  C  C2  1  0.87051100  0.22709200  0.24602100  1
  C  C3  1  0.22709200  0.35658100  0.74602100  1
  C  C4  1  0.64341900  0.87051100  0.74602100  1
  C  C5  1  0.77290800  0.64341900  0.24602100  1
  C  C6  1  0.00000000  0.00000000  0.69064200  1
  C  C7  1  0.00000000  0.00000000  0.19064200  1
  Ni  Ni8  1  0.66666700  0.33333300  0.82991400  1
  Ni  Ni9  1  0.33333300  0.66666700  0.32991400  1
  Cu  Cu10  1  0.58225000  0.10169500  0.98769200  1
  Cu  Cu11  1  0.33333300  0.66666700  0.95457600  1
  Cu  Cu12  1  0.09447500  0.83922800  0.21394300  1
  Cu  Cu13  1  0.16077200  0.25524700  0.21394300  1
  Cu  Cu14  1  0.66666700  0.33333300  0.45457600  1
  Cu  Cu15  1  0.83922800  0.74475300  0.71394300  1
  Cu  Cu16  1  0.25524700  0.09447500  0.71394300  1
  Cu  Cu17  1  0.90552500  0.16077200  0.71394300  1
  Cu  Cu18  1  0.74475300  0.90552500  0.21394300  1
  Cu  Cu19  1  0.41775000  0.89830500  0.48769200  1
  Cu  Cu20  1  0.48055500  0.58225000  0.48769200  1
  Cu  Cu21  1  0.51944500  0.41775000  0.98769200  1
  Cu  Cu22  1  0.89830500  0.48055500  0.98769200  1
  Cu  Cu23  1  0.10169500  0.51944500  0.48769200  1
