# generated using pymatgen
data_Cu5NiC14
_symmetry_space_group_name_H-M   'P 1'
_cell_length_a   8.73795900
_cell_length_b   5.33376000
_cell_length_c   9.34515631
_cell_angle_alpha   75.45457203
_cell_angle_beta   90.00000000
_cell_angle_gamma   90.00000000
_symmetry_Int_Tables_number   1
_chemical_formula_structural   Cu5NiC14
_chemical_formula_sum   'Cu10 Ni2 C28'
_cell_volume   421.58236540
_cell_formula_units_Z   2
loop_
 _symmetry_equiv_pos_site_id
 _symmetry_equiv_pos_as_xyz
  1  'x, y, z'
loop_
 _atom_site_type_symbol
 _atom_site_label
 _atom_site_symmetry_multiplicity
 _atom_site_fract_x
 _atom_site_fract_y
 _atom_site_fract_z
 _atom_site_occupancy
  C  C0  1  0.54290600  0.00000000  0.75000000  1
  C  C1  1  0.45709400  0.00000000  0.25000000  1
  C  C2  1  0.94854400  0.50000000  0.75000000  1
  C  C3  1  0.05145600  0.50000000  0.25000000  1
  Ni  Ni4  1  0.34610500  0.50000000  0.75000000  1
  Ni  Ni5  1  0.65389500  0.50000000  0.25000000  1
  Cu  Cu6  1  0.66564900  0.30198600  0.96335900  1
  Cu  Cu7  1  0.15135100  0.18059500  0.04445000  1
  Cu  Cu8  1  0.15135100  0.81940500  0.45555000  1
  Cu  Cu9  1  0.33435100  0.30198600  0.46335900  1
  Cu  Cu10  1  0.84864900  0.81940500  0.95555000  1
  Cu  Cu11  1  0.33435100  0.69801400  0.03664100  1
  Cu  Cu12  1  0.84864900  0.18059500  0.54445000  1
  Cu  Cu13  1  0.15211400  0.00000000  0.75000000  1
  Cu  Cu14  1  0.66564900  0.69801400  0.53664100  1
  Cu  Cu15  1  0.84788600  0.00000000  0.25000000  1
  C  C16  1  0.24634800  0.58579200  0.40857500  1
  C  C17  1  0.50413100  0.30855500  0.40156900  1
  C  C18  1  0.75365200  0.41420800  0.59142500  1
  C  C19  1  0.50413100  0.69144500  0.09843100  1
  C  C20  1  0.76625100  0.89925600  0.61211100  1
  C  C21  1  0.30633600  0.20035900  0.64425000  1
  C  C22  1  0.15602000  0.76104500  0.63806400  1
  C  C23  1  0.69366400  0.79964100  0.35575000  1
  C  C24  1  0.69366400  0.20035900  0.14425000  1
  C  C25  1  0.75365200  0.58579200  0.90857500  1
  C  C26  1  0.23374900  0.89925600  0.11211100  1
  C  C27  1  0.24634800  0.41420800  0.09142500  1
  C  C28  1  0.30633600  0.79964100  0.85575000  1
  C  C29  1  0.49586900  0.30855500  0.90156900  1
  C  C30  1  0.84398000  0.23895500  0.36193600  1
  C  C31  1  0.23374900  0.10074400  0.38788900  1
  C  C32  1  0.98558400  0.81764100  0.37563300  1
  C  C33  1  0.98558400  0.18235900  0.12436700  1
  C  C34  1  0.01441600  0.81764100  0.87563300  1
  C  C35  1  0.49586900  0.69144500  0.59843100  1
  C  C36  1  0.01441600  0.18235900  0.62436700  1
  C  C37  1  0.15602000  0.23895500  0.86193600  1
  C  C38  1  0.76625100  0.10074400  0.88788900  1
  C  C39  1  0.84398000  0.76104500  0.13806400  1
