# generated using pymatgen
data_Cu4NiC2
_symmetry_space_group_name_H-M   'P 1'
_cell_length_a   6.15364100
_cell_length_b   6.33031900
_cell_length_c   15.79925400
_cell_angle_alpha   90.00000000
_cell_angle_beta   90.00000000
_cell_angle_gamma   90.00000000
_symmetry_Int_Tables_number   1
_chemical_formula_structural   Cu4NiC2
_chemical_formula_sum   'Cu16 Ni4 C8'
_cell_volume   615.45220649
_cell_formula_units_Z   4
loop_
 _symmetry_equiv_pos_site_id
 _symmetry_equiv_pos_as_xyz
  1  'x, y, z'
loop_
 _atom_site_type_symbol
 _atom_site_label
 _atom_site_symmetry_multiplicity
 _atom_site_fract_x
 _atom_site_fract_y
 _atom_site_fract_z
 _atom_site_occupancy
  C  C0  1  0.75000000  0.77931100  0.89677700  1
  C  C1  1  0.75000000  0.27931100  0.60322300  1
  C  C2  1  0.25000000  0.72068900  0.39677700  1
  C  C3  1  0.25000000  0.22068900  0.10322300  1
  C  C4  1  0.75000000  0.77426000  0.16046100  1
  C  C5  1  0.75000000  0.27426000  0.33953900  1
  C  C6  1  0.25000000  0.22574000  0.83953900  1
  C  C7  1  0.25000000  0.72574000  0.66046100  1
  Ni  Ni8  1  0.25000000  0.98944800  0.89957400  1
  Ni  Ni9  1  0.25000000  0.48944800  0.60042600  1
  Ni  Ni10  1  0.75000000  0.01055200  0.10042600  1
  Ni  Ni11  1  0.75000000  0.51055200  0.39957400  1
  Cu  Cu12  1  0.02168000  0.84776800  0.58412900  1
  Cu  Cu13  1  0.52168000  0.65223200  0.08412900  1
  Cu  Cu14  1  0.97832000  0.65223200  0.08412900  1
  Cu  Cu15  1  0.51836700  0.89789300  0.23752500  1
  Cu  Cu16  1  0.47832000  0.84776800  0.58412900  1
  Cu  Cu17  1  0.98163300  0.39789300  0.26247500  1
  Cu  Cu18  1  0.02168000  0.34776800  0.91587100  1
  Cu  Cu19  1  0.01836700  0.60210700  0.73752500  1
  Cu  Cu20  1  0.97832000  0.15223200  0.41587100  1
  Cu  Cu21  1  0.48163300  0.60210700  0.73752500  1
  Cu  Cu22  1  0.47832000  0.34776800  0.91587100  1
  Cu  Cu23  1  0.48163300  0.10210700  0.76247500  1
  Cu  Cu24  1  0.51836700  0.39789300  0.26247500  1
  Cu  Cu25  1  0.98163300  0.89789300  0.23752500  1
  Cu  Cu26  1  0.52168000  0.15223200  0.41587100  1
  Cu  Cu27  1  0.01836700  0.10210700  0.76247500  1
