# generated using pymatgen
data_Cu4NiC2
_symmetry_space_group_name_H-M   'P 1'
_cell_length_a   5.68383208
_cell_length_b   5.68383208
_cell_length_c   7.25956800
_cell_angle_alpha   90.00000000
_cell_angle_beta   90.00000000
_cell_angle_gamma   120.00000098
_symmetry_Int_Tables_number   1
_chemical_formula_structural   Cu4NiC2
_chemical_formula_sum   'Cu8 Ni2 C4'
_cell_volume   203.10652858
_cell_formula_units_Z   2
loop_
 _symmetry_equiv_pos_site_id
 _symmetry_equiv_pos_as_xyz
  1  'x, y, z'
loop_
 _atom_site_type_symbol
 _atom_site_label
 _atom_site_symmetry_multiplicity
 _atom_site_fract_x
 _atom_site_fract_y
 _atom_site_fract_z
 _atom_site_occupancy
  C  C0  1  0.33333300  0.66666700  0.66429700  1
  C  C1  1  0.66666700  0.33333300  0.33570300  1
  C  C2  1  0.00000000  0.00000000  0.50000000  1
  C  C3  1  0.00000000  0.00000000  0.00000000  1
  Ni  Ni4  1  0.33333300  0.66666700  0.21546300  1
  Ni  Ni5  1  0.66666700  0.33333300  0.78453700  1
  Cu  Cu6  1  0.80989300  0.61978600  0.71139600  1
  Cu  Cu7  1  0.61978600  0.80989300  0.28860400  1
  Cu  Cu8  1  0.19010700  0.38021400  0.28860400  1
  Cu  Cu9  1  0.38021400  0.19010700  0.71139600  1
  Cu  Cu10  1  0.66666700  0.33333300  0.98616500  1
  Cu  Cu11  1  0.80989300  0.19010700  0.71139600  1
  Cu  Cu12  1  0.19010700  0.80989300  0.28860400  1
  Cu  Cu13  1  0.33333300  0.66666700  0.01383500  1
