# generated using pymatgen
data_Cu6Ni17C6
_symmetry_space_group_name_H-M   'P 1'
_cell_length_a   9.07808185
_cell_length_b   9.07808185
_cell_length_c   9.07808185
_cell_angle_alpha   109.47122063
_cell_angle_beta   109.47122063
_cell_angle_gamma   109.47122063
_symmetry_Int_Tables_number   1
_chemical_formula_structural   Cu6Ni17C6
_chemical_formula_sum   'Cu6 Ni17 C6'
_cell_volume   575.91765425
_cell_formula_units_Z   1
loop_
 _symmetry_equiv_pos_site_id
 _symmetry_equiv_pos_as_xyz
  1  'x, y, z'
loop_
 _atom_site_type_symbol
 _atom_site_label
 _atom_site_symmetry_multiplicity
 _atom_site_fract_x
 _atom_site_fract_y
 _atom_site_fract_z
 _atom_site_occupancy
  C  C0  1  0.28576800  0.28576800  0.00000000  1
  C  C1  1  0.00000000  0.71423200  0.71423200  1
  C  C2  1  0.00000000  0.28576800  0.28576800  1
  C  C3  1  0.28576800  0.00000000  0.28576800  1
  C  C4  1  0.71423200  0.00000000  0.71423200  1
  C  C5  1  0.71423200  0.71423200  0.00000000  1
  Ni  Ni6  1  0.63763100  0.41958300  0.63763100  1
  Ni  Ni7  1  0.78195200  0.00000000  0.36236900  1
  Ni  Ni8  1  0.36236900  0.00000000  0.78195200  1
  Ni  Ni9  1  0.78195200  0.36236900  0.00000000  1
  Ni  Ni10  1  0.21804800  0.21804800  0.58041700  1
  Ni  Ni11  1  0.58041700  0.21804800  0.21804800  1
  Ni  Ni12  1  0.00000000  0.36236900  0.78195200  1
  Ni  Ni13  1  0.00000000  0.78195200  0.36236900  1
  Ni  Ni14  1  0.36236900  0.78195200  0.00000000  1
  Ni  Ni15  1  0.63763100  0.63763100  0.41958300  1
  Ni  Ni16  1  0.41958300  0.63763100  0.63763100  1
  Ni  Ni17  1  0.21804800  0.58041700  0.21804800  1
  Ni  Ni18  1  0.43263300  0.43263300  0.43263300  1
  Ni  Ni19  1  0.00000000  0.00000000  0.56736700  1
  Ni  Ni20  1  0.56736700  0.00000000  0.00000000  1
  Ni  Ni21  1  0.00000000  0.56736700  0.00000000  1
  Ni  Ni22  1  0.00000000  0.00000000  0.00000000  1
  Cu  Cu23  1  0.25000000  0.75000000  0.50000000  1
  Cu  Cu24  1  0.50000000  0.25000000  0.75000000  1
  Cu  Cu25  1  0.50000000  0.75000000  0.25000000  1
  Cu  Cu26  1  0.25000000  0.50000000  0.75000000  1
  Cu  Cu27  1  0.75000000  0.50000000  0.25000000  1
  Cu  Cu28  1  0.75000000  0.25000000  0.50000000  1
