# generated using pymatgen
data_CuNiC7
_symmetry_space_group_name_H-M   'P 1'
_cell_length_a   6.38138343
_cell_length_b   6.38138343
_cell_length_c   7.97659100
_cell_angle_alpha   90.00000000
_cell_angle_beta   90.00000000
_cell_angle_gamma   119.99999412
_symmetry_Int_Tables_number   1
_chemical_formula_structural   CuNiC7
_chemical_formula_sum   'Cu2 Ni2 C14'
_cell_volume   281.30513669
_cell_formula_units_Z   2
loop_
 _symmetry_equiv_pos_site_id
 _symmetry_equiv_pos_as_xyz
  1  'x, y, z'
loop_
 _atom_site_type_symbol
 _atom_site_label
 _atom_site_symmetry_multiplicity
 _atom_site_fract_x
 _atom_site_fract_y
 _atom_site_fract_z
 _atom_site_occupancy
  Ni  Ni0  1  0.66666700  0.33333300  0.39126200  1
  Ni  Ni1  1  0.33333300  0.66666700  0.60873800  1
  Cu  Cu2  1  0.00000000  0.00000000  0.23452900  1
  Cu  Cu3  1  0.00000000  0.00000000  0.76547100  1
  C  C4  1  0.33333300  0.66666700  0.12126300  1
  C  C5  1  0.66666700  0.33333300  0.87873700  1
  C  C6  1  0.27616800  0.89274000  0.32127000  1
  C  C7  1  0.92405900  0.61071400  0.09709100  1
  C  C8  1  0.38928600  0.31334400  0.09709100  1
  C  C9  1  0.61071400  0.68665600  0.90290900  1
  C  C10  1  0.89274000  0.61657200  0.67873000  1
  C  C11  1  0.72383200  0.10726000  0.67873000  1
  C  C12  1  0.31334400  0.92405900  0.90290900  1
  C  C13  1  0.07594100  0.38928600  0.90290900  1
  C  C14  1  0.10726000  0.38342800  0.32127000  1
  C  C15  1  0.68665600  0.07594100  0.09709100  1
  C  C16  1  0.61657200  0.72383200  0.32127000  1
  C  C17  1  0.38342800  0.27616800  0.67873000  1
