# generated using pymatgen
data_Cu2NiC12
_symmetry_space_group_name_H-M   'P 1'
_cell_length_a   7.47015900
_cell_length_b   7.43299100
_cell_length_c   7.44758311
_cell_angle_alpha   60.29230865
_cell_angle_beta   90.00000000
_cell_angle_gamma   90.00000000
_symmetry_Int_Tables_number   1
_chemical_formula_structural   Cu2NiC12
_chemical_formula_sum   'Cu4 Ni2 C24'
_cell_volume   359.17916321
_cell_formula_units_Z   2
loop_
 _symmetry_equiv_pos_site_id
 _symmetry_equiv_pos_as_xyz
  1  'x, y, z'
loop_
 _atom_site_type_symbol
 _atom_site_label
 _atom_site_symmetry_multiplicity
 _atom_site_fract_x
 _atom_site_fract_y
 _atom_site_fract_z
 _atom_site_occupancy
  Ni  Ni0  1  0.00000000  0.00000000  0.00000000  1
  Ni  Ni1  1  0.50000000  0.00000000  0.50000000  1
  Cu  Cu2  1  0.27850100  0.26664000  0.70558200  1
  Cu  Cu3  1  0.72149900  0.73336000  0.29441800  1
  Cu  Cu4  1  0.22149900  0.26664000  0.20558200  1
  Cu  Cu5  1  0.77850100  0.73336000  0.79441800  1
  C  C6  1  0.37977600  0.75539200  0.99441100  1
  C  C7  1  0.12022400  0.75539200  0.49441100  1
  C  C8  1  0.62022400  0.24460800  0.00558900  1
  C  C9  1  0.87977600  0.24460800  0.50558900  1
  C  C10  1  0.76713300  0.44276700  0.42822300  1
  C  C11  1  0.25038600  0.94087400  0.41420900  1
  C  C12  1  0.24961400  0.94087400  0.91420900  1
  C  C13  1  0.49344500  0.73897100  0.17530300  1
  C  C14  1  0.73286700  0.44276700  0.92822300  1
  C  C15  1  0.50422300  0.78629100  0.81403500  1
  C  C16  1  0.75038600  0.05912600  0.08579100  1
  C  C17  1  0.49577700  0.21370900  0.18596500  1
  C  C18  1  0.34215700  0.23134800  0.50013300  1
  C  C19  1  0.15784300  0.23134800  0.00013300  1
  C  C20  1  0.00422300  0.21370900  0.68596500  1
  C  C21  1  0.00655500  0.73897100  0.67530300  1
  C  C22  1  0.65784300  0.76865200  0.49986700  1
  C  C23  1  0.50655500  0.26102900  0.82469700  1
  C  C24  1  0.23286700  0.55723300  0.57177700  1
  C  C25  1  0.84215700  0.76865200  0.99986700  1
  C  C26  1  0.99577700  0.78629100  0.31403500  1
  C  C27  1  0.26713300  0.55723300  0.07177700  1
  C  C28  1  0.74961400  0.05912600  0.58579100  1
  C  C29  1  0.99344500  0.26102900  0.32469700  1
