# generated using pymatgen
data_Cu5Ni4C17
_symmetry_space_group_name_H-M   'P 1'
_cell_length_a   7.31215800
_cell_length_b   11.16378300
_cell_length_c   23.75070135
_cell_angle_alpha   63.22318621
_cell_angle_beta   90.00000000
_cell_angle_gamma   90.00000000
_symmetry_Int_Tables_number   1
_chemical_formula_structural   Cu5Ni4C17
_chemical_formula_sum   'Cu20 Ni16 C68'
_cell_volume   1730.90051262
_cell_formula_units_Z   4
loop_
 _symmetry_equiv_pos_site_id
 _symmetry_equiv_pos_as_xyz
  1  'x, y, z'
loop_
 _atom_site_type_symbol
 _atom_site_label
 _atom_site_symmetry_multiplicity
 _atom_site_fract_x
 _atom_site_fract_y
 _atom_site_fract_z
 _atom_site_occupancy
  C  C0  1  0.00430200  0.22207100  0.57234800  1
  C  C1  1  0.99569800  0.77792900  0.42765200  1
  C  C2  1  0.49569800  0.22207100  0.07234800  1
  C  C3  1  0.50430200  0.77792900  0.92765200  1
  C  C4  1  0.49569900  0.76979800  0.25201100  1
  C  C5  1  0.99818500  0.85926800  0.08921900  1
  C  C6  1  0.49818500  0.14073200  0.41078100  1
  C  C7  1  0.15773000  0.73605400  0.19258200  1
  C  C8  1  0.90238200  0.31208600  0.17304200  1
  C  C9  1  0.44466900  0.47903000  0.59547600  1
  C  C10  1  0.55533100  0.52097000  0.40452400  1
  C  C11  1  0.51397300  0.27587100  0.24410500  1
  C  C12  1  0.35983600  0.26994000  0.41217000  1
  C  C13  1  0.00008200  0.43200500  0.29774200  1
  C  C14  1  0.76690600  0.43687800  0.88979000  1
  C  C15  1  0.57893000  0.69222000  0.13085000  1
  C  C16  1  0.14016400  0.26994000  0.91217000  1
  C  C17  1  0.42107000  0.30778000  0.86915000  1
  C  C18  1  0.07893000  0.30778000  0.36915000  1
  C  C19  1  0.00181500  0.14073200  0.91078100  1
  C  C20  1  0.74291100  0.87549400  0.58887300  1
  C  C21  1  0.24291100  0.12450600  0.91112700  1
  C  C22  1  0.00430100  0.76979800  0.75201100  1
  C  C23  1  0.50430100  0.23020200  0.74798900  1
  C  C24  1  0.75708900  0.87549400  0.08887300  1
  C  C25  1  0.34227000  0.73605400  0.69258200  1
  C  C26  1  0.53795300  0.11930000  0.31342400  1
  C  C27  1  0.01397300  0.72412900  0.25589500  1
  C  C28  1  0.50181500  0.85926800  0.58921900  1
  C  C29  1  0.92107000  0.69222000  0.63085000  1
  C  C30  1  0.65773000  0.26394600  0.30741800  1
  C  C31  1  0.05533100  0.47903000  0.09547600  1
  C  C32  1  0.46204700  0.88070000  0.68657600  1
  C  C33  1  0.85983600  0.73006000  0.08783000  1
  C  C34  1  0.50008200  0.56799500  0.20225800  1
  C  C35  1  0.64016400  0.73006000  0.58783000  1
  C  C36  1  0.23309400  0.56312200  0.11021000  1
  C  C37  1  0.96204700  0.11930000  0.81342400  1
  C  C38  1  0.94466900  0.52097000  0.90452400  1
  C  C39  1  0.84227000  0.26394600  0.80741800  1
  C  C40  1  0.98602700  0.27587100  0.74410500  1
  C  C41  1  0.73309400  0.43687800  0.38979000  1
  C  C42  1  0.99991800  0.56799500  0.70225800  1
  C  C43  1  0.09761800  0.68791400  0.82695800  1
  C  C44  1  0.26690600  0.56312200  0.61021000  1
  C  C45  1  0.59761800  0.31208600  0.67304200  1
  C  C46  1  0.40238200  0.68791400  0.32695800  1
  C  C47  1  0.49991800  0.43200500  0.79774200  1
  C  C48  1  0.99569900  0.23020200  0.24798900  1
  C  C49  1  0.48602700  0.72412900  0.75589500  1
  C  C50  1  0.03795300  0.88070000  0.18657600  1
  C  C51  1  0.25708900  0.12450600  0.41112700  1
  C  C52  1  0.62923000  0.80346800  0.60663800  1
  C  C53  1  0.73877500  0.65820800  0.20925400  1
  C  C54  1  0.12923000  0.19653200  0.89336200  1
  C  C55  1  0.37531800  0.40607000  0.68868200  1
  C  C56  1  0.46983300  0.77130600  0.70470100  1
  C  C57  1  0.26122500  0.34179200  0.79074600  1
  C  C58  1  0.12468200  0.40607000  0.18868200  1
  C  C59  1  0.03016700  0.77130600  0.20470100  1
  C  C60  1  0.23877500  0.34179200  0.29074600  1
  C  C61  1  0.37077000  0.19653200  0.39336200  1
  C  C62  1  0.62468200  0.59393000  0.31131800  1
  C  C63  1  0.53016700  0.22869400  0.29529900  1
  C  C64  1  0.87077000  0.80346800  0.10663800  1
  C  C65  1  0.87531800  0.59393000  0.81131800  1
  C  C66  1  0.76122500  0.65820800  0.70925400  1
  C  C67  1  0.96983300  0.22869400  0.79529900  1
  Ni  Ni68  1  0.11117100  0.97353500  0.32066100  1
  Ni  Ni69  1  0.14377900  0.56878500  0.42173200  1
  Ni  Ni70  1  0.36680100  0.81063500  0.02283800  1
  Ni  Ni71  1  0.35799900  0.21206300  0.56619600  1
  Ni  Ni72  1  0.13319900  0.81063500  0.52283800  1
  Ni  Ni73  1  0.88882900  0.02646500  0.67933900  1
  Ni  Ni74  1  0.35622100  0.56878500  0.92173200  1
  Ni  Ni75  1  0.85622100  0.43121500  0.57826800  1
  Ni  Ni76  1  0.86680100  0.18936500  0.47716200  1
  Ni  Ni77  1  0.63319900  0.18936500  0.97716200  1
  Ni  Ni78  1  0.38882900  0.97353500  0.82066100  1
  Ni  Ni79  1  0.85799900  0.78793700  0.93380400  1
  Ni  Ni80  1  0.61117100  0.02646500  0.17933900  1
  Ni  Ni81  1  0.64200100  0.78793700  0.43380400  1
  Ni  Ni82  1  0.14200100  0.21206300  0.06619600  1
  Ni  Ni83  1  0.64377900  0.43121500  0.07826800  1
  Cu  Cu84  1  0.40745500  0.35823200  0.82148200  1
  Cu  Cu85  1  0.87207700  0.50295500  0.87271900  1
  Cu  Cu86  1  0.01352200  0.68487200  0.79342600  1
  Cu  Cu87  1  0.51352200  0.31512800  0.70657400  1
  Cu  Cu88  1  0.59254500  0.64176800  0.17851800  1
  Cu  Cu89  1  0.62409300  0.73755600  0.67550100  1
  Cu  Cu90  1  0.37207700  0.49704500  0.62728100  1
  Cu  Cu91  1  0.24659600  0.41122900  0.72703100  1
  Cu  Cu92  1  0.12792300  0.49704500  0.12728100  1
  Cu  Cu93  1  0.37590700  0.26244400  0.32449900  1
  Cu  Cu94  1  0.74659600  0.58877100  0.77296900  1
  Cu  Cu95  1  0.48647800  0.68487200  0.29342600  1
  Cu  Cu96  1  0.12409300  0.26244400  0.82449900  1
  Cu  Cu97  1  0.09254500  0.35823200  0.32148200  1
  Cu  Cu98  1  0.87590700  0.73755600  0.17550100  1
  Cu  Cu99  1  0.90745500  0.64176800  0.67851800  1
  Cu  Cu100  1  0.62792300  0.50295500  0.37271900  1
  Cu  Cu101  1  0.98647800  0.31512800  0.20657400  1
  Cu  Cu102  1  0.25340400  0.41122900  0.22703100  1
  Cu  Cu103  1  0.75340400  0.58877100  0.27296900  1
