# generated using pymatgen
data_Cu3Ni3C11
_symmetry_space_group_name_H-M   'P 1'
_cell_length_a   6.76072800
_cell_length_b   7.02829687
_cell_length_c   10.51338705
_cell_angle_alpha   89.98817074
_cell_angle_beta   101.67527211
_cell_angle_gamma   96.18186547
_symmetry_Int_Tables_number   1
_chemical_formula_structural   Cu3Ni3C11
_chemical_formula_sum   'Cu6 Ni6 C22'
_cell_volume   486.25827053
_cell_formula_units_Z   2
loop_
 _symmetry_equiv_pos_site_id
 _symmetry_equiv_pos_as_xyz
  1  'x, y, z'
loop_
 _atom_site_type_symbol
 _atom_site_label
 _atom_site_symmetry_multiplicity
 _atom_site_fract_x
 _atom_site_fract_y
 _atom_site_fract_z
 _atom_site_occupancy
  C  C0  1  0.66647300  0.64077300  0.28871100  1
  C  C1  1  0.33352700  0.35922700  0.71128900  1
  C  C2  1  0.09199000  0.19713200  0.26227000  1
  C  C3  1  0.90801000  0.80286800  0.73773000  1
  C  C4  1  0.15465800  0.87263200  0.27090800  1
  C  C5  1  0.84534200  0.12736800  0.72909200  1
  C  C6  1  0.96843000  0.41118700  0.09492800  1
  C  C7  1  0.03157000  0.58881300  0.90507200  1
  C  C8  1  0.42097900  0.14256300  0.99008000  1
  C  C9  1  0.57902100  0.85743700  0.00992000  1
  C  C10  1  0.15498900  0.58854100  0.39213600  1
  C  C11  1  0.84501100  0.41145900  0.60786400  1
  C  C12  1  0.10568700  0.75632300  0.47600900  1
  C  C13  1  0.89431300  0.24367700  0.52399100  1
  C  C14  1  0.30001100  0.98708700  0.12878000  1
  C  C15  1  0.69998900  0.01291300  0.87122000  1
  C  C16  1  0.19302100  0.29085400  0.03043900  1
  C  C17  1  0.80697900  0.70914600  0.96956100  1
  C  C18  1  0.32085400  0.33404700  0.39077500  1
  C  C19  1  0.67914600  0.66595300  0.60922500  1
  C  C20  1  0.82365800  0.15087600  0.30877200  1
  C  C21  1  0.17634200  0.84912400  0.69122800  1
  Ni  Ni22  1  0.16885900  0.99036500  0.21138300  1
  Ni  Ni23  1  0.83114100  0.00963500  0.78861700  1
  Ni  Ni24  1  0.06697900  0.30603500  0.11474100  1
  Ni  Ni25  1  0.93302100  0.69396500  0.88525900  1
  Ni  Ni26  1  0.31764500  0.14490900  0.05077500  1
  Ni  Ni27  1  0.68235500  0.85509100  0.94922500  1
  Cu  Cu28  1  0.39931900  0.84931200  0.11957400  1
  Cu  Cu29  1  0.60068100  0.15068800  0.88042600  1
  Cu  Cu30  1  0.08252500  0.70504100  0.38571400  1
  Cu  Cu31  1  0.91747500  0.29495900  0.61428600  1
  Cu  Cu32  1  0.80138500  0.60003000  0.06320200  1
  Cu  Cu33  1  0.19861500  0.39997000  0.93679800  1
