# generated using pymatgen
data_CuNiC3
_symmetry_space_group_name_H-M   'P 1'
_cell_length_a   7.35633100
_cell_length_b   11.68848900
_cell_length_c   13.60193453
_cell_angle_alpha   61.16833658
_cell_angle_beta   90.00000000
_cell_angle_gamma   90.00000000
_symmetry_Int_Tables_number   1
_chemical_formula_structural   CuNiC3
_chemical_formula_sum   'Cu12 Ni12 C36'
_cell_volume   1024.57653904
_cell_formula_units_Z   12
loop_
 _symmetry_equiv_pos_site_id
 _symmetry_equiv_pos_as_xyz
  1  'x, y, z'
loop_
 _atom_site_type_symbol
 _atom_site_label
 _atom_site_symmetry_multiplicity
 _atom_site_fract_x
 _atom_site_fract_y
 _atom_site_fract_z
 _atom_site_occupancy
  Ni  Ni0  1  0.40597800  0.85830500  0.11332300  1
  Ni  Ni1  1  0.59402200  0.14169500  0.88667700  1
  Ni  Ni2  1  0.40597800  0.14169500  0.38667700  1
  Ni  Ni3  1  0.82537800  0.24910500  0.03782400  1
  Ni  Ni4  1  0.87764800  0.45836800  0.65328700  1
  Ni  Ni5  1  0.17462200  0.24910500  0.53782400  1
  Ni  Ni6  1  0.12235200  0.54163200  0.34671300  1
  Ni  Ni7  1  0.17462200  0.75089500  0.96217600  1
  Ni  Ni8  1  0.59402200  0.85830500  0.61332300  1
  Ni  Ni9  1  0.87764800  0.54163200  0.84671300  1
  Ni  Ni10  1  0.82537800  0.75089500  0.46217600  1
  Ni  Ni11  1  0.12235200  0.45836800  0.15328700  1
  Cu  Cu12  1  0.38617500  0.57241600  0.84418700  1
  Cu  Cu13  1  0.69647800  0.19694800  0.59987500  1
  Cu  Cu14  1  0.30352200  0.80305200  0.40012500  1
  Cu  Cu15  1  0.61382500  0.57241600  0.34418700  1
  Cu  Cu16  1  0.61382500  0.42758400  0.15581300  1
  Cu  Cu17  1  0.95145600  0.87265100  0.17762800  1
  Cu  Cu18  1  0.04854400  0.12734900  0.82237200  1
  Cu  Cu19  1  0.69647800  0.80305200  0.90012500  1
  Cu  Cu20  1  0.38617500  0.42758400  0.65581300  1
  Cu  Cu21  1  0.95145600  0.12734900  0.32237200  1
  Cu  Cu22  1  0.04854400  0.87265100  0.67762800  1
  Cu  Cu23  1  0.30352200  0.19694800  0.09987500  1
  C  C24  1  0.28171700  0.09825600  0.29743000  1
  C  C25  1  0.93592500  0.64583300  0.28799000  1
  C  C26  1  0.28171700  0.90174400  0.20257000  1
  C  C27  1  0.78872600  0.81847200  0.55447200  1
  C  C28  1  0.70042100  0.39359500  0.60782500  1
  C  C29  1  0.70042100  0.60640500  0.89217500  1
  C  C30  1  0.37863100  0.71981800  0.91309100  1
  C  C31  1  0.29957900  0.39359500  0.10782500  1
  C  C32  1  0.58350700  0.74765100  0.16760300  1
  C  C33  1  0.62136900  0.28018200  0.08690900  1
  C  C34  1  0.58350700  0.25234900  0.33239700  1
  C  C35  1  0.96714800  0.13602600  0.14570800  1
  C  C36  1  0.03285200  0.86397400  0.85429200  1
  C  C37  1  0.78872600  0.18152800  0.94552800  1
  C  C38  1  0.96285400  0.60885700  0.54015900  1
  C  C39  1  0.41649300  0.74765100  0.66760300  1
  C  C40  1  0.29957900  0.60640500  0.39217500  1
  C  C41  1  0.37863100  0.28018200  0.58690900  1
  C  C42  1  0.21127400  0.81847200  0.05447200  1
  C  C43  1  0.21127400  0.18152800  0.44552800  1
  C  C44  1  0.76623500  0.50000000  0.75000000  1
  C  C45  1  0.96285400  0.39114300  0.95984100  1
  C  C46  1  0.03285200  0.13602600  0.64570800  1
  C  C47  1  0.93592500  0.35416700  0.21201000  1
  C  C48  1  0.71828300  0.09825600  0.79743000  1
  C  C49  1  0.50000000  0.00000000  0.50000000  1
  C  C50  1  0.23376500  0.50000000  0.25000000  1
  C  C51  1  0.96714800  0.86397400  0.35429200  1
  C  C52  1  0.41649300  0.25234900  0.83239700  1
  C  C53  1  0.06407500  0.64583300  0.78799000  1
  C  C54  1  0.62136900  0.71981800  0.41309100  1
  C  C55  1  0.03714600  0.60885700  0.04015900  1
  C  C56  1  0.03714600  0.39114300  0.45984100  1
  C  C57  1  0.50000000  0.00000000  0.00000000  1
  C  C58  1  0.06407500  0.35416700  0.71201000  1
  C  C59  1  0.71828300  0.90174400  0.70257000  1
