# generated using pymatgen
data_Cu2Ni2C
_symmetry_space_group_name_H-M   'P 1'
_cell_length_a   3.38044055
_cell_length_b   6.03922286
_cell_length_c   6.03922286
_cell_angle_alpha   106.24359438
_cell_angle_beta   97.16984411
_cell_angle_gamma   97.16984411
_symmetry_Int_Tables_number   1
_chemical_formula_structural   Cu2Ni2C
_chemical_formula_sum   'Cu4 Ni4 C2'
_cell_volume   115.78211136
_cell_formula_units_Z   2
loop_
 _symmetry_equiv_pos_site_id
 _symmetry_equiv_pos_as_xyz
  1  'x, y, z'
loop_
 _atom_site_type_symbol
 _atom_site_label
 _atom_site_symmetry_multiplicity
 _atom_site_fract_x
 _atom_site_fract_y
 _atom_site_fract_z
 _atom_site_occupancy
  C  C0  1  0.00000000  0.64728300  0.35271700  1
  C  C1  1  0.00000000  0.35271700  0.64728300  1
  Ni  Ni2  1  0.50000000  0.89217600  0.10782400  1
  Ni  Ni3  1  0.33521400  0.86125200  0.86125200  1
  Ni  Ni4  1  0.50000000  0.10782400  0.89217600  1
  Ni  Ni5  1  0.66478600  0.13874800  0.13874800  1
  Cu  Cu6  1  0.86265000  0.30652800  0.30652800  1
  Cu  Cu7  1  0.50000000  0.23893900  0.76106100  1
  Cu  Cu8  1  0.50000000  0.76106100  0.23893900  1
  Cu  Cu9  1  0.13735000  0.69347200  0.69347200  1
