# generated using pymatgen
data_Cu21Ni4C13
_symmetry_space_group_name_H-M   'P 1'
_cell_length_a   13.36258197
_cell_length_b   13.36258197
_cell_length_c   15.28033891
_cell_angle_alpha   82.81812760
_cell_angle_beta   82.81812760
_cell_angle_gamma   56.49180466
_symmetry_Int_Tables_number   1
_chemical_formula_structural   Cu21Ni4C13
_chemical_formula_sum   'Cu42 Ni8 C26'
_cell_volume   2251.96198067
_cell_formula_units_Z   2
loop_
 _symmetry_equiv_pos_site_id
 _symmetry_equiv_pos_as_xyz
  1  'x, y, z'
loop_
 _atom_site_type_symbol
 _atom_site_label
 _atom_site_symmetry_multiplicity
 _atom_site_fract_x
 _atom_site_fract_y
 _atom_site_fract_z
 _atom_site_occupancy
  C  C0  1  0.97274300  0.02725700  0.25000000  1
  C  C1  1  0.02725700  0.97274300  0.75000000  1
  C  C2  1  0.35030400  0.85988400  0.45249300  1
  C  C3  1  0.14011600  0.64969600  0.04750700  1
  C  C4  1  0.64969600  0.14011600  0.54750700  1
  C  C5  1  0.85988400  0.35030400  0.95249300  1
  C  C6  1  0.75451600  0.50369800  0.37129400  1
  C  C7  1  0.23277200  0.95972000  0.98345700  1
  C  C8  1  0.64802400  0.91921600  0.19982000  1
  C  C9  1  0.75182500  0.49448900  0.61849700  1
  C  C10  1  0.62606200  0.90039300  0.95961700  1
  C  C11  1  0.90039300  0.62606200  0.45961700  1
  C  C12  1  0.50369800  0.75451600  0.87129400  1
  C  C13  1  0.24817500  0.50551100  0.38150300  1
  C  C14  1  0.08078400  0.35197600  0.30018000  1
  C  C15  1  0.76722800  0.04028000  0.01654300  1
  C  C16  1  0.49448900  0.75182500  0.11849700  1
  C  C17  1  0.37393800  0.09960700  0.04038300  1
  C  C18  1  0.50551100  0.24817500  0.88150300  1
  C  C19  1  0.24548400  0.49630200  0.62870600  1
  C  C20  1  0.35197600  0.08078400  0.80018000  1
  C  C21  1  0.04028000  0.76722800  0.51654300  1
  C  C22  1  0.95972000  0.23277200  0.48345700  1
  C  C23  1  0.91921600  0.64802400  0.69982000  1
  C  C24  1  0.09960700  0.37393800  0.54038300  1
  C  C25  1  0.49630200  0.24548400  0.12870600  1
  Ni  Ni26  1  0.54857400  0.12016800  0.00202700  1
  Ni  Ni27  1  0.03448600  0.59098600  0.57640000  1
  Ni  Ni28  1  0.40901400  0.96551400  0.92360000  1
  Ni  Ni29  1  0.96551400  0.40901400  0.42360000  1
  Ni  Ni30  1  0.59098600  0.03448600  0.07640000  1
  Ni  Ni31  1  0.12016800  0.54857400  0.50202700  1
  Ni  Ni32  1  0.45142600  0.87983200  0.99797300  1
  Ni  Ni33  1  0.87983200  0.45142600  0.49797300  1
  Cu  Cu34  1  0.71717200  0.72623600  0.10239900  1
  Cu  Cu35  1  0.77759800  0.28824800  0.38651000  1
  Cu  Cu36  1  0.26314000  0.81248000  0.13398900  1
  Cu  Cu37  1  0.94309300  0.42715600  0.72189000  1
  Cu  Cu38  1  0.81248000  0.26314000  0.63398900  1
  Cu  Cu39  1  0.28824800  0.77759800  0.88651000  1
  Cu  Cu40  1  0.86935200  0.87713700  0.16130600  1
  Cu  Cu41  1  0.57284400  0.05690700  0.77811000  1
  Cu  Cu42  1  0.71175200  0.22240200  0.11349000  1
  Cu  Cu43  1  0.43117800  0.88868900  0.71035200  1
  Cu  Cu44  1  0.26756900  0.29270100  0.14659700  1
  Cu  Cu45  1  0.28282800  0.27376400  0.89760100  1
  Cu  Cu46  1  0.57873300  0.57379400  0.51036800  1
  Cu  Cu47  1  0.14202100  0.14841400  0.07907400  1
  Cu  Cu48  1  0.61117000  0.55259800  0.77753300  1
  Cu  Cu49  1  0.57379400  0.57873300  0.01036800  1
  Cu  Cu50  1  0.18752000  0.73686000  0.36601100  1
  Cu  Cu51  1  0.73243100  0.70729900  0.85340300  1
  Cu  Cu52  1  0.22240200  0.71175200  0.61349000  1
  Cu  Cu53  1  0.11131100  0.56882200  0.78964800  1
  Cu  Cu54  1  0.13064800  0.12286300  0.83869400  1
  Cu  Cu55  1  0.29270100  0.26756900  0.64659700  1
  Cu  Cu56  1  0.42715600  0.94309300  0.22189000  1
  Cu  Cu57  1  0.88868900  0.43117800  0.21035200  1
  Cu  Cu58  1  0.44740200  0.38883000  0.72246700  1
  Cu  Cu59  1  0.70729900  0.73243100  0.35340300  1
  Cu  Cu60  1  0.87713700  0.86935200  0.66130600  1
  Cu  Cu61  1  0.00000000  0.00000000  0.00000000  1
  Cu  Cu62  1  0.85797900  0.85158600  0.92092600  1
  Cu  Cu63  1  0.42126700  0.42620600  0.48963200  1
  Cu  Cu64  1  0.42620600  0.42126700  0.98963200  1
  Cu  Cu65  1  0.05690700  0.57284400  0.27811000  1
  Cu  Cu66  1  0.55259800  0.61117000  0.27753300  1
  Cu  Cu67  1  0.56882200  0.11131100  0.28964800  1
  Cu  Cu68  1  0.85158600  0.85797900  0.42092600  1
  Cu  Cu69  1  0.72623600  0.71717200  0.60239900  1
  Cu  Cu70  1  0.12286300  0.13064800  0.33869400  1
  Cu  Cu71  1  0.73686000  0.18752000  0.86601100  1
  Cu  Cu72  1  0.27376400  0.28282800  0.39760100  1
  Cu  Cu73  1  0.38883000  0.44740200  0.22246700  1
  Cu  Cu74  1  0.14841400  0.14202100  0.57907400  1
  Cu  Cu75  1  0.00000000  0.00000000  0.50000000  1
