# generated using pymatgen
data_Cu3Ni3C8
_symmetry_space_group_name_H-M   'P 1'
_cell_length_a   7.74714000
_cell_length_b   11.74736500
_cell_length_c   12.29000769
_cell_angle_alpha   69.09239333
_cell_angle_beta   90.00000000
_cell_angle_gamma   90.00000000
_symmetry_Int_Tables_number   1
_chemical_formula_structural   Cu3Ni3C8
_chemical_formula_sum   'Cu12 Ni12 C32'
_cell_volume   1044.84998993
_cell_formula_units_Z   4
loop_
 _symmetry_equiv_pos_site_id
 _symmetry_equiv_pos_as_xyz
  1  'x, y, z'
loop_
 _atom_site_type_symbol
 _atom_site_label
 _atom_site_symmetry_multiplicity
 _atom_site_fract_x
 _atom_site_fract_y
 _atom_site_fract_z
 _atom_site_occupancy
  C  C0  1  0.85386800  0.38145200  0.67696400  1
  C  C1  1  0.64914800  0.66848600  0.87180300  1
  C  C2  1  0.64914800  0.83151400  0.12819700  1
  C  C3  1  0.39571400  0.25000000  0.50000000  1
  C  C4  1  0.14613200  0.88145200  0.67696400  1
  C  C5  1  0.60428600  0.75000000  0.50000000  1
  C  C6  1  0.14613200  0.61854800  0.32303600  1
  C  C7  1  0.35085200  0.16848600  0.87180300  1
  C  C8  1  0.13093800  0.75000000  0.00000000  1
  C  C9  1  0.35085200  0.33151400  0.12819700  1
  C  C10  1  0.86906200  0.25000000  0.00000000  1
  C  C11  1  0.85386800  0.11854800  0.32303600  1
  C  C12  1  0.76541000  0.47152500  0.22080900  1
  C  C13  1  0.23459000  0.52847500  0.77919100  1
  C  C14  1  0.23459000  0.97152500  0.22080900  1
  C  C15  1  0.76541000  0.02847500  0.77919100  1
  Ni  Ni16  1  0.00469500  0.38604300  0.28580700  1
  Ni  Ni17  1  0.47584600  0.05456900  0.16387500  1
  Ni  Ni18  1  0.52415400  0.94543100  0.83612500  1
  Ni  Ni19  1  0.99530500  0.88604300  0.28580700  1
  Ni  Ni20  1  0.73336800  0.50321500  0.37457000  1
  Ni  Ni21  1  0.00469500  0.11395700  0.71419300  1
  Ni  Ni22  1  0.47584600  0.44543100  0.83612500  1
  Ni  Ni23  1  0.52415400  0.55456900  0.16387500  1
  Ni  Ni24  1  0.26663200  0.00321500  0.37457000  1
  Ni  Ni25  1  0.99530500  0.61395700  0.71419300  1
  Ni  Ni26  1  0.73336800  0.99678500  0.62543000  1
  Ni  Ni27  1  0.26663200  0.49678500  0.62543000  1
  Cu  Cu28  1  0.28002500  0.02591500  0.45985400  1
  Cu  Cu29  1  0.13729300  0.16116700  0.67839400  1
  Cu  Cu30  1  0.38806600  0.90359300  0.87000700  1
  Cu  Cu31  1  0.86270700  0.66116700  0.67839400  1
  Cu  Cu32  1  0.86270700  0.83883300  0.32160600  1
  Cu  Cu33  1  0.61193400  0.09640700  0.12999300  1
  Cu  Cu34  1  0.38806600  0.59640700  0.12999300  1
  Cu  Cu35  1  0.28002500  0.47408500  0.54014600  1
  Cu  Cu36  1  0.13729300  0.33883300  0.32160600  1
  Cu  Cu37  1  0.71997500  0.52591500  0.45985400  1
  Cu  Cu38  1  0.61193400  0.40359300  0.87000700  1
  Cu  Cu39  1  0.71997500  0.97408500  0.54014600  1
  C  C40  1  0.35370000  0.81582100  0.29053600  1
  C  C41  1  0.87410300  0.63161000  0.16028300  1
  C  C42  1  0.35370000  0.68417900  0.70946400  1
  C  C43  1  0.13230900  0.07137200  0.07538400  1
  C  C44  1  0.29686100  0.83881000  0.17163500  1
  C  C45  1  0.86769100  0.92862800  0.92461600  1
  C  C46  1  0.12589700  0.13161000  0.16028300  1
  C  C47  1  0.29686100  0.66119000  0.82836500  1
  C  C48  1  0.87410300  0.86839000  0.83971700  1
  C  C49  1  0.64630000  0.18417900  0.70946400  1
  C  C50  1  0.86769100  0.57137200  0.07538400  1
  C  C51  1  0.12589700  0.36839000  0.83971700  1
  C  C52  1  0.13230900  0.42862800  0.92461600  1
  C  C53  1  0.64630000  0.31582100  0.29053600  1
  C  C54  1  0.70313900  0.33881000  0.17163500  1
  C  C55  1  0.70313900  0.16119000  0.82836500  1
