# generated using pymatgen
data_Cu(Ni2C3)2
_symmetry_space_group_name_H-M   'P 1'
_cell_length_a   10.19499055
_cell_length_b   10.19499055
_cell_length_c   10.19498985
_cell_angle_alpha   90.15911773
_cell_angle_beta   90.15911773
_cell_angle_gamma   90.15911643
_symmetry_Int_Tables_number   1
_chemical_formula_structural   Cu(Ni2C3)2
_chemical_formula_sum   'Cu2 Ni8 C12'
_cell_volume   1059.63286317
_cell_formula_units_Z   2
loop_
 _symmetry_equiv_pos_site_id
 _symmetry_equiv_pos_as_xyz
  1  'x, y, z'
loop_
 _atom_site_type_symbol
 _atom_site_label
 _atom_site_symmetry_multiplicity
 _atom_site_fract_x
 _atom_site_fract_y
 _atom_site_fract_z
 _atom_site_occupancy
  Ni  Ni0  1  0.86963400  0.25000000  0.63036600  1
  Ni  Ni1  1  0.36963400  0.13036600  0.75000000  1
  Ni  Ni2  1  0.75000000  0.36963400  0.13036600  1
  Ni  Ni3  1  0.13036600  0.75000000  0.36963400  1
  Ni  Ni4  1  0.25000000  0.25000000  0.25000000  1
  Ni  Ni5  1  0.63036600  0.86963400  0.25000000  1
  Ni  Ni6  1  0.25000000  0.63036600  0.86963400  1
  Ni  Ni7  1  0.75000000  0.75000000  0.75000000  1
  Cu  Cu8  1  0.50000000  0.50000000  0.50000000  1
  Cu  Cu9  1  0.00000000  0.00000000  0.00000000  1
  C  C10  1  0.71098200  0.05729400  0.93272100  1
  C  C11  1  0.28901800  0.94270600  0.06727900  1
  C  C12  1  0.56727900  0.44270600  0.78901800  1
  C  C13  1  0.06727900  0.28901800  0.94270600  1
  C  C14  1  0.21098200  0.43272100  0.55729400  1
  C  C15  1  0.78901800  0.56727900  0.44270600  1
  C  C16  1  0.05729400  0.93272100  0.71098200  1
  C  C17  1  0.43272100  0.55729400  0.21098200  1
  C  C18  1  0.55729400  0.21098200  0.43272100  1
  C  C19  1  0.44270600  0.78901800  0.56727900  1
  C  C20  1  0.93272100  0.71098200  0.05729400  1
  C  C21  1  0.94270600  0.06727900  0.28901800  1
