# generated using pymatgen
data_Cu3NiC6
_symmetry_space_group_name_H-M   'P 1'
_cell_length_a   12.03176100
_cell_length_b   11.52473900
_cell_length_c   17.94022045
_cell_angle_alpha   51.73283590
_cell_angle_beta   90.00000000
_cell_angle_gamma   90.00000000
_symmetry_Int_Tables_number   1
_chemical_formula_structural   Cu3NiC6
_chemical_formula_sum   'Cu24 Ni8 C48'
_cell_volume   1953.12678395
_cell_formula_units_Z   8
loop_
 _symmetry_equiv_pos_site_id
 _symmetry_equiv_pos_as_xyz
  1  'x, y, z'
loop_
 _atom_site_type_symbol
 _atom_site_label
 _atom_site_symmetry_multiplicity
 _atom_site_fract_x
 _atom_site_fract_y
 _atom_site_fract_z
 _atom_site_occupancy
  C  C0  1  0.93791500  0.50085300  0.36999900  1
  C  C1  1  0.06208500  0.49914700  0.63000100  1
  C  C2  1  0.83599700  0.48816400  0.06323400  1
  C  C3  1  0.43791500  0.49914700  0.13000100  1
  C  C4  1  0.44334400  0.98669700  0.65025300  1
  C  C5  1  0.66400300  0.48816400  0.56323400  1
  C  C6  1  0.33599700  0.51183600  0.43676600  1
  C  C7  1  0.94334400  0.01330300  0.84974700  1
  C  C8  1  0.15618300  0.21260500  0.26574800  1
  C  C9  1  0.34381700  0.21260500  0.76574800  1
  C  C10  1  0.56208500  0.50085300  0.86999900  1
  C  C11  1  0.84381700  0.78739500  0.73425200  1
  C  C12  1  0.16400300  0.51183600  0.93676600  1
  C  C13  1  0.65618300  0.78739500  0.23425200  1
  C  C14  1  0.55665600  0.01330300  0.34974700  1
  C  C15  1  0.05665600  0.98669700  0.15025300  1
  C  C16  1  0.10602600  0.18058200  0.61187100  1
  C  C17  1  0.09901000  0.64033500  0.09552300  1
  C  C18  1  0.90099000  0.35966500  0.90447700  1
  C  C19  1  0.40099000  0.64033500  0.59552300  1
  C  C20  1  0.39397400  0.18058200  0.11187100  1
  C  C21  1  0.60602600  0.81941800  0.88812900  1
  C  C22  1  0.89397400  0.81941800  0.38812900  1
  C  C23  1  0.59901000  0.35966500  0.40447700  1
  C  C24  1  0.67358700  0.18465100  0.47626500  1
  C  C25  1  0.40055300  0.15207500  0.02292900  1
  C  C26  1  0.17358700  0.81534900  0.02373500  1
  C  C27  1  0.32641300  0.81534900  0.52373500  1
  C  C28  1  0.82641300  0.18465100  0.97626500  1
  C  C29  1  0.09944700  0.15207500  0.52292900  1
  C  C30  1  0.59944700  0.84792500  0.97707100  1
  C  C31  1  0.90055300  0.84792500  0.47707100  1
  C  C32  1  0.38725400  0.91189100  0.24595000  1
  C  C33  1  0.93283400  0.75942500  0.10361800  1
  C  C34  1  0.31540600  0.57519700  0.74270700  1
  C  C35  1  0.88725400  0.08810900  0.25405000  1
  C  C36  1  0.56716600  0.75942500  0.60361800  1
  C  C37  1  0.10006400  0.81222700  0.38031600  1
  C  C38  1  0.11274600  0.91189100  0.74595000  1
  C  C39  1  0.61274600  0.08810900  0.75405000  1
  C  C40  1  0.68459400  0.42480300  0.25729300  1
  C  C41  1  0.60006400  0.18777300  0.11968400  1
  C  C42  1  0.43283400  0.24057500  0.39638200  1
  C  C43  1  0.89993600  0.18777300  0.61968400  1
  C  C44  1  0.39993600  0.81222700  0.88031600  1
  C  C45  1  0.18459400  0.57519700  0.24270700  1
  C  C46  1  0.81540600  0.42480300  0.75729300  1
  C  C47  1  0.06716600  0.24057500  0.89638200  1
  Ni  Ni48  1  0.09209100  0.13558400  0.46455500  1
  Ni  Ni49  1  0.28021500  0.93022400  0.47876100  1
  Ni  Ni50  1  0.40790900  0.13558400  0.96455500  1
  Ni  Ni51  1  0.21978500  0.93022400  0.97876100  1
  Ni  Ni52  1  0.90790900  0.86441600  0.53544500  1
  Ni  Ni53  1  0.78021500  0.06977600  0.02123900  1
  Ni  Ni54  1  0.59209100  0.86441600  0.03544500  1
  Ni  Ni55  1  0.71978500  0.06977600  0.52123900  1
  Cu  Cu56  1  0.38932000  0.21787500  0.21350300  1
  Cu  Cu57  1  0.51320700  0.56129000  0.32290100  1
  Cu  Cu58  1  0.89251800  0.59686600  0.48141900  1
  Cu  Cu59  1  0.22667000  0.19585400  0.11410300  1
  Cu  Cu60  1  0.10748200  0.40313400  0.51858100  1
  Cu  Cu61  1  0.77333000  0.80414600  0.88589700  1
  Cu  Cu62  1  0.97182300  0.34194100  0.01354800  1
  Cu  Cu63  1  0.21395600  0.51498000  0.09278000  1
  Cu  Cu64  1  0.28604400  0.51498000  0.59278000  1
  Cu  Cu65  1  0.47182300  0.65805900  0.48645200  1
  Cu  Cu66  1  0.11068000  0.21787500  0.71350300  1
  Cu  Cu67  1  0.02817700  0.65805900  0.98645200  1
  Cu  Cu68  1  0.52817700  0.34194100  0.51354800  1
  Cu  Cu69  1  0.60748200  0.59686600  0.98141900  1
  Cu  Cu70  1  0.48679300  0.43871000  0.67709900  1
  Cu  Cu71  1  0.71395600  0.48502000  0.40722000  1
  Cu  Cu72  1  0.01320700  0.43871000  0.17709900  1
  Cu  Cu73  1  0.78604400  0.48502000  0.90722000  1
  Cu  Cu74  1  0.27333000  0.19585400  0.61410300  1
  Cu  Cu75  1  0.98679300  0.56129000  0.82290100  1
  Cu  Cu76  1  0.72667000  0.80414600  0.38589700  1
  Cu  Cu77  1  0.88932000  0.78212500  0.28649700  1
  Cu  Cu78  1  0.61068000  0.78212500  0.78649700  1
  Cu  Cu79  1  0.39251800  0.40313400  0.01858100  1
