# generated using pymatgen
data_Cu9NiC36
_symmetry_space_group_name_H-M   'P 1'
_cell_length_a   13.90664939
_cell_length_b   13.90664939
_cell_length_c   13.90664872
_cell_angle_alpha   44.09217819
_cell_angle_beta   44.09217819
_cell_angle_gamma   44.09217907
_symmetry_Int_Tables_number   1
_chemical_formula_structural   Cu9NiC36
_chemical_formula_sum   'Cu18 Ni2 C72'
_cell_volume   1182.91560499
_cell_formula_units_Z   2
loop_
 _symmetry_equiv_pos_site_id
 _symmetry_equiv_pos_as_xyz
  1  'x, y, z'
loop_
 _atom_site_type_symbol
 _atom_site_label
 _atom_site_symmetry_multiplicity
 _atom_site_fract_x
 _atom_site_fract_y
 _atom_site_fract_z
 _atom_site_occupancy
  Ni  Ni0  1  0.17804000  0.17804000  0.17804000  1
  Ni  Ni1  1  0.67804000  0.67804000  0.67804000  1
  Cu  Cu2  1  0.16007700  0.56502800  0.57669200  1
  Cu  Cu3  1  0.35329800  0.90678400  0.93440500  1
  Cu  Cu4  1  0.90678400  0.93440500  0.35329800  1
  Cu  Cu5  1  0.96963200  0.94994100  0.55873700  1
  Cu  Cu6  1  0.66007700  0.07669200  0.06502800  1
  Cu  Cu7  1  0.55873700  0.96963200  0.94994100  1
  Cu  Cu8  1  0.46963200  0.05873700  0.44994100  1
  Cu  Cu9  1  0.93440500  0.35329800  0.90678400  1
  Cu  Cu10  1  0.40678400  0.85329800  0.43440500  1
  Cu  Cu11  1  0.57669200  0.16007700  0.56502800  1
  Cu  Cu12  1  0.56502800  0.57669200  0.16007700  1
  Cu  Cu13  1  0.43440500  0.40678400  0.85329800  1
  Cu  Cu14  1  0.44994100  0.46963200  0.05873700  1
  Cu  Cu15  1  0.05873700  0.44994100  0.46963200  1
  Cu  Cu16  1  0.07669200  0.06502800  0.66007700  1
  Cu  Cu17  1  0.85329800  0.43440500  0.40678400  1
  Cu  Cu18  1  0.06502800  0.66007700  0.07669200  1
  Cu  Cu19  1  0.94994100  0.55873700  0.96963200  1
  C  C20  1  0.00204600  0.00204600  0.00204600  1
  C  C21  1  0.50204600  0.50204600  0.50204600  1
  C  C22  1  0.18617300  0.68633200  0.72564100  1
  C  C23  1  0.22564100  0.18633200  0.68617300  1
  C  C24  1  0.26872700  0.83069100  0.30554400  1
  C  C25  1  0.33069100  0.76872700  0.80554400  1
  C  C26  1  0.72564100  0.18617300  0.68633200  1
  C  C27  1  0.18633200  0.68617300  0.22564100  1
  C  C28  1  0.68633200  0.72564100  0.18617300  1
  C  C29  1  0.68617300  0.22564100  0.18633200  1
  C  C30  1  0.76686800  0.76686800  0.76686800  1
  C  C31  1  0.30554400  0.26872700  0.83069100  1
  C  C32  1  0.76872700  0.80554400  0.33069100  1
  C  C33  1  0.26686800  0.26686800  0.26686800  1
  C  C34  1  0.83069100  0.30554400  0.26872700  1
  C  C35  1  0.80554400  0.33069100  0.76872700  1
  C  C36  1  0.17256600  0.61516100  0.18916700  1
  C  C37  1  0.11516100  0.67256600  0.68916700  1
  C  C38  1  0.39851000  0.08955500  0.64619400  1
  C  C39  1  0.15569900  0.86914000  0.87576900  1
  C  C40  1  0.37576900  0.36914000  0.65569900  1
  C  C41  1  0.08955500  0.64619400  0.39851000  1
  C  C42  1  0.36309100  0.62196500  0.63807500  1
  C  C43  1  0.65569900  0.37576900  0.36914000  1
  C  C44  1  0.13259800  0.34532500  0.88149900  1
  C  C45  1  0.33724500  0.24870100  0.93283200  1
  C  C46  1  0.25492000  0.11170700  0.39440900  1
  C  C47  1  0.39440900  0.25492000  0.11170700  1
  C  C48  1  0.33823100  0.60773100  0.89279400  1
  C  C49  1  0.38149900  0.84532500  0.63259800  1
  C  C50  1  0.93283200  0.33724500  0.24870100  1
  C  C51  1  0.74870100  0.83724500  0.43283200  1
  C  C52  1  0.89851000  0.14619400  0.58955500  1
  C  C53  1  0.14619400  0.58955500  0.89851000  1
  C  C54  1  0.84532500  0.63259800  0.38149900  1
  C  C55  1  0.67204200  0.12498700  0.85713800  1
  C  C56  1  0.60773100  0.89279400  0.33823100  1
  C  C57  1  0.30819400  0.30819400  0.30819400  1
  C  C58  1  0.10773100  0.83823100  0.39279400  1
  C  C59  1  0.35713800  0.62498700  0.17204200  1
  C  C60  1  0.63259800  0.38149900  0.84532500  1
  C  C61  1  0.83724500  0.43283200  0.74870100  1
  C  C62  1  0.13807500  0.12196500  0.86309100  1
  C  C63  1  0.75492000  0.89440900  0.61170700  1
  C  C64  1  0.39279400  0.10773100  0.83823100  1
  C  C65  1  0.67256600  0.68916700  0.11516100  1
  C  C66  1  0.34532500  0.88149900  0.13259800  1
  C  C67  1  0.36914000  0.65569900  0.37576900  1
  C  C68  1  0.58955500  0.89851000  0.14619400  1
  C  C69  1  0.89279400  0.33823100  0.60773100  1
  C  C70  1  0.64619400  0.39851000  0.08955500  1
  C  C71  1  0.11170700  0.39440900  0.25492000  1
  C  C72  1  0.63807500  0.36309100  0.62196500  1
  C  C73  1  0.88149900  0.13259800  0.34532500  1
  C  C74  1  0.62498700  0.17204200  0.35713800  1
  C  C75  1  0.61516100  0.18916700  0.17256600  1
  C  C76  1  0.18916700  0.17256600  0.61516100  1
  C  C77  1  0.12498700  0.85713800  0.67204200  1
  C  C78  1  0.87576900  0.15569900  0.86914000  1
  C  C79  1  0.68916700  0.11516100  0.67256600  1
  C  C80  1  0.86914000  0.87576900  0.15569900  1
  C  C81  1  0.61170700  0.75492000  0.89440900  1
  C  C82  1  0.43283200  0.74870100  0.83724500  1
  C  C83  1  0.89440900  0.61170700  0.75492000  1
  C  C84  1  0.62196500  0.63807500  0.36309100  1
  C  C85  1  0.83823100  0.39279400  0.10773100  1
  C  C86  1  0.17204200  0.35713800  0.62498700  1
  C  C87  1  0.85713800  0.67204200  0.12498700  1
  C  C88  1  0.24870100  0.93283200  0.33724500  1
  C  C89  1  0.86309100  0.13807500  0.12196500  1
  C  C90  1  0.12196500  0.86309100  0.13807500  1
  C  C91  1  0.80819400  0.80819400  0.80819400  1
