# generated using pymatgen
data_CuNi12C7
_symmetry_space_group_name_H-M   'P 1'
_cell_length_a   10.43498740
_cell_length_b   10.43498740
_cell_length_c   6.84493200
_cell_angle_alpha   90.00000000
_cell_angle_beta   90.00000000
_cell_angle_gamma   119.99999618
_symmetry_Int_Tables_number   1
_chemical_formula_structural   CuNi12C7
_chemical_formula_sum   'Cu2 Ni24 C14'
_cell_volume   645.48126914
_cell_formula_units_Z   2
loop_
 _symmetry_equiv_pos_site_id
 _symmetry_equiv_pos_as_xyz
  1  'x, y, z'
loop_
 _atom_site_type_symbol
 _atom_site_label
 _atom_site_symmetry_multiplicity
 _atom_site_fract_x
 _atom_site_fract_y
 _atom_site_fract_z
 _atom_site_occupancy
  C  C0  1  0.07574800  0.53787400  0.20266600  1
  C  C1  1  0.46212600  0.92425200  0.20266600  1
  C  C2  1  0.53787400  0.07574800  0.70266600  1
  C  C3  1  0.92425200  0.46212600  0.70266600  1
  C  C4  1  0.46212600  0.53787400  0.20266600  1
  C  C5  1  0.53787400  0.46212600  0.70266600  1
  C  C6  1  0.30950100  0.15475100  0.93562300  1
  C  C7  1  0.84524900  0.15475100  0.93562300  1
  C  C8  1  0.33333300  0.66666700  0.76825200  1
  C  C9  1  0.84524900  0.69049900  0.93562300  1
  C  C10  1  0.69049900  0.84524900  0.43562300  1
  C  C11  1  0.66666700  0.33333300  0.26825200  1
  C  C12  1  0.15475100  0.84524900  0.43562300  1
  C  C13  1  0.15475100  0.30950100  0.43562300  1
  Ni  Ni14  1  0.33664600  0.41697200  0.50556200  1
  Ni  Ni15  1  0.91967400  0.33664600  0.00556200  1
  Ni  Ni16  1  0.41939800  0.83879700  0.88186600  1
  Ni  Ni17  1  0.33664600  0.91967400  0.50556200  1
  Ni  Ni18  1  0.63575100  0.81787500  0.19469100  1
  Ni  Ni19  1  0.41939800  0.58060200  0.88186600  1
  Ni  Ni20  1  0.18212500  0.81787500  0.19469100  1
  Ni  Ni21  1  0.66335400  0.58302800  0.00556200  1
  Ni  Ni22  1  0.83879700  0.41939800  0.38186600  1
  Ni  Ni23  1  0.41697200  0.33664600  0.00556200  1
  Ni  Ni24  1  0.36424900  0.18212500  0.69469100  1
  Ni  Ni25  1  0.58060200  0.41939800  0.38186600  1
  Ni  Ni26  1  0.66335400  0.08032600  0.00556200  1
  Ni  Ni27  1  0.58060200  0.16120300  0.38186600  1
  Ni  Ni28  1  0.81787500  0.63575100  0.69469100  1
  Ni  Ni29  1  0.58302800  0.91967400  0.50556200  1
  Ni  Ni30  1  0.81787500  0.18212500  0.69469100  1
  Ni  Ni31  1  0.08032600  0.41697200  0.50556200  1
  Ni  Ni32  1  0.16120300  0.58060200  0.88186600  1
  Ni  Ni33  1  0.18212500  0.36424900  0.19469100  1
  Ni  Ni34  1  0.91967400  0.58302800  0.00556200  1
  Ni  Ni35  1  0.08032600  0.66335400  0.50556200  1
  Ni  Ni36  1  0.41697200  0.08032600  0.00556200  1
  Ni  Ni37  1  0.58302800  0.66335400  0.50556200  1
  Cu  Cu38  1  0.66666700  0.33333300  0.74880500  1
  Cu  Cu39  1  0.33333300  0.66666700  0.24880500  1
