# generated using pymatgen
data_CuNiC9
_symmetry_space_group_name_H-M   'P 1'
_cell_length_a   7.39461857
_cell_length_b   7.39461857
_cell_length_c   24.82229485
_cell_angle_alpha   81.83081973
_cell_angle_beta   81.83081973
_cell_angle_gamma   60.37598149
_symmetry_Int_Tables_number   1
_chemical_formula_structural   CuNiC9
_chemical_formula_sum   'Cu8 Ni8 C72'
_cell_volume   1163.82591600
_cell_formula_units_Z   8
loop_
 _symmetry_equiv_pos_site_id
 _symmetry_equiv_pos_as_xyz
  1  'x, y, z'
loop_
 _atom_site_type_symbol
 _atom_site_label
 _atom_site_symmetry_multiplicity
 _atom_site_fract_x
 _atom_site_fract_y
 _atom_site_fract_z
 _atom_site_occupancy
  C  C0  1  0.79121700  0.70380900  0.25110600  1
  C  C1  1  0.29619100  0.20878300  0.24889400  1
  C  C2  1  0.13310600  0.11915700  0.12206700  1
  C  C3  1  0.50000000  0.50000000  0.00000000  1
  C  C4  1  0.21677600  0.78322400  0.75000000  1
  C  C5  1  0.86689400  0.88084300  0.87793300  1
  C  C6  1  0.88084300  0.86689400  0.37793300  1
  C  C7  1  0.50000000  0.00000000  0.00000000  1
  C  C8  1  0.11915700  0.13310600  0.62206700  1
  C  C9  1  0.78322400  0.21677600  0.25000000  1
  C  C10  1  0.00000000  0.00000000  0.50000000  1
  C  C11  1  0.00000000  0.00000000  0.00000000  1
  C  C12  1  0.70380900  0.79121700  0.75110600  1
  C  C13  1  0.50000000  0.50000000  0.50000000  1
  C  C14  1  0.20878300  0.29619100  0.74889400  1
  C  C15  1  0.00000000  0.50000000  0.50000000  1
  Ni  Ni16  1  0.63640000  0.11065900  0.12549300  1
  Ni  Ni17  1  0.88934100  0.36360000  0.37450700  1
  Ni  Ni18  1  0.24982100  0.75017900  0.25000000  1
  Ni  Ni19  1  0.11065900  0.63640000  0.62549300  1
  Ni  Ni20  1  0.00000000  0.50000000  0.00000000  1
  Ni  Ni21  1  0.36360000  0.88934100  0.87450700  1
  Ni  Ni22  1  0.50000000  0.00000000  0.50000000  1
  Ni  Ni23  1  0.75017900  0.24982100  0.75000000  1
  Cu  Cu24  1  0.61347600  0.63157200  0.62753300  1
  Cu  Cu25  1  0.36842800  0.38652400  0.87246700  1
  Cu  Cu26  1  0.63157200  0.61347600  0.12753300  1
  Cu  Cu27  1  0.38795500  0.86535700  0.37403700  1
  Cu  Cu28  1  0.13464300  0.61204500  0.12596300  1
  Cu  Cu29  1  0.61204500  0.13464300  0.62596300  1
  Cu  Cu30  1  0.86535700  0.38795500  0.87403700  1
  Cu  Cu31  1  0.38652400  0.36842800  0.37246700  1
  C  C32  1  0.13973000  0.02349900  0.20971400  1
  C  C33  1  0.92406300  0.53939000  0.60955300  1
  C  C34  1  0.46436600  0.09181500  0.34670500  1
  C  C35  1  0.13679300  0.58101400  0.04556400  1
  C  C36  1  0.20789700  0.12981300  0.53188000  1
  C  C37  1  0.96898200  0.36130100  0.29546500  1
  C  C38  1  0.36291400  0.81471900  0.95394600  1
  C  C39  1  0.29969500  0.33892200  0.64073000  1
  C  C40  1  0.09181500  0.46436600  0.84670500  1
  C  C41  1  0.86320700  0.41898600  0.95443600  1
  C  C42  1  0.41898600  0.86320700  0.45443600  1
  C  C43  1  0.53563400  0.90818500  0.65329500  1
  C  C44  1  0.02349900  0.13973000  0.70971400  1
  C  C45  1  0.81471900  0.36291400  0.45394600  1
  C  C46  1  0.30900200  0.64115500  0.40017900  1
  C  C47  1  0.97650100  0.86027000  0.29028600  1
  C  C48  1  0.63459600  0.52728700  0.70955600  1
  C  C49  1  0.36540400  0.47271300  0.29044400  1
  C  C50  1  0.86275500  0.36346500  0.79363500  1
  C  C51  1  0.93396400  0.92424300  0.10972900  1
  C  C52  1  0.46061000  0.07593700  0.89044700  1
  C  C53  1  0.69099800  0.35884500  0.59982100  1
  C  C54  1  0.86027000  0.97650100  0.79028600  1
  C  C55  1  0.25863000  0.41556500  0.95355400  1
  C  C56  1  0.58101400  0.13679300  0.54556400  1
  C  C57  1  0.33892200  0.29969500  0.14073000  1
  C  C58  1  0.35884500  0.69099800  0.09982100  1
  C  C59  1  0.63653500  0.13724500  0.70636500  1
  C  C60  1  0.64115500  0.30900200  0.90017900  1
  C  C61  1  0.27093000  0.69988000  0.85786500  1
  C  C62  1  0.52728700  0.63459600  0.20955600  1
  C  C63  1  0.69988000  0.27093000  0.35786500  1
  C  C64  1  0.06603600  0.07575700  0.89027100  1
  C  C65  1  0.79210300  0.87018700  0.46812000  1
  C  C66  1  0.72907000  0.30012000  0.14213500  1
  C  C67  1  0.36130100  0.96898200  0.79546500  1
  C  C68  1  0.07575700  0.06603600  0.39027100  1
  C  C69  1  0.70030500  0.66107800  0.35927000  1
  C  C70  1  0.30012000  0.72907000  0.64213500  1
  C  C71  1  0.07593700  0.46061000  0.39044700  1
  C  C72  1  0.58443500  0.74137000  0.54644600  1
  C  C73  1  0.13724500  0.63653500  0.20636500  1
  C  C74  1  0.90818500  0.53563400  0.15329500  1
  C  C75  1  0.03101800  0.63869900  0.70453500  1
  C  C76  1  0.47271300  0.36540400  0.79044400  1
  C  C77  1  0.36346500  0.86275500  0.29363500  1
  C  C78  1  0.74137000  0.58443500  0.04644600  1
  C  C79  1  0.18528100  0.63708600  0.54605400  1
  C  C80  1  0.53939000  0.92406300  0.10955300  1
  C  C81  1  0.87018700  0.79210300  0.96812000  1
  C  C82  1  0.92424300  0.93396400  0.60972900  1
  C  C83  1  0.63869900  0.03101800  0.20453500  1
  C  C84  1  0.41556500  0.25863000  0.45355400  1
  C  C85  1  0.66107800  0.70030500  0.85927000  1
  C  C86  1  0.63708600  0.18528100  0.04605400  1
  C  C87  1  0.12981300  0.20789700  0.03188000  1
