# generated using pymatgen
data_Cu(NiC2)3
_symmetry_space_group_name_H-M   'P 1'
_cell_length_a   9.91842600
_cell_length_b   9.91842600
_cell_length_c   9.91842600
_cell_angle_alpha   90.00000000
_cell_angle_beta   90.00000000
_cell_angle_gamma   90.00000000
_symmetry_Int_Tables_number   1
_chemical_formula_structural   Cu(NiC2)3
_chemical_formula_sum   'Cu8 Ni24 C48'
_cell_volume   975.72688670
_cell_formula_units_Z   8
loop_
 _symmetry_equiv_pos_site_id
 _symmetry_equiv_pos_as_xyz
  1  'x, y, z'
loop_
 _atom_site_type_symbol
 _atom_site_label
 _atom_site_symmetry_multiplicity
 _atom_site_fract_x
 _atom_site_fract_y
 _atom_site_fract_z
 _atom_site_occupancy
  Ni  Ni0  1  0.59495700  0.74340300  0.36403700  1
  Ni  Ni1  1  0.63596300  0.09495700  0.75659700  1
  Ni  Ni2  1  0.36403700  0.59495700  0.74340300  1
  Ni  Ni3  1  0.25659700  0.63596300  0.40504300  1
  Ni  Ni4  1  0.40504300  0.24340300  0.13596300  1
  Ni  Ni5  1  0.86403700  0.59495700  0.75659700  1
  Ni  Ni6  1  0.25659700  0.86403700  0.90504300  1
  Ni  Ni7  1  0.90504300  0.24340300  0.36403700  1
  Ni  Ni8  1  0.24340300  0.13596300  0.40504300  1
  Ni  Ni9  1  0.24340300  0.36403700  0.90504300  1
  Ni  Ni10  1  0.75659700  0.86403700  0.59495700  1
  Ni  Ni11  1  0.13596300  0.40504300  0.24340300  1
  Ni  Ni12  1  0.86403700  0.90504300  0.25659700  1
  Ni  Ni13  1  0.59495700  0.75659700  0.86403700  1
  Ni  Ni14  1  0.36403700  0.90504300  0.24340300  1
  Ni  Ni15  1  0.74340300  0.36403700  0.59495700  1
  Ni  Ni16  1  0.63596300  0.40504300  0.25659700  1
  Ni  Ni17  1  0.09495700  0.75659700  0.63596300  1
  Ni  Ni18  1  0.40504300  0.25659700  0.63596300  1
  Ni  Ni19  1  0.09495700  0.74340300  0.13596300  1
  Ni  Ni20  1  0.75659700  0.63596300  0.09495700  1
  Ni  Ni21  1  0.13596300  0.09495700  0.74340300  1
  Ni  Ni22  1  0.74340300  0.13596300  0.09495700  1
  Ni  Ni23  1  0.90504300  0.25659700  0.86403700  1
  Cu  Cu24  1  0.61701100  0.11701100  0.38298900  1
  Cu  Cu25  1  0.88298900  0.61701100  0.38298900  1
  Cu  Cu26  1  0.11701100  0.38298900  0.61701100  1
  Cu  Cu27  1  0.11701100  0.11701100  0.11701100  1
  Cu  Cu28  1  0.38298900  0.88298900  0.61701100  1
  Cu  Cu29  1  0.61701100  0.38298900  0.88298900  1
  Cu  Cu30  1  0.88298900  0.88298900  0.88298900  1
  Cu  Cu31  1  0.38298900  0.61701100  0.11701100  1
  C  C32  1  0.94724400  0.46270100  0.30286200  1
  C  C33  1  0.44724400  0.03729900  0.69713800  1
  C  C34  1  0.55275600  0.53729900  0.80286200  1
  C  C35  1  0.90820600  0.72109900  0.19568300  1
  C  C36  1  0.46270100  0.19713800  0.44724400  1
  C  C37  1  0.44724400  0.46270100  0.19713800  1
  C  C38  1  0.69713800  0.44724400  0.03729900  1
  C  C39  1  0.80431700  0.09179400  0.27890100  1
  C  C40  1  0.40820600  0.77890100  0.80431700  1
  C  C41  1  0.96270100  0.19713800  0.05275600  1
  C  C42  1  0.55275600  0.96270100  0.30286200  1
  C  C43  1  0.80431700  0.40820600  0.77890100  1
  C  C44  1  0.69568300  0.90820600  0.77890100  1
  C  C45  1  0.94724400  0.03729900  0.80286200  1
  C  C46  1  0.09179400  0.22109900  0.30431700  1
  C  C47  1  0.19568300  0.90820600  0.72109900  1
  C  C48  1  0.46270100  0.30286200  0.94724400  1
  C  C49  1  0.40820600  0.72109900  0.30431700  1
  C  C50  1  0.53729900  0.69713800  0.05275600  1
  C  C51  1  0.03729900  0.80286200  0.94724400  1
  C  C52  1  0.19713800  0.05275600  0.96270100  1
  C  C53  1  0.69713800  0.05275600  0.53729900  1
  C  C54  1  0.22109900  0.30431700  0.09179400  1
  C  C55  1  0.53729900  0.80286200  0.55275600  1
  C  C56  1  0.19713800  0.44724400  0.46270100  1
  C  C57  1  0.59179400  0.22109900  0.19568300  1
  C  C58  1  0.27890100  0.69568300  0.59179400  1
  C  C59  1  0.09179400  0.27890100  0.80431700  1
  C  C60  1  0.69568300  0.59179400  0.27890100  1
  C  C61  1  0.77890100  0.69568300  0.90820600  1
  C  C62  1  0.72109900  0.30431700  0.40820600  1
  C  C63  1  0.05275600  0.53729900  0.69713800  1
  C  C64  1  0.05275600  0.96270100  0.19713800  1
  C  C65  1  0.77890100  0.80431700  0.40820600  1
  C  C66  1  0.90820600  0.77890100  0.69568300  1
  C  C67  1  0.27890100  0.80431700  0.09179400  1
  C  C68  1  0.30431700  0.09179400  0.22109900  1
  C  C69  1  0.80286200  0.55275600  0.53729900  1
  C  C70  1  0.30286200  0.55275600  0.96270100  1
  C  C71  1  0.30286200  0.94724400  0.46270100  1
  C  C72  1  0.03729900  0.69713800  0.44724400  1
  C  C73  1  0.96270100  0.30286200  0.55275600  1
  C  C74  1  0.22109900  0.19568300  0.59179400  1
  C  C75  1  0.30431700  0.40820600  0.72109900  1
  C  C76  1  0.19568300  0.59179400  0.22109900  1
  C  C77  1  0.59179400  0.27890100  0.69568300  1
  C  C78  1  0.80286200  0.94724400  0.03729900  1
  C  C79  1  0.72109900  0.19568300  0.90820600  1
