# generated using pymatgen
data_Cu3Ni2C3
_symmetry_space_group_name_H-M   'P 1'
_cell_length_a   10.61818742
_cell_length_b   10.61818742
_cell_length_c   15.09912100
_cell_angle_alpha   90.00000000
_cell_angle_beta   90.00000000
_cell_angle_gamma   142.07739610
_symmetry_Int_Tables_number   1
_chemical_formula_structural   Cu3Ni2C3
_chemical_formula_sum   'Cu12 Ni8 C12'
_cell_volume   1046.26690980
_cell_formula_units_Z   4
loop_
 _symmetry_equiv_pos_site_id
 _symmetry_equiv_pos_as_xyz
  1  'x, y, z'
loop_
 _atom_site_type_symbol
 _atom_site_label
 _atom_site_symmetry_multiplicity
 _atom_site_fract_x
 _atom_site_fract_y
 _atom_site_fract_z
 _atom_site_occupancy
  C  C0  1  0.61396000  0.93023500  0.67585900  1
  C  C1  1  0.56976500  0.88604000  0.17585900  1
  C  C2  1  0.06976500  0.38604000  0.32414100  1
  C  C3  1  0.11396000  0.43023500  0.82414100  1
  C  C4  1  0.65114300  0.65114300  0.86241200  1
  C  C5  1  0.43023500  0.11396000  0.82414100  1
  C  C6  1  0.34885700  0.34885700  0.13758800  1
  C  C7  1  0.93023500  0.61396000  0.67585900  1
  C  C8  1  0.15114300  0.15114300  0.63758800  1
  C  C9  1  0.88604000  0.56976500  0.17585900  1
  C  C10  1  0.84885700  0.84885700  0.36241200  1
  C  C11  1  0.38604000  0.06976500  0.32414100  1
  Ni  Ni12  1  0.23870000  0.76130000  0.50000000  1
  Ni  Ni13  1  0.26130000  0.73870000  0.00000000  1
  Ni  Ni14  1  0.73870000  0.26130000  0.00000000  1
  Ni  Ni15  1  0.91653500  0.08346500  0.00000000  1
  Ni  Ni16  1  0.76130000  0.23870000  0.50000000  1
  Ni  Ni17  1  0.08346500  0.91653500  0.00000000  1
  Ni  Ni18  1  0.41653500  0.58346500  0.50000000  1
  Ni  Ni19  1  0.58346500  0.41653500  0.50000000  1
  Cu  Cu20  1  0.05055900  0.39951600  0.09779500  1
  Cu  Cu21  1  0.66188300  0.66188300  0.61852100  1
  Cu  Cu22  1  0.39951600  0.05055900  0.09779500  1
  Cu  Cu23  1  0.60048400  0.94944100  0.90220500  1
  Cu  Cu24  1  0.94944100  0.60048400  0.90220500  1
  Cu  Cu25  1  0.44944100  0.10048400  0.59779500  1
  Cu  Cu26  1  0.55055900  0.89951600  0.40220500  1
  Cu  Cu27  1  0.16188300  0.16188300  0.88147900  1
  Cu  Cu28  1  0.10048400  0.44944100  0.59779500  1
  Cu  Cu29  1  0.83811700  0.83811700  0.11852100  1
  Cu  Cu30  1  0.33811700  0.33811700  0.38147900  1
  Cu  Cu31  1  0.89951600  0.55055900  0.40220500  1
