# generated using pymatgen
data_Cu3Ni2C3
_symmetry_space_group_name_H-M   'P 1'
_cell_length_a   7.76250700
_cell_length_b   10.64461200
_cell_length_c   15.86387100
_cell_angle_alpha   90.00000000
_cell_angle_beta   90.00000000
_cell_angle_gamma   90.00000000
_symmetry_Int_Tables_number   1
_chemical_formula_structural   Cu3Ni2C3
_chemical_formula_sum   'Cu24 Ni16 C24'
_cell_volume   1310.81381645
_cell_formula_units_Z   8
loop_
 _symmetry_equiv_pos_site_id
 _symmetry_equiv_pos_as_xyz
  1  'x, y, z'
loop_
 _atom_site_type_symbol
 _atom_site_label
 _atom_site_symmetry_multiplicity
 _atom_site_fract_x
 _atom_site_fract_y
 _atom_site_fract_z
 _atom_site_occupancy
  C  C0  1  0.89768700  0.23751300  0.47517500  1
  C  C1  1  0.65895900  0.00594400  0.38984700  1
  C  C2  1  0.60231300  0.76248700  0.97517500  1
  C  C3  1  0.89768700  0.26248700  0.02482500  1
  C  C4  1  0.84104100  0.99405600  0.88984700  1
  C  C5  1  0.34104100  0.99405600  0.61015300  1
  C  C6  1  0.10231300  0.73751300  0.97517500  1
  C  C7  1  0.65895900  0.49405600  0.11015300  1
  C  C8  1  0.39768700  0.26248700  0.47517500  1
  C  C9  1  0.84104100  0.50594400  0.61015300  1
  C  C10  1  0.15895900  0.49405600  0.38984700  1
  C  C11  1  0.10231300  0.76248700  0.52482500  1
  C  C12  1  0.39768700  0.23751300  0.02482500  1
  C  C13  1  0.60231300  0.73751300  0.52482500  1
  C  C14  1  0.34104100  0.50594400  0.88984700  1
  C  C15  1  0.15895900  0.00594400  0.11015300  1
  C  C16  1  0.29283700  0.97158800  0.90266900  1
  C  C17  1  0.79283700  0.52841200  0.90266900  1
  C  C18  1  0.70716300  0.47158800  0.40266900  1
  C  C19  1  0.20716300  0.02841200  0.40266900  1
  C  C20  1  0.70716300  0.02841200  0.09733100  1
  C  C21  1  0.29283700  0.52841200  0.59733100  1
  C  C22  1  0.20716300  0.47158800  0.09733100  1
  C  C23  1  0.79283700  0.97158800  0.59733100  1
  Ni  Ni24  1  0.33263800  0.08007400  0.21076400  1
  Ni  Ni25  1  0.41979700  0.20286700  0.62029200  1
  Ni  Ni26  1  0.16736200  0.91992600  0.71076400  1
  Ni  Ni27  1  0.41979700  0.29713300  0.87970800  1
  Ni  Ni28  1  0.83263800  0.41992600  0.21076400  1
  Ni  Ni29  1  0.66736200  0.58007400  0.71076400  1
  Ni  Ni30  1  0.33263800  0.41992600  0.28923600  1
  Ni  Ni31  1  0.08020300  0.79713300  0.12029200  1
  Ni  Ni32  1  0.66736200  0.91992600  0.78923600  1
  Ni  Ni33  1  0.16736200  0.58007400  0.78923600  1
  Ni  Ni34  1  0.58020300  0.79713300  0.37970800  1
  Ni  Ni35  1  0.08020300  0.70286700  0.37970800  1
  Ni  Ni36  1  0.83263800  0.08007400  0.28923600  1
  Ni  Ni37  1  0.91979700  0.29713300  0.62029200  1
  Ni  Ni38  1  0.91979700  0.20286700  0.87970800  1
  Ni  Ni39  1  0.58020300  0.70286700  0.12029200  1
  Cu  Cu40  1  0.19518600  0.55829200  0.99019500  1
  Cu  Cu41  1  0.93670800  0.41215600  0.41656800  1
  Cu  Cu42  1  0.14202300  0.31086900  0.05658400  1
  Cu  Cu43  1  0.30481400  0.44170800  0.49019500  1
  Cu  Cu44  1  0.85797700  0.68913100  0.94341600  1
  Cu  Cu45  1  0.85797700  0.81086900  0.55658400  1
  Cu  Cu46  1  0.56329200  0.58784400  0.91656800  1
  Cu  Cu47  1  0.80481400  0.05829200  0.49019500  1
  Cu  Cu48  1  0.14202300  0.18913100  0.44341600  1
  Cu  Cu49  1  0.35797700  0.81086900  0.94341600  1
  Cu  Cu50  1  0.06329200  0.91215600  0.91656800  1
  Cu  Cu51  1  0.93670800  0.08784400  0.08343200  1
  Cu  Cu52  1  0.69518600  0.55829200  0.50980500  1
  Cu  Cu53  1  0.35797700  0.68913100  0.55658400  1
  Cu  Cu54  1  0.06329200  0.58784400  0.58343200  1
  Cu  Cu55  1  0.30481400  0.05829200  0.00980500  1
  Cu  Cu56  1  0.64202300  0.31086900  0.44341600  1
  Cu  Cu57  1  0.64202300  0.18913100  0.05658400  1
  Cu  Cu58  1  0.80481400  0.44170800  0.00980500  1
  Cu  Cu59  1  0.69518600  0.94170800  0.99019500  1
  Cu  Cu60  1  0.19518600  0.94170800  0.50980500  1
  Cu  Cu61  1  0.43670800  0.08784400  0.41656800  1
  Cu  Cu62  1  0.56329200  0.91215600  0.58343200  1
  Cu  Cu63  1  0.43670800  0.41215600  0.08343200  1
