# generated using pymatgen
data_Cu3(Ni4C)2
_symmetry_space_group_name_H-M   'P 1'
_cell_length_a   10.40503022
_cell_length_b   10.40503022
_cell_length_c   10.40503022
_cell_angle_alpha   109.47122063
_cell_angle_beta   109.47122063
_cell_angle_gamma   109.47122063
_symmetry_Int_Tables_number   1
_chemical_formula_structural   Cu3(Ni4C)2
_chemical_formula_sum   'Cu12 Ni32 C8'
_cell_volume   867.17779203
_cell_formula_units_Z   4
loop_
 _symmetry_equiv_pos_site_id
 _symmetry_equiv_pos_as_xyz
  1  'x, y, z'
loop_
 _atom_site_type_symbol
 _atom_site_label
 _atom_site_symmetry_multiplicity
 _atom_site_fract_x
 _atom_site_fract_y
 _atom_site_fract_z
 _atom_site_occupancy
  Ni  Ni0  1  0.99242100  0.49237300  0.25762400  1
  Ni  Ni1  1  0.00000000  0.71305000  0.50000000  1
  Ni  Ni2  1  0.76520400  0.49995200  0.50757900  1
  Ni  Ni3  1  0.73479600  0.24237600  0.73474800  1
  Ni  Ni4  1  0.50000000  0.00000000  0.71305000  1
  Ni  Ni5  1  0.00004800  0.76525200  0.00762700  1
  Ni  Ni6  1  0.50762700  0.26525200  0.50004800  1
  Ni  Ni7  1  0.76525200  0.00762700  0.00004800  1
  Ni  Ni8  1  0.28695000  0.28695000  0.28695000  1
  Ni  Ni9  1  0.49995200  0.50757900  0.76520400  1
  Ni  Ni10  1  0.71305000  0.50000000  0.00000000  1
  Ni  Ni11  1  0.21305000  0.50000000  0.00000000  1
  Ni  Ni12  1  0.26525200  0.50004800  0.50762700  1
  Ni  Ni13  1  0.50757900  0.76520400  0.49995200  1
  Ni  Ni14  1  0.50000000  0.00000000  0.21305000  1
  Ni  Ni15  1  0.99237300  0.49242100  0.75762400  1
  Ni  Ni16  1  0.78695000  0.78695000  0.78695000  1
  Ni  Ni17  1  0.00000000  0.21305000  0.50000000  1
  Ni  Ni18  1  0.49242100  0.75762400  0.99237300  1
  Ni  Ni19  1  0.00762700  0.00004800  0.76525200  1
  Ni  Ni20  1  0.75762400  0.99237300  0.49242100  1
  Ni  Ni21  1  0.50004800  0.50762700  0.26525200  1
  Ni  Ni22  1  0.74237600  0.23479600  0.23474800  1
  Ni  Ni23  1  0.24237600  0.73474800  0.73479600  1
  Ni  Ni24  1  0.23474800  0.74237600  0.23479600  1
  Ni  Ni25  1  0.99995200  0.26520400  0.00757900  1
  Ni  Ni26  1  0.00757900  0.99995200  0.26520400  1
  Ni  Ni27  1  0.73474800  0.73479600  0.24237600  1
  Ni  Ni28  1  0.26520400  0.00757900  0.99995200  1
  Ni  Ni29  1  0.23479600  0.23474800  0.74237600  1
  Ni  Ni30  1  0.25762400  0.99242100  0.49237300  1
  Ni  Ni31  1  0.49237300  0.25762400  0.99242100  1
  Cu  Cu32  1  0.75000000  0.23564500  0.48564500  1
  Cu  Cu33  1  0.23564500  0.48564500  0.75000000  1
  Cu  Cu34  1  0.76435500  0.75000000  0.51435500  1
  Cu  Cu35  1  0.48564500  0.75000000  0.23564500  1
  Cu  Cu36  1  0.25000000  0.98564500  0.73564500  1
  Cu  Cu37  1  0.98564500  0.73564500  0.25000000  1
  Cu  Cu38  1  0.73564500  0.25000000  0.98564500  1
  Cu  Cu39  1  0.75000000  0.51435500  0.76435500  1
  Cu  Cu40  1  0.25000000  0.26435500  0.01435500  1
  Cu  Cu41  1  0.26435500  0.01435500  0.25000000  1
  Cu  Cu42  1  0.51435500  0.76435500  0.75000000  1
  Cu  Cu43  1  0.01435500  0.25000000  0.26435500  1
  C  C44  1  0.50000000  0.00000000  0.96075200  1
  C  C45  1  0.46075200  0.50000000  0.00000000  1
  C  C46  1  0.96075200  0.50000000  0.00000000  1
  C  C47  1  0.53924800  0.53924800  0.53924800  1
  C  C48  1  0.00000000  0.46075200  0.50000000  1
  C  C49  1  0.00000000  0.96075200  0.50000000  1
  C  C50  1  0.50000000  0.00000000  0.46075200  1
  C  C51  1  0.03924800  0.03924800  0.03924800  1
