# generated using pymatgen
data_Cu(NiC)30
_symmetry_space_group_name_H-M   'P 1'
_cell_length_a   11.07018574
_cell_length_b   11.07018574
_cell_length_c   10.51647200
_cell_angle_alpha   90.00000000
_cell_angle_beta   90.00000000
_cell_angle_gamma   119.99999844
_symmetry_Int_Tables_number   1
_chemical_formula_structural   Cu(NiC)30
_chemical_formula_sum   'Cu2 Ni60 C60'
_cell_volume   1116.11905768
_cell_formula_units_Z   2
loop_
 _symmetry_equiv_pos_site_id
 _symmetry_equiv_pos_as_xyz
  1  'x, y, z'
loop_
 _atom_site_type_symbol
 _atom_site_label
 _atom_site_symmetry_multiplicity
 _atom_site_fract_x
 _atom_site_fract_y
 _atom_site_fract_z
 _atom_site_occupancy
  C  C0  1  0.20716200  0.19403200  0.76114300  1
  C  C1  1  0.98687000  0.79283800  0.76114300  1
  C  C2  1  0.80596800  0.01313000  0.76114300  1
  C  C3  1  0.79283800  0.80596800  0.26114300  1
  C  C4  1  0.01313000  0.20716200  0.26114300  1
  C  C5  1  0.19403200  0.98687000  0.26114300  1
  C  C6  1  0.00000000  0.00000000  0.51130500  1
  C  C7  1  0.00000000  0.00000000  0.01130500  1
  Ni  Ni8  1  0.06191600  0.36174000  0.76384700  1
  Ni  Ni9  1  0.29982400  0.93808400  0.76384700  1
  Ni  Ni10  1  0.63826000  0.70017600  0.76384700  1
  Ni  Ni11  1  0.93808400  0.63826000  0.26384700  1
  Ni  Ni12  1  0.70017600  0.06191600  0.26384700  1
  Ni  Ni13  1  0.36174000  0.29982400  0.26384700  1
  Ni  Ni14  1  0.21522200  0.48962400  0.78792400  1
  Ni  Ni15  1  0.27440200  0.78477800  0.78792400  1
  Ni  Ni16  1  0.51037600  0.72559800  0.78792400  1
  Ni  Ni17  1  0.78477800  0.51037600  0.28792400  1
  Ni  Ni18  1  0.72559800  0.21522200  0.28792400  1
  Ni  Ni19  1  0.48962400  0.27440200  0.28792400  1
  Ni  Ni20  1  0.83974800  0.30526600  0.83721900  1
  Ni  Ni21  1  0.46551800  0.16025200  0.83721900  1
  Ni  Ni22  1  0.69473400  0.53448200  0.83721900  1
  Ni  Ni23  1  0.16025200  0.69473400  0.33721900  1
  Ni  Ni24  1  0.53448200  0.83974800  0.33721900  1
  Ni  Ni25  1  0.30526600  0.46551800  0.33721900  1
  Ni  Ni26  1  0.84138900  0.30510800  0.68693800  1
  Ni  Ni27  1  0.46371900  0.15861100  0.68693800  1
  Ni  Ni28  1  0.69489200  0.53628100  0.68693800  1
  Ni  Ni29  1  0.15861100  0.69489200  0.18693800  1
  Ni  Ni30  1  0.53628100  0.84138900  0.18693800  1
  Ni  Ni31  1  0.30510800  0.46371900  0.18693800  1
  Ni  Ni32  1  0.33723600  0.42194100  0.55372600  1
  Ni  Ni33  1  0.08470600  0.66276400  0.55372600  1
  Ni  Ni34  1  0.57805900  0.91529400  0.55372600  1
  Ni  Ni35  1  0.66276400  0.57805900  0.05372600  1
  Ni  Ni36  1  0.91529400  0.33723600  0.05372600  1
  Ni  Ni37  1  0.42194100  0.08470600  0.05372600  1
  Ni  Ni38  1  0.63409600  0.07552300  0.56701900  1
  Ni  Ni39  1  0.44142700  0.36590400  0.56701900  1
  Ni  Ni40  1  0.92447700  0.55857300  0.56701900  1
  Ni  Ni41  1  0.36590400  0.92447700  0.06701900  1
  Ni  Ni42  1  0.55857300  0.63409600  0.06701900  1
  Ni  Ni43  1  0.07552300  0.44142700  0.06701900  1
  Ni  Ni44  1  0.64961300  0.09995000  0.95210900  1
  Ni  Ni45  1  0.45033700  0.35038700  0.95210900  1
  Ni  Ni46  1  0.90005000  0.54966300  0.95210900  1
  Ni  Ni47  1  0.35038700  0.90005000  0.45210900  1
  Ni  Ni48  1  0.54966300  0.64961300  0.45210900  1
  Ni  Ni49  1  0.09995000  0.45033700  0.45210900  1
  Ni  Ni50  1  0.34652800  0.40772300  0.96667400  1
  Ni  Ni51  1  0.06119500  0.65347200  0.96667400  1
  Ni  Ni52  1  0.59227700  0.93880500  0.96667400  1
  Ni  Ni53  1  0.65347200  0.59227700  0.46667400  1
  Ni  Ni54  1  0.93880500  0.34652800  0.46667400  1
  Ni  Ni55  1  0.40772300  0.06119500  0.46667400  1
  Ni  Ni56  1  0.02317300  0.21620300  0.56703400  1
  Ni  Ni57  1  0.19303000  0.97682700  0.56703400  1
  Ni  Ni58  1  0.78379700  0.80697000  0.56703400  1
  Ni  Ni59  1  0.97682700  0.78379700  0.06703400  1
  Ni  Ni60  1  0.80697000  0.02317300  0.06703400  1
  Ni  Ni61  1  0.21620300  0.19303000  0.06703400  1
  Ni  Ni62  1  0.01756200  0.21397600  0.95291100  1
  Ni  Ni63  1  0.19641400  0.98243800  0.95291100  1
  Ni  Ni64  1  0.78602400  0.80358600  0.95291100  1
  Ni  Ni65  1  0.98243800  0.78602400  0.45291100  1
  Ni  Ni66  1  0.80358600  0.01756200  0.45291100  1
  Ni  Ni67  1  0.21397600  0.19641400  0.45291100  1
  Cu  Cu68  1  0.66666700  0.33333300  0.96261500  1
  Cu  Cu69  1  0.33333300  0.66666700  0.46261500  1
  C  C70  1  0.66666700  0.33333300  0.49680700  1
  C  C71  1  0.33333300  0.66666700  0.99680700  1
  C  C72  1  0.16216900  0.39107500  0.76279100  1
  C  C73  1  0.22890600  0.83783100  0.76279100  1
  C  C74  1  0.60892500  0.77109400  0.76279100  1
  C  C75  1  0.83783100  0.60892500  0.26279100  1
  C  C76  1  0.77109400  0.16216900  0.26279100  1
  C  C77  1  0.39107500  0.22890600  0.26279100  1
  C  C78  1  0.86791600  0.26951000  0.76174700  1
  C  C79  1  0.40159400  0.13208400  0.76174700  1
  C  C80  1  0.73049000  0.59840600  0.76174700  1
  C  C81  1  0.13208400  0.73049000  0.26174700  1
  C  C82  1  0.59840600  0.86791600  0.26174700  1
  C  C83  1  0.26951000  0.40159400  0.26174700  1
  C  C84  1  0.66168300  0.00399000  0.57947500  1
  C  C85  1  0.34230600  0.33831700  0.57947500  1
  C  C86  1  0.99601000  0.65769400  0.57947500  1
  C  C87  1  0.33831700  0.99601000  0.07947500  1
  C  C88  1  0.65769400  0.66168300  0.07947500  1
  C  C89  1  0.00399000  0.34230600  0.07947500  1
  C  C90  1  0.67745900  0.02592700  0.94312800  1
  C  C91  1  0.34846900  0.32254100  0.94312800  1
  C  C92  1  0.97407300  0.65153100  0.94312800  1
  C  C93  1  0.32254100  0.97407300  0.44312800  1
  C  C94  1  0.65153100  0.67745900  0.44312800  1
  C  C95  1  0.02592700  0.34846900  0.44312800  1
  C  C96  1  0.57854100  0.20001000  0.96069400  1
  C  C97  1  0.62146900  0.42145900  0.96069400  1
  C  C98  1  0.79999000  0.37853100  0.96069400  1
  C  C99  1  0.42145900  0.79999000  0.46069400  1
  C  C100  1  0.37853100  0.57854100  0.46069400  1
  C  C101  1  0.20001000  0.62146900  0.46069400  1
  C  C102  1  0.56684900  0.19043700  0.54538300  1
  C  C103  1  0.62358800  0.43315100  0.54538300  1
  C  C104  1  0.80956300  0.37641200  0.54538300  1
  C  C105  1  0.43315100  0.80956300  0.04538300  1
  C  C106  1  0.37641200  0.56684900  0.04538300  1
  C  C107  1  0.19043700  0.62358800  0.04538300  1
  C  C108  1  0.00789200  0.13333700  0.61511900  1
  C  C109  1  0.12544500  0.99210800  0.61511900  1
  C  C110  1  0.86666300  0.87455500  0.61511900  1
  C  C111  1  0.99210800  0.86666300  0.11511900  1
  C  C112  1  0.87455500  0.00789200  0.11511900  1
  C  C113  1  0.13333700  0.12544500  0.11511900  1
  C  C114  1  0.00791100  0.13265300  0.90637600  1
  C  C115  1  0.12474300  0.99208900  0.90637600  1
  C  C116  1  0.86734700  0.87525700  0.90637600  1
  C  C117  1  0.99208900  0.86734700  0.40637600  1
  C  C118  1  0.87525700  0.00791100  0.40637600  1
  C  C119  1  0.13265300  0.12474300  0.40637600  1
  C  C120  1  0.66666700  0.33333300  0.35529500  1
  C  C121  1  0.33333300  0.66666700  0.85529500  1
