# generated using pymatgen
data_Cu3NiC
_symmetry_space_group_name_H-M   'P 1'
_cell_length_a   6.43204110
_cell_length_b   6.43204110
_cell_length_c   5.24479400
_cell_angle_alpha   90.00000000
_cell_angle_beta   90.00000000
_cell_angle_gamma   109.38919389
_symmetry_Int_Tables_number   1
_chemical_formula_structural   Cu3NiC
_chemical_formula_sum   'Cu6 Ni2 C2'
_cell_volume   204.67703516
_cell_formula_units_Z   2
loop_
 _symmetry_equiv_pos_site_id
 _symmetry_equiv_pos_as_xyz
  1  'x, y, z'
loop_
 _atom_site_type_symbol
 _atom_site_label
 _atom_site_symmetry_multiplicity
 _atom_site_fract_x
 _atom_site_fract_y
 _atom_site_fract_z
 _atom_site_occupancy
  C  C0  1  0.82588900  0.17411100  0.59217700  1
  C  C1  1  0.17411100  0.82588900  0.09217700  1
  Ni  Ni2  1  0.63568500  0.36431500  0.71370600  1
  Ni  Ni3  1  0.36431500  0.63568500  0.21370600  1
  Cu  Cu4  1  0.06860500  0.28177400  0.69924100  1
  Cu  Cu5  1  0.71822600  0.93139500  0.69924100  1
  Cu  Cu6  1  0.93139500  0.71822600  0.19924100  1
  Cu  Cu7  1  0.82741700  0.17258300  0.28970900  1
  Cu  Cu8  1  0.28177400  0.06860500  0.19924100  1
  Cu  Cu9  1  0.17258300  0.82741700  0.78970900  1
