# generated using pymatgen
data_Cu2Ni7C4
_symmetry_space_group_name_H-M   'P 1'
_cell_length_a   4.95646300
_cell_length_b   5.34098235
_cell_length_c   7.31902056
_cell_angle_alpha   108.82306376
_cell_angle_beta   91.38055953
_cell_angle_gamma   89.83058992
_symmetry_Int_Tables_number   1
_chemical_formula_structural   Cu2Ni7C4
_chemical_formula_sum   'Cu2 Ni7 C4'
_cell_volume   183.33433769
_cell_formula_units_Z   1
loop_
 _symmetry_equiv_pos_site_id
 _symmetry_equiv_pos_as_xyz
  1  'x, y, z'
loop_
 _atom_site_type_symbol
 _atom_site_label
 _atom_site_symmetry_multiplicity
 _atom_site_fract_x
 _atom_site_fract_y
 _atom_site_fract_z
 _atom_site_occupancy
  C  C0  1  0.76122500  0.34562800  0.36357000  1
  C  C1  1  0.23877500  0.65437200  0.63643000  1
  C  C2  1  0.72234100  0.31488700  0.82514300  1
  C  C3  1  0.27765900  0.68511300  0.17485700  1
  Ni  Ni4  1  0.13185300  0.94971400  0.76525900  1
  Ni  Ni5  1  0.07545000  0.59120800  0.37241800  1
  Ni  Ni6  1  0.86814700  0.05028600  0.23474100  1
  Ni  Ni7  1  0.47713800  0.60585500  0.85922800  1
  Ni  Ni8  1  0.52286200  0.39414500  0.14077200  1
  Ni  Ni9  1  0.92455000  0.40879200  0.62758200  1
  Ni  Ni10  1  0.00000000  0.50000000  0.00000000  1
  Cu  Cu11  1  0.43880100  0.26290600  0.49023600  1
  Cu  Cu12  1  0.56119900  0.73709400  0.50976400  1
