# generated using pymatgen
data_Cu4NiC17
_symmetry_space_group_name_H-M   'P 1'
_cell_length_a   8.11768321
_cell_length_b   8.11768321
_cell_length_c   11.12374700
_cell_angle_alpha   90.00000000
_cell_angle_beta   90.00000000
_cell_angle_gamma   90.07846633
_symmetry_Int_Tables_number   1
_chemical_formula_structural   Cu4NiC17
_chemical_formula_sum   'Cu8 Ni2 C34'
_cell_volume   733.01842930
_cell_formula_units_Z   2
loop_
 _symmetry_equiv_pos_site_id
 _symmetry_equiv_pos_as_xyz
  1  'x, y, z'
loop_
 _atom_site_type_symbol
 _atom_site_label
 _atom_site_symmetry_multiplicity
 _atom_site_fract_x
 _atom_site_fract_y
 _atom_site_fract_z
 _atom_site_occupancy
  Ni  Ni0  1  0.00000000  0.00000000  0.50000000  1
  Ni  Ni1  1  0.50000000  0.50000000  0.00000000  1
  Cu  Cu2  1  0.77095200  0.27095200  0.75000000  1
  Cu  Cu3  1  0.24860000  0.24860000  0.77499800  1
  Cu  Cu4  1  0.25140000  0.25140000  0.27499800  1
  Cu  Cu5  1  0.74860000  0.74860000  0.72500200  1
  Cu  Cu6  1  0.75140000  0.75140000  0.22500200  1
  Cu  Cu7  1  0.72904800  0.22904800  0.25000000  1
  Cu  Cu8  1  0.27095200  0.77095200  0.75000000  1
  Cu  Cu9  1  0.22904800  0.72904800  0.25000000  1
  C  C10  1  0.50000000  0.50000000  0.50000000  1
  C  C11  1  0.00000000  0.00000000  0.00000000  1
  C  C12  1  0.00000000  0.50000000  0.50000000  1
  C  C13  1  0.50000000  0.00000000  0.00000000  1
  C  C14  1  0.50000000  0.00000000  0.50000000  1
  C  C15  1  0.00000000  0.50000000  0.00000000  1
  C  C16  1  0.53227100  0.19279600  0.88297600  1
  C  C17  1  0.69279600  0.03227100  0.61702400  1
  C  C18  1  0.03227100  0.69279600  0.61702400  1
  C  C19  1  0.24646800  0.99290100  0.92675500  1
  C  C20  1  0.43440100  0.43440100  0.66290100  1
  C  C21  1  0.46717800  0.18440900  0.12444300  1
  C  C22  1  0.30720400  0.96772900  0.38297600  1
  C  C23  1  0.46772900  0.80720400  0.11702400  1
  C  C24  1  0.18440900  0.46717800  0.12444300  1
  C  C25  1  0.31559100  0.03282200  0.62444300  1
  C  C26  1  0.75353200  0.00709900  0.07324500  1
  C  C27  1  0.80720400  0.46772900  0.11702400  1
  C  C28  1  0.53282200  0.81559100  0.87555700  1
  C  C29  1  0.03282200  0.31559100  0.62444300  1
  C  C30  1  0.56559900  0.56559900  0.33709900  1
  C  C31  1  0.00709900  0.75353200  0.07324500  1
  C  C32  1  0.93440100  0.93440100  0.83709900  1
  C  C33  1  0.06559900  0.06559900  0.16290100  1
  C  C34  1  0.49290100  0.74646800  0.57324500  1
  C  C35  1  0.99290100  0.24646800  0.92675500  1
  C  C36  1  0.25353200  0.50709900  0.42675500  1
  C  C37  1  0.74646800  0.49290100  0.57324500  1
  C  C38  1  0.96772900  0.30720400  0.38297600  1
  C  C39  1  0.50709900  0.25353200  0.42675500  1
  C  C40  1  0.96717800  0.68440900  0.37555700  1
  C  C41  1  0.81559100  0.53282200  0.87555700  1
  C  C42  1  0.19279600  0.53227100  0.88297600  1
  C  C43  1  0.68440900  0.96717800  0.37555700  1
