# generated using pymatgen
data_Cu(NiC6)2
_symmetry_space_group_name_H-M   'P 1'
_cell_length_a   5.64973800
_cell_length_b   10.78896400
_cell_length_c   11.96045500
_cell_angle_alpha   90.00000000
_cell_angle_beta   90.00000000
_cell_angle_gamma   90.00000000
_symmetry_Int_Tables_number   1
_chemical_formula_structural   Cu(NiC6)2
_chemical_formula_sum   'Cu4 Ni8 C48'
_cell_volume   729.04738034
_cell_formula_units_Z   4
loop_
 _symmetry_equiv_pos_site_id
 _symmetry_equiv_pos_as_xyz
  1  'x, y, z'
loop_
 _atom_site_type_symbol
 _atom_site_label
 _atom_site_symmetry_multiplicity
 _atom_site_fract_x
 _atom_site_fract_y
 _atom_site_fract_z
 _atom_site_occupancy
  Ni  Ni0  1  0.19777800  0.53169000  0.32555300  1
  Ni  Ni1  1  0.69777800  0.96831000  0.17444700  1
  Ni  Ni2  1  0.80222200  0.03169000  0.67444700  1
  Ni  Ni3  1  0.30222200  0.46831000  0.82555300  1
  Ni  Ni4  1  0.80222200  0.46831000  0.67444700  1
  Ni  Ni5  1  0.30222200  0.03169000  0.82555300  1
  Ni  Ni6  1  0.19777800  0.96831000  0.32555300  1
  Ni  Ni7  1  0.69777800  0.53169000  0.17444700  1
  Cu  Cu8  1  0.02029000  0.25000000  0.45896800  1
  Cu  Cu9  1  0.52029000  0.25000000  0.04103200  1
  Cu  Cu10  1  0.97971000  0.75000000  0.54103200  1
  Cu  Cu11  1  0.47971000  0.75000000  0.95896800  1
  C  C12  1  0.37067600  0.32227000  0.59226200  1
  C  C13  1  0.87067600  0.17773000  0.90773800  1
  C  C14  1  0.62932400  0.82227000  0.40773800  1
  C  C15  1  0.12932400  0.67773000  0.09226200  1
  C  C16  1  0.62932400  0.67773000  0.40773800  1
  C  C17  1  0.12932400  0.82227000  0.09226200  1
  C  C18  1  0.37067600  0.17773000  0.59226200  1
  C  C19  1  0.87067600  0.32227000  0.90773800  1
  C  C20  1  0.55957400  0.25000000  0.41430100  1
  C  C21  1  0.05957400  0.25000000  0.08569900  1
  C  C22  1  0.44042600  0.75000000  0.58570000  1
  C  C23  1  0.94042600  0.75000000  0.91430000  1
  C  C24  1  0.68935600  0.25000000  0.29378300  1
  C  C25  1  0.18935600  0.25000000  0.20621700  1
  C  C26  1  0.31064400  0.75000000  0.70621700  1
  C  C27  1  0.81064400  0.75000000  0.79378300  1
  C  C28  1  0.11546300  0.61487200  0.43623300  1
  C  C29  1  0.61546300  0.88512800  0.06376700  1
  C  C30  1  0.88453700  0.11487200  0.56376700  1
  C  C31  1  0.38453700  0.38512800  0.93623300  1
  C  C32  1  0.88453700  0.38512800  0.56376700  1
  C  C33  1  0.38453700  0.11487200  0.93623300  1
  C  C34  1  0.11546300  0.88512800  0.43623300  1
  C  C35  1  0.61546300  0.61487200  0.06376700  1
  C  C36  1  0.16797100  0.37946100  0.35289900  1
  C  C37  1  0.66797100  0.12053900  0.14710100  1
  C  C38  1  0.83202900  0.87946100  0.64710100  1
  C  C39  1  0.33202900  0.62053900  0.85289900  1
  C  C40  1  0.83202900  0.62053900  0.64710100  1
  C  C41  1  0.33202900  0.87946100  0.85289900  1
  C  C42  1  0.16797100  0.12053900  0.35289900  1
  C  C43  1  0.66797100  0.37946100  0.14710100  1
  C  C44  1  0.00617200  0.57242300  0.20754100  1
  C  C45  1  0.50617200  0.92757700  0.29245900  1
  C  C46  1  0.99382800  0.07242300  0.79245900  1
  C  C47  1  0.49382800  0.42757700  0.70754100  1
  C  C48  1  0.99382800  0.42757700  0.79245900  1
  C  C49  1  0.49382800  0.07242300  0.70754100  1
  C  C50  1  0.00617200  0.92757700  0.20754100  1
  C  C51  1  0.50617200  0.57242300  0.29245900  1
  C  C52  1  0.34034300  0.25000000  0.54376000  1
  C  C53  1  0.84034300  0.25000000  0.95624000  1
  C  C54  1  0.65965700  0.75000000  0.45624000  1
  C  C55  1  0.15965700  0.75000000  0.04376000  1
  C  C56  1  0.71121700  0.25000000  0.37502600  1
  C  C57  1  0.21121700  0.25000000  0.12497400  1
  C  C58  1  0.28878300  0.75000000  0.62497400  1
  C  C59  1  0.78878300  0.75000000  0.87502600  1
