# generated using pymatgen
data_Cu4Ni2C11
_symmetry_space_group_name_H-M   'P 1'
_cell_length_a   9.35721500
_cell_length_b   10.56385724
_cell_length_c   11.41968946
_cell_angle_alpha   114.55521191
_cell_angle_beta   98.86029614
_cell_angle_gamma   87.09189516
_symmetry_Int_Tables_number   1
_chemical_formula_structural   Cu4Ni2C11
_chemical_formula_sum   'Cu12 Ni6 C33'
_cell_volume   1014.36513649
_cell_formula_units_Z   3
loop_
 _symmetry_equiv_pos_site_id
 _symmetry_equiv_pos_as_xyz
  1  'x, y, z'
loop_
 _atom_site_type_symbol
 _atom_site_label
 _atom_site_symmetry_multiplicity
 _atom_site_fract_x
 _atom_site_fract_y
 _atom_site_fract_z
 _atom_site_occupancy
  C  C0  1  0.00000000  0.00000000  0.00000000  1
  C  C1  1  0.28091100  0.30220500  0.64493200  1
  C  C2  1  0.71908900  0.69779500  0.35506800  1
  C  C3  1  0.09953000  0.31334000  0.97170100  1
  C  C4  1  0.34789300  0.66634300  0.60767000  1
  C  C5  1  0.16744800  0.88297400  0.61521100  1
  C  C6  1  0.23627200  0.88638400  0.31624500  1
  C  C7  1  0.10784100  0.43169400  0.24308700  1
  C  C8  1  0.33784400  0.73722800  0.08521200  1
  C  C9  1  0.89215900  0.56830600  0.75691300  1
  C  C10  1  0.83255200  0.11702600  0.38478900  1
  C  C11  1  0.32270500  0.02517500  0.23356300  1
  C  C12  1  0.67482000  0.64068200  0.90828000  1
  C  C13  1  0.32518000  0.35931800  0.09172000  1
  C  C14  1  0.72976600  0.09805200  0.18292200  1
  C  C15  1  0.90047000  0.68666000  0.02829900  1
  C  C16  1  0.27023400  0.90194800  0.81707800  1
  C  C17  1  0.65210700  0.33365700  0.39233000  1
  C  C18  1  0.66215600  0.26277200  0.91478800  1
  C  C19  1  0.67729500  0.97482500  0.76643700  1
  C  C20  1  0.76372800  0.11361600  0.68375500  1
  C  C21  1  0.27338200  0.40667300  0.23180000  1
  C  C22  1  0.23009100  0.73177400  0.53596500  1
  C  C23  1  0.72661800  0.59332700  0.76820000  1
  C  C24  1  0.60578200  0.10801000  0.87443800  1
  C  C25  1  0.24984700  0.74053900  0.19334600  1
  C  C26  1  0.02460700  0.40100800  0.10057100  1
  C  C27  1  0.38235500  0.77790800  0.75596000  1
  C  C28  1  0.61764500  0.22209200  0.24404000  1
  C  C29  1  0.75015300  0.25946100  0.80665400  1
  C  C30  1  0.97539300  0.59899200  0.89942900  1
  C  C31  1  0.76990900  0.26822600  0.46403500  1
  C  C32  1  0.39421800  0.89199000  0.12556200  1
  Ni  Ni33  1  0.07297600  0.15937000  0.92699700  1
  Ni  Ni34  1  0.15044700  0.84835500  0.86038000  1
  Ni  Ni35  1  0.80724200  0.92554700  0.83019700  1
  Ni  Ni36  1  0.92702400  0.84063000  0.07300300  1
  Ni  Ni37  1  0.19275800  0.07445300  0.16980300  1
  Ni  Ni38  1  0.84955300  0.15164500  0.13962000  1
  Cu  Cu39  1  0.55092900  0.62655100  0.35442400  1
  Cu  Cu40  1  0.34383500  0.30963000  0.80386700  1
  Cu  Cu41  1  0.65616500  0.69037000  0.19613300  1
  Cu  Cu42  1  0.88635200  0.76894600  0.35317500  1
  Cu  Cu43  1  0.11364800  0.23105400  0.64682500  1
  Cu  Cu44  1  0.64920300  0.86852000  0.42563000  1
  Cu  Cu45  1  0.21173300  0.47302700  0.71587500  1
  Cu  Cu46  1  0.78826700  0.52697300  0.28412500  1
  Cu  Cu47  1  0.35079700  0.13148000  0.57437000  1
  Cu  Cu48  1  0.44907100  0.37344900  0.64557600  1
  Cu  Cu49  1  0.21851300  0.29433400  0.48706000  1
  Cu  Cu50  1  0.78148700  0.70566600  0.51294000  1
