# generated using pymatgen
data_Cu3(NiC4)2
_symmetry_space_group_name_H-M   'P 1'
_cell_length_a   3.34630100
_cell_length_b   10.17301500
_cell_length_c   14.22004500
_cell_angle_alpha   90.00000000
_cell_angle_beta   90.00000000
_cell_angle_gamma   90.00000000
_symmetry_Int_Tables_number   1
_chemical_formula_structural   Cu3(NiC4)2
_chemical_formula_sum   'Cu6 Ni4 C16'
_cell_volume   484.07834909
_cell_formula_units_Z   2
loop_
 _symmetry_equiv_pos_site_id
 _symmetry_equiv_pos_as_xyz
  1  'x, y, z'
loop_
 _atom_site_type_symbol
 _atom_site_label
 _atom_site_symmetry_multiplicity
 _atom_site_fract_x
 _atom_site_fract_y
 _atom_site_fract_z
 _atom_site_occupancy
  Ni  Ni0  1  0.50000000  0.20141600  0.11908900  1
  Ni  Ni1  1  0.50000000  0.70141600  0.38091100  1
  Ni  Ni2  1  0.50000000  0.29858400  0.61908900  1
  Ni  Ni3  1  0.50000000  0.79858400  0.88091100  1
  Cu  Cu4  1  0.00000000  0.36961400  0.22524700  1
  Cu  Cu5  1  0.00000000  0.63038600  0.77475300  1
  Cu  Cu6  1  0.00000000  0.00000000  0.00000000  1
  Cu  Cu7  1  0.00000000  0.86961400  0.27475300  1
  Cu  Cu8  1  0.00000000  0.13038600  0.72524700  1
  Cu  Cu9  1  0.00000000  0.50000000  0.50000000  1
  C  C10  1  0.00000000  0.97269300  0.84498100  1
  C  C11  1  0.50000000  0.74829900  0.21457000  1
  C  C12  1  0.50000000  0.75170100  0.71457000  1
  C  C13  1  0.00000000  0.52730700  0.34498100  1
  C  C14  1  0.50000000  0.24829900  0.28543000  1
  C  C15  1  0.00000000  0.71793900  0.50783000  1
  C  C16  1  0.00000000  0.21793900  0.99217000  1
  C  C17  1  0.50000000  0.55988300  0.86791100  1
  C  C18  1  0.00000000  0.28206100  0.49217000  1
  C  C19  1  0.50000000  0.44011700  0.13208900  1
  C  C20  1  0.50000000  0.05988300  0.63208900  1
  C  C21  1  0.00000000  0.02730700  0.15501900  1
  C  C22  1  0.50000000  0.94011700  0.36791100  1
  C  C23  1  0.00000000  0.78206100  0.00783000  1
  C  C24  1  0.50000000  0.25170100  0.78543000  1
  C  C25  1  0.00000000  0.47269300  0.65501900  1
