# generated using pymatgen
data_CuNiC7
_symmetry_space_group_name_H-M   'P 1'
_cell_length_a   6.01506400
_cell_length_b   8.68327100
_cell_length_c   8.75111200
_cell_angle_alpha   90.00000000
_cell_angle_beta   90.00000000
_cell_angle_gamma   90.00000000
_symmetry_Int_Tables_number   1
_chemical_formula_structural   CuNiC7
_chemical_formula_sum   'Cu4 Ni4 C28'
_cell_volume   457.07434969
_cell_formula_units_Z   4
loop_
 _symmetry_equiv_pos_site_id
 _symmetry_equiv_pos_as_xyz
  1  'x, y, z'
loop_
 _atom_site_type_symbol
 _atom_site_label
 _atom_site_symmetry_multiplicity
 _atom_site_fract_x
 _atom_site_fract_y
 _atom_site_fract_z
 _atom_site_occupancy
  Ni  Ni0  1  0.00000000  0.63926600  0.87548100  1
  Ni  Ni1  1  0.00000000  0.36073400  0.12451900  1
  Ni  Ni2  1  0.50000000  0.13926600  0.62451900  1
  Ni  Ni3  1  0.50000000  0.86073400  0.37548100  1
  Cu  Cu4  1  0.74976100  0.00000000  0.00000000  1
  Cu  Cu5  1  0.75023900  0.50000000  0.50000000  1
  Cu  Cu6  1  0.25023900  0.00000000  0.00000000  1
  Cu  Cu7  1  0.24976100  0.50000000  0.50000000  1
  C  C8  1  0.50000000  0.76465400  0.75375600  1
  C  C9  1  0.50000000  0.23534600  0.24624400  1
  C  C10  1  0.00000000  0.26465400  0.74624400  1
  C  C11  1  0.00000000  0.73534600  0.25375600  1
  C  C12  1  0.00000000  0.92980800  0.79893300  1
  C  C13  1  0.00000000  0.07019200  0.20106700  1
  C  C14  1  0.50000000  0.42980800  0.70106700  1
  C  C15  1  0.50000000  0.57019200  0.29893300  1
  C  C16  1  0.50000000  0.87054300  0.92409100  1
  C  C17  1  0.50000000  0.12945700  0.07590900  1
  C  C18  1  0.00000000  0.37054300  0.57590900  1
  C  C19  1  0.00000000  0.62945700  0.42409100  1
  C  C20  1  0.00000000  0.88398800  0.90166200  1
  C  C21  1  0.00000000  0.11601200  0.09833800  1
  C  C22  1  0.50000000  0.38398700  0.59833800  1
  C  C23  1  0.50000000  0.61601200  0.40166200  1
  C  C24  1  0.50000000  0.89555100  0.60486700  1
  C  C25  1  0.50000000  0.10444900  0.39513300  1
  C  C26  1  0.00000000  0.39555100  0.89513300  1
  C  C27  1  0.00000000  0.60444900  0.10486700  1
  C  C28  1  0.72795500  0.64678200  0.74342900  1
  C  C29  1  0.72795500  0.35321800  0.25657100  1
  C  C30  1  0.77204500  0.14678200  0.75657100  1
  C  C31  1  0.77204500  0.85321800  0.24342900  1
  C  C32  1  0.27204500  0.35321800  0.25657100  1
  C  C33  1  0.27204500  0.64678200  0.74342900  1
  C  C34  1  0.22795500  0.85321800  0.24342900  1
  C  C35  1  0.22795500  0.14678200  0.75657100  1
