# generated using pymatgen
data_Cu3NiC4
_symmetry_space_group_name_H-M   'P 1'
_cell_length_a   6.49284800
_cell_length_b   6.49326352
_cell_length_c   10.54161906
_cell_angle_alpha   90.01331118
_cell_angle_beta   90.01234877
_cell_angle_gamma   119.95472295
_symmetry_Int_Tables_number   1
_chemical_formula_structural   Cu3NiC4
_chemical_formula_sum   'Cu12 Ni4 C16'
_cell_volume   385.06507722
_cell_formula_units_Z   4
loop_
 _symmetry_equiv_pos_site_id
 _symmetry_equiv_pos_as_xyz
  1  'x, y, z'
loop_
 _atom_site_type_symbol
 _atom_site_label
 _atom_site_symmetry_multiplicity
 _atom_site_fract_x
 _atom_site_fract_y
 _atom_site_fract_z
 _atom_site_occupancy
  Ni  Ni0  1  0.17274500  0.84432000  0.73472400  1
  Ni  Ni1  1  0.83337600  0.66666500  0.48663400  1
  Ni  Ni2  1  0.16167100  0.32265200  0.73436600  1
  Ni  Ni3  1  0.33350500  0.66649200  0.48928200  1
  Cu  Cu4  1  0.34367400  0.67144100  0.00693100  1
  Cu  Cu5  1  0.65882100  0.32200400  0.74545400  1
  Cu  Cu6  1  0.66946200  0.84238000  0.74721900  1
  Cu  Cu7  1  0.82377500  0.16239000  0.00498400  1
  Cu  Cu8  1  0.82287300  0.66074500  0.00515000  1
  Cu  Cu9  1  0.83114200  0.16416800  0.49503700  1
  Cu  Cu10  1  0.16626900  0.83421500  0.25648000  1
  Cu  Cu11  1  0.66706200  0.33271900  0.25475400  1
  Cu  Cu12  1  0.16486300  0.33155900  0.25483900  1
  Cu  Cu13  1  0.66820600  0.83509400  0.25676300  1
  Cu  Cu14  1  0.34382900  0.17225400  0.00577700  1
  Cu  Cu15  1  0.33418700  0.16613900  0.49658500  1
  C  C16  1  0.66826800  0.83426200  0.93680200  1
  C  C17  1  0.34460100  0.17491200  0.68474300  1
  C  C18  1  0.67078400  0.84199400  0.43717200  1
  C  C19  1  0.66294500  0.32514800  0.43661200  1
  C  C20  1  0.17168900  0.84299400  0.43739800  1
  C  C21  1  0.33271700  0.66609100  0.18791000  1
  C  C22  1  0.33301200  0.16681900  0.18649100  1
  C  C23  1  0.16167400  0.32427100  0.43741400  1
  C  C24  1  0.82433600  0.16337700  0.68640800  1
  C  C25  1  0.66794500  0.33365900  0.93636400  1
  C  C26  1  0.83314600  0.66629900  0.18744400  1
  C  C27  1  0.83357300  0.16707100  0.18664800  1
  C  C28  1  0.34521600  0.67085900  0.70129400  1
  C  C29  1  0.16713200  0.33410800  0.94853500  1
  C  C30  1  0.16657700  0.83253700  0.94730500  1
  C  C31  1  0.82092400  0.66036000  0.70246400  1
