# generated using pymatgen
data_CuNiC4
_symmetry_space_group_name_H-M   'P 1'
_cell_length_a   15.96034742
_cell_length_b   15.96034742
_cell_length_c   15.96034761
_cell_angle_alpha   17.52726594
_cell_angle_beta   17.52726594
_cell_angle_gamma   17.52726277
_symmetry_Int_Tables_number   1
_chemical_formula_structural   CuNiC4
_chemical_formula_sum   'Cu4 Ni4 C16'
_cell_volume   321.82826377
_cell_formula_units_Z   4
loop_
 _symmetry_equiv_pos_site_id
 _symmetry_equiv_pos_as_xyz
  1  'x, y, z'
loop_
 _atom_site_type_symbol
 _atom_site_label
 _atom_site_symmetry_multiplicity
 _atom_site_fract_x
 _atom_site_fract_y
 _atom_site_fract_z
 _atom_site_occupancy
  C  C0  1  0.50000000  0.50000000  0.50000000  1
  C  C1  1  0.00000000  0.00000000  0.00000000  1
  Ni  Ni2  1  0.78585400  0.78585400  0.78585400  1
  Ni  Ni3  1  0.28585400  0.28585400  0.28585400  1
  Ni  Ni4  1  0.21414600  0.21414600  0.21414600  1
  Ni  Ni5  1  0.71414600  0.71414600  0.71414600  1
  Cu  Cu6  1  0.13415400  0.13415400  0.13415400  1
  Cu  Cu7  1  0.36584600  0.36584600  0.36584600  1
  Cu  Cu8  1  0.86584600  0.86584600  0.86584600  1
  Cu  Cu9  1  0.63415400  0.63415400  0.63415400  1
  C  C10  1  0.59703700  0.93648100  0.37182400  1
  C  C11  1  0.43648100  0.09703700  0.87182400  1
  C  C12  1  0.56351900  0.90296300  0.12817600  1
  C  C13  1  0.62817600  0.40296300  0.06351900  1
  C  C14  1  0.40296300  0.06351900  0.62817600  1
  C  C15  1  0.93648100  0.37182400  0.59703700  1
  C  C16  1  0.09703700  0.87182400  0.43648100  1
  C  C17  1  0.90296300  0.12817600  0.56351900  1
  C  C18  1  0.87182400  0.43648100  0.09703700  1
  C  C19  1  0.06351900  0.62817600  0.40296300  1
  C  C20  1  0.37182400  0.59703700  0.93648100  1
  C  C21  1  0.75000000  0.75000000  0.75000000  1
  C  C22  1  0.12817600  0.56351900  0.90296300  1
  C  C23  1  0.25000000  0.25000000  0.25000000  1
