# generated using pymatgen
data_Cu2(NiC3)3
_symmetry_space_group_name_H-M   'P 1'
_cell_length_a   6.11167800
_cell_length_b   8.81598300
_cell_length_c   10.54813008
_cell_angle_alpha   57.58233707
_cell_angle_beta   90.00000000
_cell_angle_gamma   90.00000000
_symmetry_Int_Tables_number   1
_chemical_formula_structural   Cu2(NiC3)3
_chemical_formula_sum   'Cu8 Ni12 C36'
_cell_volume   479.76973260
_cell_formula_units_Z   4
loop_
 _symmetry_equiv_pos_site_id
 _symmetry_equiv_pos_as_xyz
  1  'x, y, z'
loop_
 _atom_site_type_symbol
 _atom_site_label
 _atom_site_symmetry_multiplicity
 _atom_site_fract_x
 _atom_site_fract_y
 _atom_site_fract_z
 _atom_site_occupancy
  C  C0  1  0.24874300  0.21914900  0.04254000  1
  C  C1  1  0.94615300  0.17584500  0.37021300  1
  C  C2  1  0.04672200  0.52944400  0.37892200  1
  C  C3  1  0.99946700  0.19923400  0.96430000  1
  C  C4  1  0.95327800  0.47055600  0.62107800  1
  C  C5  1  0.34404300  0.06089300  0.83909400  1
  C  C6  1  0.44615300  0.82415500  0.12978700  1
  C  C7  1  0.81896300  0.70347300  0.73791800  1
  C  C8  1  0.39866800  0.01199300  0.63698500  1
  C  C9  1  0.89866800  0.98800700  0.86301500  1
  C  C10  1  0.05384700  0.82415500  0.62978700  1
  C  C11  1  0.18103700  0.29652700  0.26208200  1
  C  C12  1  0.45327800  0.52944400  0.87892200  1
  C  C13  1  0.60133200  0.98800700  0.36301500  1
  C  C14  1  0.00053300  0.80076600  0.03570000  1
  C  C15  1  0.25843000  0.62703400  0.73485300  1
  C  C16  1  0.25125700  0.21914900  0.54254000  1
  C  C17  1  0.74157000  0.37296600  0.26514700  1
  C  C18  1  0.55384700  0.17584500  0.87021300  1
  C  C19  1  0.74874300  0.78085100  0.45746000  1
  C  C20  1  0.68103700  0.70347300  0.23791800  1
  C  C21  1  0.54672200  0.47055600  0.12107800  1
  C  C22  1  0.84404300  0.93910700  0.66090600  1
  C  C23  1  0.31896300  0.29652700  0.76208200  1
  C  C24  1  0.50053300  0.19923400  0.46430000  1
  C  C25  1  0.65595700  0.93910700  0.16090600  1
  C  C26  1  0.24157000  0.62703400  0.23485300  1
  C  C27  1  0.75843000  0.37296600  0.76514700  1
  C  C28  1  0.75125700  0.78085100  0.95746000  1
  C  C29  1  0.15595700  0.06089300  0.33909400  1
  C  C30  1  0.10133200  0.01199300  0.13698500  1
  C  C31  1  0.49946700  0.80076600  0.53570000  1
  Ni  Ni32  1  0.41618000  0.15929500  0.56903300  1
  Ni  Ni33  1  0.93493100  0.81203600  0.71248200  1
  Ni  Ni34  1  0.27821400  0.67434500  0.40973500  1
  Ni  Ni35  1  0.56506900  0.81203600  0.21248200  1
  Ni  Ni36  1  0.06506900  0.18796400  0.28751800  1
  Ni  Ni37  1  0.22178600  0.67434500  0.90973500  1
  Ni  Ni38  1  0.08382000  0.15929500  0.06903300  1
  Ni  Ni39  1  0.77821400  0.32565500  0.09026500  1
  Ni  Ni40  1  0.43493100  0.18796400  0.78751800  1
  Ni  Ni41  1  0.91618000  0.84070500  0.93096700  1
  Ni  Ni42  1  0.72178600  0.32565500  0.59026500  1
  Ni  Ni43  1  0.58382000  0.84070500  0.43096700  1
  Cu  Cu44  1  0.95955800  0.21897600  0.15192800  1
  Cu  Cu45  1  0.45955800  0.78102400  0.34807200  1
  Cu  Cu46  1  0.17888200  0.61314300  0.33003300  1
  Cu  Cu47  1  0.67888200  0.38685700  0.16996700  1
  Cu  Cu48  1  0.54044200  0.21897600  0.65192800  1
  Cu  Cu49  1  0.82111800  0.38685700  0.66996700  1
  Cu  Cu50  1  0.32111800  0.61314300  0.83003300  1
  Cu  Cu51  1  0.04044200  0.78102400  0.84807200  1
  C  C52  1  0.80045900  0.36232900  0.46558800  1
  C  C53  1  0.30045900  0.63767100  0.03441200  1
  C  C54  1  0.69954100  0.36232900  0.96558800  1
  C  C55  1  0.19954100  0.63767100  0.53441200  1
