# generated using pymatgen
data_Cu2NiC
_symmetry_space_group_name_H-M   'P 1'
_cell_length_a   15.56320600
_cell_length_b   7.27578900
_cell_length_c   11.46438604
_cell_angle_alpha   66.09798588
_cell_angle_beta   90.00000000
_cell_angle_gamma   90.00000000
_symmetry_Int_Tables_number   1
_chemical_formula_structural   Cu2NiC
_chemical_formula_sum   'Cu16 Ni8 C8'
_cell_volume   1186.83418146
_cell_formula_units_Z   8
loop_
 _symmetry_equiv_pos_site_id
 _symmetry_equiv_pos_as_xyz
  1  'x, y, z'
loop_
 _atom_site_type_symbol
 _atom_site_label
 _atom_site_symmetry_multiplicity
 _atom_site_fract_x
 _atom_site_fract_y
 _atom_site_fract_z
 _atom_site_occupancy
  C  C0  1  0.10213700  0.79133600  0.43631700  1
  C  C1  1  0.29563200  0.31276100  0.54188200  1
  C  C2  1  0.20436800  0.31276100  0.04188200  1
  C  C3  1  0.39786300  0.79133600  0.93631700  1
  C  C4  1  0.60213700  0.20866400  0.06368300  1
  C  C5  1  0.89786300  0.20866400  0.56368300  1
  C  C6  1  0.79563200  0.68723900  0.95811800  1
  C  C7  1  0.70436800  0.68723900  0.45811800  1
  Ni  Ni8  1  0.51065100  0.45908900  0.33081600  1
  Ni  Ni9  1  0.93614100  0.08736300  0.15662600  1
  Ni  Ni10  1  0.48934900  0.54091100  0.66918400  1
  Ni  Ni11  1  0.06385900  0.91263700  0.84337400  1
  Ni  Ni12  1  0.01065100  0.54091100  0.16918400  1
  Ni  Ni13  1  0.98934900  0.45908900  0.83081600  1
  Ni  Ni14  1  0.56385900  0.08736300  0.65662600  1
  Ni  Ni15  1  0.43614100  0.91263700  0.34337400  1
  Cu  Cu16  1  0.91016200  0.65724300  0.65015900  1
  Cu  Cu17  1  0.58983800  0.65724300  0.15015900  1
  Cu  Cu18  1  0.90187900  0.72429100  0.24511700  1
  Cu  Cu19  1  0.82148700  0.17869200  0.25492600  1
  Cu  Cu20  1  0.17851300  0.82130800  0.74507400  1
  Cu  Cu21  1  0.67851300  0.17869200  0.75492600  1
  Cu  Cu22  1  0.41016200  0.34275700  0.84984100  1
  Cu  Cu23  1  0.11964000  0.80399100  0.06504600  1
  Cu  Cu24  1  0.32148700  0.82130800  0.24507400  1
  Cu  Cu25  1  0.38036000  0.80399100  0.56504600  1
  Cu  Cu26  1  0.88036000  0.19600900  0.93495400  1
  Cu  Cu27  1  0.61964000  0.19600900  0.43495400  1
  Cu  Cu28  1  0.09812100  0.27570900  0.75488300  1
  Cu  Cu29  1  0.40187900  0.27570900  0.25488300  1
  Cu  Cu30  1  0.08983800  0.34275700  0.34984100  1
  Cu  Cu31  1  0.59812100  0.72429100  0.74511700  1
