# generated using pymatgen
data_Cu4NiC
_symmetry_space_group_name_H-M   'P 1'
_cell_length_a   10.14595300
_cell_length_b   9.79231100
_cell_length_c   14.79660803
_cell_angle_alpha   68.50919313
_cell_angle_beta   90.00000000
_cell_angle_gamma   90.00000000
_symmetry_Int_Tables_number   1
_chemical_formula_structural   Cu4NiC
_chemical_formula_sum   'Cu32 Ni8 C8'
_cell_volume   1367.87230909
_cell_formula_units_Z   8
loop_
 _symmetry_equiv_pos_site_id
 _symmetry_equiv_pos_as_xyz
  1  'x, y, z'
loop_
 _atom_site_type_symbol
 _atom_site_label
 _atom_site_symmetry_multiplicity
 _atom_site_fract_x
 _atom_site_fract_y
 _atom_site_fract_z
 _atom_site_occupancy
  C  C0  1  0.36251900  0.85632800  0.79695000  1
  C  C1  1  0.86251900  0.14367200  0.70305000  1
  C  C2  1  0.63748100  0.14367200  0.20305000  1
  C  C3  1  0.13748100  0.85632800  0.29695000  1
  C  C4  1  0.27383300  0.37441600  0.59410100  1
  C  C5  1  0.77383300  0.62558400  0.90589900  1
  C  C6  1  0.72616700  0.62558400  0.40589900  1
  C  C7  1  0.22616700  0.37441600  0.09410100  1
  Ni  Ni8  1  0.17271900  0.98624000  0.98336500  1
  Ni  Ni9  1  0.67271900  0.01376000  0.51663500  1
  Ni  Ni10  1  0.82728100  0.01376000  0.01663500  1
  Ni  Ni11  1  0.32728100  0.98624000  0.48336500  1
  Ni  Ni12  1  0.00004900  0.81164800  0.59445000  1
  Ni  Ni13  1  0.50004900  0.18835200  0.90555000  1
  Ni  Ni14  1  0.99995100  0.18835200  0.40555000  1
  Ni  Ni15  1  0.49995100  0.81164800  0.09445000  1
  Cu  Cu16  1  0.27503000  0.74502600  0.03624100  1
  Cu  Cu17  1  0.77503000  0.25497400  0.46375900  1
  Cu  Cu18  1  0.72497000  0.25497400  0.96375900  1
  Cu  Cu19  1  0.22497000  0.74502600  0.53624100  1
  Cu  Cu20  1  0.04136000  0.07986400  0.08556600  1
  Cu  Cu21  1  0.54136000  0.92013600  0.41443400  1
  Cu  Cu22  1  0.95864000  0.92013600  0.91443400  1
  Cu  Cu23  1  0.45864000  0.07986400  0.58556600  1
  Cu  Cu24  1  0.89923600  0.93536100  0.42355800  1
  Cu  Cu25  1  0.39923600  0.06463900  0.07644200  1
  Cu  Cu26  1  0.10076400  0.06463900  0.57644200  1
  Cu  Cu27  1  0.60076400  0.93536100  0.92355800  1
  Cu  Cu28  1  0.06608000  0.71006300  0.78012200  1
  Cu  Cu29  1  0.56608000  0.28993700  0.71987800  1
  Cu  Cu30  1  0.93392000  0.28993700  0.21987800  1
  Cu  Cu31  1  0.43392000  0.71006300  0.28012200  1
  Cu  Cu32  1  0.27173700  0.15257600  0.83412300  1
  Cu  Cu33  1  0.77173700  0.84742400  0.66587700  1
  Cu  Cu34  1  0.72826300  0.84742400  0.16587700  1
  Cu  Cu35  1  0.22826300  0.15257600  0.33412300  1
  Cu  Cu36  1  0.14280600  0.50647900  0.80471700  1
  Cu  Cu37  1  0.64280600  0.49352100  0.69528300  1
  Cu  Cu38  1  0.85719400  0.49352100  0.19528300  1
  Cu  Cu39  1  0.35719400  0.50647900  0.30471700  1
  Cu  Cu40  1  0.34377200  0.53874100  0.77310500  1
  Cu  Cu41  1  0.84377200  0.46125900  0.72689500  1
  Cu  Cu42  1  0.65622800  0.46125900  0.22689500  1
  Cu  Cu43  1  0.15622800  0.53874100  0.27310500  1
  Cu  Cu44  1  0.44080700  0.45119800  0.90322100  1
  Cu  Cu45  1  0.94080700  0.54880200  0.59677900  1
  Cu  Cu46  1  0.55919300  0.54880200  0.09677900  1
  Cu  Cu47  1  0.05919300  0.45119800  0.40322100  1
