# generated using pymatgen
data_Cu9Ni2C23
_symmetry_space_group_name_H-M   'P 1'
_cell_length_a   22.84570600
_cell_length_b   8.78234000
_cell_length_c   13.29950539
_cell_angle_alpha   48.70095044
_cell_angle_beta   90.00000000
_cell_angle_gamma   90.00000000
_symmetry_Int_Tables_number   1
_chemical_formula_structural   Cu9Ni2C23
_chemical_formula_sum   'Cu36 Ni8 C92'
_cell_volume   2004.69960245
_cell_formula_units_Z   4
loop_
 _symmetry_equiv_pos_site_id
 _symmetry_equiv_pos_as_xyz
  1  'x, y, z'
loop_
 _atom_site_type_symbol
 _atom_site_label
 _atom_site_symmetry_multiplicity
 _atom_site_fract_x
 _atom_site_fract_y
 _atom_site_fract_z
 _atom_site_occupancy
  C  C0  1  0.74939200  0.29095900  0.84112100  1
  C  C1  1  0.25060800  0.70904100  0.15887900  1
  C  C2  1  0.75060800  0.29095900  0.34112100  1
  C  C3  1  0.24939200  0.70904100  0.65887900  1
  C  C4  1  0.77026600  0.70047000  0.50836300  1
  C  C5  1  0.27026600  0.29953000  0.99163700  1
  C  C6  1  0.25774300  0.45975900  0.49403000  1
  C  C7  1  0.75774300  0.54024100  0.00597000  1
  C  C8  1  0.24225700  0.45975900  0.99403000  1
  C  C9  1  0.22973400  0.29953000  0.49163700  1
  C  C10  1  0.74225700  0.54024100  0.50597000  1
  C  C11  1  0.72973400  0.70047000  0.00836300  1
  C  C12  1  0.07742600  0.71884500  0.92842500  1
  C  C13  1  0.42133700  0.16325200  0.92160300  1
  C  C14  1  0.57742600  0.28115500  0.57157500  1
  C  C15  1  0.59087700  0.14681700  0.21371400  1
  C  C16  1  0.58725500  0.69819200  0.70978400  1
  C  C17  1  0.90912300  0.14681700  0.71371400  1
  C  C18  1  0.41274500  0.30180800  0.29021600  1
  C  C19  1  0.07866300  0.16325200  0.42160300  1
  C  C20  1  0.92257400  0.28115500  0.07157500  1
  C  C21  1  0.92133700  0.83674800  0.57839700  1
  C  C22  1  0.42257400  0.71884500  0.42842500  1
  C  C23  1  0.09087700  0.85318300  0.28628600  1
  C  C24  1  0.91274500  0.69819200  0.20978400  1
  C  C25  1  0.08725500  0.30180800  0.79021600  1
  C  C26  1  0.40912300  0.85318300  0.78628600  1
  C  C27  1  0.57866300  0.83674800  0.07839700  1
  C  C28  1  0.83723600  0.08401000  0.67892800  1
  C  C29  1  0.15390100  0.20601700  0.34969800  1
  C  C30  1  0.34027800  0.17323500  0.32285900  1
  C  C31  1  0.66276400  0.08401000  0.17892800  1
  C  C32  1  0.84787800  0.17493800  0.14737500  1
  C  C33  1  0.15972200  0.17323500  0.82285900  1
  C  C34  1  0.16276400  0.91599000  0.32107200  1
  C  C35  1  0.65390100  0.79398300  0.15030200  1
  C  C36  1  0.84027800  0.82676500  0.17714100  1
  C  C37  1  0.33723600  0.91599000  0.82107200  1
  C  C38  1  0.34787800  0.82506200  0.35262500  1
  C  C39  1  0.65212200  0.17493800  0.64737500  1
  C  C40  1  0.34609900  0.20601700  0.84969800  1
  C  C41  1  0.15212200  0.82506200  0.85262500  1
  C  C42  1  0.65972200  0.82676500  0.67714100  1
  C  C43  1  0.84609900  0.79398300  0.65030200  1
  Ni  Ni44  1  0.65153300  0.86173900  0.23447000  1
  Ni  Ni45  1  0.84846700  0.86173900  0.73447000  1
  Ni  Ni46  1  0.34846700  0.13826100  0.76553000  1
  Ni  Ni47  1  0.35153600  0.06169400  0.26734200  1
  Ni  Ni48  1  0.14846400  0.06169400  0.76734200  1
  Ni  Ni49  1  0.15153300  0.13826100  0.26553000  1
  Ni  Ni50  1  0.85153600  0.93830600  0.23265800  1
  Ni  Ni51  1  0.64846400  0.93830600  0.73265800  1
  Cu  Cu52  1  0.24740100  0.43395600  0.43536600  1
  Cu  Cu53  1  0.80808000  0.28396700  0.03360400  1
  Cu  Cu54  1  0.69192000  0.28396700  0.53360400  1
  Cu  Cu55  1  0.80755800  0.91242400  0.53409200  1
  Cu  Cu56  1  0.67222000  0.23967000  0.03551100  1
  Cu  Cu57  1  0.30808000  0.71603300  0.46639600  1
  Cu  Cu58  1  0.67007500  0.95748400  0.53415700  1
  Cu  Cu59  1  0.69244200  0.91242400  0.03409200  1
  Cu  Cu60  1  0.25259900  0.43395600  0.93536600  1
  Cu  Cu61  1  0.30042700  0.34215200  0.23388800  1
  Cu  Cu62  1  0.19957300  0.34215200  0.73388800  1
  Cu  Cu63  1  0.82992500  0.95748400  0.03415700  1
  Cu  Cu64  1  0.17007500  0.04251600  0.96584300  1
  Cu  Cu65  1  0.34166800  0.78955700  0.26118800  1
  Cu  Cu66  1  0.17222000  0.76033000  0.46448900  1
  Cu  Cu67  1  0.83932500  0.57597900  0.74196400  1
  Cu  Cu68  1  0.84166800  0.21044300  0.23881200  1
  Cu  Cu69  1  0.29658900  0.92460100  0.73348900  1
  Cu  Cu70  1  0.32778000  0.76033000  0.96448900  1
  Cu  Cu71  1  0.69957300  0.65784800  0.76611200  1
  Cu  Cu72  1  0.19244200  0.08757600  0.46590800  1
  Cu  Cu73  1  0.74740100  0.56604400  0.06463400  1
  Cu  Cu74  1  0.80042700  0.65784800  0.26611200  1
  Cu  Cu75  1  0.70341100  0.07539900  0.26651100  1
  Cu  Cu76  1  0.19192000  0.71603300  0.96639600  1
  Cu  Cu77  1  0.65833200  0.21044300  0.73881200  1
  Cu  Cu78  1  0.75259900  0.56604400  0.56463400  1
  Cu  Cu79  1  0.15833200  0.78955700  0.76118800  1
  Cu  Cu80  1  0.82778000  0.23967000  0.53551100  1
  Cu  Cu81  1  0.16067500  0.42402100  0.25803600  1
  Cu  Cu82  1  0.20341100  0.92460100  0.23348900  1
  Cu  Cu83  1  0.32992500  0.04251600  0.46584300  1
  Cu  Cu84  1  0.33932500  0.42402100  0.75803600  1
  Cu  Cu85  1  0.66067500  0.57597900  0.24196400  1
  Cu  Cu86  1  0.30755800  0.08757600  0.96590800  1
  Cu  Cu87  1  0.79658900  0.07539900  0.76651100  1
  C  C88  1  0.53849300  0.73749600  0.17726300  1
  C  C89  1  0.59389800  0.57063100  0.68664600  1
  C  C90  1  0.92307400  0.48065000  0.00639200  1
  C  C91  1  0.56643600  0.03704300  0.99143200  1
  C  C92  1  0.95131300  0.17868500  0.63090200  1
  C  C93  1  0.92301600  0.76763800  0.51324600  1
  C  C94  1  0.42301600  0.23236200  0.98675400  1
  C  C95  1  0.93496100  0.25578000  0.98418700  1
  C  C96  1  0.40150400  0.68213300  0.80623900  1
  C  C97  1  0.07089600  0.40906400  0.66196800  1
  C  C98  1  0.54531500  0.83476100  0.62828700  1
  C  C99  1  0.93356400  0.03704300  0.49143200  1
  C  C100  1  0.96350300  0.18605100  0.16880200  1
  C  C101  1  0.06643600  0.96295700  0.50856800  1
  C  C102  1  0.07698400  0.23236200  0.48675400  1
  C  C103  1  0.53649700  0.18605100  0.66880200  1
  C  C104  1  0.42543000  0.00454100  0.65859700  1
  C  C105  1  0.42910400  0.40906400  0.16196800  1
  C  C106  1  0.42307400  0.51935000  0.49360800  1
  C  C107  1  0.96150700  0.73749600  0.67726300  1
  C  C108  1  0.57692600  0.48065000  0.50639200  1
  C  C109  1  0.90150400  0.31786700  0.69376100  1
  C  C110  1  0.57698400  0.76763800  0.01324600  1
  C  C111  1  0.92543000  0.99545900  0.84140300  1
  C  C112  1  0.09849600  0.68213300  0.30623900  1
  C  C113  1  0.40610200  0.42936900  0.31335400  1
  C  C114  1  0.54868700  0.17868500  0.13090200  1
  C  C115  1  0.03649700  0.81394900  0.83119800  1
  C  C116  1  0.45468500  0.16523900  0.37171300  1
  C  C117  1  0.43356400  0.96295700  0.00856800  1
  C  C118  1  0.43496100  0.74422000  0.51581300  1
  C  C119  1  0.57089600  0.59093600  0.83803200  1
  C  C120  1  0.90610200  0.57063100  0.18664600  1
  C  C121  1  0.07457000  0.00454100  0.15859700  1
  C  C122  1  0.04868700  0.82131500  0.36909800  1
  C  C123  1  0.45131300  0.82131500  0.86909800  1
  C  C124  1  0.56503900  0.25578000  0.48418700  1
  C  C125  1  0.92910400  0.59093600  0.33803200  1
  C  C126  1  0.04531500  0.16523900  0.87171300  1
  C  C127  1  0.06503900  0.74422000  0.01581300  1
  C  C128  1  0.46350300  0.81394900  0.33119800  1
  C  C129  1  0.57457000  0.99545900  0.34140300  1
  C  C130  1  0.95468500  0.83476100  0.12828700  1
  C  C131  1  0.09389800  0.42936900  0.81335400  1
  C  C132  1  0.59849600  0.31786700  0.19376100  1
  C  C133  1  0.07692600  0.51935000  0.99360800  1
  C  C134  1  0.46150700  0.26250400  0.82273700  1
  C  C135  1  0.03849300  0.26250400  0.32273700  1
