# generated using pymatgen
data_Cu3Ni3C4
_symmetry_space_group_name_H-M   'P 1'
_cell_length_a   7.15034200
_cell_length_b   12.21992600
_cell_length_c   12.46783600
_cell_angle_alpha   90.00000000
_cell_angle_beta   90.00000000
_cell_angle_gamma   90.00000000
_symmetry_Int_Tables_number   1
_chemical_formula_structural   Cu3Ni3C4
_chemical_formula_sum   'Cu12 Ni12 C16'
_cell_volume   1089.39774386
_cell_formula_units_Z   4
loop_
 _symmetry_equiv_pos_site_id
 _symmetry_equiv_pos_as_xyz
  1  'x, y, z'
loop_
 _atom_site_type_symbol
 _atom_site_label
 _atom_site_symmetry_multiplicity
 _atom_site_fract_x
 _atom_site_fract_y
 _atom_site_fract_z
 _atom_site_occupancy
  C  C0  1  0.16921900  0.06805200  0.88714600  1
  C  C1  1  0.65043000  0.25000000  0.96897900  1
  C  C2  1  0.66921900  0.06805200  0.61285400  1
  C  C3  1  0.16921900  0.43194800  0.88714600  1
  C  C4  1  0.33078100  0.93194800  0.38714600  1
  C  C5  1  0.34957000  0.75000000  0.03102100  1
  C  C6  1  0.83078100  0.56805200  0.11285400  1
  C  C7  1  0.33078100  0.56805200  0.38714600  1
  C  C8  1  0.83078100  0.93194800  0.11285400  1
  C  C9  1  0.15043000  0.25000000  0.53102100  1
  C  C10  1  0.66921900  0.43194800  0.61285400  1
  C  C11  1  0.84957000  0.75000000  0.46897900  1
  C  C12  1  0.09602900  0.25000000  0.12138700  1
  C  C13  1  0.59602900  0.25000000  0.37861300  1
  C  C14  1  0.90397100  0.75000000  0.87861300  1
  C  C15  1  0.40397100  0.75000000  0.62138700  1
  Ni  Ni16  1  0.89472300  0.00253700  0.36232300  1
  Ni  Ni17  1  0.08499100  0.75000000  0.23242100  1
  Ni  Ni18  1  0.10527700  0.50253700  0.63767700  1
  Ni  Ni19  1  0.58499100  0.75000000  0.26757900  1
  Ni  Ni20  1  0.60527700  0.99746300  0.86232300  1
  Ni  Ni21  1  0.91500900  0.25000000  0.76757900  1
  Ni  Ni22  1  0.39472300  0.00253700  0.13767700  1
  Ni  Ni23  1  0.39472300  0.49746300  0.13767700  1
  Ni  Ni24  1  0.60527700  0.50253700  0.86232300  1
  Ni  Ni25  1  0.89472300  0.49746300  0.36232300  1
  Ni  Ni26  1  0.41500900  0.25000000  0.73242100  1
  Ni  Ni27  1  0.10527700  0.99746300  0.63767700  1
  Cu  Cu28  1  0.07208100  0.87322900  0.94944500  1
  Cu  Cu29  1  0.42791900  0.37322900  0.44944500  1
  Cu  Cu30  1  0.92791900  0.12677100  0.05055500  1
  Cu  Cu31  1  0.57208100  0.62677100  0.55055500  1
  Cu  Cu32  1  0.71379900  0.75000000  0.00681800  1
  Cu  Cu33  1  0.28620100  0.25000000  0.99318200  1
  Cu  Cu34  1  0.78620100  0.25000000  0.50681800  1
  Cu  Cu35  1  0.92791900  0.37322900  0.05055500  1
  Cu  Cu36  1  0.57208100  0.87322900  0.55055500  1
  Cu  Cu37  1  0.42791900  0.12677100  0.44944500  1
  Cu  Cu38  1  0.21379900  0.75000000  0.49318200  1
  Cu  Cu39  1  0.07208100  0.62677100  0.94944500  1
