# generated using pymatgen
data_CuNiC2
_symmetry_space_group_name_H-M   'P 1'
_cell_length_a   3.52300912
_cell_length_b   3.52300912
_cell_length_c   6.44923652
_cell_angle_alpha   74.14916383
_cell_angle_beta   74.14916383
_cell_angle_gamma   59.99997889
_symmetry_Int_Tables_number   1
_chemical_formula_structural   CuNiC2
_chemical_formula_sum   'Cu1 Ni1 C2'
_cell_volume   65.78329177
_cell_formula_units_Z   1
loop_
 _symmetry_equiv_pos_site_id
 _symmetry_equiv_pos_as_xyz
  1  'x, y, z'
loop_
 _atom_site_type_symbol
 _atom_site_label
 _atom_site_symmetry_multiplicity
 _atom_site_fract_x
 _atom_site_fract_y
 _atom_site_fract_z
 _atom_site_occupancy
  Ni  Ni0  1  0.99942200  0.99942200  0.00173400  1
  Cu  Cu1  1  0.14592000  0.14592000  0.56224000  1
  C  C2  1  0.74486500  0.74486500  0.76540500  1
  C  C3  1  0.26609300  0.26609300  0.20172100  1
