# generated using pymatgen
data_Cu2NiC6
_symmetry_space_group_name_H-M   'P 1'
_cell_length_a   7.13230100
_cell_length_b   5.31228900
_cell_length_c   9.05303077
_cell_angle_alpha   55.60611815
_cell_angle_beta   90.00000000
_cell_angle_gamma   90.00000000
_symmetry_Int_Tables_number   1
_chemical_formula_structural   Cu2NiC6
_chemical_formula_sum   'Cu4 Ni2 C12'
_cell_volume   283.04194176
_cell_formula_units_Z   2
loop_
 _symmetry_equiv_pos_site_id
 _symmetry_equiv_pos_as_xyz
  1  'x, y, z'
loop_
 _atom_site_type_symbol
 _atom_site_label
 _atom_site_symmetry_multiplicity
 _atom_site_fract_x
 _atom_site_fract_y
 _atom_site_fract_z
 _atom_site_occupancy
  Ni  Ni0  1  0.00000000  0.50000000  0.50000000  1
  Ni  Ni1  1  0.50000000  0.50000000  0.00000000  1
  Cu  Cu2  1  0.84211400  0.80544100  0.71549300  1
  Cu  Cu3  1  0.15788600  0.19455900  0.28450700  1
  Cu  Cu4  1  0.65788600  0.80544100  0.21549300  1
  Cu  Cu5  1  0.34211400  0.19455900  0.78450700  1
  C  C6  1  0.41601700  0.31546700  0.24077000  1
  C  C7  1  0.58398300  0.68453300  0.75923000  1
  C  C8  1  0.28621100  0.76990700  0.91417700  1
  C  C9  1  0.78621100  0.23009300  0.58582300  1
  C  C10  1  0.08398300  0.31546700  0.74077000  1
  C  C11  1  0.64903100  0.79592300  0.00521700  1
  C  C12  1  0.14903100  0.20407700  0.49478300  1
  C  C13  1  0.35096900  0.20407700  0.99478300  1
  C  C14  1  0.85096900  0.79592300  0.50521700  1
  C  C15  1  0.71378900  0.23009300  0.08582300  1
  C  C16  1  0.21378900  0.76990700  0.41417700  1
  C  C17  1  0.91601700  0.68453300  0.25923000  1
