# generated using pymatgen
data_Cu2Ni2C7
_symmetry_space_group_name_H-M   'P 1'
_cell_length_a   7.46032444
_cell_length_b   7.46032444
_cell_length_c   7.46032444
_cell_angle_alpha   60.00000000
_cell_angle_beta   60.00000000
_cell_angle_gamma   60.00000000
_symmetry_Int_Tables_number   1
_chemical_formula_structural   Cu2Ni2C7
_chemical_formula_sum   'Cu4 Ni4 C14'
_cell_volume   293.60141629
_cell_formula_units_Z   2
loop_
 _symmetry_equiv_pos_site_id
 _symmetry_equiv_pos_as_xyz
  1  'x, y, z'
loop_
 _atom_site_type_symbol
 _atom_site_label
 _atom_site_symmetry_multiplicity
 _atom_site_fract_x
 _atom_site_fract_y
 _atom_site_fract_z
 _atom_site_occupancy
  Ni  Ni0  1  0.62500000  0.62500000  0.62500000  1
  Ni  Ni1  1  0.62500000  0.12500000  0.62500000  1
  Ni  Ni2  1  0.62500000  0.62500000  0.12500000  1
  Ni  Ni3  1  0.12500000  0.62500000  0.62500000  1
  Cu  Cu4  1  0.12500000  0.62500000  0.12500000  1
  Cu  Cu5  1  0.12500000  0.12500000  0.12500000  1
  Cu  Cu6  1  0.12500000  0.12500000  0.62500000  1
  Cu  Cu7  1  0.62500000  0.12500000  0.12500000  1
  C  C8  1  0.80433000  0.80433000  0.19567000  1
  C  C9  1  0.80433000  0.19567000  0.80433000  1
  C  C10  1  0.05433000  0.05433000  0.44567000  1
  C  C11  1  0.80433000  0.19567000  0.19567000  1
  C  C12  1  0.44567000  0.44567000  0.05433000  1
  C  C13  1  0.05433000  0.44567000  0.05433000  1
  C  C14  1  0.19567000  0.80433000  0.80433000  1
  C  C15  1  0.44567000  0.05433000  0.44567000  1
  C  C16  1  0.50000000  0.50000000  0.50000000  1
  C  C17  1  0.19567000  0.80433000  0.19567000  1
  C  C18  1  0.19567000  0.19567000  0.80433000  1
  C  C19  1  0.75000000  0.75000000  0.75000000  1
  C  C20  1  0.44567000  0.05433000  0.05433000  1
  C  C21  1  0.05433000  0.44567000  0.44567000  1
