# generated using pymatgen
data_CuNi3C2
_symmetry_space_group_name_H-M   'P 1'
_cell_length_a   7.12909442
_cell_length_b   7.12909442
_cell_length_c   10.99063400
_cell_angle_alpha   90.00000000
_cell_angle_beta   90.00000000
_cell_angle_gamma   120.00000394
_symmetry_Int_Tables_number   1
_chemical_formula_structural   CuNi3C2
_chemical_formula_sum   'Cu6 Ni18 C12'
_cell_volume   483.75124305
_cell_formula_units_Z   6
loop_
 _symmetry_equiv_pos_site_id
 _symmetry_equiv_pos_as_xyz
  1  'x, y, z'
loop_
 _atom_site_type_symbol
 _atom_site_label
 _atom_site_symmetry_multiplicity
 _atom_site_fract_x
 _atom_site_fract_y
 _atom_site_fract_z
 _atom_site_occupancy
  C  C0  1  0.64318900  0.00000000  0.00000000  1
  C  C1  1  0.35681100  0.35681100  0.50000000  1
  C  C2  1  0.00000000  0.64318900  0.50000000  1
  C  C3  1  0.00000000  0.64318900  0.00000000  1
  C  C4  1  0.35681100  0.35681100  0.00000000  1
  C  C5  1  0.64318900  0.00000000  0.50000000  1
  C  C6  1  0.27219500  0.04700800  0.25000000  1
  C  C7  1  0.77481300  0.72780500  0.25000000  1
  C  C8  1  0.95299200  0.22518700  0.25000000  1
  C  C9  1  0.22518700  0.95299200  0.75000000  1
  C  C10  1  0.72780500  0.77481300  0.75000000  1
  C  C11  1  0.04700800  0.27219500  0.75000000  1
  Ni  Ni12  1  0.19478800  0.23657500  0.25000000  1
  Ni  Ni13  1  0.04178700  0.80521200  0.25000000  1
  Ni  Ni14  1  0.76342500  0.95821300  0.25000000  1
  Ni  Ni15  1  0.95821300  0.76342500  0.75000000  1
  Ni  Ni16  1  0.80521200  0.04178700  0.75000000  1
  Ni  Ni17  1  0.23657500  0.19478800  0.75000000  1
  Ni  Ni18  1  0.39656700  0.07771200  0.12289700  1
  Ni  Ni19  1  0.68114500  0.60343300  0.37710300  1
  Ni  Ni20  1  0.92228800  0.31885500  0.37710300  1
  Ni  Ni21  1  0.92228800  0.31885500  0.12289700  1
  Ni  Ni22  1  0.68114500  0.60343300  0.12289700  1
  Ni  Ni23  1  0.31885500  0.92228800  0.87710300  1
  Ni  Ni24  1  0.60343300  0.68114500  0.87710300  1
  Ni  Ni25  1  0.07771200  0.39656700  0.87710300  1
  Ni  Ni26  1  0.39656700  0.07771200  0.37710300  1
  Ni  Ni27  1  0.07771200  0.39656700  0.62289700  1
  Ni  Ni28  1  0.31885500  0.92228800  0.62289700  1
  Ni  Ni29  1  0.60343300  0.68114500  0.62289700  1
  Cu  Cu30  1  0.00000000  0.00000000  0.00000000  1
  Cu  Cu31  1  0.00000000  0.00000000  0.50000000  1
  Cu  Cu32  1  0.33333300  0.66666700  0.07336700  1
  Cu  Cu33  1  0.33333300  0.66666700  0.42663300  1
  Cu  Cu34  1  0.66666700  0.33333300  0.92663300  1
  Cu  Cu35  1  0.66666700  0.33333300  0.57336700  1
