# generated using pymatgen
data_Cu(NiC4)2
_symmetry_space_group_name_H-M   'P 1'
_cell_length_a   5.92934800
_cell_length_b   7.80749400
_cell_length_c   15.48658700
_cell_angle_alpha   90.00000000
_cell_angle_beta   90.00000000
_cell_angle_gamma   90.00000000
_symmetry_Int_Tables_number   1
_chemical_formula_structural   Cu(NiC4)2
_chemical_formula_sum   'Cu4 Ni8 C32'
_cell_volume   716.92597579
_cell_formula_units_Z   4
loop_
 _symmetry_equiv_pos_site_id
 _symmetry_equiv_pos_as_xyz
  1  'x, y, z'
loop_
 _atom_site_type_symbol
 _atom_site_label
 _atom_site_symmetry_multiplicity
 _atom_site_fract_x
 _atom_site_fract_y
 _atom_site_fract_z
 _atom_site_occupancy
  C  C0  1  0.75000000  0.64319000  0.78867000  1
  C  C1  1  0.75000000  0.85681000  0.28867000  1
  C  C2  1  0.25000000  0.35681000  0.21133000  1
  C  C3  1  0.25000000  0.14319000  0.71133000  1
  Ni  Ni4  1  0.25000000  0.80356100  0.94277400  1
  Ni  Ni5  1  0.75000000  0.17643900  0.85522900  1
  Ni  Ni6  1  0.75000000  0.32356100  0.35522900  1
  Ni  Ni7  1  0.25000000  0.69643900  0.44277400  1
  Ni  Ni8  1  0.25000000  0.82356100  0.14477100  1
  Ni  Ni9  1  0.75000000  0.30356100  0.55722600  1
  Ni  Ni10  1  0.25000000  0.67643900  0.64477100  1
  Ni  Ni11  1  0.75000000  0.19643900  0.05722600  1
  Cu  Cu12  1  0.25000000  0.15735600  0.45124800  1
  Cu  Cu13  1  0.75000000  0.65735600  0.04875200  1
  Cu  Cu14  1  0.25000000  0.34264400  0.95124800  1
  Cu  Cu15  1  0.75000000  0.84264400  0.54875200  1
  C  C16  1  0.02216200  0.70134700  0.15069800  1
  C  C17  1  0.75000000  0.43417000  0.63845500  1
  C  C18  1  0.52085300  0.31896200  0.05674500  1
  C  C19  1  0.47783800  0.70134700  0.15069800  1
  C  C20  1  0.25000000  0.96708200  0.22050400  1
  C  C21  1  0.97783800  0.20134700  0.34930200  1
  C  C22  1  0.97914700  0.18103800  0.55674500  1
  C  C23  1  0.47914700  0.68103800  0.94325500  1
  C  C24  1  0.25000000  0.57766700  0.54088900  1
  C  C25  1  0.25000000  0.93417000  0.86154500  1
  C  C26  1  0.52216200  0.20134700  0.34930200  1
  C  C27  1  0.47783800  0.79865300  0.65069800  1
  C  C28  1  0.75000000  0.03291800  0.77949600  1
  C  C29  1  0.97783800  0.29865300  0.84930200  1
  C  C30  1  0.52216200  0.29865300  0.84930200  1
  C  C31  1  0.47914700  0.81896200  0.44325500  1
  C  C32  1  0.25000000  0.53291800  0.72050400  1
  C  C33  1  0.75000000  0.42233300  0.45911100  1
  C  C34  1  0.75000000  0.07766700  0.95911100  1
  C  C35  1  0.02085300  0.81896200  0.44325500  1
  C  C36  1  0.75000000  0.06583000  0.13845500  1
  C  C37  1  0.75000000  0.46708200  0.27949600  1
  C  C38  1  0.25000000  0.92233300  0.04088900  1
  C  C39  1  0.02216200  0.79865300  0.65069800  1
  C  C40  1  0.97914700  0.31896200  0.05674500  1
  C  C41  1  0.02085300  0.68103800  0.94325500  1
  C  C42  1  0.52085300  0.18103800  0.55674500  1
  C  C43  1  0.25000000  0.56583000  0.36154500  1
