# generated using pymatgen
data_Cu8Ni2C3
_symmetry_space_group_name_H-M   'P 1'
_cell_length_a   6.89786800
_cell_length_b   12.51477100
_cell_length_c   26.82600200
_cell_angle_alpha   90.00000000
_cell_angle_beta   90.00000000
_cell_angle_gamma   90.00000000
_symmetry_Int_Tables_number   1
_chemical_formula_structural   Cu8Ni2C3
_chemical_formula_sum   'Cu64 Ni16 C24'
_cell_volume   2315.76101819
_cell_formula_units_Z   8
loop_
 _symmetry_equiv_pos_site_id
 _symmetry_equiv_pos_as_xyz
  1  'x, y, z'
loop_
 _atom_site_type_symbol
 _atom_site_label
 _atom_site_symmetry_multiplicity
 _atom_site_fract_x
 _atom_site_fract_y
 _atom_site_fract_z
 _atom_site_occupancy
  C  C0  1  0.46723800  0.36673500  0.19553300  1
  C  C1  1  0.03276200  0.86673500  0.19553300  1
  C  C2  1  0.53276200  0.63326500  0.69553300  1
  C  C3  1  0.53276200  0.63326500  0.80446700  1
  C  C4  1  0.03276200  0.86673500  0.30446700  1
  C  C5  1  0.46723800  0.36673500  0.30446700  1
  C  C6  1  0.96723800  0.13326500  0.69553300  1
  C  C7  1  0.96723800  0.13326500  0.80446700  1
  C  C8  1  0.52068900  0.15718800  0.45919600  1
  C  C9  1  0.52068900  0.15718800  0.04080400  1
  C  C10  1  0.48528800  0.57972800  0.05580900  1
  C  C11  1  0.02068900  0.34281200  0.95919600  1
  C  C12  1  0.01471200  0.07972800  0.44419100  1
  C  C13  1  0.98528800  0.92027200  0.55580900  1
  C  C14  1  0.51471200  0.42027200  0.55580900  1
  C  C15  1  0.48528800  0.57972800  0.44419100  1
  C  C16  1  0.97931100  0.65718800  0.04080400  1
  C  C17  1  0.97931100  0.65718800  0.45919600  1
  C  C18  1  0.47931100  0.84281200  0.54080400  1
  C  C19  1  0.01471200  0.07972800  0.05580900  1
  C  C20  1  0.02068900  0.34281200  0.54080400  1
  C  C21  1  0.47931100  0.84281200  0.95919600  1
  C  C22  1  0.98528800  0.92027200  0.94419100  1
  C  C23  1  0.51471200  0.42027200  0.94419100  1
  Ni  Ni24  1  0.69178700  0.89304000  0.10639900  1
  Ni  Ni25  1  0.80821300  0.39304000  0.39360100  1
  Ni  Ni26  1  0.37404400  0.84034800  0.10727800  1
  Ni  Ni27  1  0.69178700  0.89304000  0.39360100  1
  Ni  Ni28  1  0.19178700  0.60696000  0.89360100  1
  Ni  Ni29  1  0.19178700  0.60696000  0.60639900  1
  Ni  Ni30  1  0.12595600  0.34034800  0.39272200  1
  Ni  Ni31  1  0.12595600  0.34034800  0.10727800  1
  Ni  Ni32  1  0.62595600  0.15965200  0.89272200  1
  Ni  Ni33  1  0.30821300  0.10696000  0.60639900  1
  Ni  Ni34  1  0.80821300  0.39304000  0.10639900  1
  Ni  Ni35  1  0.87404400  0.65965200  0.89272200  1
  Ni  Ni36  1  0.87404400  0.65965200  0.60727800  1
  Ni  Ni37  1  0.30821300  0.10696000  0.89360100  1
  Ni  Ni38  1  0.37404400  0.84034800  0.39272200  1
  Ni  Ni39  1  0.62595600  0.15965200  0.60727800  1
  Cu  Cu40  1  0.67137600  0.24077000  0.95930900  1
  Cu  Cu41  1  0.18248300  0.24309600  0.16570000  1
  Cu  Cu42  1  0.31751700  0.74309600  0.33430000  1
  Cu  Cu43  1  0.20332300  0.43865900  0.25000000  1
  Cu  Cu44  1  0.71431500  0.97164600  0.03874000  1
  Cu  Cu45  1  0.28568500  0.02835400  0.96126000  1
  Cu  Cu46  1  0.81751700  0.75690400  0.66570000  1
  Cu  Cu47  1  0.55546100  0.46943500  0.75000000  1
  Cu  Cu48  1  0.94453900  0.96943500  0.75000000  1
  Cu  Cu49  1  0.64712700  0.25970100  0.37977500  1
  Cu  Cu50  1  0.22145300  0.97618500  0.37748900  1
  Cu  Cu51  1  0.76599900  0.79578800  0.25000000  1
  Cu  Cu52  1  0.35287300  0.74029900  0.62022500  1
  Cu  Cu53  1  0.85287300  0.75970100  0.12022500  1
  Cu  Cu54  1  0.32862400  0.75923000  0.04069100  1
  Cu  Cu55  1  0.35287300  0.74029900  0.87977500  1
  Cu  Cu56  1  0.75250200  0.99093300  0.33548900  1
  Cu  Cu57  1  0.50563800  0.79716700  0.75000000  1
  Cu  Cu58  1  0.71431500  0.97164600  0.46126000  1
  Cu  Cu59  1  0.74749800  0.49093300  0.16451100  1
  Cu  Cu60  1  0.31751700  0.74309600  0.16570000  1
  Cu  Cu61  1  0.18248300  0.24309600  0.33430000  1
  Cu  Cu62  1  0.81751700  0.75690400  0.83430000  1
  Cu  Cu63  1  0.27854700  0.47618500  0.37748900  1
  Cu  Cu64  1  0.79667700  0.56134100  0.75000000  1
  Cu  Cu65  1  0.26599900  0.70421200  0.75000000  1
  Cu  Cu66  1  0.17137600  0.25923000  0.04069100  1
  Cu  Cu67  1  0.67137600  0.24077000  0.54069100  1
  Cu  Cu68  1  0.70332300  0.06134100  0.75000000  1
  Cu  Cu69  1  0.14712700  0.24029900  0.87977500  1
  Cu  Cu70  1  0.75250200  0.99093300  0.16451100  1
  Cu  Cu71  1  0.74749800  0.49093300  0.33548900  1
  Cu  Cu72  1  0.85287300  0.75970100  0.37977500  1
  Cu  Cu73  1  0.78568500  0.47164600  0.46126000  1
  Cu  Cu74  1  0.99436200  0.29716700  0.75000000  1
  Cu  Cu75  1  0.25250200  0.50906700  0.83548900  1
  Cu  Cu76  1  0.21431500  0.52835400  0.53874000  1
  Cu  Cu77  1  0.82862400  0.74077000  0.54069100  1
  Cu  Cu78  1  0.72145300  0.52381500  0.87748900  1
  Cu  Cu79  1  0.77854700  0.02381500  0.87748900  1
  Cu  Cu80  1  0.64712700  0.25970100  0.12022500  1
  Cu  Cu81  1  0.73400100  0.29578800  0.25000000  1
  Cu  Cu82  1  0.24749800  0.00906700  0.83548900  1
  Cu  Cu83  1  0.68248300  0.25690400  0.66570000  1
  Cu  Cu84  1  0.44453900  0.53056500  0.25000000  1
  Cu  Cu85  1  0.29667700  0.93865900  0.25000000  1
  Cu  Cu86  1  0.72145300  0.52381500  0.62251100  1
  Cu  Cu87  1  0.27854700  0.47618500  0.12251100  1
  Cu  Cu88  1  0.78568500  0.47164600  0.03874000  1
  Cu  Cu89  1  0.22145300  0.97618500  0.12251100  1
  Cu  Cu90  1  0.68248300  0.25690400  0.83430000  1
  Cu  Cu91  1  0.24749800  0.00906700  0.66451100  1
  Cu  Cu92  1  0.77854700  0.02381500  0.62251100  1
  Cu  Cu93  1  0.82862400  0.74077000  0.95930900  1
  Cu  Cu94  1  0.21431500  0.52835400  0.96126000  1
  Cu  Cu95  1  0.25250200  0.50906700  0.66451100  1
  Cu  Cu96  1  0.49436200  0.20283300  0.25000000  1
  Cu  Cu97  1  0.05546100  0.03056500  0.25000000  1
  Cu  Cu98  1  0.32862400  0.75923000  0.45930900  1
  Cu  Cu99  1  0.17137600  0.25923000  0.45930900  1
  Cu  Cu100  1  0.23400100  0.20421200  0.75000000  1
  Cu  Cu101  1  0.14712700  0.24029900  0.62022500  1
  Cu  Cu102  1  0.28568500  0.02835400  0.53874000  1
  Cu  Cu103  1  0.00563800  0.70283300  0.25000000  1
