# generated using pymatgen
data_Cu23Ni2C11
_symmetry_space_group_name_H-M   'P 1'
_cell_length_a   3.99378400
_cell_length_b   24.09775500
_cell_length_c   22.13812900
_cell_angle_alpha   90.00000000
_cell_angle_beta   90.00000000
_cell_angle_gamma   90.00000000
_symmetry_Int_Tables_number   1
_chemical_formula_structural   Cu23Ni2C11
_chemical_formula_sum   'Cu92 Ni8 C44'
_cell_volume   2130.60072844
_cell_formula_units_Z   4
loop_
 _symmetry_equiv_pos_site_id
 _symmetry_equiv_pos_as_xyz
  1  'x, y, z'
loop_
 _atom_site_type_symbol
 _atom_site_label
 _atom_site_symmetry_multiplicity
 _atom_site_fract_x
 _atom_site_fract_y
 _atom_site_fract_z
 _atom_site_occupancy
  C  C0  1  0.50000000  0.00000000  0.00000000  1
  C  C1  1  0.50000000  0.00000000  0.50000000  1
  C  C2  1  0.50000000  0.50000000  0.00000000  1
  C  C3  1  0.50000000  0.50000000  0.50000000  1
  C  C4  1  0.97037800  0.02004000  0.09596700  1
  C  C5  1  0.02962200  0.97996000  0.59596700  1
  C  C6  1  0.97037800  0.47996000  0.90403300  1
  C  C7  1  0.02962200  0.52004000  0.40403300  1
  C  C8  1  0.02962200  0.97996000  0.90403300  1
  C  C9  1  0.97037800  0.02004000  0.40403300  1
  C  C10  1  0.02962200  0.52004000  0.09596700  1
  C  C11  1  0.97037800  0.47996000  0.59596700  1
  C  C12  1  0.93396800  0.82489900  0.25000000  1
  C  C13  1  0.06603200  0.17510100  0.75000000  1
  C  C14  1  0.93396800  0.67510100  0.75000000  1
  C  C15  1  0.06603200  0.32489900  0.25000000  1
  C  C16  1  0.08652500  0.96044300  0.25000000  1
  C  C17  1  0.91347500  0.03955700  0.75000000  1
  C  C18  1  0.08652500  0.53955700  0.75000000  1
  C  C19  1  0.91347500  0.46044300  0.25000000  1
  C  C20  1  0.06989600  0.87065400  0.10520500  1
  C  C21  1  0.93010400  0.12934600  0.60520500  1
  C  C22  1  0.06989600  0.62934600  0.89479500  1
  C  C23  1  0.93010400  0.37065400  0.39479500  1
  C  C24  1  0.93010400  0.12934600  0.89479500  1
  C  C25  1  0.06989600  0.87065400  0.39479500  1
  C  C26  1  0.93010400  0.37065400  0.10520500  1
  C  C27  1  0.06989600  0.62934600  0.60520500  1
  C  C28  1  0.07457700  0.71446900  0.16136500  1
  C  C29  1  0.92542300  0.28553100  0.66136500  1
  C  C30  1  0.07457700  0.78553100  0.83863500  1
  C  C31  1  0.92542300  0.21446900  0.33863500  1
  C  C32  1  0.92542300  0.28553100  0.83863500  1
  C  C33  1  0.07457700  0.71446900  0.33863500  1
  C  C34  1  0.92542300  0.21446900  0.16136500  1
  C  C35  1  0.07457700  0.78553100  0.66136500  1
  C  C36  1  0.08102400  0.08489900  0.25000000  1
  C  C37  1  0.91897600  0.91510100  0.75000000  1
  C  C38  1  0.08102400  0.41510100  0.75000000  1
  C  C39  1  0.91897600  0.58489900  0.25000000  1
  C  C40  1  0.93322900  0.75000000  0.00000000  1
  C  C41  1  0.06677100  0.25000000  0.50000000  1
  C  C42  1  0.06677100  0.25000000  0.00000000  1
  C  C43  1  0.93322900  0.75000000  0.50000000  1
  Ni  Ni44  1  0.48132000  0.07458200  0.06346500  1
  Ni  Ni45  1  0.51868000  0.92541800  0.56346500  1
  Ni  Ni46  1  0.48132000  0.42541800  0.93653500  1
  Ni  Ni47  1  0.51868000  0.57458200  0.43653500  1
  Ni  Ni48  1  0.51868000  0.92541800  0.93653500  1
  Ni  Ni49  1  0.48132000  0.07458200  0.43653500  1
  Ni  Ni50  1  0.51868000  0.57458200  0.06346500  1
  Ni  Ni51  1  0.48132000  0.42541800  0.56346500  1
  Cu  Cu52  1  0.49603500  0.82532100  0.25000000  1
  Cu  Cu53  1  0.50396500  0.17467900  0.75000000  1
  Cu  Cu54  1  0.49603500  0.67467900  0.75000000  1
  Cu  Cu55  1  0.50396500  0.32532100  0.25000000  1
  Cu  Cu56  1  0.00208000  0.79913700  0.16426500  1
  Cu  Cu57  1  0.99792000  0.20086300  0.66426500  1
  Cu  Cu58  1  0.00208000  0.70086300  0.83573500  1
  Cu  Cu59  1  0.99792000  0.29913700  0.33573500  1
  Cu  Cu60  1  0.99792000  0.20086300  0.83573500  1
  Cu  Cu61  1  0.00208000  0.79913700  0.33573500  1
  Cu  Cu62  1  0.99792000  0.29913700  0.16426500  1
  Cu  Cu63  1  0.00208000  0.70086300  0.66426500  1
  Cu  Cu64  1  0.00185400  0.74117900  0.25000000  1
  Cu  Cu65  1  0.99814600  0.25882100  0.75000000  1
  Cu  Cu66  1  0.00185400  0.75882100  0.75000000  1
  Cu  Cu67  1  0.99814600  0.24117900  0.25000000  1
  Cu  Cu68  1  0.00176800  0.89276500  0.19526800  1
  Cu  Cu69  1  0.99823200  0.10723500  0.69526800  1
  Cu  Cu70  1  0.00176800  0.60723500  0.80473200  1
  Cu  Cu71  1  0.99823200  0.39276500  0.30473200  1
  Cu  Cu72  1  0.99823200  0.10723500  0.80473200  1
  Cu  Cu73  1  0.00176800  0.89276500  0.30473200  1
  Cu  Cu74  1  0.99823200  0.39276500  0.19526800  1
  Cu  Cu75  1  0.00176800  0.60723500  0.69526800  1
  Cu  Cu76  1  0.52728000  0.95786800  0.25000000  1
  Cu  Cu77  1  0.47272000  0.04213200  0.75000000  1
  Cu  Cu78  1  0.52728000  0.54213200  0.75000000  1
  Cu  Cu79  1  0.47272000  0.45786800  0.25000000  1
  Cu  Cu80  1  0.01526600  0.02251400  0.19121400  1
  Cu  Cu81  1  0.98473400  0.97748600  0.69121400  1
  Cu  Cu82  1  0.01526600  0.47748600  0.80878600  1
  Cu  Cu83  1  0.98473400  0.52251400  0.30878600  1
  Cu  Cu84  1  0.98473400  0.97748600  0.80878600  1
  Cu  Cu85  1  0.01526600  0.02251400  0.30878600  1
  Cu  Cu86  1  0.98473400  0.52251400  0.19121400  1
  Cu  Cu87  1  0.01526600  0.47748600  0.69121400  1
  Cu  Cu88  1  0.51267500  0.86743000  0.11074800  1
  Cu  Cu89  1  0.48732500  0.13257000  0.61074800  1
  Cu  Cu90  1  0.51267500  0.63257000  0.88925200  1
  Cu  Cu91  1  0.48732500  0.36743000  0.38925200  1
  Cu  Cu92  1  0.48732500  0.13257000  0.88925200  1
  Cu  Cu93  1  0.51267500  0.86743000  0.38925200  1
  Cu  Cu94  1  0.48732500  0.36743000  0.11074800  1
  Cu  Cu95  1  0.51267500  0.63257000  0.61074800  1
  Cu  Cu96  1  0.01516300  0.94055300  0.08040600  1
  Cu  Cu97  1  0.98483700  0.05944700  0.58040600  1
  Cu  Cu98  1  0.01516300  0.55944700  0.91959400  1
  Cu  Cu99  1  0.98483700  0.44055300  0.41959400  1
  Cu  Cu100  1  0.98483700  0.05944700  0.91959400  1
  Cu  Cu101  1  0.01516300  0.94055300  0.41959400  1
  Cu  Cu102  1  0.98483700  0.44055300  0.08040600  1
  Cu  Cu103  1  0.01516300  0.55944700  0.58040600  1
  Cu  Cu104  1  0.00263500  0.82466300  0.03925900  1
  Cu  Cu105  1  0.99736500  0.17533700  0.53925900  1
  Cu  Cu106  1  0.00263500  0.67533700  0.96074100  1
  Cu  Cu107  1  0.99736500  0.32466300  0.46074100  1
  Cu  Cu108  1  0.99736500  0.17533700  0.96074100  1
  Cu  Cu109  1  0.00263500  0.82466300  0.46074100  1
  Cu  Cu110  1  0.99736500  0.32466300  0.03925900  1
  Cu  Cu111  1  0.00263500  0.67533700  0.53925900  1
  Cu  Cu112  1  0.51440200  0.71777700  0.16393300  1
  Cu  Cu113  1  0.48559800  0.28222300  0.66393300  1
  Cu  Cu114  1  0.51440200  0.78222300  0.83606700  1
  Cu  Cu115  1  0.48559800  0.21777700  0.33606700  1
  Cu  Cu116  1  0.48559800  0.28222300  0.83606700  1
  Cu  Cu117  1  0.51440200  0.71777700  0.33606700  1
  Cu  Cu118  1  0.48559800  0.21777700  0.16393300  1
  Cu  Cu119  1  0.51440200  0.78222300  0.66393300  1
  Cu  Cu120  1  0.00522200  0.64279000  0.18483500  1
  Cu  Cu121  1  0.99477800  0.35721000  0.68483500  1
  Cu  Cu122  1  0.00522200  0.85721000  0.81516500  1
  Cu  Cu123  1  0.99477800  0.14279000  0.31516500  1
  Cu  Cu124  1  0.99477800  0.35721000  0.81516500  1
  Cu  Cu125  1  0.00522200  0.64279000  0.31516500  1
  Cu  Cu126  1  0.99477800  0.14279000  0.18483500  1
  Cu  Cu127  1  0.00522200  0.85721000  0.68483500  1
  Cu  Cu128  1  0.00487200  0.71252700  0.07997800  1
  Cu  Cu129  1  0.99512800  0.28747300  0.57997800  1
  Cu  Cu130  1  0.00487200  0.78747300  0.92002200  1
  Cu  Cu131  1  0.99512800  0.21252700  0.42002200  1
  Cu  Cu132  1  0.99512800  0.28747300  0.92002200  1
  Cu  Cu133  1  0.00487200  0.71252700  0.42002200  1
  Cu  Cu134  1  0.99512800  0.21252700  0.07997800  1
  Cu  Cu135  1  0.00487200  0.78747300  0.57997800  1
  Cu  Cu136  1  0.52094900  0.08922900  0.25000000  1
  Cu  Cu137  1  0.47905100  0.91077100  0.75000000  1
  Cu  Cu138  1  0.52094900  0.41077100  0.75000000  1
  Cu  Cu139  1  0.47905100  0.58922900  0.25000000  1
  Cu  Cu140  1  0.49070100  0.75000000  0.00000000  1
  Cu  Cu141  1  0.50929900  0.25000000  0.50000000  1
  Cu  Cu142  1  0.50929900  0.25000000  0.00000000  1
  Cu  Cu143  1  0.49070100  0.75000000  0.50000000  1
