# generated using pymatgen
data_Cu7(NiC)2
_symmetry_space_group_name_H-M   'P 1'
_cell_length_a   7.35546221
_cell_length_b   7.35546221
_cell_length_c   7.42276964
_cell_angle_alpha   88.20565752
_cell_angle_beta   88.20565752
_cell_angle_gamma   60.93328811
_symmetry_Int_Tables_number   1
_chemical_formula_structural   Cu7(NiC)2
_chemical_formula_sum   'Cu14 Ni4 C4'
_cell_volume   350.78234926
_cell_formula_units_Z   2
loop_
 _symmetry_equiv_pos_site_id
 _symmetry_equiv_pos_as_xyz
  1  'x, y, z'
loop_
 _atom_site_type_symbol
 _atom_site_label
 _atom_site_symmetry_multiplicity
 _atom_site_fract_x
 _atom_site_fract_y
 _atom_site_fract_z
 _atom_site_occupancy
  C  C0  1  0.50921400  0.19861900  0.85094600  1
  C  C1  1  0.19861900  0.50921400  0.35094600  1
  C  C2  1  0.80138100  0.49078600  0.64905400  1
  C  C3  1  0.49078600  0.80138100  0.14905400  1
  Ni  Ni4  1  0.71324700  0.08421900  0.35629200  1
  Ni  Ni5  1  0.91578100  0.28675300  0.14370800  1
  Ni  Ni6  1  0.28675300  0.91578100  0.64370800  1
  Ni  Ni7  1  0.08421900  0.71324700  0.85629200  1
  Cu  Cu8  1  0.13284500  0.19809000  0.08812700  1
  Cu  Cu9  1  0.80191000  0.86715500  0.41187300  1
  Cu  Cu10  1  0.44922900  0.84973600  0.77870300  1
  Cu  Cu11  1  0.15026400  0.55077100  0.72129700  1
  Cu  Cu12  1  0.86715500  0.80191000  0.91187300  1
  Cu  Cu13  1  0.23184800  0.65363200  0.00295500  1
  Cu  Cu14  1  0.08176400  0.91823600  0.75000000  1
  Cu  Cu15  1  0.34636800  0.76815200  0.49704500  1
  Cu  Cu16  1  0.76815200  0.34636800  0.99704500  1
  Cu  Cu17  1  0.84973600  0.44922900  0.27870300  1
  Cu  Cu18  1  0.55077100  0.15026400  0.22129700  1
  Cu  Cu19  1  0.91823600  0.08176400  0.25000000  1
  Cu  Cu20  1  0.65363200  0.23184800  0.50295500  1
  Cu  Cu21  1  0.19809000  0.13284500  0.58812700  1
