# generated using pymatgen
data_Cu12Ni9C10
_symmetry_space_group_name_H-M   'P 1'
_cell_length_a   8.31673900
_cell_length_b   8.31673900
_cell_length_c   24.67878900
_cell_angle_alpha   90.00000000
_cell_angle_beta   90.00000000
_cell_angle_gamma   90.00000000
_symmetry_Int_Tables_number   1
_chemical_formula_structural   Cu12Ni9C10
_chemical_formula_sum   'Cu48 Ni36 C40'
_cell_volume   1706.98612000
_cell_formula_units_Z   4
loop_
 _symmetry_equiv_pos_site_id
 _symmetry_equiv_pos_as_xyz
  1  'x, y, z'
loop_
 _atom_site_type_symbol
 _atom_site_label
 _atom_site_symmetry_multiplicity
 _atom_site_fract_x
 _atom_site_fract_y
 _atom_site_fract_z
 _atom_site_occupancy
  C  C0  1  0.49232400  0.18939700  0.58057700  1
  C  C1  1  0.00767600  0.68939700  0.66942300  1
  C  C2  1  0.79876300  0.29503900  0.68090400  1
  C  C3  1  0.60303200  0.91679300  0.70778100  1
  C  C4  1  0.18939700  0.49232400  0.41942300  1
  C  C5  1  0.39856400  0.70468800  0.94525900  1
  C  C6  1  0.98980600  0.10054600  0.44058400  1
  C  C7  1  0.79503900  0.70123700  0.43090400  1
  C  C8  1  0.70123700  0.79503900  0.56909600  1
  C  C9  1  0.29876300  0.20496100  0.06909600  1
  C  C10  1  0.70468800  0.39856400  0.05474100  1
  C  C11  1  0.91679300  0.60303200  0.29221900  1
  C  C12  1  0.51019400  0.60054600  0.80941600  1
  C  C13  1  0.81060300  0.50767600  0.91942300  1
  C  C14  1  0.20468800  0.10143600  0.69525900  1
  C  C15  1  0.01019400  0.89945400  0.94058400  1
  C  C16  1  0.20496100  0.29876300  0.93090400  1
  C  C17  1  0.10143600  0.20468800  0.30474100  1
  C  C18  1  0.50767600  0.81060300  0.08057700  1
  C  C19  1  0.79531200  0.89856400  0.19525900  1
  C  C20  1  0.39696800  0.08320700  0.20778100  1
  C  C21  1  0.99232400  0.31060300  0.16942300  1
  C  C22  1  0.08320700  0.39696800  0.79221900  1
  C  C23  1  0.29531200  0.60143600  0.55474100  1
  C  C24  1  0.89945400  0.01019400  0.05941600  1
  C  C25  1  0.58320700  0.10303200  0.95778100  1
  C  C26  1  0.48980600  0.39945400  0.30941600  1
  C  C27  1  0.89696800  0.41679300  0.54221900  1
  C  C28  1  0.10303200  0.58320700  0.04221900  1
  C  C29  1  0.20123700  0.70496100  0.18090400  1
  C  C30  1  0.39945400  0.48980600  0.69058400  1
  C  C31  1  0.70496100  0.20123700  0.81909600  1
  C  C32  1  0.60054600  0.51019400  0.19058400  1
  C  C33  1  0.29503900  0.79876300  0.31909600  1
  C  C34  1  0.31060300  0.99232400  0.83057700  1
  C  C35  1  0.89856400  0.79531200  0.80474100  1
  C  C36  1  0.60143600  0.29531200  0.44525900  1
  C  C37  1  0.41679300  0.89696800  0.45778100  1
  C  C38  1  0.10054600  0.98980600  0.55941600  1
  C  C39  1  0.68939700  0.00767600  0.33057700  1
  Ni  Ni40  1  0.90420500  0.21252300  0.96905000  1
  Ni  Ni41  1  0.37068800  0.50198100  0.11082200  1
  Ni  Ni42  1  0.59579500  0.71252300  0.28095000  1
  Ni  Ni43  1  0.08164200  0.91835800  0.25000000  1
  Ni  Ni44  1  0.49801900  0.62931200  0.38917800  1
  Ni  Ni45  1  0.87068800  0.99801900  0.63917800  1
  Ni  Ni46  1  0.91835800  0.08164200  0.75000000  1
  Ni  Ni47  1  0.62880800  0.12418900  0.11670600  1
  Ni  Ni48  1  0.78747700  0.09579500  0.53095000  1
  Ni  Ni49  1  0.28747700  0.40420500  0.21905000  1
  Ni  Ni50  1  0.40420500  0.28747700  0.78095000  1
  Ni  Ni51  1  0.12418900  0.62880800  0.88329400  1
  Ni  Ni52  1  0.29173000  0.20018200  0.47620000  1
  Ni  Ni53  1  0.62418900  0.87119200  0.86670600  1
  Ni  Ni54  1  0.20827000  0.70018200  0.77380000  1
  Ni  Ni55  1  0.00198100  0.12931200  0.86082200  1
  Ni  Ni56  1  0.41835800  0.41835800  0.00000000  1
  Ni  Ni57  1  0.71252300  0.59579500  0.71905000  1
  Ni  Ni58  1  0.87119200  0.62418900  0.13329400  1
  Ni  Ni59  1  0.87581100  0.37119200  0.38329400  1
  Ni  Ni60  1  0.70018200  0.20827000  0.22620000  1
  Ni  Ni61  1  0.79173000  0.29981800  0.27380000  1
  Ni  Ni62  1  0.12880800  0.37581100  0.63329400  1
  Ni  Ni63  1  0.79981800  0.70827000  0.02380000  1
  Ni  Ni64  1  0.21252300  0.90420500  0.03095000  1
  Ni  Ni65  1  0.99801900  0.87068800  0.36082200  1
  Ni  Ni66  1  0.09579500  0.78747700  0.46905000  1
  Ni  Ni67  1  0.37119200  0.87581100  0.61670600  1
  Ni  Ni68  1  0.12931200  0.00198100  0.13917800  1
  Ni  Ni69  1  0.50198100  0.37068800  0.88917800  1
  Ni  Ni70  1  0.70827000  0.79981800  0.97620000  1
  Ni  Ni71  1  0.62931200  0.49801900  0.61082200  1
  Ni  Ni72  1  0.29981800  0.79173000  0.72620000  1
  Ni  Ni73  1  0.58164200  0.58164200  0.50000000  1
  Ni  Ni74  1  0.37581100  0.12880800  0.36670600  1
  Ni  Ni75  1  0.20018200  0.29173000  0.52380000  1
  Cu  Cu76  1  0.30120100  0.99416200  0.92856200  1
  Cu  Cu77  1  0.40887300  0.50556200  0.05236000  1
  Cu  Cu78  1  0.70874000  0.00250600  0.48487900  1
  Cu  Cu79  1  0.80120100  0.50583800  0.82143800  1
  Cu  Cu80  1  0.90887300  0.99443800  0.69764000  1
  Cu  Cu81  1  0.89274600  0.39887600  0.44181200  1
  Cu  Cu82  1  0.69879900  0.00583800  0.42856200  1
  Cu  Cu83  1  0.00583800  0.69879900  0.57143800  1
  Cu  Cu84  1  0.99416200  0.30120100  0.07143800  1
  Cu  Cu85  1  0.09089900  0.80018400  0.40810200  1
  Cu  Cu86  1  0.40910100  0.30018400  0.84189800  1
  Cu  Cu87  1  0.00556200  0.09112700  0.80236000  1
  Cu  Cu88  1  0.80018400  0.09089900  0.59189800  1
  Cu  Cu89  1  0.99749400  0.29126000  0.01512100  1
  Cu  Cu90  1  0.31611700  0.80033000  0.66686700  1
  Cu  Cu91  1  0.59089900  0.69981600  0.34189800  1
  Cu  Cu92  1  0.49749400  0.20874000  0.73487900  1
  Cu  Cu93  1  0.60112400  0.10725400  0.05818800  1
  Cu  Cu94  1  0.19967000  0.68388300  0.83313300  1
  Cu  Cu95  1  0.10725400  0.60112400  0.94181200  1
  Cu  Cu96  1  0.60725400  0.89887600  0.80818800  1
  Cu  Cu97  1  0.09112700  0.00556200  0.19764000  1
  Cu  Cu98  1  0.20874000  0.49749400  0.26512100  1
  Cu  Cu99  1  0.69981600  0.59089900  0.65810200  1
  Cu  Cu100  1  0.00250600  0.70874000  0.51512100  1
  Cu  Cu101  1  0.69967000  0.81611700  0.91686700  1
  Cu  Cu102  1  0.30018400  0.40910100  0.15810200  1
  Cu  Cu103  1  0.49416200  0.19879900  0.67856200  1
  Cu  Cu104  1  0.50583800  0.80120100  0.17856200  1
  Cu  Cu105  1  0.99443800  0.90887300  0.30236000  1
  Cu  Cu106  1  0.39887600  0.89274600  0.55818800  1
  Cu  Cu107  1  0.10112400  0.39274600  0.69181200  1
  Cu  Cu108  1  0.50250600  0.79126000  0.23487900  1
  Cu  Cu109  1  0.19879900  0.49416200  0.32143800  1
  Cu  Cu110  1  0.90910100  0.19981600  0.90810200  1
  Cu  Cu111  1  0.81611700  0.69967000  0.08313300  1
  Cu  Cu112  1  0.79126000  0.50250600  0.76512100  1
  Cu  Cu113  1  0.89887600  0.60725400  0.19181200  1
  Cu  Cu114  1  0.18388300  0.30033000  0.58313300  1
  Cu  Cu115  1  0.59112700  0.49443800  0.55236000  1
  Cu  Cu116  1  0.19981600  0.90910100  0.09189800  1
  Cu  Cu117  1  0.50556200  0.40887300  0.94764000  1
  Cu  Cu118  1  0.39274600  0.10112400  0.30818800  1
  Cu  Cu119  1  0.29126000  0.99749400  0.98487900  1
  Cu  Cu120  1  0.80033000  0.31611700  0.33313300  1
  Cu  Cu121  1  0.49443800  0.59112700  0.44764000  1
  Cu  Cu122  1  0.30033000  0.18388300  0.41686700  1
  Cu  Cu123  1  0.68388300  0.19967000  0.16686700  1
