# generated using pymatgen
data_Cu4NiC16
_symmetry_space_group_name_H-M   'P 1'
_cell_length_a   7.23309700
_cell_length_b   7.34553488
_cell_length_c   13.46058552
_cell_angle_alpha   82.03230662
_cell_angle_beta   80.15291967
_cell_angle_gamma   63.05176983
_symmetry_Int_Tables_number   1
_chemical_formula_structural   Cu4NiC16
_chemical_formula_sum   'Cu8 Ni2 C32'
_cell_volume   626.60327243
_cell_formula_units_Z   2
loop_
 _symmetry_equiv_pos_site_id
 _symmetry_equiv_pos_as_xyz
  1  'x, y, z'
loop_
 _atom_site_type_symbol
 _atom_site_label
 _atom_site_symmetry_multiplicity
 _atom_site_fract_x
 _atom_site_fract_y
 _atom_site_fract_z
 _atom_site_occupancy
  C  C0  1  0.70571300  0.21562600  0.69389600  1
  C  C1  1  0.09914700  0.60451100  0.55840800  1
  C  C2  1  0.30916900  0.78082700  0.03103000  1
  C  C3  1  0.29428700  0.78437400  0.30610400  1
  C  C4  1  0.69083100  0.21917300  0.96897000  1
  C  C5  1  0.90085300  0.39548900  0.44159200  1
  Ni  Ni6  1  0.84136000  0.73122400  0.97673500  1
  Ni  Ni7  1  0.15864000  0.26877600  0.02326500  1
  Cu  Cu8  1  0.68257000  0.69119600  0.78701800  1
  Cu  Cu9  1  0.16242500  0.21052500  0.79067100  1
  Cu  Cu10  1  0.83171100  0.29253100  0.20663100  1
  Cu  Cu11  1  0.83757500  0.78947500  0.20932900  1
  Cu  Cu12  1  0.16828900  0.70746900  0.79336900  1
  Cu  Cu13  1  0.31743000  0.30880400  0.21298200  1
  Cu  Cu14  1  0.57974000  0.06575300  0.39449100  1
  Cu  Cu15  1  0.42026000  0.93424700  0.60550900  1
  C  C16  1  0.53663200  0.01259900  0.25102300  1
  C  C17  1  0.83834600  0.80490100  0.36111100  1
  C  C18  1  0.74090800  0.22524800  0.35074200  1
  C  C19  1  0.13866500  0.60411100  0.19264200  1
  C  C20  1  0.55264100  0.38347600  0.15855100  1
  C  C21  1  0.67793600  0.75115300  0.92781300  1
  C  C22  1  0.25909200  0.77475200  0.64925800  1
  C  C23  1  0.05013100  0.65411400  0.93595500  1
  C  C24  1  0.16165400  0.19509900  0.63888900  1
  C  C25  1  0.44735900  0.61652400  0.84144900  1
  C  C26  1  0.86133500  0.39588900  0.80735800  1
  C  C27  1  0.26989300  0.41954900  0.75281200  1
  C  C28  1  0.67521300  0.67312400  0.63789900  1
  C  C29  1  0.73010700  0.58045100  0.24718800  1
  C  C30  1  0.59294100  0.08514300  0.53885800  1
  C  C31  1  0.89786700  0.78992900  0.73893400  1
  C  C32  1  0.94986900  0.34588600  0.06404500  1
  C  C33  1  0.77213800  0.81873000  0.06874700  1
  C  C34  1  0.32206400  0.24884700  0.07218700  1
  C  C35  1  0.06236800  0.99543100  0.83213700  1
  C  C36  1  0.10213300  0.21007100  0.26106600  1
  C  C37  1  0.93763200  0.00456900  0.16786300  1
  C  C38  1  0.40705900  0.91485700  0.46114200  1
  C  C39  1  0.22786200  0.18127000  0.93125300  1
  C  C40  1  0.46336800  0.98740100  0.74897700  1
  C  C41  1  0.32478700  0.32687600  0.36210100  1
