# generated using pymatgen
data_Cu2NiC2
_symmetry_space_group_name_H-M   'P 1'
_cell_length_a   14.84043473
_cell_length_b   14.84043473
_cell_length_c   14.84043473
_cell_angle_alpha   122.12235789
_cell_angle_beta   122.12235789
_cell_angle_gamma   86.36166806
_symmetry_Int_Tables_number   1
_chemical_formula_structural   Cu2NiC2
_chemical_formula_sum   'Cu32 Ni16 C32'
_cell_volume   2232.09280899
_cell_formula_units_Z   16
loop_
 _symmetry_equiv_pos_site_id
 _symmetry_equiv_pos_as_xyz
  1  'x, y, z'
loop_
 _atom_site_type_symbol
 _atom_site_label
 _atom_site_symmetry_multiplicity
 _atom_site_fract_x
 _atom_site_fract_y
 _atom_site_fract_z
 _atom_site_occupancy
  C  C0  1  0.89962900  0.89962900  0.29925800  1
  C  C1  1  0.78872000  0.06674600  0.04326000  1
  C  C2  1  0.75454000  0.47651500  0.04326000  1
  C  C3  1  0.46128000  0.00454000  0.77802500  1
  C  C4  1  0.52348500  0.56674600  0.27802500  1
  C  C5  1  0.49546000  0.03872000  0.22197500  1
  C  C6  1  0.43325400  0.71128000  0.95674000  1
  C  C7  1  0.35037100  0.14962900  0.50000000  1
  C  C8  1  0.89982000  0.60018000  0.50000000  1
  C  C9  1  0.10037100  0.39962900  0.00000000  1
  C  C10  1  0.10018000  0.39982000  0.50000000  1
  C  C11  1  0.39962900  0.10037100  0.00000000  1
  C  C12  1  0.85037100  0.35037100  0.20074200  1
  C  C13  1  0.64962900  0.85037100  0.50000000  1
  C  C14  1  0.99546000  0.77348500  0.45674000  1
  C  C15  1  0.31674600  0.53872000  0.54326000  1
  C  C16  1  0.35018000  0.35018000  0.20036000  1
  C  C17  1  0.85018000  0.64982000  0.00000000  1
  C  C18  1  0.14962900  0.64962900  0.79925800  1
  C  C19  1  0.02348500  0.74546000  0.95674000  1
  C  C20  1  0.64982000  0.85018000  0.00000000  1
  C  C21  1  0.22651500  0.68325400  0.22197500  1
  C  C22  1  0.96128000  0.18325400  0.45674000  1
  C  C23  1  0.14982000  0.14982000  0.79964000  1
  C  C24  1  0.39982000  0.89982000  0.29964000  1
  C  C25  1  0.72651500  0.50454000  0.54326000  1
  C  C26  1  0.28872000  0.24546000  0.72197500  1
  C  C27  1  0.93325400  0.97651500  0.72197500  1
  C  C28  1  0.60037100  0.60037100  0.70074200  1
  C  C29  1  0.25454000  0.21128000  0.27802500  1
  C  C30  1  0.81674600  0.27348500  0.77802500  1
  C  C31  1  0.60018000  0.10018000  0.70036000  1
  Ni  Ni32  1  0.65013200  0.68860900  0.20099300  1
  Ni  Ni33  1  0.93860900  0.40013200  0.70099300  1
  Ni  Ni34  1  0.26238400  0.80086100  0.70099300  1
  Ni  Ni35  1  0.19913900  0.90013200  0.46152300  1
  Ni  Ni36  1  0.81139100  0.84986800  0.79900700  1
  Ni  Ni37  1  0.76238400  0.06139100  0.46152300  1
  Ni  Ni38  1  0.59986800  0.30086100  0.53847700  1
  Ni  Ni39  1  0.31139100  0.51238400  0.96152300  1
  Ni  Ni40  1  0.69913900  0.23761600  0.29900700  1
  Ni  Ni41  1  0.43860900  0.73761600  0.53847700  1
  Ni  Ni42  1  0.09986800  0.56139100  0.29900700  1
  Ni  Ni43  1  0.05086100  0.01238400  0.20099300  1
  Ni  Ni44  1  0.48761600  0.44913900  0.79900700  1
  Ni  Ni45  1  0.15013200  0.94913900  0.96152300  1
  Ni  Ni46  1  0.98761600  0.18860900  0.03847700  1
  Ni  Ni47  1  0.55086100  0.34986800  0.03847700  1
  Cu  Cu48  1  0.30779000  0.87500000  0.93279000  1
  Cu  Cu49  1  0.94221000  0.37500000  0.06721000  1
  Cu  Cu50  1  0.79035500  0.03785300  0.82230300  1
  Cu  Cu51  1  0.95964500  0.21214700  0.67769700  1
  Cu  Cu52  1  0.89807600  0.39807600  0.50000000  1
  Cu  Cu53  1  0.12500000  0.05779000  0.43279000  1
  Cu  Cu54  1  0.53445000  0.28194800  0.32230300  1
  Cu  Cu55  1  0.64807600  0.64807600  0.00000000  1
  Cu  Cu56  1  0.80779000  0.87500000  0.43279000  1
  Cu  Cu57  1  0.85192400  0.85192400  0.00000000  1
  Cu  Cu58  1  0.53194800  0.28445000  0.82230300  1
  Cu  Cu59  1  0.78785300  0.46555000  0.74749800  1
  Cu  Cu60  1  0.03445000  0.71214700  0.25250200  1
  Cu  Cu61  1  0.14807600  0.14807600  0.00000000  1
  Cu  Cu62  1  0.03194800  0.20964500  0.24749800  1
  Cu  Cu63  1  0.71805200  0.04035500  0.25250200  1
  Cu  Cu64  1  0.96214700  0.78445000  0.75250200  1
  Cu  Cu65  1  0.28785300  0.54035500  0.32230300  1
  Cu  Cu66  1  0.10192400  0.60192400  0.50000000  1
  Cu  Cu67  1  0.62500000  0.69221000  0.56721000  1
  Cu  Cu68  1  0.44221000  0.37500000  0.56721000  1
  Cu  Cu69  1  0.60192400  0.10192400  0.50000000  1
  Cu  Cu70  1  0.21805200  0.96555000  0.67769700  1
  Cu  Cu71  1  0.12500000  0.55779000  0.93279000  1
  Cu  Cu72  1  0.39807600  0.89807600  0.50000000  1
  Cu  Cu73  1  0.62500000  0.19221000  0.06721000  1
  Cu  Cu74  1  0.71555000  0.53785300  0.24749800  1
  Cu  Cu75  1  0.35192400  0.35192400  0.00000000  1
  Cu  Cu76  1  0.21555000  0.96805200  0.17769700  1
  Cu  Cu77  1  0.45964500  0.78194800  0.74749800  1
  Cu  Cu78  1  0.46214700  0.70964500  0.17769700  1
  Cu  Cu79  1  0.29035500  0.46805200  0.75250200  1
