# generated using pymatgen
data_Cu2NiC13
_symmetry_space_group_name_H-M   'P 1'
_cell_length_a   11.97950800
_cell_length_b   5.47966400
_cell_length_c   11.68789407
_cell_angle_alpha   84.63885403
_cell_angle_beta   90.00000000
_cell_angle_gamma   90.00000000
_symmetry_Int_Tables_number   1
_chemical_formula_structural   Cu2NiC13
_chemical_formula_sum   'Cu8 Ni4 C52'
_cell_volume   763.88012871
_cell_formula_units_Z   4
loop_
 _symmetry_equiv_pos_site_id
 _symmetry_equiv_pos_as_xyz
  1  'x, y, z'
loop_
 _atom_site_type_symbol
 _atom_site_label
 _atom_site_symmetry_multiplicity
 _atom_site_fract_x
 _atom_site_fract_y
 _atom_site_fract_z
 _atom_site_occupancy
  Ni  Ni0  1  0.71119900  0.88242800  0.57011600  1
  Ni  Ni1  1  0.28880100  0.11757200  0.42988400  1
  Ni  Ni2  1  0.78880100  0.88242800  0.07011600  1
  Ni  Ni3  1  0.21119900  0.11757200  0.92988400  1
  C  C4  1  0.11019500  0.70075000  0.22531800  1
  C  C5  1  0.63572900  0.31864400  0.79652000  1
  C  C6  1  0.88980500  0.29925000  0.77468200  1
  C  C7  1  0.90848500  0.61711400  0.89046600  1
  C  C8  1  0.03247000  0.81710100  0.60429500  1
  C  C9  1  0.12890500  0.59206100  0.55838100  1
  C  C10  1  0.62890500  0.40793900  0.94161900  1
  C  C11  1  0.40848500  0.38288600  0.60953400  1
  C  C12  1  0.09151500  0.38288600  0.10953400  1
  C  C13  1  0.13572900  0.68135600  0.70348000  1
  C  C14  1  0.87109500  0.40793900  0.44161900  1
  C  C15  1  0.38980500  0.70075000  0.72531800  1
  C  C16  1  0.96753000  0.18289900  0.39570500  1
  C  C17  1  0.59151500  0.61711400  0.39046600  1
  C  C18  1  0.61019500  0.29925000  0.27468200  1
  C  C19  1  0.46753000  0.81710100  0.10429500  1
  C  C20  1  0.37109500  0.59206100  0.05838100  1
  C  C21  1  0.86427100  0.31864400  0.29652000  1
  C  C22  1  0.53247000  0.18289900  0.89570500  1
  C  C23  1  0.36427100  0.68135600  0.20348000  1
  Cu  Cu24  1  0.58198500  0.34645400  0.86976700  1
  Cu  Cu25  1  0.91801500  0.34645400  0.36976700  1
  Cu  Cu26  1  0.94723200  0.45288900  0.75528400  1
  Cu  Cu27  1  0.08198500  0.65354600  0.63023300  1
  Cu  Cu28  1  0.41801500  0.65354600  0.13023300  1
  Cu  Cu29  1  0.05276800  0.54711100  0.24471600  1
  Cu  Cu30  1  0.55276800  0.45288900  0.25528400  1
  Cu  Cu31  1  0.44723200  0.54711100  0.74471600  1
  C  C32  1  0.45887900  0.37319400  0.68031600  1
  C  C33  1  0.04112100  0.37319400  0.18031600  1
  C  C34  1  0.99627200  0.55003800  0.33736700  1
  C  C35  1  0.49627200  0.44996200  0.16263300  1
  C  C36  1  0.00372800  0.44996200  0.66263300  1
  C  C37  1  0.50372800  0.55003800  0.83736700  1
  C  C38  1  0.95887900  0.62680600  0.81968400  1
  C  C39  1  0.54112100  0.62680600  0.31968400  1
  C  C40  1  0.84616100  0.82640700  0.51698300  1
  C  C41  1  0.76098800  0.67648700  0.19274300  1
  C  C42  1  0.83937500  0.62036400  0.99826200  1
  C  C43  1  0.16062500  0.37963600  0.00173800  1
  C  C44  1  0.73850300  0.13139000  0.14031700  1
  C  C45  1  0.76149700  0.13139000  0.64031700  1
  C  C46  1  0.26149700  0.86861000  0.85968300  1
  C  C47  1  0.07441400  0.07685500  0.87943400  1
  C  C48  1  0.68176100  0.07439800  0.44361800  1
  C  C49  1  0.65383900  0.82640700  0.01698300  1
  C  C50  1  0.23901200  0.32351300  0.80725700  1
  C  C51  1  0.26098800  0.32351300  0.30725700  1
  C  C52  1  0.31823900  0.92560200  0.55638200  1
  C  C53  1  0.42558600  0.07685500  0.37943400  1
  C  C54  1  0.34616100  0.17359300  0.98301700  1
  C  C55  1  0.92558600  0.92314500  0.12056600  1
  C  C56  1  0.15383900  0.17359300  0.48301700  1
  C  C57  1  0.81823900  0.07439800  0.94361800  1
  C  C58  1  0.57441400  0.92314500  0.62056600  1
  C  C59  1  0.66062500  0.62036400  0.49826200  1
  C  C60  1  0.23850300  0.86861000  0.35968300  1
  C  C61  1  0.33937500  0.37963600  0.50173800  1
  C  C62  1  0.73901200  0.67648700  0.69274300  1
  C  C63  1  0.18176100  0.92560200  0.05638200  1
