# generated using pymatgen
data_Cu3NiC6
_symmetry_space_group_name_H-M   'P 1'
_cell_length_a   13.07976489
_cell_length_b   13.07976489
_cell_length_c   17.16767880
_cell_angle_alpha   64.18897647
_cell_angle_beta   64.18897647
_cell_angle_gamma   33.82716489
_symmetry_Int_Tables_number   1
_chemical_formula_structural   Cu3NiC6
_chemical_formula_sum   'Cu24 Ni8 C48'
_cell_volume   1455.90148497
_cell_formula_units_Z   8
loop_
 _symmetry_equiv_pos_site_id
 _symmetry_equiv_pos_as_xyz
  1  'x, y, z'
loop_
 _atom_site_type_symbol
 _atom_site_label
 _atom_site_symmetry_multiplicity
 _atom_site_fract_x
 _atom_site_fract_y
 _atom_site_fract_z
 _atom_site_occupancy
  Ni  Ni0  1  0.79332900  0.08322300  0.45379600  1
  Ni  Ni1  1  0.08322300  0.79332900  0.95379600  1
  Ni  Ni2  1  0.52537800  0.63403200  0.28885000  1
  Ni  Ni3  1  0.47462200  0.36596800  0.71115000  1
  Ni  Ni4  1  0.36596800  0.47462200  0.21115000  1
  Ni  Ni5  1  0.20667100  0.91677700  0.54620400  1
  Ni  Ni6  1  0.63403200  0.52537800  0.78885000  1
  Ni  Ni7  1  0.91677700  0.20667100  0.04620400  1
  Cu  Cu8  1  0.47001400  0.04126300  0.80798000  1
  Cu  Cu9  1  0.17978300  0.24432700  0.03690300  1
  Cu  Cu10  1  0.75567300  0.82021700  0.46309700  1
  Cu  Cu11  1  0.55601200  0.72355300  0.17248100  1
  Cu  Cu12  1  0.00111800  0.72070200  0.05026900  1
  Cu  Cu13  1  0.72355300  0.55601200  0.67248100  1
  Cu  Cu14  1  0.27929800  0.99888200  0.44973100  1
  Cu  Cu15  1  0.95873700  0.52998600  0.69202000  1
  Cu  Cu16  1  0.44398800  0.27644700  0.82751900  1
  Cu  Cu17  1  0.58962900  0.04201900  0.07316400  1
  Cu  Cu18  1  0.99888200  0.27929800  0.94973100  1
  Cu  Cu19  1  0.82021700  0.75567300  0.96309700  1
  Cu  Cu20  1  0.72070200  0.00111800  0.55026900  1
  Cu  Cu21  1  0.52998600  0.95873700  0.19202000  1
  Cu  Cu22  1  0.95798100  0.41037100  0.42683600  1
  Cu  Cu23  1  0.80628100  0.87055900  0.83661900  1
  Cu  Cu24  1  0.41037100  0.95798100  0.92683600  1
  Cu  Cu25  1  0.27644700  0.44398800  0.32751900  1
  Cu  Cu26  1  0.12944100  0.19371900  0.66338100  1
  Cu  Cu27  1  0.19371900  0.12944100  0.16338100  1
  Cu  Cu28  1  0.24432700  0.17978300  0.53690300  1
  Cu  Cu29  1  0.04201900  0.58962900  0.57316400  1
  Cu  Cu30  1  0.04126300  0.47001400  0.30798000  1
  Cu  Cu31  1  0.87055900  0.80628100  0.33661900  1
  C  C32  1  0.42504500  0.93691100  0.17788700  1
  C  C33  1  0.80379200  0.84786500  0.02346200  1
  C  C34  1  0.06308900  0.57495500  0.32211300  1
  C  C35  1  0.93691100  0.42504500  0.67788700  1
  C  C36  1  0.19620800  0.15213500  0.97653800  1
  C  C37  1  0.84786500  0.80379200  0.52346200  1
  C  C38  1  0.15213500  0.19620800  0.47653800  1
  C  C39  1  0.57495500  0.06308900  0.82211300  1
  C  C40  1  0.05025600  0.21066200  0.87687700  1
  C  C41  1  0.21066200  0.05025600  0.37687700  1
  C  C42  1  0.74559600  0.47146300  0.62401800  1
  C  C43  1  0.74810900  0.60375300  0.15364400  1
  C  C44  1  0.25440400  0.52853700  0.37598200  1
  C  C45  1  0.86000800  0.47245400  0.95007400  1
  C  C46  1  0.25189100  0.39624700  0.84635600  1
  C  C47  1  0.52754600  0.13999200  0.54992600  1
  C  C48  1  0.60375300  0.74810900  0.65364400  1
  C  C49  1  0.94974400  0.78933800  0.12312300  1
  C  C50  1  0.13999200  0.52754600  0.04992600  1
  C  C51  1  0.39624700  0.25189100  0.34635600  1
  C  C52  1  0.78933800  0.94974400  0.62312300  1
  C  C53  1  0.52853700  0.25440400  0.87598200  1
  C  C54  1  0.47245400  0.86000800  0.45007400  1
  C  C55  1  0.47146300  0.74559600  0.12401800  1
  C  C56  1  0.05157800  0.02105700  0.05884600  1
  C  C57  1  0.37791500  0.41310100  0.15786000  1
  C  C58  1  0.23308100  0.71043800  0.97186800  1
  C  C59  1  0.41310100  0.37791500  0.65786000  1
  C  C60  1  0.73952900  0.13075400  0.38076300  1
  C  C61  1  0.97894300  0.94842200  0.44115400  1
  C  C62  1  0.26047100  0.86924600  0.61923700  1
  C  C63  1  0.46271400  0.62819300  0.78884300  1
  C  C64  1  0.02105700  0.05157800  0.55884600  1
  C  C65  1  0.62819300  0.46271400  0.28884300  1
  C  C66  1  0.94842200  0.97894300  0.94115400  1
  C  C67  1  0.74465400  0.34628300  0.81726800  1
  C  C68  1  0.28956200  0.76691900  0.52813200  1
  C  C69  1  0.58689900  0.62208500  0.34214000  1
  C  C70  1  0.76691900  0.28956200  0.02813200  1
  C  C71  1  0.25534600  0.65371700  0.18273200  1
  C  C72  1  0.37180700  0.53728600  0.71115700  1
  C  C73  1  0.62208500  0.58689900  0.84214000  1
  C  C74  1  0.53728600  0.37180700  0.21115700  1
  C  C75  1  0.65371700  0.25534600  0.68273200  1
  C  C76  1  0.86924600  0.26047100  0.11923700  1
  C  C77  1  0.34628300  0.74465400  0.31726800  1
  C  C78  1  0.13075400  0.73952900  0.88076300  1
  C  C79  1  0.71043800  0.23308100  0.47186800  1
