# generated using pymatgen
data_CuNi6C41
_symmetry_space_group_name_H-M   'P 1'
_cell_length_a   10.37828031
_cell_length_b   10.37828031
_cell_length_c   7.81951088
_cell_angle_alpha   80.36750044
_cell_angle_beta   80.36750044
_cell_angle_gamma   67.96042627
_symmetry_Int_Tables_number   1
_chemical_formula_structural   CuNi6C41
_chemical_formula_sum   'Cu1 Ni6 C41'
_cell_volume   764.62425872
_cell_formula_units_Z   1
loop_
 _symmetry_equiv_pos_site_id
 _symmetry_equiv_pos_as_xyz
  1  'x, y, z'
loop_
 _atom_site_type_symbol
 _atom_site_label
 _atom_site_symmetry_multiplicity
 _atom_site_fract_x
 _atom_site_fract_y
 _atom_site_fract_z
 _atom_site_occupancy
  C  C0  1  0.44043100  0.84119400  0.69898100  1
  C  C1  1  0.15880600  0.55956900  0.30101900  1
  C  C2  1  0.55956900  0.15880600  0.30101900  1
  C  C3  1  0.84119400  0.44043100  0.69898100  1
  C  C4  1  0.73563800  0.73563800  0.12572300  1
  C  C5  1  0.26436200  0.26436200  0.87427700  1
  C  C6  1  0.00000000  0.00000000  0.00000000  1
  Ni  Ni7  1  0.35287600  0.86671500  0.19952400  1
  Ni  Ni8  1  0.13328500  0.64712400  0.80047600  1
  Ni  Ni9  1  0.64712400  0.13328500  0.80047600  1
  Ni  Ni10  1  0.86671500  0.35287600  0.19952400  1
  Ni  Ni11  1  0.82643900  0.82643900  0.54105000  1
  Ni  Ni12  1  0.17356100  0.17356100  0.45895000  1
  Cu  Cu13  1  0.50000000  0.50000000  0.50000000  1
  C  C14  1  0.56051200  0.56051200  0.67414300  1
  C  C15  1  0.43948800  0.43948800  0.32585700  1
  C  C16  1  0.88887400  0.88887400  0.30581600  1
  C  C17  1  0.11112600  0.11112600  0.69418400  1
  C  C18  1  0.74627200  0.74627200  0.75936700  1
  C  C19  1  0.25372800  0.25372800  0.24063300  1
  C  C20  1  0.35574300  0.11999700  0.54445000  1
  C  C21  1  0.88000300  0.64425700  0.45555000  1
  C  C22  1  0.64425700  0.88000300  0.45555000  1
  C  C23  1  0.11999700  0.35574300  0.54445000  1
  C  C24  1  0.23118500  0.98551000  0.38600200  1
  C  C25  1  0.01449000  0.76881500  0.61399800  1
  C  C26  1  0.76881500  0.01449000  0.61399800  1
  C  C27  1  0.98551000  0.23118500  0.38600200  1
  C  C28  1  0.24653800  0.51358000  0.97148900  1
  C  C29  1  0.48642000  0.75346200  0.02851100  1
  C  C30  1  0.75346200  0.48642000  0.02851100  1
  C  C31  1  0.51358000  0.24653800  0.97148900  1
  C  C32  1  0.00456800  0.26362800  0.00711400  1
  C  C33  1  0.73637200  0.99543200  0.99288600  1
  C  C34  1  0.99543200  0.73637200  0.99288600  1
  C  C35  1  0.26362800  0.00456800  0.00711400  1
  C  C36  1  0.04089400  0.51594400  0.80327500  1
  C  C37  1  0.48405600  0.95910600  0.19672500  1
  C  C38  1  0.95910600  0.48405600  0.19672500  1
  C  C39  1  0.51594400  0.04089400  0.80327500  1
  C  C40  1  0.79354200  0.20683000  0.20094600  1
  C  C41  1  0.79317000  0.20645800  0.79905400  1
  C  C42  1  0.20645800  0.79317000  0.79905400  1
  C  C43  1  0.20683000  0.79354200  0.20094600  1
  C  C44  1  0.27613200  0.55427200  0.61438000  1
  C  C45  1  0.44572800  0.72386800  0.38562000  1
  C  C46  1  0.72386800  0.44572800  0.38562000  1
  C  C47  1  0.55427200  0.27613200  0.61438000  1
