# generated using pymatgen
data_Cu2Ni10C3
_symmetry_space_group_name_H-M   'P 1'
_cell_length_a   8.29107100
_cell_length_b   14.95523900
_cell_length_c   15.06508000
_cell_angle_alpha   90.00000000
_cell_angle_beta   90.00000000
_cell_angle_gamma   90.00000000
_symmetry_Int_Tables_number   1
_chemical_formula_structural   Cu2Ni10C3
_chemical_formula_sum   'Cu8 Ni40 C12'
_cell_volume   1867.99381680
_cell_formula_units_Z   4
loop_
 _symmetry_equiv_pos_site_id
 _symmetry_equiv_pos_as_xyz
  1  'x, y, z'
loop_
 _atom_site_type_symbol
 _atom_site_label
 _atom_site_symmetry_multiplicity
 _atom_site_fract_x
 _atom_site_fract_y
 _atom_site_fract_z
 _atom_site_occupancy
  C  C0  1  0.50000000  0.25446800  0.65726900  1
  C  C1  1  0.50000000  0.74553200  0.34273100  1
  C  C2  1  0.00000000  0.75446800  0.84273100  1
  C  C3  1  0.00000000  0.24553200  0.15726900  1
  C  C4  1  0.50000000  0.41394800  0.84366000  1
  C  C5  1  0.00000000  0.60744700  0.64122400  1
  C  C6  1  0.00000000  0.08605200  0.34366000  1
  C  C7  1  0.50000000  0.10744700  0.85877600  1
  C  C8  1  0.00000000  0.91394800  0.65634000  1
  C  C9  1  0.50000000  0.89255300  0.14122400  1
  C  C10  1  0.50000000  0.58605200  0.15634000  1
  C  C11  1  0.00000000  0.39255300  0.35877600  1
  Ni  Ni12  1  0.69144500  0.62425900  0.08636700  1
  Ni  Ni13  1  0.00000000  0.04678500  0.65171500  1
  Ni  Ni14  1  0.28254400  0.76057300  0.81561500  1
  Ni  Ni15  1  0.00000000  0.95321500  0.34828500  1
  Ni  Ni16  1  0.50000000  0.10959200  0.58917500  1
  Ni  Ni17  1  0.28254400  0.23942700  0.18438500  1
  Ni  Ni18  1  0.50000000  0.89040800  0.41082500  1
  Ni  Ni19  1  0.69070500  0.97181800  0.15616000  1
  Ni  Ni20  1  0.69070500  0.02818200  0.84384000  1
  Ni  Ni21  1  0.30929500  0.97181800  0.15616000  1
  Ni  Ni22  1  0.21745600  0.73942700  0.31561500  1
  Ni  Ni23  1  0.00000000  0.60959200  0.91082500  1
  Ni  Ni24  1  0.30855500  0.62425900  0.08636700  1
  Ni  Ni25  1  0.00000000  0.85199800  0.96788900  1
  Ni  Ni26  1  0.78254400  0.26057300  0.68438500  1
  Ni  Ni27  1  0.80855500  0.12425900  0.41363300  1
  Ni  Ni28  1  0.50000000  0.85647900  0.01431100  1
  Ni  Ni29  1  0.80855500  0.87574100  0.58636700  1
  Ni  Ni30  1  0.50000000  0.54678500  0.84828500  1
  Ni  Ni31  1  0.71745600  0.76057300  0.81561500  1
  Ni  Ni32  1  0.00000000  0.39040800  0.08917500  1
  Ni  Ni33  1  0.50000000  0.14352100  0.98568900  1
  Ni  Ni34  1  0.21745600  0.26057300  0.68438500  1
  Ni  Ni35  1  0.19070500  0.52818200  0.65616000  1
  Ni  Ni36  1  0.00000000  0.35647900  0.48568900  1
  Ni  Ni37  1  0.50000000  0.35199800  0.53211100  1
  Ni  Ni38  1  0.69144500  0.37574100  0.91363300  1
  Ni  Ni39  1  0.50000000  0.64800200  0.46788900  1
  Ni  Ni40  1  0.19144500  0.12425900  0.41363300  1
  Ni  Ni41  1  0.78254400  0.73942700  0.31561500  1
  Ni  Ni42  1  0.30855500  0.37574100  0.91363300  1
  Ni  Ni43  1  0.00000000  0.14800200  0.03211100  1
  Ni  Ni44  1  0.80929500  0.52818200  0.65616000  1
  Ni  Ni45  1  0.30929500  0.02818200  0.84384000  1
  Ni  Ni46  1  0.19144500  0.87574100  0.58636700  1
  Ni  Ni47  1  0.19070500  0.47181800  0.34384000  1
  Ni  Ni48  1  0.80929500  0.47181800  0.34384000  1
  Ni  Ni49  1  0.00000000  0.64352100  0.51431100  1
  Ni  Ni50  1  0.50000000  0.45321500  0.15171500  1
  Ni  Ni51  1  0.71745600  0.23942700  0.18438500  1
  Cu  Cu52  1  0.00000000  0.88205800  0.75002100  1
  Cu  Cu53  1  0.00000000  0.68691100  0.70034400  1
  Cu  Cu54  1  0.00000000  0.11794200  0.24997900  1
  Cu  Cu55  1  0.50000000  0.81308900  0.20034400  1
  Cu  Cu56  1  0.00000000  0.31308900  0.29965600  1
  Cu  Cu57  1  0.50000000  0.61794200  0.25002100  1
  Cu  Cu58  1  0.50000000  0.18691100  0.79965600  1
  Cu  Cu59  1  0.50000000  0.38205800  0.74997900  1
