# generated using pymatgen
data_Cu7Ni3C14
_symmetry_space_group_name_H-M   'P 1'
_cell_length_a   8.58584300
_cell_length_b   8.60007000
_cell_length_c   12.15930700
_cell_angle_alpha   90.00000000
_cell_angle_beta   90.00000000
_cell_angle_gamma   90.00000000
_symmetry_Int_Tables_number   1
_chemical_formula_structural   Cu7Ni3C14
_chemical_formula_sum   'Cu28 Ni12 C56'
_cell_volume   897.82925551
_cell_formula_units_Z   4
loop_
 _symmetry_equiv_pos_site_id
 _symmetry_equiv_pos_as_xyz
  1  'x, y, z'
loop_
 _atom_site_type_symbol
 _atom_site_label
 _atom_site_symmetry_multiplicity
 _atom_site_fract_x
 _atom_site_fract_y
 _atom_site_fract_z
 _atom_site_occupancy
  Ni  Ni0  1  0.25025100  0.75628300  0.71355000  1
  Ni  Ni1  1  0.46760300  0.98293700  0.99090400  1
  Ni  Ni2  1  0.53239700  0.48293700  0.99090400  1
  Ni  Ni3  1  0.46760300  0.51706300  0.49090400  1
  Ni  Ni4  1  0.03269100  0.51700400  0.49282500  1
  Ni  Ni5  1  0.03269100  0.98299600  0.99282500  1
  Ni  Ni6  1  0.74974900  0.25628300  0.71355000  1
  Ni  Ni7  1  0.74974900  0.24371700  0.21355000  1
  Ni  Ni8  1  0.25025100  0.74371700  0.21355000  1
  Ni  Ni9  1  0.53239700  0.01706300  0.49090400  1
  Ni  Ni10  1  0.96730900  0.01700400  0.49282500  1
  Ni  Ni11  1  0.96730900  0.48299600  0.99282500  1
  Cu  Cu12  1  0.24584300  0.24412300  0.48668200  1
  Cu  Cu13  1  0.40313400  0.24613100  0.65858200  1
  Cu  Cu14  1  0.24992500  0.45507400  0.84051000  1
  Cu  Cu15  1  0.09610100  0.25215500  0.15959400  1
  Cu  Cu16  1  0.59686600  0.75386900  0.15858200  1
  Cu  Cu17  1  0.24584300  0.25587700  0.98668200  1
  Cu  Cu18  1  0.75415700  0.75587700  0.98668200  1
  Cu  Cu19  1  0.75073700  0.90678700  0.31209200  1
  Cu  Cu20  1  0.75415700  0.74412300  0.48668200  1
  Cu  Cu21  1  0.75007500  0.95507400  0.84051000  1
  Cu  Cu22  1  0.49829300  0.99968500  0.23907000  1
  Cu  Cu23  1  0.24992500  0.04492600  0.34051000  1
  Cu  Cu24  1  0.09610100  0.24784500  0.65959400  1
  Cu  Cu25  1  0.59686600  0.74613100  0.65858200  1
  Cu  Cu26  1  0.75073700  0.59321300  0.81209200  1
  Cu  Cu27  1  0.90389900  0.75215500  0.15959400  1
  Cu  Cu28  1  0.75007500  0.54492600  0.34051000  1
  Cu  Cu29  1  0.24926300  0.09321300  0.81209200  1
  Cu  Cu30  1  0.50170700  0.49968500  0.23907000  1
  Cu  Cu31  1  0.00328800  0.99754300  0.23963100  1
  Cu  Cu32  1  0.00328800  0.50245700  0.73963100  1
  Cu  Cu33  1  0.99671200  0.49754300  0.23963100  1
  Cu  Cu34  1  0.40313400  0.25386900  0.15858200  1
  Cu  Cu35  1  0.49829300  0.50031500  0.73907000  1
  Cu  Cu36  1  0.90389900  0.74784500  0.65959400  1
  Cu  Cu37  1  0.24926300  0.40678700  0.31209200  1
  Cu  Cu38  1  0.50170700  0.00031500  0.73907000  1
  Cu  Cu39  1  0.99671200  0.00245700  0.73963100  1
  C  C40  1  0.74930500  0.29589600  0.01096500  1
  C  C41  1  0.74930500  0.20410400  0.51096500  1
  C  C42  1  0.25069500  0.70410400  0.51096500  1
  C  C43  1  0.25069500  0.79589600  0.01096500  1
  C  C44  1  0.74962000  0.76826000  0.22857800  1
  C  C45  1  0.05949800  0.41240100  0.64477100  1
  C  C46  1  0.94050200  0.91240100  0.64477100  1
  C  C47  1  0.16203900  0.96625900  0.75978200  1
  C  C48  1  0.33108900  0.54143400  0.76376200  1
  C  C49  1  0.59138400  0.95208800  0.33454100  1
  C  C50  1  0.52044400  0.16630900  0.21898500  1
  C  C51  1  0.36324800  0.17745000  0.05538200  1
  C  C52  1  0.47955600  0.66630900  0.21898500  1
  C  C53  1  0.32964900  0.38222600  0.92462100  1
  C  C54  1  0.40861600  0.45208800  0.33454100  1
  C  C55  1  0.74962000  0.73174000  0.72857800  1
  C  C56  1  0.83796100  0.03374100  0.25978200  1
  C  C57  1  0.66891100  0.45856600  0.26376200  1
  C  C58  1  0.83796100  0.46625900  0.75978200  1
  C  C59  1  0.91065500  0.53659000  0.34397400  1
  C  C60  1  0.25038000  0.23174000  0.72857800  1
  C  C61  1  0.02717500  0.83084100  0.21910900  1
  C  C62  1  0.17277600  0.35900200  0.41367200  1
  C  C63  1  0.25038000  0.26826000  0.22857800  1
  C  C64  1  0.54284400  0.91303800  0.14011500  1
  C  C65  1  0.63675200  0.82255000  0.55538200  1
  C  C66  1  0.12386100  0.17217500  0.55410200  1
  C  C67  1  0.63675200  0.67745000  0.05538200  1
  C  C68  1  0.82722400  0.64099800  0.91367200  1
  C  C69  1  0.47955600  0.83369100  0.71898500  1
  C  C70  1  0.97282500  0.16915900  0.71910900  1
  C  C71  1  0.33108900  0.95856600  0.26376200  1
  C  C72  1  0.87613900  0.82782500  0.05410200  1
  C  C73  1  0.97282500  0.33084100  0.21910900  1
  C  C74  1  0.54284400  0.58696200  0.64011500  1
  C  C75  1  0.67035100  0.88222600  0.92462100  1
  C  C76  1  0.40861600  0.04791200  0.83454100  1
  C  C77  1  0.91065500  0.96341000  0.84397400  1
  C  C78  1  0.08934500  0.46341000  0.84397400  1
  C  C79  1  0.87613900  0.67217500  0.55410200  1
  C  C80  1  0.12386100  0.32782500  0.05410200  1
  C  C81  1  0.45715600  0.08696200  0.64011500  1
  C  C82  1  0.36324800  0.32255000  0.55538200  1
  C  C83  1  0.94050200  0.58759900  0.14477100  1
  C  C84  1  0.17277600  0.14099800  0.91367200  1
  C  C85  1  0.52044400  0.33369100  0.71898500  1
  C  C86  1  0.32964900  0.11777400  0.42462100  1
  C  C87  1  0.05949800  0.08759900  0.14477100  1
  C  C88  1  0.16203900  0.53374100  0.25978200  1
  C  C89  1  0.82722400  0.85900200  0.41367200  1
  C  C90  1  0.66891100  0.04143400  0.76376200  1
  C  C91  1  0.02717500  0.66915900  0.71910900  1
  C  C92  1  0.45715600  0.41303800  0.14011500  1
  C  C93  1  0.08934500  0.03659000  0.34397400  1
  C  C94  1  0.67035100  0.61777400  0.42462100  1
  C  C95  1  0.59138400  0.54791200  0.83454100  1
