# generated using pymatgen
data_Cu3Ni2C3
_symmetry_space_group_name_H-M   'P 1'
_cell_length_a   8.79713471
_cell_length_b   8.79713471
_cell_length_c   8.79713392
_cell_angle_alpha   90.12344334
_cell_angle_beta   90.12344334
_cell_angle_gamma   90.12344289
_symmetry_Int_Tables_number   1
_chemical_formula_structural   Cu3Ni2C3
_chemical_formula_sum   'Cu12 Ni8 C12'
_cell_volume   680.80174473
_cell_formula_units_Z   4
loop_
 _symmetry_equiv_pos_site_id
 _symmetry_equiv_pos_as_xyz
  1  'x, y, z'
loop_
 _atom_site_type_symbol
 _atom_site_label
 _atom_site_symmetry_multiplicity
 _atom_site_fract_x
 _atom_site_fract_y
 _atom_site_fract_z
 _atom_site_occupancy
  Ni  Ni0  1  0.25832300  0.76207700  0.75541100  1
  Ni  Ni1  1  0.24458900  0.74167700  0.23792300  1
  Ni  Ni2  1  0.76207700  0.75541100  0.25832300  1
  Ni  Ni3  1  0.23792300  0.24458900  0.74167700  1
  Ni  Ni4  1  0.25852400  0.25852400  0.25852400  1
  Ni  Ni5  1  0.74147600  0.74147600  0.74147600  1
  Ni  Ni6  1  0.75541100  0.25832300  0.76207700  1
  Ni  Ni7  1  0.74167700  0.23792300  0.24458900  1
  Cu  Cu8  1  0.67359100  0.84420300  0.00059000  1
  Cu  Cu9  1  0.49993300  0.82846900  0.34237300  1
  Cu  Cu10  1  0.32640900  0.15579700  0.99941000  1
  Cu  Cu11  1  0.17153100  0.65762700  0.50006700  1
  Cu  Cu12  1  0.00059000  0.67359100  0.84420300  1
  Cu  Cu13  1  0.99941000  0.32640900  0.15579700  1
  Cu  Cu14  1  0.82846900  0.34237300  0.49993300  1
  Cu  Cu15  1  0.50006700  0.17153100  0.65762700  1
  Cu  Cu16  1  0.34237300  0.49993300  0.82846900  1
  Cu  Cu17  1  0.15579700  0.99941000  0.32640900  1
  Cu  Cu18  1  0.65762700  0.50006700  0.17153100  1
  Cu  Cu19  1  0.84420300  0.00059000  0.67359100  1
  C  C20  1  0.99858600  0.66027700  0.15659500  1
  C  C21  1  0.33972300  0.84340500  0.00141400  1
  C  C22  1  0.15659500  0.99858600  0.66027700  1
  C  C23  1  0.34451400  0.49778200  0.16113700  1
  C  C24  1  0.49778200  0.16113700  0.34451400  1
  C  C25  1  0.50221800  0.83886300  0.65548600  1
  C  C26  1  0.65548600  0.50221800  0.83886300  1
  C  C27  1  0.83886300  0.65548600  0.50221800  1
  C  C28  1  0.00141400  0.33972300  0.84340500  1
  C  C29  1  0.66027700  0.15659500  0.99858600  1
  C  C30  1  0.16113700  0.34451400  0.49778200  1
  C  C31  1  0.84340500  0.00141400  0.33972300  1
