# generated using pymatgen
data_Cu3NiC3
_symmetry_space_group_name_H-M   'P 1'
_cell_length_a   7.30856504
_cell_length_b   7.30856504
_cell_length_c   7.30856501
_cell_angle_alpha   103.28571791
_cell_angle_beta   103.28571791
_cell_angle_gamma   103.28572213
_symmetry_Int_Tables_number   1
_chemical_formula_structural   Cu3NiC3
_chemical_formula_sum   'Cu6 Ni2 C6'
_cell_volume   352.92731777
_cell_formula_units_Z   2
loop_
 _symmetry_equiv_pos_site_id
 _symmetry_equiv_pos_as_xyz
  1  'x, y, z'
loop_
 _atom_site_type_symbol
 _atom_site_label
 _atom_site_symmetry_multiplicity
 _atom_site_fract_x
 _atom_site_fract_y
 _atom_site_fract_z
 _atom_site_occupancy
  C  C0  1  0.01917200  0.58632000  0.24010000  1
  C  C1  1  0.58632000  0.24010000  0.01917200  1
  C  C2  1  0.24010000  0.01917200  0.58632000  1
  C  C3  1  0.74010000  0.08632000  0.51917200  1
  C  C4  1  0.08632000  0.51917200  0.74010000  1
  C  C5  1  0.51917200  0.74010000  0.08632000  1
  Ni  Ni6  1  0.49694500  0.49694500  0.49694500  1
  Ni  Ni7  1  0.99694500  0.99694500  0.99694500  1
  Cu  Cu8  1  0.22366300  0.24234300  0.90765800  1
  Cu  Cu9  1  0.24234300  0.90765800  0.22366300  1
  Cu  Cu10  1  0.72366300  0.40765800  0.74234300  1
  Cu  Cu11  1  0.40765800  0.74234300  0.72366300  1
  Cu  Cu12  1  0.74234300  0.72366300  0.40765800  1
  Cu  Cu13  1  0.90765800  0.22366300  0.24234300  1
