# generated using pymatgen
data_Cu4NiC2
_symmetry_space_group_name_H-M   'P 1'
_cell_length_a   3.94300400
_cell_length_b   12.35381400
_cell_length_c   14.40348900
_cell_angle_alpha   90.00000000
_cell_angle_beta   90.00000000
_cell_angle_gamma   90.00000000
_symmetry_Int_Tables_number   1
_chemical_formula_structural   Cu4NiC2
_chemical_formula_sum   'Cu16 Ni4 C8'
_cell_volume   701.61034061
_cell_formula_units_Z   4
loop_
 _symmetry_equiv_pos_site_id
 _symmetry_equiv_pos_as_xyz
  1  'x, y, z'
loop_
 _atom_site_type_symbol
 _atom_site_label
 _atom_site_symmetry_multiplicity
 _atom_site_fract_x
 _atom_site_fract_y
 _atom_site_fract_z
 _atom_site_occupancy
  C  C0  1  0.75000000  0.05269500  0.11131000  1
  C  C1  1  0.25000000  0.94730500  0.88869000  1
  C  C2  1  0.75000000  0.55269500  0.38869000  1
  C  C3  1  0.25000000  0.44730500  0.61131000  1
  C  C4  1  0.75000000  0.08294200  0.59388600  1
  C  C5  1  0.25000000  0.91705800  0.40611400  1
  C  C6  1  0.75000000  0.58294200  0.90611400  1
  C  C7  1  0.25000000  0.41705800  0.09388600  1
  Ni  Ni8  1  0.75000000  0.74012600  0.17663700  1
  Ni  Ni9  1  0.25000000  0.25987400  0.82336300  1
  Ni  Ni10  1  0.75000000  0.24012600  0.32336300  1
  Ni  Ni11  1  0.25000000  0.75987400  0.67663700  1
  Cu  Cu12  1  0.75000000  0.29802600  0.65652200  1
  Cu  Cu13  1  0.25000000  0.70197400  0.34347800  1
  Cu  Cu14  1  0.75000000  0.79802600  0.84347800  1
  Cu  Cu15  1  0.25000000  0.20197400  0.15652200  1
  Cu  Cu16  1  0.75000000  0.37670800  0.96872100  1
  Cu  Cu17  1  0.25000000  0.62329200  0.03127900  1
  Cu  Cu18  1  0.75000000  0.87670800  0.53127900  1
  Cu  Cu19  1  0.25000000  0.12329200  0.46872100  1
  Cu  Cu20  1  0.75000000  0.96628900  0.28489900  1
  Cu  Cu21  1  0.25000000  0.03371100  0.71510100  1
  Cu  Cu22  1  0.75000000  0.46628900  0.21510100  1
  Cu  Cu23  1  0.25000000  0.53371100  0.78489900  1
  Cu  Cu24  1  0.75000000  0.09158500  0.92783800  1
  Cu  Cu25  1  0.25000000  0.90841500  0.07216200  1
  Cu  Cu26  1  0.75000000  0.59158500  0.57216200  1
  Cu  Cu27  1  0.25000000  0.40841500  0.42783800  1
