# generated using pymatgen
data_Cu12NiC33
_symmetry_space_group_name_H-M   'P 1'
_cell_length_a   14.49748214
_cell_length_b   14.49748214
_cell_length_c   14.49748292
_cell_angle_alpha   28.94913603
_cell_angle_beta   28.94913603
_cell_angle_gamma   28.94913419
_symmetry_Int_Tables_number   1
_chemical_formula_structural   Cu12NiC33
_chemical_formula_sum   'Cu12 Ni1 C33'
_cell_volume   631.37748243
_cell_formula_units_Z   1
loop_
 _symmetry_equiv_pos_site_id
 _symmetry_equiv_pos_as_xyz
  1  'x, y, z'
loop_
 _atom_site_type_symbol
 _atom_site_label
 _atom_site_symmetry_multiplicity
 _atom_site_fract_x
 _atom_site_fract_y
 _atom_site_fract_z
 _atom_site_occupancy
  Ni  Ni0  1  0.00000000  0.00000000  0.00000000  1
  Cu  Cu1  1  0.08312300  0.55578000  0.55578000  1
  Cu  Cu2  1  0.22489500  0.68844400  0.68844400  1
  Cu  Cu3  1  0.55578000  0.55578000  0.08312300  1
  Cu  Cu4  1  0.68844400  0.22489500  0.68844400  1
  Cu  Cu5  1  0.31155600  0.77510500  0.31155600  1
  Cu  Cu6  1  0.44422000  0.91687700  0.44422000  1
  Cu  Cu7  1  0.55578000  0.08312300  0.55578000  1
  Cu  Cu8  1  0.44422000  0.44422000  0.91687700  1
  Cu  Cu9  1  0.77510500  0.31155600  0.31155600  1
  Cu  Cu10  1  0.68844400  0.68844400  0.22489500  1
  Cu  Cu11  1  0.31155600  0.31155600  0.77510500  1
  Cu  Cu12  1  0.91687700  0.44422000  0.44422000  1
  C  C13  1  0.79529000  0.79529000  0.79529000  1
  C  C14  1  0.08292900  0.08292900  0.08292900  1
  C  C15  1  0.91707100  0.91707100  0.91707100  1
  C  C16  1  0.20471000  0.20471000  0.20471000  1
  C  C17  1  0.67643000  0.67643000  0.67643000  1
  C  C18  1  0.32357000  0.32357000  0.32357000  1
  C  C19  1  0.87684700  0.87684700  0.87684700  1
  C  C20  1  0.80031600  0.80031600  0.46549800  1
  C  C21  1  0.31840100  0.31840100  0.94125100  1
  C  C22  1  0.56837800  0.56837800  0.56837800  1
  C  C23  1  0.19968400  0.53450200  0.19968400  1
  C  C24  1  0.19968400  0.19968400  0.53450200  1
  C  C25  1  0.19935000  0.82000200  0.19935000  1
  C  C26  1  0.31840100  0.94125100  0.31840100  1
  C  C27  1  0.53450200  0.19968400  0.19968400  1
  C  C28  1  0.05874900  0.68159900  0.68159900  1
  C  C29  1  0.82000200  0.19935000  0.19935000  1
  C  C30  1  0.80031600  0.46549800  0.80031600  1
  C  C31  1  0.17999800  0.80065000  0.80065000  1
  C  C32  1  0.19935000  0.19935000  0.82000200  1
  C  C33  1  0.43162200  0.43162200  0.43162200  1
  C  C34  1  0.94125100  0.31840100  0.31840100  1
  C  C35  1  0.35973600  0.35973600  0.35973600  1
  C  C36  1  0.75501300  0.75501300  0.75501300  1
  C  C37  1  0.46549800  0.80031600  0.80031600  1
  C  C38  1  0.80065000  0.80065000  0.17999800  1
  C  C39  1  0.80065000  0.17999800  0.80065000  1
  C  C40  1  0.12315300  0.12315300  0.12315300  1
  C  C41  1  0.64026400  0.64026400  0.64026400  1
  C  C42  1  0.68159900  0.68159900  0.05874900  1
  C  C43  1  0.24498700  0.24498700  0.24498700  1
  C  C44  1  0.68159900  0.05874900  0.68159900  1
  C  C45  1  0.50000000  0.50000000  0.50000000  1
