# generated using pymatgen
data_Cu8Ni3C38
_symmetry_space_group_name_H-M   'P 1'
_cell_length_a   10.32719369
_cell_length_b   10.32719369
_cell_length_c   14.16363900
_cell_angle_alpha   90.00000000
_cell_angle_beta   90.00000000
_cell_angle_gamma   119.99999804
_symmetry_Int_Tables_number   1
_chemical_formula_structural   Cu8Ni3C38
_chemical_formula_sum   'Cu16 Ni6 C76'
_cell_volume   1308.18792001
_cell_formula_units_Z   2
loop_
 _symmetry_equiv_pos_site_id
 _symmetry_equiv_pos_as_xyz
  1  'x, y, z'
loop_
 _atom_site_type_symbol
 _atom_site_label
 _atom_site_symmetry_multiplicity
 _atom_site_fract_x
 _atom_site_fract_y
 _atom_site_fract_z
 _atom_site_occupancy
  C  C0  1  0.89427700  0.67158400  0.93896700  1
  C  C1  1  0.10572300  0.77730800  0.56103300  1
  C  C2  1  0.77730800  0.10572300  0.93896700  1
  C  C3  1  0.89427700  0.22269200  0.43896700  1
  C  C4  1  0.77730800  0.67158400  0.43896700  1
  C  C5  1  0.10572300  0.32841600  0.06103300  1
  C  C6  1  0.33333300  0.66666700  0.37831800  1
  C  C7  1  0.66666700  0.33333300  0.62168200  1
  C  C8  1  0.67158400  0.77730800  0.06103300  1
  C  C9  1  0.67158400  0.89427700  0.56103300  1
  C  C10  1  0.00000000  0.00000000  0.50000000  1
  C  C11  1  0.00000000  0.00000000  0.00000000  1
  C  C12  1  0.32841600  0.10572300  0.43896700  1
  C  C13  1  0.33333300  0.66666700  0.87831800  1
  C  C14  1  0.32841600  0.22269200  0.93896700  1
  C  C15  1  0.66666700  0.33333300  0.12168200  1
  C  C16  1  0.22269200  0.32841600  0.56103300  1
  C  C17  1  0.22269200  0.89427700  0.06103300  1
  Ni  Ni18  1  0.00000000  0.43855200  0.25000000  1
  Ni  Ni19  1  0.56144800  0.00000000  0.75000000  1
  Ni  Ni20  1  0.00000000  0.56144800  0.75000000  1
  Ni  Ni21  1  0.43855200  0.00000000  0.25000000  1
  Ni  Ni22  1  0.43855200  0.43855200  0.75000000  1
  Ni  Ni23  1  0.56144800  0.56144800  0.25000000  1
  Cu  Cu24  1  0.21545500  0.30469900  0.34635700  1
  Cu  Cu25  1  0.66666700  0.33333300  0.38955300  1
  Cu  Cu26  1  0.30469900  0.21545500  0.15364300  1
  Cu  Cu27  1  0.33333300  0.66666700  0.61044700  1
  Cu  Cu28  1  0.66666700  0.33333300  0.88955300  1
  Cu  Cu29  1  0.78454500  0.69530100  0.65364400  1
  Cu  Cu30  1  0.69530100  0.91075600  0.34635700  1
  Cu  Cu31  1  0.08924400  0.30469900  0.84635600  1
  Cu  Cu32  1  0.21545500  0.91075600  0.84635600  1
  Cu  Cu33  1  0.69530100  0.78454500  0.84635600  1
  Cu  Cu34  1  0.33333300  0.66666700  0.11044700  1
  Cu  Cu35  1  0.91075600  0.69530100  0.15364300  1
  Cu  Cu36  1  0.78454500  0.08924400  0.15364300  1
  Cu  Cu37  1  0.30469900  0.08924400  0.65364400  1
  Cu  Cu38  1  0.91075600  0.21545500  0.65364400  1
  Cu  Cu39  1  0.08924400  0.78454500  0.34635700  1
  C  C40  1  0.76594300  0.70344500  0.15280100  1
  C  C41  1  0.87034800  0.52998500  0.15811700  1
  C  C42  1  0.77794900  0.77794900  0.75000000  1
  C  C43  1  0.06249700  0.29655500  0.34719900  1
  C  C44  1  0.65963600  0.12965200  0.15811700  1
  C  C45  1  0.29655500  0.06249700  0.15280100  1
  C  C46  1  0.79388400  0.48857000  0.85158300  1
  C  C47  1  0.79388400  0.30531400  0.35158300  1
  C  C48  1  0.34036400  0.47001500  0.34188300  1
  C  C49  1  0.21892000  0.99434600  0.56867300  1
  C  C50  1  0.00565400  0.78108000  0.06867300  1
  C  C51  1  0.51143000  0.20611600  0.35158300  1
  C  C52  1  0.87034800  0.34036400  0.65811700  1
  C  C53  1  0.23405700  0.93750300  0.34719900  1
  C  C54  1  0.51143000  0.30531400  0.85158300  1
  C  C55  1  0.65963600  0.52998500  0.65811700  1
  C  C56  1  0.78108000  0.77542700  0.93132700  1
  C  C57  1  0.48857000  0.79388400  0.64841700  1
  C  C58  1  0.12965200  0.47001500  0.84188300  1
  C  C59  1  0.93750300  0.23405700  0.15280100  1
  C  C60  1  0.77794900  0.00000000  0.25000000  1
  C  C61  1  0.47001500  0.12965200  0.65811700  1
  C  C62  1  0.93750300  0.70344500  0.65280100  1
  C  C63  1  0.70344500  0.76594300  0.34719900  1
  C  C64  1  0.00000000  0.77794900  0.25000000  1
  C  C65  1  0.20611600  0.51143000  0.14841700  1
  C  C66  1  0.52998500  0.65963600  0.84188300  1
  C  C67  1  0.47001500  0.34036400  0.15811700  1
  C  C68  1  0.69468600  0.20611600  0.85158300  1
  C  C69  1  0.22205100  0.22205100  0.25000000  1
  C  C70  1  0.70344500  0.93750300  0.84719900  1
  C  C71  1  0.33333300  0.66666700  0.50423400  1
  C  C72  1  0.21892000  0.22457300  0.06867300  1
  C  C73  1  0.00565400  0.22457300  0.56867300  1
  C  C74  1  0.29655500  0.23405700  0.65280100  1
  C  C75  1  0.52998500  0.87034800  0.34188300  1
  C  C76  1  0.23405700  0.29655500  0.84719900  1
  C  C77  1  0.66666700  0.33333300  0.49576600  1
  C  C78  1  0.99434600  0.21892000  0.93132700  1
  C  C79  1  0.30531400  0.79388400  0.14841700  1
  C  C80  1  0.20611600  0.69468600  0.64841700  1
  C  C81  1  0.77542700  0.99434600  0.06867300  1
  C  C82  1  0.66666700  0.33333300  0.99576600  1
  C  C83  1  0.00000000  0.22205100  0.75000000  1
  C  C84  1  0.22205100  0.00000000  0.75000000  1
  C  C85  1  0.22457300  0.00565400  0.93132700  1
  C  C86  1  0.34036400  0.87034800  0.84188300  1
  C  C87  1  0.22457300  0.21892000  0.43132700  1
  C  C88  1  0.33333300  0.66666700  0.00423400  1
  C  C89  1  0.06249700  0.76594300  0.84719900  1
  C  C90  1  0.30531400  0.51143000  0.64841700  1
  C  C91  1  0.12965200  0.65963600  0.34188300  1
  C  C92  1  0.78108000  0.00565400  0.43132700  1
  C  C93  1  0.76594300  0.06249700  0.65280100  1
  C  C94  1  0.77542700  0.78108000  0.56867300  1
  C  C95  1  0.69468600  0.48857000  0.35158300  1
  C  C96  1  0.99434600  0.77542700  0.43132700  1
  C  C97  1  0.48857000  0.69468600  0.14841700  1
