# generated using pymatgen
data_Cu3NiC
_symmetry_space_group_name_H-M   'P 1'
_cell_length_a   6.29858000
_cell_length_b   6.29947438
_cell_length_c   7.59302183
_cell_angle_alpha   82.28313588
_cell_angle_beta   74.41938989
_cell_angle_gamma   60.00469643
_symmetry_Int_Tables_number   1
_chemical_formula_structural   Cu3NiC
_chemical_formula_sum   'Cu6 Ni2 C2'
_cell_volume   251.33524758
_cell_formula_units_Z   2
loop_
 _symmetry_equiv_pos_site_id
 _symmetry_equiv_pos_as_xyz
  1  'x, y, z'
loop_
 _atom_site_type_symbol
 _atom_site_label
 _atom_site_symmetry_multiplicity
 _atom_site_fract_x
 _atom_site_fract_y
 _atom_site_fract_z
 _atom_site_occupancy
  C  C0  1  0.33315600  0.33368800  0.00000000  1
  C  C1  1  0.66684400  0.66631200  0.00000000  1
  Ni  Ni2  1  0.04995500  0.00000000  0.84568700  1
  Ni  Ni3  1  0.95004500  0.00000000  0.15431300  1
  Cu  Cu4  1  0.38634300  0.68914700  0.76661900  1
  Cu  Cu5  1  0.92451000  0.68914700  0.23338100  1
  Cu  Cu6  1  0.23569800  0.00000000  0.23293300  1
  Cu  Cu7  1  0.76430200  0.00000000  0.76706700  1
  Cu  Cu8  1  0.61365700  0.31085300  0.23338100  1
  Cu  Cu9  1  0.07549000  0.31085300  0.76661900  1
