# generated using pymatgen
data_Cu2Ni2C7
_symmetry_space_group_name_H-M   'P 1'
_cell_length_a   13.23250656
_cell_length_b   13.23250656
_cell_length_c   11.70173300
_cell_angle_alpha   90.00000000
_cell_angle_beta   90.00000000
_cell_angle_gamma   120.00000281
_symmetry_Int_Tables_number   1
_chemical_formula_structural   Cu2Ni2C7
_chemical_formula_sum   'Cu12 Ni12 C42'
_cell_volume   1774.45520351
_cell_formula_units_Z   6
loop_
 _symmetry_equiv_pos_site_id
 _symmetry_equiv_pos_as_xyz
  1  'x, y, z'
loop_
 _atom_site_type_symbol
 _atom_site_label
 _atom_site_symmetry_multiplicity
 _atom_site_fract_x
 _atom_site_fract_y
 _atom_site_fract_z
 _atom_site_occupancy
  C  C0  1  0.85662400  0.53159600  0.25000000  1
  C  C1  1  0.33333300  0.66666700  0.45193800  1
  C  C2  1  0.67497200  0.14337600  0.25000000  1
  C  C3  1  0.14337600  0.46840400  0.75000000  1
  C  C4  1  0.66666700  0.33333300  0.95193800  1
  C  C5  1  0.32502800  0.85662400  0.75000000  1
  C  C6  1  0.46840400  0.32502800  0.25000000  1
  C  C7  1  0.33333300  0.66666700  0.04806200  1
  C  C8  1  0.53159600  0.67497200  0.75000000  1
  C  C9  1  0.00000000  0.00000000  0.50000000  1
  C  C10  1  0.66666700  0.33333300  0.54806200  1
  C  C11  1  0.00000000  0.00000000  0.00000000  1
  C  C12  1  0.86222100  0.67339100  0.75000000  1
  C  C13  1  0.81117000  0.13777900  0.75000000  1
  C  C14  1  0.67339100  0.81117000  0.25000000  1
  C  C15  1  0.13777900  0.32660900  0.25000000  1
  C  C16  1  0.32660900  0.18883000  0.75000000  1
  C  C17  1  0.18883000  0.86222100  0.25000000  1
  C  C18  1  0.06684100  0.65996800  0.58710700  1
  C  C19  1  0.40687200  0.06684100  0.08710700  1
  C  C20  1  0.34003200  0.40687200  0.58710700  1
  C  C21  1  0.93315900  0.34003200  0.41289300  1
  C  C22  1  0.65996800  0.59312800  0.41289300  1
  C  C23  1  0.59312800  0.93315900  0.91289300  1
  C  C24  1  0.65996800  0.59312800  0.08710700  1
  C  C25  1  0.59312800  0.93315900  0.58710700  1
  C  C26  1  0.06684100  0.65996800  0.91289300  1
  C  C27  1  0.93315900  0.34003200  0.08710700  1
  C  C28  1  0.34003200  0.40687200  0.91289300  1
  C  C29  1  0.40687200  0.06684100  0.41289300  1
  C  C30  1  0.94754800  0.66337600  0.94670800  1
  C  C31  1  0.28417200  0.94754800  0.05329200  1
  C  C32  1  0.05245200  0.33662400  0.05329200  1
  C  C33  1  0.28417200  0.94754800  0.44670800  1
  C  C34  1  0.71582800  0.05245200  0.94670800  1
  C  C35  1  0.05245200  0.33662400  0.44670800  1
  C  C36  1  0.66337600  0.71582800  0.44670800  1
  C  C37  1  0.33662400  0.28417200  0.94670800  1
  C  C38  1  0.71582800  0.05245200  0.55329200  1
  C  C39  1  0.33662400  0.28417200  0.55329200  1
  C  C40  1  0.66337600  0.71582800  0.05329200  1
  C  C41  1  0.94754800  0.66337600  0.55329200  1
  Ni  Ni42  1  0.85886100  0.36340900  0.75000000  1
  Ni  Ni43  1  0.18002300  0.14815300  0.25000000  1
  Ni  Ni44  1  0.85184700  0.03187000  0.25000000  1
  Ni  Ni45  1  0.63659100  0.49545200  0.75000000  1
  Ni  Ni46  1  0.14113900  0.63659100  0.25000000  1
  Ni  Ni47  1  0.96813000  0.81997700  0.25000000  1
  Ni  Ni48  1  0.49545200  0.85886100  0.25000000  1
  Ni  Ni49  1  0.81997700  0.85184700  0.75000000  1
  Ni  Ni50  1  0.03187000  0.18002300  0.75000000  1
  Ni  Ni51  1  0.36340900  0.50454800  0.25000000  1
  Ni  Ni52  1  0.50454800  0.14113900  0.75000000  1
  Ni  Ni53  1  0.14815300  0.96813000  0.75000000  1
  Cu  Cu54  1  0.84609200  0.34157800  0.39382600  1
  Cu  Cu55  1  0.34157800  0.49548600  0.89382600  1
  Cu  Cu56  1  0.15390800  0.65842200  0.89382600  1
  Cu  Cu57  1  0.49548600  0.15390800  0.39382600  1
  Cu  Cu58  1  0.84609200  0.34157800  0.10617400  1
  Cu  Cu59  1  0.50451400  0.84609200  0.60617400  1
  Cu  Cu60  1  0.49548600  0.15390800  0.10617400  1
  Cu  Cu61  1  0.65842200  0.50451400  0.39382600  1
  Cu  Cu62  1  0.50451400  0.84609200  0.89382600  1
  Cu  Cu63  1  0.34157800  0.49548600  0.60617400  1
  Cu  Cu64  1  0.65842200  0.50451400  0.10617400  1
  Cu  Cu65  1  0.15390800  0.65842200  0.60617400  1
