# generated using pymatgen
data_Cu4(NiC2)3
_symmetry_space_group_name_H-M   'P 1'
_cell_length_a   11.34232000
_cell_length_b   8.88941700
_cell_length_c   12.13828477
_cell_angle_alpha   80.58553635
_cell_angle_beta   90.00000000
_cell_angle_gamma   90.00000000
_symmetry_Int_Tables_number   1
_chemical_formula_structural   Cu4(NiC2)3
_chemical_formula_sum   'Cu16 Ni12 C24'
_cell_volume   1207.37781031
_cell_formula_units_Z   4
loop_
 _symmetry_equiv_pos_site_id
 _symmetry_equiv_pos_as_xyz
  1  'x, y, z'
loop_
 _atom_site_type_symbol
 _atom_site_label
 _atom_site_symmetry_multiplicity
 _atom_site_fract_x
 _atom_site_fract_y
 _atom_site_fract_z
 _atom_site_occupancy
  C  C0  1  0.96697200  0.77570500  0.77807100  1
  C  C1  1  0.53302800  0.77570500  0.27807100  1
  C  C2  1  0.03302800  0.22429500  0.22192900  1
  C  C3  1  0.46697200  0.22429500  0.72192900  1
  C  C4  1  0.84747400  0.69890400  0.64614300  1
  C  C5  1  0.34747400  0.30109600  0.85385700  1
  C  C6  1  0.65252600  0.69890400  0.14614300  1
  C  C7  1  0.15252600  0.30109600  0.35385700  1
  C  C8  1  0.90862500  0.61428600  0.86658800  1
  C  C9  1  0.09137500  0.38571400  0.13341200  1
  C  C10  1  0.59137500  0.61428600  0.36658800  1
  C  C11  1  0.61242800  0.94934600  0.24807500  1
  C  C12  1  0.41491800  0.74443200  0.18769600  1
  C  C13  1  0.08508200  0.74443200  0.68769600  1
  C  C14  1  0.94544100  0.16465200  0.11475900  1
  C  C15  1  0.58508200  0.25556800  0.81230400  1
  C  C16  1  0.91491800  0.25556800  0.31230400  1
  C  C17  1  0.55455900  0.16465200  0.61475900  1
  C  C18  1  0.88757200  0.94934600  0.74807500  1
  C  C19  1  0.11242800  0.05065400  0.25192500  1
  C  C20  1  0.40862500  0.38571400  0.63341200  1
  C  C21  1  0.05455900  0.83534800  0.88524100  1
  C  C22  1  0.44544100  0.83534800  0.38524100  1
  C  C23  1  0.38757200  0.05065400  0.75192500  1
  Ni  Ni24  1  0.37878500  0.52255200  0.87601400  1
  Ni  Ni25  1  0.82989100  0.70854200  0.18520100  1
  Ni  Ni26  1  0.63410000  0.83163800  0.99047400  1
  Ni  Ni27  1  0.67010900  0.70854200  0.68520100  1
  Ni  Ni28  1  0.87878500  0.47744800  0.62398600  1
  Ni  Ni29  1  0.32989100  0.29145800  0.31479900  1
  Ni  Ni30  1  0.13410000  0.16836200  0.50952600  1
  Ni  Ni31  1  0.12121500  0.52255200  0.37601400  1
  Ni  Ni32  1  0.62121500  0.47744800  0.12398600  1
  Ni  Ni33  1  0.17010900  0.29145800  0.81479900  1
  Ni  Ni34  1  0.36590000  0.16836200  0.00952600  1
  Ni  Ni35  1  0.86590000  0.83163800  0.49047400  1
  Cu  Cu36  1  0.62561200  0.50925900  0.42708400  1
  Cu  Cu37  1  0.66326600  0.27451000  0.86944000  1
  Cu  Cu38  1  0.12561200  0.49074100  0.07291600  1
  Cu  Cu39  1  0.89140200  0.12541900  0.04420000  1
  Cu  Cu40  1  0.83673400  0.27451000  0.36944000  1
  Cu  Cu41  1  0.60859800  0.12541900  0.54420000  1
  Cu  Cu42  1  0.16205300  0.93545500  0.26919900  1
  Cu  Cu43  1  0.33673400  0.72549000  0.13056000  1
  Cu  Cu44  1  0.10859800  0.87458100  0.95580000  1
  Cu  Cu45  1  0.37438800  0.49074100  0.57291600  1
  Cu  Cu46  1  0.16326600  0.72549000  0.63056000  1
  Cu  Cu47  1  0.66205300  0.06454500  0.23080100  1
  Cu  Cu48  1  0.39140200  0.87458100  0.45580000  1
  Cu  Cu49  1  0.87438800  0.50925900  0.92708400  1
  Cu  Cu50  1  0.33794700  0.93545500  0.76919900  1
  Cu  Cu51  1  0.83794700  0.06454500  0.73080100  1
