# generated using pymatgen
data_Cu4NiC12
_symmetry_space_group_name_H-M   'P 1'
_cell_length_a   7.03998900
_cell_length_b   8.16052432
_cell_length_c   9.91563162
_cell_angle_alpha   105.85245243
_cell_angle_beta   99.58063512
_cell_angle_gamma   113.68587975
_symmetry_Int_Tables_number   1
_chemical_formula_structural   Cu4NiC12
_chemical_formula_sum   'Cu8 Ni2 C24'
_cell_volume   476.52902816
_cell_formula_units_Z   2
loop_
 _symmetry_equiv_pos_site_id
 _symmetry_equiv_pos_as_xyz
  1  'x, y, z'
loop_
 _atom_site_type_symbol
 _atom_site_label
 _atom_site_symmetry_multiplicity
 _atom_site_fract_x
 _atom_site_fract_y
 _atom_site_fract_z
 _atom_site_occupancy
  C  C0  1  0.16681500  0.79819400  0.49618800  1
  C  C1  1  0.83318500  0.20180600  0.50381200  1
  C  C2  1  0.16378800  0.12380100  0.90893400  1
  C  C3  1  0.83621200  0.87619900  0.09106600  1
  Ni  Ni4  1  0.33225400  0.86311000  0.08703700  1
  Ni  Ni5  1  0.66774600  0.13689000  0.91296300  1
  Cu  Cu6  1  0.31247400  0.17297700  0.35695100  1
  Cu  Cu7  1  0.68752600  0.82702300  0.64304900  1
  Cu  Cu8  1  0.34382600  0.61663300  0.77614000  1
  Cu  Cu9  1  0.65617400  0.38336700  0.22386000  1
  Cu  Cu10  1  0.46096000  0.28979000  0.71025200  1
  Cu  Cu11  1  0.53904000  0.71021000  0.28974800  1
  Cu  Cu12  1  0.06596600  0.35340700  0.22159200  1
  Cu  Cu13  1  0.93403400  0.64659300  0.77840800  1
  C  C14  1  0.46619600  0.78613900  0.93582200  1
  C  C15  1  0.53380400  0.21386100  0.06417800  1
  C  C16  1  0.35907100  0.18444300  0.52829800  1
  C  C17  1  0.64092900  0.81555700  0.47170200  1
  C  C18  1  0.45602400  0.67148800  0.65040400  1
  C  C19  1  0.54397600  0.32851200  0.34959600  1
  C  C20  1  0.05310800  0.80186000  0.94440000  1
  C  C21  1  0.94689200  0.19814000  0.05560000  1
  C  C22  1  0.21604900  0.95448800  0.24559700  1
  C  C23  1  0.78395100  0.04551200  0.75440300  1
  C  C24  1  0.08900300  0.56732900  0.70503700  1
  C  C25  1  0.91099700  0.43267100  0.29496300  1
  C  C26  1  0.58004600  0.88133800  0.22994400  1
  C  C27  1  0.41995400  0.11866200  0.77005600  1
  C  C28  1  0.67321300  0.59408100  0.23079000  1
  C  C29  1  0.32678700  0.40591900  0.76921000  1
  C  C30  1  0.28212200  0.55101000  0.24382000  1
  C  C31  1  0.71787800  0.44899000  0.75618000  1
  C  C32  1  0.86677100  0.74623000  0.66654700  1
  C  C33  1  0.13322900  0.25377000  0.33345300  1
