# generated using pymatgen
data_Cu2Ni3C4
_symmetry_space_group_name_H-M   'P 1'
_cell_length_a   7.48230100
_cell_length_b   10.64281500
_cell_length_c   11.30913700
_cell_angle_alpha   90.00000000
_cell_angle_beta   90.00000000
_cell_angle_gamma   90.00000000
_symmetry_Int_Tables_number   1
_chemical_formula_structural   Cu2Ni3C4
_chemical_formula_sum   'Cu8 Ni12 C16'
_cell_volume   900.57762648
_cell_formula_units_Z   4
loop_
 _symmetry_equiv_pos_site_id
 _symmetry_equiv_pos_as_xyz
  1  'x, y, z'
loop_
 _atom_site_type_symbol
 _atom_site_label
 _atom_site_symmetry_multiplicity
 _atom_site_fract_x
 _atom_site_fract_y
 _atom_site_fract_z
 _atom_site_occupancy
  Ni  Ni0  1  0.45194000  0.07705600  0.63732200  1
  Ni  Ni1  1  0.45194000  0.42294400  0.63732200  1
  Ni  Ni2  1  0.91059400  0.25000000  0.22511200  1
  Ni  Ni3  1  0.41059400  0.25000000  0.27488800  1
  Ni  Ni4  1  0.95194000  0.07705600  0.86267800  1
  Ni  Ni5  1  0.08940600  0.75000000  0.77488800  1
  Ni  Ni6  1  0.95194000  0.42294400  0.86267800  1
  Ni  Ni7  1  0.04806000  0.57705600  0.13732200  1
  Ni  Ni8  1  0.58940600  0.75000000  0.72511200  1
  Ni  Ni9  1  0.04806000  0.92294400  0.13732200  1
  Ni  Ni10  1  0.54806000  0.92294400  0.36267800  1
  Ni  Ni11  1  0.54806000  0.57705600  0.36267800  1
  Cu  Cu12  1  0.03356200  0.87275400  0.46733400  1
  Cu  Cu13  1  0.46643800  0.37275400  0.96733400  1
  Cu  Cu14  1  0.96643800  0.37275400  0.53266600  1
  Cu  Cu15  1  0.03356200  0.62724600  0.46733400  1
  Cu  Cu16  1  0.53356200  0.62724600  0.03266600  1
  Cu  Cu17  1  0.96643800  0.12724600  0.53266600  1
  Cu  Cu18  1  0.53356200  0.87275400  0.03266600  1
  Cu  Cu19  1  0.46643800  0.12724600  0.96733400  1
  C  C20  1  0.76567600  0.75000000  0.97349800  1
  C  C21  1  0.23432400  0.25000000  0.02650200  1
  C  C22  1  0.13462400  0.44877700  0.38292500  1
  C  C23  1  0.38435400  0.75000000  0.16609300  1
  C  C24  1  0.63462400  0.44877700  0.11707500  1
  C  C25  1  0.61564600  0.25000000  0.83390700  1
  C  C26  1  0.88435400  0.75000000  0.33390700  1
  C  C27  1  0.11564600  0.25000000  0.66609300  1
  C  C28  1  0.73432400  0.25000000  0.47349800  1
  C  C29  1  0.36537600  0.94877700  0.88292500  1
  C  C30  1  0.36537600  0.55122300  0.88292500  1
  C  C31  1  0.86537600  0.55122300  0.61707500  1
  C  C32  1  0.13462400  0.05122300  0.38292500  1
  C  C33  1  0.26567600  0.75000000  0.52650200  1
  C  C34  1  0.86537600  0.94877700  0.61707500  1
  C  C35  1  0.63462400  0.05122300  0.11707500  1
