# generated using pymatgen
data_Cu3Ni9C7
_symmetry_space_group_name_H-M   'P 1'
_cell_length_a   9.15076951
_cell_length_b   9.15076951
_cell_length_c   7.54336600
_cell_angle_alpha   90.00000000
_cell_angle_beta   90.00000000
_cell_angle_gamma   101.78817066
_symmetry_Int_Tables_number   1
_chemical_formula_structural   Cu3Ni9C7
_chemical_formula_sum   'Cu6 Ni18 C14'
_cell_volume   618.33381146
_cell_formula_units_Z   2
loop_
 _symmetry_equiv_pos_site_id
 _symmetry_equiv_pos_as_xyz
  1  'x, y, z'
loop_
 _atom_site_type_symbol
 _atom_site_label
 _atom_site_symmetry_multiplicity
 _atom_site_fract_x
 _atom_site_fract_y
 _atom_site_fract_z
 _atom_site_occupancy
  C  C0  1  0.97096900  0.61494400  0.77349000  1
  C  C1  1  0.02903100  0.38505600  0.27349000  1
  C  C2  1  0.61494400  0.97096900  0.27349000  1
  C  C3  1  0.59669900  0.40330100  0.00506000  1
  C  C4  1  0.40330100  0.59669900  0.50506000  1
  C  C5  1  0.38505600  0.02903100  0.77349000  1
  C  C6  1  0.86257600  0.13742400  0.84879500  1
  C  C7  1  0.13742400  0.86257600  0.34879500  1
  C  C8  1  0.20667800  0.31372600  0.75456500  1
  C  C9  1  0.31372600  0.20667800  0.25456500  1
  C  C10  1  0.79332200  0.68627400  0.25456500  1
  C  C11  1  0.68627400  0.79332200  0.75456500  1
  C  C12  1  0.70291500  0.29708500  0.48356900  1
  C  C13  1  0.29708500  0.70291500  0.98356900  1
  Ni  Ni14  1  0.79119700  0.39910900  0.56567500  1
  Ni  Ni15  1  0.21048100  0.14568600  0.36344600  1
  Ni  Ni16  1  0.65262100  0.65173300  0.24775700  1
  Ni  Ni17  1  0.87332800  0.62322700  0.15733100  1
  Ni  Ni18  1  0.78951900  0.85431400  0.86344600  1
  Ni  Ni19  1  0.85431400  0.78951900  0.36344600  1
  Ni  Ni20  1  0.12667200  0.37677300  0.65733100  1
  Ni  Ni21  1  0.62322700  0.87332800  0.65733100  1
  Ni  Ni22  1  0.39910900  0.79119700  0.06567500  1
  Ni  Ni23  1  0.60089100  0.20880300  0.56567500  1
  Ni  Ni24  1  0.34737900  0.34826700  0.74775700  1
  Ni  Ni25  1  0.14568600  0.21048100  0.86344600  1
  Ni  Ni26  1  0.71974800  0.28025200  0.31752500  1
  Ni  Ni27  1  0.34826700  0.34737900  0.24775700  1
  Ni  Ni28  1  0.65173300  0.65262100  0.74775700  1
  Ni  Ni29  1  0.37677300  0.12667200  0.15733100  1
  Ni  Ni30  1  0.20880300  0.60089100  0.06567500  1
  Ni  Ni31  1  0.28025200  0.71974800  0.81752500  1
  Cu  Cu32  1  0.91826800  0.08173200  0.08746000  1
  Cu  Cu33  1  0.08173200  0.91826800  0.58746000  1
  Cu  Cu34  1  0.65481600  0.11507100  0.94773200  1
  Cu  Cu35  1  0.11507100  0.65481600  0.44773200  1
  Cu  Cu36  1  0.34518400  0.88492900  0.44773200  1
  Cu  Cu37  1  0.88492900  0.34518400  0.94773200  1
