# generated using pymatgen
data_CuNi2C9
_symmetry_space_group_name_H-M   'P 1'
_cell_length_a   5.46674900
_cell_length_b   7.17975921
_cell_length_c   8.92877407
_cell_angle_alpha   69.39385738
_cell_angle_beta   89.12618498
_cell_angle_gamma   88.90205140
_symmetry_Int_Tables_number   1
_chemical_formula_structural   CuNi2C9
_chemical_formula_sum   'Cu2 Ni4 C18'
_cell_volume   327.95867990
_cell_formula_units_Z   2
loop_
 _symmetry_equiv_pos_site_id
 _symmetry_equiv_pos_as_xyz
  1  'x, y, z'
loop_
 _atom_site_type_symbol
 _atom_site_label
 _atom_site_symmetry_multiplicity
 _atom_site_fract_x
 _atom_site_fract_y
 _atom_site_fract_z
 _atom_site_occupancy
  Ni  Ni0  1  0.23427900  0.86100600  0.54892300  1
  Ni  Ni1  1  0.73388000  0.21083300  0.01862100  1
  Ni  Ni2  1  0.76572100  0.13899400  0.45107700  1
  Ni  Ni3  1  0.26612000  0.78916700  0.98137900  1
  Cu  Cu4  1  0.23141100  0.24728900  0.72033300  1
  Cu  Cu5  1  0.76858900  0.75271100  0.27966700  1
  C  C6  1  0.24758800  0.11708300  0.17443500  1
  C  C7  1  0.75241200  0.88291700  0.82556500  1
  C  C8  1  0.29403200  0.43141800  0.30951900  1
  C  C9  1  0.70596800  0.56858200  0.69048100  1
  C  C10  1  0.54265900  0.99671000  0.71719100  1
  C  C11  1  0.72312500  0.87270200  0.99921800  1
  C  C12  1  0.15956500  0.63233500  0.24763900  1
  C  C13  1  0.72855300  0.64857200  0.84241800  1
  C  C14  1  0.00826200  0.94801700  0.75649100  1
  C  C15  1  0.43098700  0.54852600  0.66980100  1
  C  C16  1  0.82660700  0.72402200  0.54513400  1
  C  C17  1  0.56901300  0.45147400  0.33019900  1
  C  C18  1  0.84043500  0.36766500  0.75236100  1
  C  C19  1  0.99173800  0.05198300  0.24350900  1
  C  C20  1  0.27144700  0.35142800  0.15758200  1
  C  C21  1  0.27687500  0.12729800  0.00078200  1
  C  C22  1  0.45734100  0.00329000  0.28280900  1
  C  C23  1  0.17339300  0.27597800  0.45486600  1
