# generated using pymatgen
data_Cu2Ni3C4
_symmetry_space_group_name_H-M   'P 1'
_cell_length_a   3.74624200
_cell_length_b   7.47375800
_cell_length_c   8.17571575
_cell_angle_alpha   109.76609893
_cell_angle_beta   90.00000000
_cell_angle_gamma   90.00000000
_symmetry_Int_Tables_number   1
_chemical_formula_structural   Cu2Ni3C4
_chemical_formula_sum   'Cu2 Ni3 C4'
_cell_volume   215.42081405
_cell_formula_units_Z   1
loop_
 _symmetry_equiv_pos_site_id
 _symmetry_equiv_pos_as_xyz
  1  'x, y, z'
loop_
 _atom_site_type_symbol
 _atom_site_label
 _atom_site_symmetry_multiplicity
 _atom_site_fract_x
 _atom_site_fract_y
 _atom_site_fract_z
 _atom_site_occupancy
  C  C0  1  0.50000000  0.39849100  0.17873200  1
  C  C1  1  0.50000000  0.60150900  0.82126800  1
  C  C2  1  0.50000000  0.90280900  0.27228300  1
  C  C3  1  0.50000000  0.09719100  0.72771700  1
  Ni  Ni4  1  0.00000000  0.29158800  0.50199700  1
  Ni  Ni5  1  0.00000000  0.00000000  0.00000000  1
  Ni  Ni6  1  0.00000000  0.70841200  0.49800300  1
  Cu  Cu7  1  0.00000000  0.35098800  0.89329100  1
  Cu  Cu8  1  0.00000000  0.64901200  0.10670900  1
