# generated using pymatgen
data_CuNi
_symmetry_space_group_name_H-M   'P 1'
_cell_length_a   3.09480906
_cell_length_b   3.09480906
_cell_length_c   91.10035700
_cell_angle_alpha   90.00000000
_cell_angle_beta   90.00000000
_cell_angle_gamma   119.99998001
_symmetry_Int_Tables_number   1
_chemical_formula_structural   CuNi
_chemical_formula_sum   'Cu36 Ni36'
_cell_volume   755.64622758
_cell_formula_units_Z   36
loop_
 _symmetry_equiv_pos_site_id
 _symmetry_equiv_pos_as_xyz
  1  'x, y, z'
loop_
 _atom_site_type_symbol
 _atom_site_label
 _atom_site_symmetry_multiplicity
 _atom_site_fract_x
 _atom_site_fract_y
 _atom_site_fract_z
 _atom_site_occupancy
  Ni  Ni0  1  0.00000000  0.00000000  0.16665800  1
  Ni  Ni1  1  0.66666700  0.33333300  0.61110000  1
  Ni  Ni2  1  0.33333300  0.66666700  0.91663800  1
  Ni  Ni3  1  0.00000000  0.00000000  0.41665500  1
  Ni  Ni4  1  0.33333300  0.66666700  0.36111600  1
  Ni  Ni5  1  0.66666700  0.33333300  0.27778500  1
  Ni  Ni6  1  0.33333300  0.66666700  0.80556500  1
  Ni  Ni7  1  0.33333300  0.66666700  0.30553700  1
  Ni  Ni8  1  0.66666700  0.33333300  0.77777300  1
  Ni  Ni9  1  0.33333300  0.66666700  0.13886400  1
  Ni  Ni10  1  0.00000000  0.00000000  0.66664100  1
  Ni  Ni11  1  0.33333300  0.66666700  0.02778500  1
  Ni  Ni12  1  0.66666700  0.33333300  0.52777200  1
  Ni  Ni13  1  0.33333300  0.66666700  0.63889200  1
  Ni  Ni14  1  0.00000000  0.00000000  0.83331100  1
  Ni  Ni15  1  0.33333300  0.66666700  0.19444500  1
  Ni  Ni16  1  0.33333300  0.66666700  0.47221000  1
  Ni  Ni17  1  0.66666700  0.33333300  0.11111300  1
  Ni  Ni18  1  0.66666700  0.33333300  0.05553200  1
  Ni  Ni19  1  0.00000000  0.00000000  0.49997500  1
  Ni  Ni20  1  0.66666700  0.33333300  0.22219600  1
  Ni  Ni21  1  0.00000000  0.00000000  0.55556200  1
  Ni  Ni22  1  0.00000000  0.00000000  0.72222500  1
  Ni  Ni23  1  0.00000000  0.00000000  0.08332500  1
  Ni  Ni24  1  0.66666700  0.33333300  0.94443300  1
  Ni  Ni25  1  0.66666700  0.33333300  0.38886200  1
  Ni  Ni26  1  0.66666700  0.33333300  0.69443300  1
  Ni  Ni27  1  0.66666700  0.33333300  0.86110400  1
  Ni  Ni28  1  0.00000000  0.00000000  0.33332700  1
  Ni  Ni29  1  0.33333300  0.66666700  0.58330800  1
  Ni  Ni30  1  0.00000000  0.00000000  0.99999000  1
  Ni  Ni31  1  0.00000000  0.00000000  0.88889100  1
  Ni  Ni32  1  0.66666700  0.33333300  0.44444400  1
  Ni  Ni33  1  0.33333300  0.66666700  0.74997700  1
  Ni  Ni34  1  0.00000000  0.00000000  0.24999300  1
  Ni  Ni35  1  0.33333300  0.66666700  0.97220700  1
  Cu  Cu36  1  0.00000000  0.00000000  0.74306000  1
  Cu  Cu37  1  0.00000000  0.00000000  0.27088300  1
  Cu  Cu38  1  0.33333300  0.66666700  0.38195000  1
  Cu  Cu39  1  0.00000000  0.00000000  0.57639100  1
  Cu  Cu40  1  0.66666700  0.33333300  0.46528200  1
  Cu  Cu41  1  0.66666700  0.33333300  0.13194900  1
  Cu  Cu42  1  0.66666700  0.33333300  0.40969800  1
  Cu  Cu43  1  0.33333300  0.66666700  0.82639500  1
  Cu  Cu44  1  0.00000000  0.00000000  0.43755000  1
  Cu  Cu45  1  0.66666700  0.33333300  0.29861200  1
  Cu  Cu46  1  0.00000000  0.00000000  0.10421800  1
  Cu  Cu47  1  0.66666700  0.33333300  0.71532800  1
  Cu  Cu48  1  0.00000000  0.00000000  0.90972800  1
  Cu  Cu49  1  0.66666700  0.33333300  0.79866200  1
  Cu  Cu50  1  0.00000000  0.00000000  0.52080900  1
  Cu  Cu51  1  0.66666700  0.33333300  0.88199600  1
  Cu  Cu52  1  0.66666700  0.33333300  0.07637000  1
  Cu  Cu53  1  0.33333300  0.66666700  0.99302300  1
  Cu  Cu54  1  0.66666700  0.33333300  0.24303000  1
  Cu  Cu55  1  0.00000000  0.00000000  0.18754600  1
  Cu  Cu56  1  0.66666700  0.33333300  0.63198700  1
  Cu  Cu57  1  0.33333300  0.66666700  0.04861900  1
  Cu  Cu58  1  0.00000000  0.00000000  0.85414200  1
  Cu  Cu59  1  0.33333300  0.66666700  0.60414400  1
  Cu  Cu60  1  0.00000000  0.00000000  0.35421400  1
  Cu  Cu61  1  0.33333300  0.66666700  0.15969300  1
  Cu  Cu62  1  0.33333300  0.66666700  0.49306400  1
  Cu  Cu63  1  0.33333300  0.66666700  0.65972100  1
  Cu  Cu64  1  0.33333300  0.66666700  0.93747400  1
  Cu  Cu65  1  0.33333300  0.66666700  0.77080900  1
  Cu  Cu66  1  0.33333300  0.66666700  0.32636600  1
  Cu  Cu67  1  0.66666700  0.33333300  0.54866800  1
  Cu  Cu68  1  0.33333300  0.66666700  0.21527900  1
  Cu  Cu69  1  0.00000000  0.00000000  0.02088900  1
  Cu  Cu70  1  0.66666700  0.33333300  0.96532900  1
  Cu  Cu71  1  0.00000000  0.00000000  0.68746800  1
