# generated using pymatgen
data_Cu4NiC18
_symmetry_space_group_name_H-M   'P 1'
_cell_length_a   12.69056100
_cell_length_b   12.69056100
_cell_length_c   4.13440300
_cell_angle_alpha   90.00000000
_cell_angle_beta   90.00000000
_cell_angle_gamma   90.00000000
_symmetry_Int_Tables_number   1
_chemical_formula_structural   Cu4NiC18
_chemical_formula_sum   'Cu8 Ni2 C36'
_cell_volume   665.84700262
_cell_formula_units_Z   2
loop_
 _symmetry_equiv_pos_site_id
 _symmetry_equiv_pos_as_xyz
  1  'x, y, z'
loop_
 _atom_site_type_symbol
 _atom_site_label
 _atom_site_symmetry_multiplicity
 _atom_site_fract_x
 _atom_site_fract_y
 _atom_site_fract_z
 _atom_site_occupancy
  C  C0  1  0.83676600  0.66323400  0.97939900  1
  C  C1  1  0.16323400  0.33676600  0.97939900  1
  C  C2  1  0.00000000  0.00000000  0.98683200  1
  C  C3  1  0.33676600  0.83676600  0.97939900  1
  C  C4  1  0.66323400  0.16323400  0.97939900  1
  C  C5  1  0.50000000  0.50000000  0.98683200  1
  Ni  Ni6  1  0.50000000  0.00000000  0.45144000  1
  Ni  Ni7  1  0.00000000  0.50000000  0.45144000  1
  Cu  Cu8  1  0.71666000  0.42659500  0.46809200  1
  Cu  Cu9  1  0.57340500  0.71666000  0.46809200  1
  Cu  Cu10  1  0.78334000  0.92659500  0.46809200  1
  Cu  Cu11  1  0.28334000  0.57340500  0.46809200  1
  Cu  Cu12  1  0.92659500  0.21666000  0.46809200  1
  Cu  Cu13  1  0.21666000  0.07340500  0.46809200  1
  Cu  Cu14  1  0.07340500  0.78334000  0.46809200  1
  Cu  Cu15  1  0.42659500  0.28334000  0.46809200  1
  C  C16  1  0.07514500  0.79141300  0.01413600  1
  C  C17  1  0.56828500  0.35961700  0.51376200  1
  C  C18  1  0.43171500  0.64038300  0.51376200  1
  C  C19  1  0.92485500  0.20858700  0.01413600  1
  C  C20  1  0.42485500  0.29141300  0.01413600  1
  C  C21  1  0.50000000  0.00000000  0.02925500  1
  C  C22  1  0.00000000  0.50000000  0.02925500  1
  C  C23  1  0.50625700  0.15466400  0.51418200  1
  C  C24  1  0.78142400  0.28142400  0.51199300  1
  C  C25  1  0.35961700  0.43171500  0.51376200  1
  C  C26  1  0.20858700  0.07514500  0.01413600  1
  C  C27  1  0.71857600  0.78142400  0.51199300  1
  C  C28  1  0.57514500  0.70858700  0.01413600  1
  C  C29  1  0.65466400  0.00625700  0.51418200  1
  C  C30  1  0.29141300  0.57514500  0.01413600  1
  C  C31  1  0.64038300  0.56828500  0.51376200  1
  C  C32  1  0.14038300  0.93171500  0.51376200  1
  C  C33  1  0.84533600  0.50625700  0.51418200  1
  C  C34  1  0.70858700  0.42485500  0.01413600  1
  C  C35  1  0.85961700  0.06828500  0.51376200  1
  C  C36  1  0.34533600  0.99374300  0.51418200  1
  C  C37  1  0.99374300  0.65466400  0.51418200  1
  C  C38  1  0.06828500  0.14038300  0.51376200  1
  C  C39  1  0.15466400  0.49374300  0.51418200  1
  C  C40  1  0.79141300  0.92485500  0.01413600  1
  C  C41  1  0.93171500  0.85961700  0.51376200  1
  C  C42  1  0.00625700  0.34533600  0.51418200  1
  C  C43  1  0.49374300  0.84533600  0.51418200  1
  C  C44  1  0.21857600  0.71857600  0.51199300  1
  C  C45  1  0.28142400  0.21857600  0.51199300  1
