# generated using pymatgen
data_Cu5Ni2C3
_symmetry_space_group_name_H-M   'P 1'
_cell_length_a   7.22897000
_cell_length_b   8.25687000
_cell_length_c   10.12716000
_cell_angle_alpha   90.00000000
_cell_angle_beta   90.00000000
_cell_angle_gamma   90.00000000
_symmetry_Int_Tables_number   1
_chemical_formula_structural   Cu5Ni2C3
_chemical_formula_sum   'Cu20 Ni8 C12'
_cell_volume   604.47666595
_cell_formula_units_Z   4
loop_
 _symmetry_equiv_pos_site_id
 _symmetry_equiv_pos_as_xyz
  1  'x, y, z'
loop_
 _atom_site_type_symbol
 _atom_site_label
 _atom_site_symmetry_multiplicity
 _atom_site_fract_x
 _atom_site_fract_y
 _atom_site_fract_z
 _atom_site_occupancy
  C  C0  1  0.55267600  0.99451100  0.31155000  1
  C  C1  1  0.05267600  0.50548900  0.18845000  1
  C  C2  1  0.44732400  0.49451100  0.68845000  1
  C  C3  1  0.94732400  0.49451100  0.81155000  1
  C  C4  1  0.44732400  0.00548900  0.68845000  1
  C  C5  1  0.05267600  0.99451100  0.18845000  1
  C  C6  1  0.94732400  0.00548900  0.81155000  1
  C  C7  1  0.55267600  0.50548900  0.31155000  1
  C  C8  1  0.14112800  0.75000000  0.50149700  1
  C  C9  1  0.35887200  0.25000000  0.00149700  1
  C  C10  1  0.85887200  0.25000000  0.49850300  1
  C  C11  1  0.64112800  0.75000000  0.99850300  1
  Ni  Ni12  1  0.71572800  0.25000000  0.06315200  1
  Ni  Ni13  1  0.78427200  0.75000000  0.56315200  1
  Ni  Ni14  1  0.21572800  0.25000000  0.43684800  1
  Ni  Ni15  1  0.60161500  0.25000000  0.96352900  1
  Ni  Ni16  1  0.89838500  0.75000000  0.46352900  1
  Ni  Ni17  1  0.28427200  0.75000000  0.93684800  1
  Ni  Ni18  1  0.10161500  0.25000000  0.53647100  1
  Ni  Ni19  1  0.39838500  0.75000000  0.03647100  1
  Cu  Cu20  1  0.29350600  0.10137700  0.93924500  1
  Cu  Cu21  1  0.14481100  0.25000000  0.66206300  1
  Cu  Cu22  1  0.84685300  0.25000000  0.35422300  1
  Cu  Cu23  1  0.79350600  0.10137700  0.56075500  1
  Cu  Cu24  1  0.65314700  0.75000000  0.85422300  1
  Cu  Cu25  1  0.64481100  0.25000000  0.83793700  1
  Cu  Cu26  1  0.15314700  0.75000000  0.64577700  1
  Cu  Cu27  1  0.38891500  0.25000000  0.47097000  1
  Cu  Cu28  1  0.34685300  0.25000000  0.14577700  1
  Cu  Cu29  1  0.70649400  0.60137700  0.06075500  1
  Cu  Cu30  1  0.20649400  0.60137700  0.43924500  1
  Cu  Cu31  1  0.79350600  0.39862300  0.56075500  1
  Cu  Cu32  1  0.88891500  0.25000000  0.02903000  1
  Cu  Cu33  1  0.61108500  0.75000000  0.52903000  1
  Cu  Cu34  1  0.20649400  0.89862300  0.43924500  1
  Cu  Cu35  1  0.35518900  0.75000000  0.16206300  1
  Cu  Cu36  1  0.70649400  0.89862300  0.06075500  1
  Cu  Cu37  1  0.11108500  0.75000000  0.97097000  1
  Cu  Cu38  1  0.85518900  0.75000000  0.33793700  1
  Cu  Cu39  1  0.29350600  0.39862300  0.93924500  1
