# generated using pymatgen
data_CuNi2
_symmetry_space_group_name_H-M   'P 1'
_cell_length_a   9.33611043
_cell_length_b   9.33611043
_cell_length_c   32.06625685
_cell_angle_alpha   81.91211766
_cell_angle_beta   81.91211766
_cell_angle_gamma   58.84657237
_symmetry_Int_Tables_number   1
_chemical_formula_structural   CuNi2
_chemical_formula_sum   'Cu22 Ni44'
_cell_volume   2360.50083278
_cell_formula_units_Z   22
loop_
 _symmetry_equiv_pos_site_id
 _symmetry_equiv_pos_as_xyz
  1  'x, y, z'
loop_
 _atom_site_type_symbol
 _atom_site_label
 _atom_site_symmetry_multiplicity
 _atom_site_fract_x
 _atom_site_fract_y
 _atom_site_fract_z
 _atom_site_occupancy
  Ni  Ni0  1  0.40345000  0.20574600  0.31182000  1
  Ni  Ni1  1  0.20574600  0.40345000  0.81182000  1
  Ni  Ni2  1  0.48248100  0.68106100  0.41363000  1
  Ni  Ni3  1  0.00802900  0.83417500  0.42858900  1
  Ni  Ni4  1  0.71777700  0.19689200  0.80957500  1
  Ni  Ni5  1  0.52621700  0.05595800  0.43523700  1
  Ni  Ni6  1  0.56194600  0.71025700  0.00170600  1
  Ni  Ni7  1  0.16953600  0.04570200  0.75944700  1
  Ni  Ni8  1  0.04570200  0.16953600  0.25944700  1
  Ni  Ni9  1  0.79425400  0.59655000  0.18818000  1
  Ni  Ni10  1  0.51767900  0.03452700  0.12293700  1
  Ni  Ni11  1  0.99197100  0.16582500  0.57141100  1
  Ni  Ni12  1  0.94404200  0.47378300  0.06476300  1
  Ni  Ni13  1  0.19689200  0.71777700  0.30957500  1
  Ni  Ni14  1  0.73443400  0.25486100  0.14468400  1
  Ni  Ni15  1  0.83417500  0.00802900  0.92858900  1
  Ni  Ni16  1  0.39299300  0.30783800  0.69726400  1
  Ni  Ni17  1  0.30783800  0.39299300  0.19726400  1
  Ni  Ni18  1  0.48232100  0.96547300  0.87706300  1
  Ni  Ni19  1  0.26556600  0.74513900  0.85531600  1
  Ni  Ni20  1  0.95429800  0.83046400  0.74055300  1
  Ni  Ni21  1  0.05595800  0.52621700  0.93523700  1
  Ni  Ni22  1  0.60700700  0.69216200  0.30273600  1
  Ni  Ni23  1  0.43805400  0.28974300  0.99829400  1
  Ni  Ni24  1  0.10623600  0.15477800  0.46287700  1
  Ni  Ni25  1  0.51751900  0.31893900  0.58637000  1
  Ni  Ni26  1  0.28222300  0.80310800  0.19042500  1
  Ni  Ni27  1  0.84522200  0.89376400  0.03712300  1
  Ni  Ni28  1  0.16582500  0.99197100  0.07141100  1
  Ni  Ni29  1  0.25486100  0.73443400  0.64468400  1
  Ni  Ni30  1  0.69216200  0.60700700  0.80273600  1
  Ni  Ni31  1  0.47378300  0.94404200  0.56476300  1
  Ni  Ni32  1  0.74513900  0.26556600  0.35531600  1
  Ni  Ni33  1  0.15477800  0.10623600  0.96287700  1
  Ni  Ni34  1  0.96547300  0.48232100  0.37706300  1
  Ni  Ni35  1  0.68106100  0.48248100  0.91363000  1
  Ni  Ni36  1  0.31893900  0.51751900  0.08637000  1
  Ni  Ni37  1  0.80310800  0.28222300  0.69042500  1
  Ni  Ni38  1  0.28974300  0.43805400  0.49829400  1
  Ni  Ni39  1  0.71025700  0.56194600  0.50170600  1
  Ni  Ni40  1  0.59655000  0.79425400  0.68818000  1
  Ni  Ni41  1  0.89376400  0.84522200  0.53712300  1
  Ni  Ni42  1  0.83046400  0.95429800  0.24055300  1
  Ni  Ni43  1  0.03452700  0.51767900  0.62293700  1
  Cu  Cu44  1  0.77364600  0.90691400  0.35195700  1
  Cu  Cu45  1  0.09308600  0.22635400  0.14804300  1
  Cu  Cu46  1  0.98113500  0.48158100  0.72629700  1
  Cu  Cu47  1  0.90691400  0.77364600  0.85195700  1
  Cu  Cu48  1  0.22635400  0.09308600  0.64804300  1
  Cu  Cu49  1  0.32117100  0.45313100  0.39475000  1
  Cu  Cu50  1  0.39674800  0.60325200  0.75000000  1
  Cu  Cu51  1  0.01907800  0.18583500  0.87085500  1
  Cu  Cu52  1  0.21976900  0.71159400  0.98463300  1
  Cu  Cu53  1  0.54686900  0.67882900  0.10525000  1
  Cu  Cu54  1  0.71159400  0.21976900  0.48463300  1
  Cu  Cu55  1  0.81416500  0.98092200  0.62914500  1
  Cu  Cu56  1  0.60325200  0.39674800  0.25000000  1
  Cu  Cu57  1  0.51841900  0.01886500  0.77370300  1
  Cu  Cu58  1  0.45313100  0.32117100  0.89475000  1
  Cu  Cu59  1  0.98092200  0.81416500  0.12914500  1
  Cu  Cu60  1  0.78023100  0.28840600  0.01536700  1
  Cu  Cu61  1  0.67882900  0.54686900  0.60525000  1
  Cu  Cu62  1  0.18583500  0.01907800  0.37085500  1
  Cu  Cu63  1  0.01886500  0.51841900  0.27370300  1
  Cu  Cu64  1  0.28840600  0.78023100  0.51536700  1
  Cu  Cu65  1  0.48158100  0.98113500  0.22629700  1
