# generated using pymatgen
data_Cu15NiC8
_symmetry_space_group_name_H-M   'P 1'
_cell_length_a   11.11547635
_cell_length_b   11.11547635
_cell_length_c   7.97483500
_cell_angle_alpha   90.00000000
_cell_angle_beta   90.00000000
_cell_angle_gamma   120.00000211
_symmetry_Int_Tables_number   1
_chemical_formula_structural   Cu15NiC8
_chemical_formula_sum   'Cu30 Ni2 C16'
_cell_volume   853.31324547
_cell_formula_units_Z   2
loop_
 _symmetry_equiv_pos_site_id
 _symmetry_equiv_pos_as_xyz
  1  'x, y, z'
loop_
 _atom_site_type_symbol
 _atom_site_label
 _atom_site_symmetry_multiplicity
 _atom_site_fract_x
 _atom_site_fract_y
 _atom_site_fract_z
 _atom_site_occupancy
  C  C0  1  0.00000000  0.26485700  0.76772700  1
  C  C1  1  0.00000000  0.73514300  0.26772700  1
  C  C2  1  0.26485700  0.26485700  0.26772700  1
  C  C3  1  0.73514300  0.00000000  0.26772700  1
  C  C4  1  0.26485700  0.00000000  0.76772700  1
  C  C5  1  0.66666700  0.33333300  0.50389800  1
  C  C6  1  0.73514300  0.73514300  0.76772700  1
  C  C7  1  0.33333300  0.66666700  0.50389800  1
  C  C8  1  0.66666700  0.33333300  0.00389800  1
  C  C9  1  0.33333300  0.66666700  0.00389800  1
  C  C10  1  0.38787900  0.00000000  0.21515200  1
  C  C11  1  0.00000000  0.61212100  0.71515200  1
  C  C12  1  0.61212100  0.61212100  0.21515200  1
  C  C13  1  0.38787900  0.38787900  0.71515200  1
  C  C14  1  0.00000000  0.38787900  0.21515200  1
  C  C15  1  0.61212100  0.00000000  0.71515200  1
  Ni  Ni16  1  0.00000000  0.00000000  0.03915400  1
  Ni  Ni17  1  0.00000000  0.00000000  0.53915400  1
  Cu  Cu18  1  0.25727600  0.86875300  0.06851200  1
  Cu  Cu19  1  0.55377000  0.42381500  0.24732800  1
  Cu  Cu20  1  0.38852400  0.13124700  0.06851200  1
  Cu  Cu21  1  0.87004600  0.42381500  0.74732800  1
  Cu  Cu22  1  0.44623000  0.57618500  0.74732800  1
  Cu  Cu23  1  0.55377000  0.12995400  0.74732800  1
  Cu  Cu24  1  0.57618500  0.44623000  0.74732800  1
  Cu  Cu25  1  0.29364700  0.00000000  0.39035800  1
  Cu  Cu26  1  0.13124700  0.38852400  0.06851200  1
  Cu  Cu27  1  0.29364700  0.29364700  0.89035800  1
  Cu  Cu28  1  0.00000000  0.70635300  0.89035800  1
  Cu  Cu29  1  0.70635300  0.00000000  0.89035800  1
  Cu  Cu30  1  0.42381500  0.55377000  0.24732800  1
  Cu  Cu31  1  0.70635300  0.70635300  0.39035800  1
  Cu  Cu32  1  0.00000000  0.29364700  0.39035800  1
  Cu  Cu33  1  0.12995400  0.55377000  0.74732800  1
  Cu  Cu34  1  0.61147600  0.86875300  0.56851200  1
  Cu  Cu35  1  0.38852400  0.25727600  0.56851200  1
  Cu  Cu36  1  0.74272400  0.13124700  0.56851200  1
  Cu  Cu37  1  0.86875300  0.25727600  0.06851200  1
  Cu  Cu38  1  0.25727600  0.38852400  0.56851200  1
  Cu  Cu39  1  0.87004600  0.44623000  0.24732800  1
  Cu  Cu40  1  0.61147600  0.74272400  0.06851200  1
  Cu  Cu41  1  0.12995400  0.57618500  0.24732800  1
  Cu  Cu42  1  0.44623000  0.87004600  0.24732800  1
  Cu  Cu43  1  0.74272400  0.61147600  0.06851200  1
  Cu  Cu44  1  0.13124700  0.74272400  0.56851200  1
  Cu  Cu45  1  0.57618500  0.12995400  0.24732800  1
  Cu  Cu46  1  0.42381500  0.87004600  0.74732800  1
  Cu  Cu47  1  0.86875300  0.61147600  0.56851200  1
