# generated using pymatgen
data_Cu6Ni2C
_symmetry_space_group_name_H-M   'P 1'
_cell_length_a   7.82310500
_cell_length_b   7.82310500
_cell_length_c   7.82310500
_cell_angle_alpha   90.00000000
_cell_angle_beta   90.00000000
_cell_angle_gamma   90.00000000
_symmetry_Int_Tables_number   1
_chemical_formula_structural   Cu6Ni2C
_chemical_formula_sum   'Cu24 Ni8 C4'
_cell_volume   478.78162881
_cell_formula_units_Z   4
loop_
 _symmetry_equiv_pos_site_id
 _symmetry_equiv_pos_as_xyz
  1  'x, y, z'
loop_
 _atom_site_type_symbol
 _atom_site_label
 _atom_site_symmetry_multiplicity
 _atom_site_fract_x
 _atom_site_fract_y
 _atom_site_fract_z
 _atom_site_occupancy
  C  C0  1  0.50000000  0.50000000  0.00000000  1
  C  C1  1  0.00000000  0.50000000  0.50000000  1
  C  C2  1  0.50000000  0.00000000  0.50000000  1
  C  C3  1  0.00000000  0.00000000  0.00000000  1
  Ni  Ni4  1  0.33103200  0.16896800  0.83103200  1
  Ni  Ni5  1  0.83103200  0.33103200  0.16896800  1
  Ni  Ni6  1  0.16896800  0.83103200  0.33103200  1
  Ni  Ni7  1  0.66896800  0.66896800  0.66896800  1
  Ni  Ni8  1  0.66896800  0.83103200  0.16896800  1
  Ni  Ni9  1  0.16896800  0.66896800  0.83103200  1
  Ni  Ni10  1  0.83103200  0.16896800  0.66896800  1
  Ni  Ni11  1  0.33103200  0.33103200  0.33103200  1
  Cu  Cu12  1  0.44827900  0.28006600  0.82483000  1
  Cu  Cu13  1  0.82483000  0.44827900  0.28006600  1
  Cu  Cu14  1  0.28006600  0.82483000  0.44827900  1
  Cu  Cu15  1  0.21993400  0.17517000  0.94827900  1
  Cu  Cu16  1  0.32483000  0.05172100  0.71993400  1
  Cu  Cu17  1  0.71993400  0.32483000  0.05172100  1
  Cu  Cu18  1  0.67517000  0.55172100  0.78006600  1
  Cu  Cu19  1  0.17517000  0.94827900  0.21993400  1
  Cu  Cu20  1  0.78006600  0.67517000  0.55172100  1
  Cu  Cu21  1  0.94827900  0.21993400  0.17517000  1
  Cu  Cu22  1  0.55172100  0.78006600  0.67517000  1
  Cu  Cu23  1  0.05172100  0.71993400  0.32483000  1
  Cu  Cu24  1  0.55172100  0.71993400  0.17517000  1
  Cu  Cu25  1  0.17517000  0.55172100  0.71993400  1
  Cu  Cu26  1  0.71993400  0.17517000  0.55172100  1
  Cu  Cu27  1  0.78006600  0.82483000  0.05172100  1
  Cu  Cu28  1  0.67517000  0.94827900  0.28006600  1
  Cu  Cu29  1  0.28006600  0.67517000  0.94827900  1
  Cu  Cu30  1  0.32483000  0.44827900  0.21993400  1
  Cu  Cu31  1  0.82483000  0.05172100  0.78006600  1
  Cu  Cu32  1  0.21993400  0.32483000  0.44827900  1
  Cu  Cu33  1  0.05172100  0.78006600  0.82483000  1
  Cu  Cu34  1  0.44827900  0.21993400  0.32483000  1
  Cu  Cu35  1  0.94827900  0.28006600  0.67517000  1
