# generated using pymatgen
data_Cu4Ni2C11
_symmetry_space_group_name_H-M   'P 1'
_cell_length_a   14.36251600
_cell_length_b   6.53391200
_cell_length_c   9.39588865
_cell_angle_alpha   52.25326523
_cell_angle_beta   90.00000000
_cell_angle_gamma   90.00000000
_symmetry_Int_Tables_number   1
_chemical_formula_structural   Cu4Ni2C11
_chemical_formula_sum   'Cu16 Ni8 C44'
_cell_volume   697.21519328
_cell_formula_units_Z   4
loop_
 _symmetry_equiv_pos_site_id
 _symmetry_equiv_pos_as_xyz
  1  'x, y, z'
loop_
 _atom_site_type_symbol
 _atom_site_label
 _atom_site_symmetry_multiplicity
 _atom_site_fract_x
 _atom_site_fract_y
 _atom_site_fract_z
 _atom_site_occupancy
  C  C0  1  0.61014000  0.81838700  0.91836000  1
  C  C1  1  0.11014000  0.18161300  0.58164000  1
  C  C2  1  0.38986000  0.18161300  0.08164000  1
  C  C3  1  0.88986000  0.81838700  0.41836000  1
  C  C4  1  0.24720900  0.70372300  0.34591300  1
  C  C5  1  0.74720900  0.29627700  0.15408700  1
  C  C6  1  0.75279100  0.29627700  0.65408700  1
  C  C7  1  0.25279100  0.70372300  0.84591300  1
  Ni  Ni8  1  0.41434100  0.61102500  0.14752600  1
  Ni  Ni9  1  0.91434100  0.38897500  0.35247400  1
  Ni  Ni10  1  0.58565900  0.38897500  0.85247400  1
  Ni  Ni11  1  0.08565900  0.61102500  0.64752600  1
  Ni  Ni12  1  0.31295200  0.14664300  0.42196500  1
  Ni  Ni13  1  0.81295200  0.85335700  0.07803500  1
  Ni  Ni14  1  0.68704800  0.85335700  0.57803500  1
  Ni  Ni15  1  0.18704800  0.14664300  0.92196500  1
  Cu  Cu16  1  0.44873100  0.97814900  0.68372300  1
  Cu  Cu17  1  0.94873100  0.02185100  0.81627700  1
  Cu  Cu18  1  0.55126900  0.02185100  0.31627700  1
  Cu  Cu19  1  0.05126900  0.97814900  0.18372300  1
  Cu  Cu20  1  0.47469700  0.16503400  0.72916100  1
  Cu  Cu21  1  0.97469700  0.83496600  0.77083900  1
  Cu  Cu22  1  0.52530300  0.83496600  0.27083900  1
  Cu  Cu23  1  0.02530300  0.16503400  0.22916100  1
  Cu  Cu24  1  0.39711300  0.63817800  0.53560900  1
  Cu  Cu25  1  0.89711300  0.36182200  0.96439100  1
  Cu  Cu26  1  0.60288700  0.36182200  0.46439100  1
  Cu  Cu27  1  0.10288700  0.63817800  0.03560900  1
  Cu  Cu28  1  0.32497300  0.44056800  0.68249800  1
  Cu  Cu29  1  0.82497300  0.55943200  0.81750200  1
  Cu  Cu30  1  0.67502700  0.55943200  0.31750200  1
  Cu  Cu31  1  0.17502700  0.44056800  0.18249800  1
  C  C32  1  0.51785500  0.67283500  0.12612600  1
  C  C33  1  0.01785500  0.32716500  0.37387400  1
  C  C34  1  0.48214500  0.32716500  0.87387400  1
  C  C35  1  0.98214500  0.67283500  0.62612600  1
  C  C36  1  0.35750600  0.80190500  0.15648300  1
  C  C37  1  0.85750600  0.19809500  0.34351700  1
  C  C38  1  0.64249400  0.19809500  0.84351700  1
  C  C39  1  0.14249400  0.80190500  0.65648300  1
  C  C40  1  0.37328600  0.57057900  0.01497500  1
  C  C41  1  0.87328600  0.42942100  0.48502500  1
  C  C42  1  0.62671400  0.42942100  0.98502500  1
  C  C43  1  0.12671400  0.57057900  0.51497500  1
  C  C44  1  0.40542300  0.32867600  0.34431600  1
  C  C45  1  0.90542300  0.67132400  0.15568400  1
  C  C46  1  0.59457700  0.67132400  0.65568400  1
  C  C47  1  0.09457700  0.32867600  0.84431600  1
  C  C48  1  0.23088600  0.32159700  0.39601800  1
  C  C49  1  0.73088600  0.67840300  0.10398200  1
  C  C50  1  0.76911400  0.67840300  0.60398200  1
  C  C51  1  0.26911400  0.32159700  0.89601800  1
  C  C52  1  0.29904000  0.05587400  0.30581600  1
  C  C53  1  0.79904000  0.94412600  0.19418400  1
  C  C54  1  0.70096000  0.94412600  0.69418400  1
  C  C55  1  0.20096000  0.05587400  0.80581600  1
  C  C56  1  0.33823400  0.93009600  0.61771500  1
  C  C57  1  0.83823400  0.06990400  0.88228500  1
  C  C58  1  0.66176600  0.06990400  0.38228500  1
  C  C59  1  0.16176600  0.93009600  0.11771500  1
  C  C60  1  0.50205900  0.04230500  0.71365100  1
  C  C61  1  0.00205900  0.95769500  0.78634900  1
  C  C62  1  0.49794100  0.95769500  0.28634900  1
  C  C63  1  0.99794100  0.04230500  0.21365100  1
  C  C64  1  0.34917100  0.51322600  0.56103900  1
  C  C65  1  0.84917100  0.48677400  0.93896100  1
  C  C66  1  0.65082900  0.48677400  0.43896100  1
  C  C67  1  0.15082900  0.51322600  0.06103900  1
