# generated using pymatgen
data_CuNiC5
_symmetry_space_group_name_H-M   'P 1'
_cell_length_a   5.69259167
_cell_length_b   5.64853478
_cell_length_c   3.84024358
_cell_angle_alpha   70.82736553
_cell_angle_beta   69.59035068
_cell_angle_gamma   39.58228379
_symmetry_Int_Tables_number   1
_chemical_formula_structural   CuNiC5
_chemical_formula_sum   'Cu1 Ni1 C5'
_cell_volume   73.37306110
_cell_formula_units_Z   1
loop_
 _symmetry_equiv_pos_site_id
 _symmetry_equiv_pos_as_xyz
  1  'x, y, z'
loop_
 _atom_site_type_symbol
 _atom_site_label
 _atom_site_symmetry_multiplicity
 _atom_site_fract_x
 _atom_site_fract_y
 _atom_site_fract_z
 _atom_site_occupancy
  C  C0  1  0.99261100  0.99261100  0.00738900  1
  Ni  Ni1  1  0.72883300  0.72883300  0.27116700  1
  Cu  Cu2  1  0.25223700  0.25223700  0.74776300  1
  C  C3  1  0.94081200  0.36063000  0.63937000  1
  C  C4  1  0.56493300  0.10794700  0.43506700  1
  C  C5  1  0.36063000  0.94081200  0.05918800  1
  C  C6  1  0.10794700  0.56493300  0.89205300  1
