# generated using pymatgen
data_Cu(NiC9)3
_symmetry_space_group_name_H-M   'P 1'
_cell_length_a   7.25957133
_cell_length_b   7.25957133
_cell_length_c   17.26634700
_cell_angle_alpha   90.00000000
_cell_angle_beta   90.00000000
_cell_angle_gamma   119.99999390
_symmetry_Int_Tables_number   1
_chemical_formula_structural   Cu(NiC9)3
_chemical_formula_sum   'Cu2 Ni6 C54'
_cell_volume   788.04873600
_cell_formula_units_Z   2
loop_
 _symmetry_equiv_pos_site_id
 _symmetry_equiv_pos_as_xyz
  1  'x, y, z'
loop_
 _atom_site_type_symbol
 _atom_site_label
 _atom_site_symmetry_multiplicity
 _atom_site_fract_x
 _atom_site_fract_y
 _atom_site_fract_z
 _atom_site_occupancy
  Ni  Ni0  1  0.33333300  0.66666700  0.86905600  1
  Ni  Ni1  1  0.00000000  0.00000000  0.75000000  1
  Ni  Ni2  1  0.33333300  0.66666700  0.63094400  1
  Ni  Ni3  1  0.66666700  0.33333300  0.13094400  1
  Ni  Ni4  1  0.66666700  0.33333300  0.36905600  1
  Ni  Ni5  1  0.00000000  0.00000000  0.25000000  1
  Cu  Cu6  1  0.00000000  0.00000000  0.00000000  1
  Cu  Cu7  1  0.00000000  0.00000000  0.50000000  1
  C  C8  1  0.44805100  0.28110000  0.58012800  1
  C  C9  1  0.37782100  0.49481100  0.25000000  1
  C  C10  1  0.88301000  0.37782100  0.75000000  1
  C  C11  1  0.28110000  0.83304900  0.41987200  1
  C  C12  1  0.83304900  0.55194900  0.91987200  1
  C  C13  1  0.71890000  0.16695100  0.91987200  1
  C  C14  1  0.71890000  0.16695100  0.58012800  1
  C  C15  1  0.62217800  0.50518900  0.75000000  1
  C  C16  1  0.16695100  0.44805100  0.08012800  1
  C  C17  1  0.50518900  0.88301000  0.25000000  1
  C  C18  1  0.55194900  0.71890000  0.41987200  1
  C  C19  1  0.49481100  0.11699000  0.75000000  1
  C  C20  1  0.11699000  0.62217800  0.25000000  1
  C  C21  1  0.44805100  0.28110000  0.91987200  1
  C  C22  1  0.16695100  0.44805100  0.41987200  1
  C  C23  1  0.28110000  0.83304900  0.08012800  1
  C  C24  1  0.55194900  0.71890000  0.08012800  1
  C  C25  1  0.83304900  0.55194900  0.58012800  1
  C  C26  1  0.49446600  0.87799800  0.08062900  1
  C  C27  1  0.87799800  0.38353200  0.58062900  1
  C  C28  1  0.49446600  0.87799800  0.41937100  1
  C  C29  1  0.24710800  0.23897700  0.92145400  1
  C  C30  1  0.58714300  0.66819000  0.75000000  1
  C  C31  1  0.61646800  0.49446600  0.91937100  1
  C  C32  1  0.50553400  0.12200200  0.58062900  1
  C  C33  1  0.99186900  0.75289200  0.57854600  1
  C  C34  1  0.12200200  0.61646800  0.41937100  1
  C  C35  1  0.33181000  0.91895300  0.75000000  1
  C  C36  1  0.75289200  0.76102300  0.07854600  1
  C  C37  1  0.00813100  0.24710800  0.07854600  1
  C  C38  1  0.54223200  0.70896600  0.25000000  1
  C  C39  1  0.29103400  0.83326500  0.25000000  1
  C  C40  1  0.08104700  0.41285700  0.75000000  1
  C  C41  1  0.87799800  0.38353200  0.91937100  1
  C  C42  1  0.76102300  0.00813100  0.57854600  1
  C  C43  1  0.91895300  0.58714300  0.25000000  1
  C  C44  1  0.38353200  0.50553400  0.08062900  1
  C  C45  1  0.12200200  0.61646800  0.08062900  1
  C  C46  1  0.16673500  0.45776800  0.25000000  1
  C  C47  1  0.23897700  0.99186900  0.07854600  1
  C  C48  1  0.76102300  0.00813100  0.92145400  1
  C  C49  1  0.99186900  0.75289200  0.92145400  1
  C  C50  1  0.00813100  0.24710800  0.42145400  1
  C  C51  1  0.45776800  0.29103400  0.75000000  1
  C  C52  1  0.66819000  0.08104700  0.25000000  1
  C  C53  1  0.83326500  0.54223200  0.75000000  1
  C  C54  1  0.50553400  0.12200200  0.91937100  1
  C  C55  1  0.61646800  0.49446600  0.58062900  1
  C  C56  1  0.75289200  0.76102300  0.42145400  1
  C  C57  1  0.24710800  0.23897700  0.57854600  1
  C  C58  1  0.23897700  0.99186900  0.42145400  1
  C  C59  1  0.70896600  0.16673500  0.75000000  1
  C  C60  1  0.38353200  0.50553400  0.41937100  1
  C  C61  1  0.41285700  0.33181000  0.25000000  1
