# generated using pymatgen
data_Cu4NiC
_symmetry_space_group_name_H-M   'P 1'
_cell_length_a   5.55149500
_cell_length_b   8.13149500
_cell_length_c   18.95256405
_cell_angle_alpha   66.64030571
_cell_angle_beta   90.00000000
_cell_angle_gamma   90.00000000
_symmetry_Int_Tables_number   1
_chemical_formula_structural   Cu4NiC
_chemical_formula_sum   'Cu32 Ni8 C8'
_cell_volume   785.42909812
_cell_formula_units_Z   8
loop_
 _symmetry_equiv_pos_site_id
 _symmetry_equiv_pos_as_xyz
  1  'x, y, z'
loop_
 _atom_site_type_symbol
 _atom_site_label
 _atom_site_symmetry_multiplicity
 _atom_site_fract_x
 _atom_site_fract_y
 _atom_site_fract_z
 _atom_site_occupancy
  C  C0  1  0.76629500  0.97771200  0.38439300  1
  C  C1  1  0.26629500  0.02228800  0.11560700  1
  C  C2  1  0.23370500  0.02228800  0.61560700  1
  C  C3  1  0.73370500  0.97771200  0.88439300  1
  C  C4  1  0.18749100  0.50467200  0.86381600  1
  C  C5  1  0.68749100  0.49532800  0.63618400  1
  C  C6  1  0.31250900  0.50467200  0.36381600  1
  C  C7  1  0.81250900  0.49532800  0.13618400  1
  Ni  Ni8  1  0.76389000  0.69976000  0.25423900  1
  Ni  Ni9  1  0.25551000  0.65234600  0.02136600  1
  Ni  Ni10  1  0.75551000  0.34765400  0.47863400  1
  Ni  Ni11  1  0.26389000  0.30024000  0.24576100  1
  Ni  Ni12  1  0.23611000  0.30024000  0.74576100  1
  Ni  Ni13  1  0.24449000  0.65234600  0.52136600  1
  Ni  Ni14  1  0.73611000  0.69976000  0.75423900  1
  Ni  Ni15  1  0.74449000  0.34765400  0.97863400  1
  Cu  Cu16  1  0.93793800  0.23935500  0.96242700  1
  Cu  Cu17  1  0.78555500  0.77311700  0.16888900  1
  Cu  Cu18  1  0.72335700  0.30138500  0.06264100  1
  Cu  Cu19  1  0.01067800  0.26865500  0.71097800  1
  Cu  Cu20  1  0.28555500  0.22688300  0.33111100  1
  Cu  Cu21  1  0.55339900  0.78090600  0.27764100  1
  Cu  Cu22  1  0.21444500  0.22688300  0.83111100  1
  Cu  Cu23  1  0.81432600  0.53932400  0.93666400  1
  Cu  Cu24  1  0.50768500  0.31159400  0.94995100  1
  Cu  Cu25  1  0.27664300  0.69861500  0.93735900  1
  Cu  Cu26  1  0.71444500  0.77311700  0.66888900  1
  Cu  Cu27  1  0.31432600  0.46067600  0.56333600  1
  Cu  Cu28  1  0.71385100  0.50144100  0.28115400  1
  Cu  Cu29  1  0.22335700  0.69861500  0.43735900  1
  Cu  Cu30  1  0.05339900  0.21909400  0.22235900  1
  Cu  Cu31  1  0.28614900  0.49855900  0.71884600  1
  Cu  Cu32  1  0.49231500  0.68840600  0.05004900  1
  Cu  Cu33  1  0.56206200  0.23935500  0.46242700  1
  Cu  Cu34  1  0.44660100  0.21909400  0.72235900  1
  Cu  Cu35  1  0.18567400  0.46067600  0.06333600  1
  Cu  Cu36  1  0.51067800  0.73134500  0.78902200  1
  Cu  Cu37  1  0.21385100  0.49855900  0.21884600  1
  Cu  Cu38  1  0.68567400  0.53932400  0.43666400  1
  Cu  Cu39  1  0.06206200  0.76064500  0.03757300  1
  Cu  Cu40  1  0.78614900  0.50144100  0.78115400  1
  Cu  Cu41  1  0.98932200  0.73134500  0.28902200  1
  Cu  Cu42  1  0.00768500  0.68840600  0.55004900  1
  Cu  Cu43  1  0.43793800  0.76064500  0.53757300  1
  Cu  Cu44  1  0.99231500  0.31159400  0.44995100  1
  Cu  Cu45  1  0.48932200  0.26865500  0.21097800  1
  Cu  Cu46  1  0.94660100  0.78090600  0.77764100  1
  Cu  Cu47  1  0.77664300  0.30138500  0.56264100  1
