# generated using pymatgen
data_Cu4NiC15
_symmetry_space_group_name_H-M   'P 1'
_cell_length_a   14.11601602
_cell_length_b   14.11601602
_cell_length_c   15.05803171
_cell_angle_alpha   58.08300867
_cell_angle_beta   58.08300867
_cell_angle_gamma   30.28579857
_symmetry_Int_Tables_number   1
_chemical_formula_structural   Cu4NiC15
_chemical_formula_sum   'Cu16 Ni4 C60'
_cell_volume   1266.03920450
_cell_formula_units_Z   4
loop_
 _symmetry_equiv_pos_site_id
 _symmetry_equiv_pos_as_xyz
  1  'x, y, z'
loop_
 _atom_site_type_symbol
 _atom_site_label
 _atom_site_symmetry_multiplicity
 _atom_site_fract_x
 _atom_site_fract_y
 _atom_site_fract_z
 _atom_site_occupancy
  C  C0  1  0.22844300  0.70235800  0.95216800  1
  C  C1  1  0.69556900  0.68766100  0.53377300  1
  C  C2  1  0.70235800  0.22844300  0.45216800  1
  C  C3  1  0.29764200  0.77155700  0.54783200  1
  C  C4  1  0.68766100  0.69556900  0.03377300  1
  C  C5  1  0.30443100  0.31233900  0.46622700  1
  C  C6  1  0.31233900  0.30443100  0.96622700  1
  C  C7  1  0.77155700  0.29764200  0.04783200  1
  C  C8  1  0.48607200  0.05138000  0.74994700  1
  C  C9  1  0.51392800  0.94862000  0.25005300  1
  C  C10  1  0.05138000  0.48607200  0.24994700  1
  C  C11  1  0.94862000  0.51392800  0.75005300  1
  Ni  Ni12  1  0.77002300  0.36962700  0.77408000  1
  Ni  Ni13  1  0.22997700  0.63037300  0.22592000  1
  Ni  Ni14  1  0.63037300  0.22997700  0.72592000  1
  Ni  Ni15  1  0.36962700  0.77002300  0.27408000  1
  Cu  Cu16  1  0.85940800  0.80396000  0.01008200  1
  Cu  Cu17  1  0.14059200  0.19604000  0.98991800  1
  Cu  Cu18  1  0.24008100  0.52037700  0.66115800  1
  Cu  Cu19  1  0.47962300  0.75991900  0.83884200  1
  Cu  Cu20  1  0.75991900  0.47962300  0.33884200  1
  Cu  Cu21  1  0.16624300  0.70900300  0.42273300  1
  Cu  Cu22  1  0.86052800  0.81382100  0.79606800  1
  Cu  Cu23  1  0.81382100  0.86052800  0.29606800  1
  Cu  Cu24  1  0.29099700  0.83375700  0.07726700  1
  Cu  Cu25  1  0.83375700  0.29099700  0.57726700  1
  Cu  Cu26  1  0.80396000  0.85940800  0.51008200  1
  Cu  Cu27  1  0.52037700  0.24008100  0.16115800  1
  Cu  Cu28  1  0.70900300  0.16624300  0.92273300  1
  Cu  Cu29  1  0.18617900  0.13947200  0.70393200  1
  Cu  Cu30  1  0.13947200  0.18617900  0.20393200  1
  Cu  Cu31  1  0.19604000  0.14059200  0.48991800  1
  C  C32  1  0.86441500  0.93976400  0.94400500  1
  C  C33  1  0.29335700  0.57064900  0.34225600  1
  C  C34  1  0.04389400  0.72937400  0.70217200  1
  C  C35  1  0.17852700  0.83232700  0.37898100  1
  C  C36  1  0.26956300  0.08397800  0.58821300  1
  C  C37  1  0.95192900  0.33028900  0.72948500  1
  C  C38  1  0.37999900  0.96776600  0.42277900  1
  C  C39  1  0.34978100  0.07559700  0.92378300  1
  C  C40  1  0.95610600  0.27062600  0.29782800  1
  C  C41  1  0.16767300  0.82147300  0.12101900  1
  C  C42  1  0.07559700  0.34978100  0.42378300  1
  C  C43  1  0.70664300  0.42935100  0.65774400  1
  C  C44  1  0.06023600  0.13558500  0.55599500  1
  C  C45  1  0.04807100  0.66971100  0.27051500  1
  C  C46  1  0.57064900  0.29335700  0.84225600  1
  C  C47  1  0.08397800  0.26956300  0.08821300  1
  C  C48  1  0.03223400  0.62000100  0.07722100  1
  C  C49  1  0.92440300  0.65021900  0.57621700  1
  C  C50  1  0.58405100  0.56166600  0.33387400  1
  C  C51  1  0.91602200  0.73043700  0.91178700  1
  C  C52  1  0.33028900  0.95192900  0.22948500  1
  C  C53  1  0.23758200  0.38726600  0.72553200  1
  C  C54  1  0.75815700  0.79643400  0.29715600  1
  C  C55  1  0.56166600  0.58405100  0.83387400  1
  C  C56  1  0.62000100  0.03223400  0.57722100  1
  C  C57  1  0.43772700  0.74532800  0.96750100  1
  C  C58  1  0.61273400  0.76241800  0.77446800  1
  C  C59  1  0.83232700  0.17852700  0.87898100  1
  C  C60  1  0.72937400  0.04389400  0.20217200  1
  C  C61  1  0.20356600  0.24184300  0.20284400  1
  C  C62  1  0.76241800  0.61273400  0.27446800  1
  C  C63  1  0.13558500  0.06023600  0.05599500  1
  C  C64  1  0.25467200  0.56227300  0.53249900  1
  C  C65  1  0.93976400  0.86441500  0.44400500  1
  C  C66  1  0.79643400  0.75815700  0.79715600  1
  C  C67  1  0.65021900  0.92440300  0.07621700  1
  C  C68  1  0.73043700  0.91602200  0.41178700  1
  C  C69  1  0.82147300  0.16767300  0.62101900  1
  C  C70  1  0.56227300  0.25467200  0.03249900  1
  C  C71  1  0.41594900  0.43833400  0.66612600  1
  C  C72  1  0.43833400  0.41594900  0.16612600  1
  C  C73  1  0.38726600  0.23758200  0.22553200  1
  C  C74  1  0.27062600  0.95610600  0.79782800  1
  C  C75  1  0.96776600  0.37999900  0.92277900  1
  C  C76  1  0.66971100  0.04807100  0.77051500  1
  C  C77  1  0.74532800  0.43772700  0.46750200  1
  C  C78  1  0.24184300  0.20356600  0.70284400  1
  C  C79  1  0.42935100  0.70664300  0.15774400  1
