# generated using pymatgen
data_Cu3NiC6
_symmetry_space_group_name_H-M   'P 1'
_cell_length_a   7.97026400
_cell_length_b   9.59874700
_cell_length_c   15.12581100
_cell_angle_alpha   90.00000000
_cell_angle_beta   90.00000000
_cell_angle_gamma   90.00000000
_symmetry_Int_Tables_number   1
_chemical_formula_structural   Cu3NiC6
_chemical_formula_sum   'Cu24 Ni8 C48'
_cell_volume   1157.19332853
_cell_formula_units_Z   8
loop_
 _symmetry_equiv_pos_site_id
 _symmetry_equiv_pos_as_xyz
  1  'x, y, z'
loop_
 _atom_site_type_symbol
 _atom_site_label
 _atom_site_symmetry_multiplicity
 _atom_site_fract_x
 _atom_site_fract_y
 _atom_site_fract_z
 _atom_site_occupancy
  C  C0  1  0.70415300  0.57009000  0.33516000  1
  C  C1  1  0.79584700  0.42991000  0.83516000  1
  C  C2  1  0.20415300  0.57009000  0.16484000  1
  C  C3  1  0.70415300  0.92991000  0.83516000  1
  C  C4  1  0.29584700  0.07009000  0.16484000  1
  C  C5  1  0.79584700  0.07009000  0.33516000  1
  C  C6  1  0.29584700  0.42991000  0.66484000  1
  C  C7  1  0.20415300  0.92991000  0.66484000  1
  Ni  Ni8  1  0.80932000  0.20180500  0.06123100  1
  Ni  Ni9  1  0.30932000  0.20180500  0.43876900  1
  Ni  Ni10  1  0.19068000  0.79819500  0.93876900  1
  Ni  Ni11  1  0.80932000  0.29819500  0.56123100  1
  Ni  Ni12  1  0.19068000  0.70180500  0.43876900  1
  Ni  Ni13  1  0.69068000  0.70180500  0.06123100  1
  Ni  Ni14  1  0.30932000  0.29819500  0.93876900  1
  Ni  Ni15  1  0.69068000  0.79819500  0.56123100  1
  Cu  Cu16  1  0.72271600  0.51645800  0.57303600  1
  Cu  Cu17  1  0.55444400  0.79870300  0.19757700  1
  Cu  Cu18  1  0.77728400  0.01645800  0.57303600  1
  Cu  Cu19  1  0.72271600  0.98354200  0.07303600  1
  Cu  Cu20  1  0.44555600  0.29870300  0.30242300  1
  Cu  Cu21  1  0.55444400  0.70129700  0.69757700  1
  Cu  Cu22  1  0.01777500  0.33706100  0.46362300  1
  Cu  Cu23  1  0.44555600  0.20129700  0.80242300  1
  Cu  Cu24  1  0.27728400  0.01645800  0.92696400  1
  Cu  Cu25  1  0.05444400  0.79870300  0.30242300  1
  Cu  Cu26  1  0.94555600  0.20129700  0.69757700  1
  Cu  Cu27  1  0.01777500  0.16293900  0.96362300  1
  Cu  Cu28  1  0.22271600  0.51645800  0.92696400  1
  Cu  Cu29  1  0.94555600  0.29870300  0.19757700  1
  Cu  Cu30  1  0.98222500  0.83706100  0.03637700  1
  Cu  Cu31  1  0.77728400  0.48354200  0.07303600  1
  Cu  Cu32  1  0.22271600  0.98354200  0.42696400  1
  Cu  Cu33  1  0.98222500  0.66293900  0.53637700  1
  Cu  Cu34  1  0.48222500  0.83706100  0.46362300  1
  Cu  Cu35  1  0.05444400  0.70129700  0.80242300  1
  Cu  Cu36  1  0.48222500  0.66293900  0.96362300  1
  Cu  Cu37  1  0.51777500  0.16293900  0.53637700  1
  Cu  Cu38  1  0.27728400  0.48354200  0.42696400  1
  Cu  Cu39  1  0.51777500  0.33706100  0.03637700  1
  C  C40  1  0.32255600  0.91728600  0.91714200  1
  C  C41  1  0.32255600  0.58271400  0.41714200  1
  C  C42  1  0.88893300  0.34277300  0.46950000  1
  C  C43  1  0.05239100  0.78981700  0.86886700  1
  C  C44  1  0.20800700  0.16381800  0.94916800  1
  C  C45  1  0.55239100  0.78981700  0.63113300  1
  C  C46  1  0.70800700  0.16381800  0.55083200  1
  C  C47  1  0.20800700  0.33618200  0.44916800  1
  C  C48  1  0.17744400  0.41728600  0.91714200  1
  C  C49  1  0.11106700  0.84277300  0.03050000  1
  C  C50  1  0.82255600  0.58271400  0.08285800  1
  C  C51  1  0.67744400  0.08271400  0.08285800  1
  C  C52  1  0.67744400  0.41728600  0.58285800  1
  C  C53  1  0.88893300  0.15722700  0.96950000  1
  C  C54  1  0.79199300  0.66381800  0.55083200  1
  C  C55  1  0.44760900  0.21018300  0.36886700  1
  C  C56  1  0.61106700  0.65722700  0.96950000  1
  C  C57  1  0.29199300  0.83618200  0.44916800  1
  C  C58  1  0.11106700  0.65722700  0.53050000  1
  C  C59  1  0.94760900  0.21018300  0.13113300  1
  C  C60  1  0.17744400  0.08271400  0.41714200  1
  C  C61  1  0.05239100  0.71018300  0.36886700  1
  C  C62  1  0.61106700  0.84277300  0.46950000  1
  C  C63  1  0.94760900  0.28981700  0.63113300  1
  C  C64  1  0.55239100  0.71018300  0.13113300  1
  C  C65  1  0.38893300  0.15722700  0.53050000  1
  C  C66  1  0.44760900  0.28981700  0.86886700  1
  C  C67  1  0.29199300  0.66381800  0.94916800  1
  C  C68  1  0.79199300  0.83618200  0.05083200  1
  C  C69  1  0.82255600  0.91728600  0.58285800  1
  C  C70  1  0.38893300  0.34277300  0.03050000  1
  C  C71  1  0.70800700  0.33618200  0.05083200  1
  C  C72  1  0.04657400  0.63530700  0.74636700  1
  C  C73  1  0.54657400  0.86469300  0.25363300  1
  C  C74  1  0.95342600  0.13530700  0.75363300  1
  C  C75  1  0.45342600  0.36469300  0.24636700  1
  C  C76  1  0.54657400  0.63530700  0.75363300  1
  C  C77  1  0.95342600  0.36469300  0.25363300  1
  C  C78  1  0.45342600  0.13530700  0.74636700  1
  C  C79  1  0.04657400  0.86469300  0.24636700  1
