# generated using pymatgen
data_CuNiC11
_symmetry_space_group_name_H-M   'P 1'
_cell_length_a   9.11501124
_cell_length_b   9.11501124
_cell_length_c   8.52347199
_cell_angle_alpha   89.07037104
_cell_angle_beta   89.07037104
_cell_angle_gamma   90.50768462
_symmetry_Int_Tables_number   1
_chemical_formula_structural   CuNiC11
_chemical_formula_sum   'Cu4 Ni4 C44'
_cell_volume   707.94339445
_cell_formula_units_Z   4
loop_
 _symmetry_equiv_pos_site_id
 _symmetry_equiv_pos_as_xyz
  1  'x, y, z'
loop_
 _atom_site_type_symbol
 _atom_site_label
 _atom_site_symmetry_multiplicity
 _atom_site_fract_x
 _atom_site_fract_y
 _atom_site_fract_z
 _atom_site_occupancy
  C  C0  1  0.03050800  0.96949200  0.75000000  1
  C  C1  1  0.96949200  0.03050800  0.25000000  1
  C  C2  1  0.59770400  0.40229600  0.25000000  1
  C  C3  1  0.40229600  0.59770400  0.75000000  1
  Ni  Ni4  1  0.31364500  0.93391500  0.43878200  1
  Ni  Ni5  1  0.06608500  0.68635500  0.06121800  1
  Ni  Ni6  1  0.93391500  0.31364500  0.93878200  1
  Ni  Ni7  1  0.68635500  0.06608500  0.56121800  1
  Cu  Cu8  1  0.79545000  0.57604900  0.57370500  1
  Cu  Cu9  1  0.42395100  0.20455000  0.92629500  1
  Cu  Cu10  1  0.20455000  0.42395100  0.42629500  1
  Cu  Cu11  1  0.57604900  0.79545000  0.07370500  1
  C  C12  1  0.68936700  0.05278600  0.94064400  1
  C  C13  1  0.61133000  0.77418500  0.40747900  1
  C  C14  1  0.77418500  0.61133000  0.90747900  1
  C  C15  1  0.22581500  0.38867000  0.09252100  1
  C  C16  1  0.05278600  0.68936700  0.44064400  1
  C  C17  1  0.38867000  0.22581500  0.59252100  1
  C  C18  1  0.31063300  0.94721400  0.05935600  1
  C  C19  1  0.94721400  0.31063300  0.55935600  1
  C  C20  1  0.42813700  0.26553000  0.76479300  1
  C  C21  1  0.09745400  0.28005400  0.08449900  1
  C  C22  1  0.92606700  0.67055300  0.56661400  1
  C  C23  1  0.80131700  0.46941500  0.00302000  1
  C  C24  1  0.57518700  0.17531000  0.98066400  1
  C  C25  1  0.42481300  0.82469000  0.01933600  1
  C  C26  1  0.99220000  0.67027200  0.27674100  1
  C  C27  1  0.67027200  0.99220000  0.77674100  1
  C  C28  1  0.19868300  0.53058500  0.99698000  1
  C  C29  1  0.84223000  0.11725700  0.97063400  1
  C  C30  1  0.57186300  0.73447000  0.23520700  1
  C  C31  1  0.73447000  0.57186300  0.73520700  1
  C  C32  1  0.28005400  0.09745400  0.58449900  1
  C  C33  1  0.07393300  0.32944700  0.43338600  1
  C  C34  1  0.62579700  0.67665400  0.96890600  1
  C  C35  1  0.82469000  0.42481300  0.51933600  1
  C  C36  1  0.32972800  0.00780000  0.22325900  1
  C  C37  1  0.32334600  0.37420300  0.53109400  1
  C  C38  1  0.32944700  0.07393300  0.93338600  1
  C  C39  1  0.88274300  0.15777000  0.52936600  1
  C  C40  1  0.26553000  0.42813700  0.26479300  1
  C  C41  1  0.46941500  0.80131700  0.50302000  1
  C  C42  1  0.67665400  0.62579700  0.46890600  1
  C  C43  1  0.00780000  0.32972800  0.72325900  1
  C  C44  1  0.53058500  0.19868300  0.49698000  1
  C  C45  1  0.11725700  0.84223000  0.47063400  1
  C  C46  1  0.67055300  0.92606700  0.06661400  1
  C  C47  1  0.37420300  0.32334600  0.03109400  1
  C  C48  1  0.15777000  0.88274300  0.02936600  1
  C  C49  1  0.90254600  0.71994600  0.91550100  1
  C  C50  1  0.71994600  0.90254600  0.41550100  1
  C  C51  1  0.17531000  0.57518700  0.48066400  1
