# generated using pymatgen
data_Cu2Ni4C
_symmetry_space_group_name_H-M   'P 1'
_cell_length_a   4.17274700
_cell_length_b   7.28461900
_cell_length_c   15.65862800
_cell_angle_alpha   90.00000000
_cell_angle_beta   90.00000000
_cell_angle_gamma   90.00000000
_symmetry_Int_Tables_number   1
_chemical_formula_structural   Cu2Ni4C
_chemical_formula_sum   'Cu8 Ni16 C4'
_cell_volume   475.97331224
_cell_formula_units_Z   4
loop_
 _symmetry_equiv_pos_site_id
 _symmetry_equiv_pos_as_xyz
  1  'x, y, z'
loop_
 _atom_site_type_symbol
 _atom_site_label
 _atom_site_symmetry_multiplicity
 _atom_site_fract_x
 _atom_site_fract_y
 _atom_site_fract_z
 _atom_site_occupancy
  C  C0  1  0.00000000  0.58511000  0.11811200  1
  C  C1  1  0.00000000  0.41489000  0.88188800  1
  C  C2  1  0.50000000  0.08511000  0.38188800  1
  C  C3  1  0.50000000  0.91489000  0.61811200  1
  Ni  Ni4  1  0.00000000  0.14251300  0.05078500  1
  Ni  Ni5  1  0.00000000  0.85748700  0.94921500  1
  Ni  Ni6  1  0.50000000  0.64251300  0.44921500  1
  Ni  Ni7  1  0.50000000  0.35748700  0.55078500  1
  Ni  Ni8  1  0.00000000  0.73871500  0.32168500  1
  Ni  Ni9  1  0.00000000  0.26128500  0.67831500  1
  Ni  Ni10  1  0.50000000  0.23871500  0.17831500  1
  Ni  Ni11  1  0.50000000  0.76128500  0.82168500  1
  Ni  Ni12  1  0.00000000  0.42935800  0.41913900  1
  Ni  Ni13  1  0.00000000  0.57064200  0.58086100  1
  Ni  Ni14  1  0.50000000  0.92935800  0.08086100  1
  Ni  Ni15  1  0.50000000  0.07064200  0.91913900  1
  Ni  Ni16  1  0.00000000  0.99579000  0.20570700  1
  Ni  Ni17  1  0.00000000  0.00421000  0.79429300  1
  Ni  Ni18  1  0.50000000  0.49579000  0.29429300  1
  Ni  Ni19  1  0.50000000  0.50421000  0.70570700  1
  Cu  Cu20  1  0.00000000  0.82874900  0.47536100  1
  Cu  Cu21  1  0.00000000  0.17125100  0.52463900  1
  Cu  Cu22  1  0.50000000  0.32874900  0.02463900  1
  Cu  Cu23  1  0.50000000  0.67125100  0.97536100  1
  Cu  Cu24  1  0.00000000  0.30180400  0.27242200  1
  Cu  Cu25  1  0.00000000  0.69819600  0.72757800  1
  Cu  Cu26  1  0.50000000  0.80180400  0.22757800  1
  Cu  Cu27  1  0.50000000  0.19819600  0.77242200  1
