# generated using pymatgen
data_Cu2Ni6C79
_symmetry_space_group_name_H-M   'P 1'
_cell_length_a   10.61342355
_cell_length_b   10.61342320
_cell_length_c   10.61342333
_cell_angle_alpha   73.96925462
_cell_angle_beta   73.96925516
_cell_angle_gamma   73.96925108
_symmetry_Int_Tables_number   1
_chemical_formula_structural   Cu2Ni6C79
_chemical_formula_sum   'Cu2 Ni6 C79'
_cell_volume   1078.20629251
_cell_formula_units_Z   1
loop_
 _symmetry_equiv_pos_site_id
 _symmetry_equiv_pos_as_xyz
  1  'x, y, z'
loop_
 _atom_site_type_symbol
 _atom_site_label
 _atom_site_symmetry_multiplicity
 _atom_site_fract_x
 _atom_site_fract_y
 _atom_site_fract_z
 _atom_site_occupancy
  Ni  Ni0  1  0.52843120  0.94566605  0.27244182  1
  Ni  Ni1  1  0.94566605  0.27244182  0.52843120  1
  Ni  Ni2  1  0.27244182  0.52843120  0.94566605  1
  Ni  Ni3  1  0.47156880  0.05433395  0.72755818  1
  Ni  Ni4  1  0.72755818  0.47156880  0.05433395  1
  Ni  Ni5  1  0.05433395  0.72755818  0.47156880  1
  Cu  Cu6  1  0.28276902  0.28276902  0.28276902  1
  Cu  Cu7  1  0.71723098  0.71723098  0.71723098  1
  C  C8  1  0.78502961  0.09303696  0.93919816  1
  C  C9  1  0.21497039  0.90696304  0.06080184  1
  C  C10  1  0.09303696  0.93919816  0.78502961  1
  C  C11  1  0.93919816  0.78502961  0.09303696  1
  C  C12  1  0.06080184  0.21497039  0.90696304  1
  C  C13  1  0.90696304  0.06080184  0.21497039  1
  C  C14  1  0.39478378  0.78582166  0.78783563  1
  C  C15  1  0.37593165  0.42138892  0.66793096  1
  C  C16  1  0.71227468  0.21626329  0.43697992  1
  C  C17  1  0.21417834  0.21216437  0.60521622  1
  C  C18  1  0.72586138  0.65772110  0.45494634  1
  C  C19  1  0.68487758  0.82588527  0.96482349  1
  C  C20  1  0.42138892  0.66793096  0.37593165  1
  C  C21  1  0.60521622  0.21417834  0.21216437  1
  C  C22  1  0.66793096  0.37593165  0.42138892  1
  C  C23  1  0.34227890  0.54505366  0.27413862  1
  C  C24  1  0.45494634  0.72586138  0.65772110  1
  C  C25  1  0.57861108  0.33206904  0.62406835  1
  C  C26  1  0.62406835  0.57861108  0.33206904  1
  C  C27  1  0.78783563  0.39478378  0.78582166  1
  C  C28  1  0.43697992  0.71227468  0.21626329  1
  C  C29  1  0.54505366  0.27413862  0.34227890  1
  C  C30  1  0.00779555  0.46185619  0.19816521  1
  C  C31  1  0.33206904  0.62406835  0.57861108  1
  C  C32  1  0.21626329  0.43697992  0.71227468  1
  C  C33  1  0.82588527  0.96482349  0.68487758  1
  C  C34  1  0.99220445  0.53814381  0.80183479  1
  C  C35  1  0.31512242  0.17411473  0.03517651  1
  C  C36  1  0.46185619  0.19816521  0.00779555  1
  C  C37  1  0.03517651  0.31512242  0.17411473  1
  C  C38  1  0.56302008  0.28772532  0.78373671  1
  C  C39  1  0.78373671  0.56302008  0.28772532  1
  C  C40  1  0.53814381  0.80183479  0.99220445  1
  C  C41  1  0.96482349  0.68487758  0.82588527  1
  C  C42  1  0.17411473  0.03517651  0.31512242  1
  C  C43  1  0.19816521  0.00779555  0.46185619  1
  C  C44  1  0.27413862  0.34227890  0.54505366  1
  C  C45  1  0.78582166  0.78783563  0.39478378  1
  C  C46  1  0.21216437  0.60521622  0.21417834  1
  C  C47  1  0.65772110  0.45494634  0.72586138  1
  C  C48  1  0.80183479  0.99220445  0.53814381  1
  C  C49  1  0.28772532  0.78373671  0.56302008  1
  C  C50  1  0.12744964  0.12598980  0.74738420  1
  C  C51  1  0.16590694  0.89596906  0.62005124  1
  C  C52  1  0.62932969  0.78281164  0.93430327  1
  C  C53  1  0.63587941  0.29120933  0.46704679  1
  C  C54  1  0.10403094  0.37994876  0.83409306  1
  C  C55  1  0.70879067  0.53295321  0.36412059  1
  C  C56  1  0.25261580  0.87255036  0.87401020  1
  C  C57  1  0.12598980  0.74738420  0.12744964  1
  C  C58  1  0.53295321  0.36412059  0.70879067  1
  C  C59  1  0.52004405  0.26091662  0.26472813  1
  C  C60  1  0.93430327  0.62932969  0.78281164  1
  C  C61  1  0.74738420  0.12744964  0.12598980  1
  C  C62  1  0.47995595  0.73908338  0.73527187  1
  C  C63  1  0.73908338  0.73527187  0.47995595  1
  C  C64  1  0.46704679  0.63587941  0.29120933  1
  C  C65  1  0.21718836  0.06569673  0.37067031  1
  C  C66  1  0.26472813  0.52004405  0.26091662  1
  C  C67  1  0.90073542  0.02737014  0.77398461  1
  C  C68  1  0.97262986  0.22601539  0.09926458  1
  C  C69  1  0.26091662  0.26472813  0.52004405  1
  C  C70  1  0.87255036  0.87401020  0.25261580  1
  C  C71  1  0.02737014  0.77398461  0.90073542  1
  C  C72  1  0.77398461  0.90073542  0.02737014  1
  C  C73  1  0.83409306  0.10403094  0.37994876  1
  C  C74  1  0.36412059  0.70879067  0.53295321  1
  C  C75  1  0.73527187  0.47995595  0.73908338  1
  C  C76  1  0.78281164  0.93430327  0.62932969  1
  C  C77  1  0.89596906  0.62005124  0.16590694  1
  C  C78  1  0.87401020  0.25261580  0.87255036  1
  C  C79  1  0.29120933  0.46704679  0.63587941  1
  C  C80  1  0.37994876  0.83409306  0.10403094  1
  C  C81  1  0.00000000  0.00000000  0.00000000  1
  C  C82  1  0.37067031  0.21718836  0.06569673  1
  C  C83  1  0.62005124  0.16590694  0.89596906  1
  C  C84  1  0.09926458  0.97262986  0.22601539  1
  C  C85  1  0.06569673  0.37067031  0.21718836  1
  C  C86  1  0.22601539  0.09926458  0.97262986  1
