# generated using pymatgen
data_Cu2Ni7C5
_symmetry_space_group_name_H-M   'P 1'
_cell_length_a   4.82309900
_cell_length_b   8.96850800
_cell_length_c   14.19470600
_cell_angle_alpha   90.00000000
_cell_angle_beta   90.00000000
_cell_angle_gamma   90.00000000
_symmetry_Int_Tables_number   1
_chemical_formula_structural   Cu2Ni7C5
_chemical_formula_sum   'Cu8 Ni28 C20'
_cell_volume   614.00623065
_cell_formula_units_Z   4
loop_
 _symmetry_equiv_pos_site_id
 _symmetry_equiv_pos_as_xyz
  1  'x, y, z'
loop_
 _atom_site_type_symbol
 _atom_site_label
 _atom_site_symmetry_multiplicity
 _atom_site_fract_x
 _atom_site_fract_y
 _atom_site_fract_z
 _atom_site_occupancy
  C  C0  1  0.09594900  0.36891000  0.45017600  1
  C  C1  1  0.40405100  0.86891000  0.04982400  1
  C  C2  1  0.59594900  0.13109000  0.95017600  1
  C  C3  1  0.40405100  0.86891000  0.45017600  1
  C  C4  1  0.90405100  0.63109000  0.54982400  1
  C  C5  1  0.90405100  0.63109000  0.95017600  1
  C  C6  1  0.59594900  0.13109000  0.54982400  1
  C  C7  1  0.09594900  0.36891000  0.04982400  1
  C  C8  1  0.35986200  0.85456300  0.25000000  1
  C  C9  1  0.85986200  0.64543700  0.75000000  1
  C  C10  1  0.14013800  0.35456300  0.25000000  1
  C  C11  1  0.64013800  0.14543700  0.75000000  1
  C  C12  1  0.59492400  0.56177300  0.35361600  1
  C  C13  1  0.90507600  0.06177300  0.35361600  1
  C  C14  1  0.09492400  0.93822700  0.85361600  1
  C  C15  1  0.40507600  0.43822700  0.85361600  1
  C  C16  1  0.40507600  0.43822700  0.64638400  1
  C  C17  1  0.90507600  0.06177300  0.14638400  1
  C  C18  1  0.09492400  0.93822700  0.64638400  1
  C  C19  1  0.59492400  0.56177300  0.14638400  1
  Ni  Ni20  1  0.25909200  0.47416700  0.75000000  1
  Ni  Ni21  1  0.03165200  0.75744600  0.85390800  1
  Ni  Ni22  1  0.53165200  0.74255400  0.35390800  1
  Ni  Ni23  1  0.46834800  0.25744600  0.64609200  1
  Ni  Ni24  1  0.80544200  0.03482000  0.85678700  1
  Ni  Ni25  1  0.69455800  0.53482000  0.85678700  1
  Ni  Ni26  1  0.19455800  0.96518000  0.14321300  1
  Ni  Ni27  1  0.69455800  0.53482000  0.64321300  1
  Ni  Ni28  1  0.80544200  0.03482000  0.64321300  1
  Ni  Ni29  1  0.96834800  0.24255400  0.14609200  1
  Ni  Ni30  1  0.46834800  0.25744600  0.85390800  1
  Ni  Ni31  1  0.30151300  0.98586700  0.94132800  1
  Ni  Ni32  1  0.69848700  0.01413300  0.05867200  1
  Ni  Ni33  1  0.30544200  0.46518000  0.35678700  1
  Ni  Ni34  1  0.30151300  0.98586700  0.55867200  1
  Ni  Ni35  1  0.80151300  0.51413300  0.44132800  1
  Ni  Ni36  1  0.24090800  0.97416700  0.75000000  1
  Ni  Ni37  1  0.19848700  0.48586700  0.55867200  1
  Ni  Ni38  1  0.19848700  0.48586700  0.94132800  1
  Ni  Ni39  1  0.80151300  0.51413300  0.05867200  1
  Ni  Ni40  1  0.74090800  0.52583300  0.25000000  1
  Ni  Ni41  1  0.30544200  0.46518000  0.14321300  1
  Ni  Ni42  1  0.69848700  0.01413300  0.44132800  1
  Ni  Ni43  1  0.96834800  0.24255400  0.35390800  1
  Ni  Ni44  1  0.03165200  0.75744600  0.64609200  1
  Ni  Ni45  1  0.19455800  0.96518000  0.35678700  1
  Ni  Ni46  1  0.75909200  0.02583300  0.25000000  1
  Ni  Ni47  1  0.53165200  0.74255400  0.14609200  1
  Cu  Cu48  1  0.89436900  0.25389200  0.53117200  1
  Cu  Cu49  1  0.60563100  0.75389200  0.53117200  1
  Cu  Cu50  1  0.10563100  0.74610800  0.03117200  1
  Cu  Cu51  1  0.39436900  0.24610800  0.03117200  1
  Cu  Cu52  1  0.10563100  0.74610800  0.46882800  1
  Cu  Cu53  1  0.89436900  0.25389200  0.96882800  1
  Cu  Cu54  1  0.60563100  0.75389200  0.96882800  1
  Cu  Cu55  1  0.39436900  0.24610800  0.46882800  1
