# generated using pymatgen
data_CuNiC10
_symmetry_space_group_name_H-M   'P 1'
_cell_length_a   5.81185700
_cell_length_b   9.21366500
_cell_length_c   13.91026100
_cell_angle_alpha   90.00000000
_cell_angle_beta   90.00000000
_cell_angle_gamma   90.00000000
_symmetry_Int_Tables_number   1
_chemical_formula_structural   CuNiC10
_chemical_formula_sum   'Cu4 Ni4 C40'
_cell_volume   744.87365881
_cell_formula_units_Z   4
loop_
 _symmetry_equiv_pos_site_id
 _symmetry_equiv_pos_as_xyz
  1  'x, y, z'
loop_
 _atom_site_type_symbol
 _atom_site_label
 _atom_site_symmetry_multiplicity
 _atom_site_fract_x
 _atom_site_fract_y
 _atom_site_fract_z
 _atom_site_occupancy
  Ni  Ni0  1  0.73715500  0.09102300  0.58737500  1
  Ni  Ni1  1  0.76284500  0.90897700  0.08737500  1
  Ni  Ni2  1  0.26284500  0.59102300  0.91262500  1
  Ni  Ni3  1  0.23715500  0.40897700  0.41262500  1
  Cu  Cu4  1  0.22315900  0.04208200  0.85784500  1
  Cu  Cu5  1  0.72315900  0.45791800  0.14215500  1
  Cu  Cu6  1  0.27684100  0.95791800  0.35784500  1
  Cu  Cu7  1  0.77684100  0.54208200  0.64215500  1
  C  C8  1  0.73259000  0.15295600  0.33775300  1
  C  C9  1  0.26741000  0.65295600  0.16224700  1
  C  C10  1  0.27174500  0.81570700  0.61737000  1
  C  C11  1  0.72825500  0.31570700  0.88263000  1
  C  C12  1  0.23259000  0.34704400  0.66224700  1
  C  C13  1  0.76741000  0.84704400  0.83775300  1
  C  C14  1  0.22825500  0.18429300  0.11737000  1
  C  C15  1  0.77174500  0.68429300  0.38263000  1
  C  C16  1  0.48404700  0.69690400  0.60382000  1
  C  C17  1  0.98049100  0.23208700  0.89274700  1
  C  C18  1  0.01595300  0.30309600  0.10382000  1
  C  C19  1  0.25403800  0.19080600  0.72076500  1
  C  C20  1  0.79288600  0.55499900  0.46624500  1
  C  C21  1  0.98404700  0.80309600  0.39618000  1
  C  C22  1  0.17210700  0.48473400  0.73343100  1
  C  C23  1  0.29288600  0.94500100  0.53375500  1
  C  C24  1  0.79465200  0.61041800  0.27394300  1
  C  C25  1  0.32789300  0.51526600  0.23343100  1
  C  C26  1  0.75403800  0.30919400  0.27923500  1
  C  C27  1  0.67210700  0.01526600  0.26656900  1
  C  C28  1  0.20711400  0.05499900  0.03375500  1
  C  C29  1  0.49516000  0.65672000  0.08741100  1
  C  C30  1  0.02823800  0.62031600  0.09813100  1
  C  C31  1  0.70534800  0.38958200  0.77394300  1
  C  C32  1  0.01950900  0.73208700  0.60725300  1
  C  C33  1  0.51950900  0.76791300  0.39274700  1
  C  C34  1  0.50484000  0.15672000  0.41258900  1
  C  C35  1  0.20534800  0.11041800  0.22605700  1
  C  C36  1  0.00484000  0.34328000  0.58741100  1
  C  C37  1  0.51595300  0.19690400  0.89618000  1
  C  C38  1  0.70711400  0.44500100  0.96624500  1
  C  C39  1  0.74596200  0.69080600  0.77923500  1
  C  C40  1  0.97176200  0.12031600  0.40186900  1
  C  C41  1  0.99516000  0.84328000  0.91258900  1
  C  C42  1  0.29465200  0.88958200  0.72605700  1
  C  C43  1  0.47176200  0.37968400  0.59813100  1
  C  C44  1  0.24596200  0.80919400  0.22076500  1
  C  C45  1  0.82789300  0.98473400  0.76656900  1
  C  C46  1  0.48049100  0.26791300  0.10725300  1
  C  C47  1  0.52823800  0.87968400  0.90186900  1
