# generated using pymatgen
data_Cu4NiC
_symmetry_space_group_name_H-M   'P 1'
_cell_length_a   8.46958495
_cell_length_b   8.46958495
_cell_length_c   7.44717600
_cell_angle_alpha   90.00000000
_cell_angle_beta   90.00000000
_cell_angle_gamma   120.00000742
_symmetry_Int_Tables_number   1
_chemical_formula_structural   Cu4NiC
_chemical_formula_sum   'Cu24 Ni6 C6'
_cell_volume   462.64350933
_cell_formula_units_Z   6
loop_
 _symmetry_equiv_pos_site_id
 _symmetry_equiv_pos_as_xyz
  1  'x, y, z'
loop_
 _atom_site_type_symbol
 _atom_site_label
 _atom_site_symmetry_multiplicity
 _atom_site_fract_x
 _atom_site_fract_y
 _atom_site_fract_z
 _atom_site_occupancy
  C  C0  1  0.00000000  0.00000000  0.00000000  1
  C  C1  1  0.00000000  0.00000000  0.50000000  1
  C  C2  1  0.66666700  0.33333300  0.95283900  1
  C  C3  1  0.33333300  0.66666700  0.04716100  1
  C  C4  1  0.33333300  0.66666700  0.45283900  1
  C  C5  1  0.66666700  0.33333300  0.54716100  1
  Ni  Ni6  1  0.03349900  0.67006400  0.75000000  1
  Ni  Ni7  1  0.67006400  0.63656500  0.25000000  1
  Ni  Ni8  1  0.63656500  0.96650100  0.75000000  1
  Ni  Ni9  1  0.36343500  0.03349900  0.25000000  1
  Ni  Ni10  1  0.96650100  0.32993600  0.25000000  1
  Ni  Ni11  1  0.32993600  0.36343500  0.75000000  1
  Cu  Cu12  1  0.87239200  0.48022300  0.75000000  1
  Cu  Cu13  1  0.16277700  0.96333700  0.25000000  1
  Cu  Cu14  1  0.44152700  0.14234500  0.08580200  1
  Cu  Cu15  1  0.19943900  0.16277700  0.75000000  1
  Cu  Cu16  1  0.60783000  0.12760800  0.75000000  1
  Cu  Cu17  1  0.51977700  0.39217000  0.75000000  1
  Cu  Cu18  1  0.85765500  0.29918200  0.08580200  1
  Cu  Cu19  1  0.14234500  0.70081800  0.58580200  1
  Cu  Cu20  1  0.29918200  0.44152700  0.58580200  1
  Cu  Cu21  1  0.12760800  0.51977700  0.25000000  1
  Cu  Cu22  1  0.03666300  0.19943900  0.25000000  1
  Cu  Cu23  1  0.96333700  0.80056100  0.75000000  1
  Cu  Cu24  1  0.80056100  0.83722300  0.25000000  1
  Cu  Cu25  1  0.29918200  0.44152700  0.91419800  1
  Cu  Cu26  1  0.14234500  0.70081800  0.91419800  1
  Cu  Cu27  1  0.48022300  0.60783000  0.25000000  1
  Cu  Cu28  1  0.70081800  0.55847300  0.08580200  1
  Cu  Cu29  1  0.44152700  0.14234500  0.41419800  1
  Cu  Cu30  1  0.39217000  0.87239200  0.25000000  1
  Cu  Cu31  1  0.85765500  0.29918200  0.41419800  1
  Cu  Cu32  1  0.70081800  0.55847300  0.41419800  1
  Cu  Cu33  1  0.83722300  0.03666300  0.75000000  1
  Cu  Cu34  1  0.55847300  0.85765500  0.58580200  1
  Cu  Cu35  1  0.55847300  0.85765500  0.91419800  1
