# generated using pymatgen
data_Cu4Ni3C16
_symmetry_space_group_name_H-M   'P 1'
_cell_length_a   10.13104700
_cell_length_b   10.25464500
_cell_length_c   13.09655800
_cell_angle_alpha   90.00000000
_cell_angle_beta   90.00000000
_cell_angle_gamma   90.00000000
_symmetry_Int_Tables_number   1
_chemical_formula_structural   Cu4Ni3C16
_chemical_formula_sum   'Cu16 Ni12 C64'
_cell_volume   1360.60521469
_cell_formula_units_Z   4
loop_
 _symmetry_equiv_pos_site_id
 _symmetry_equiv_pos_as_xyz
  1  'x, y, z'
loop_
 _atom_site_type_symbol
 _atom_site_label
 _atom_site_symmetry_multiplicity
 _atom_site_fract_x
 _atom_site_fract_y
 _atom_site_fract_z
 _atom_site_occupancy
  C  C0  1  0.22681900  0.34339100  0.77805500  1
  C  C1  1  0.27318100  0.65660900  0.27805500  1
  C  C2  1  0.90299300  0.48108500  0.00409600  1
  C  C3  1  0.09700700  0.98108500  0.49590400  1
  C  C4  1  0.72681900  0.15660900  0.22194500  1
  C  C5  1  0.59700700  0.51891500  0.50409600  1
  C  C6  1  0.40299300  0.01891500  0.99590400  1
  C  C7  1  0.77318100  0.84339100  0.72194500  1
  Ni  Ni8  1  0.79909000  0.09763300  0.92193000  1
  Ni  Ni9  1  0.34931700  0.01424500  0.29740400  1
  Ni  Ni10  1  0.84931700  0.48575500  0.70259600  1
  Ni  Ni11  1  0.65068300  0.51424500  0.20259600  1
  Ni  Ni12  1  0.29909000  0.40236700  0.07807000  1
  Ni  Ni13  1  0.97788400  0.81423100  0.13461500  1
  Ni  Ni14  1  0.15068300  0.98575500  0.79740400  1
  Ni  Ni15  1  0.47788400  0.68576900  0.86538500  1
  Ni  Ni16  1  0.52211600  0.18576900  0.63461500  1
  Ni  Ni17  1  0.02211600  0.31423100  0.36538500  1
  Ni  Ni18  1  0.70091000  0.90236700  0.42193000  1
  Ni  Ni19  1  0.20091000  0.59763300  0.57807000  1
  Cu  Cu20  1  0.55830600  0.41321500  0.79823700  1
  Cu  Cu21  1  0.72313900  0.79786900  0.99851300  1
  Cu  Cu22  1  0.42700600  0.32718000  0.30306100  1
  Cu  Cu23  1  0.05830600  0.08678500  0.20176300  1
  Cu  Cu24  1  0.94169400  0.58678500  0.29823700  1
  Cu  Cu25  1  0.44169400  0.91321500  0.70176300  1
  Cu  Cu26  1  0.07299400  0.67282000  0.80306100  1
  Cu  Cu27  1  0.90511000  0.69120000  0.50532100  1
  Cu  Cu28  1  0.59489000  0.30880000  0.00532100  1
  Cu  Cu29  1  0.22313900  0.70213100  0.00148700  1
  Cu  Cu30  1  0.27686100  0.29786900  0.50148700  1
  Cu  Cu31  1  0.40511000  0.80880000  0.49467900  1
  Cu  Cu32  1  0.92700600  0.17282000  0.69693900  1
  Cu  Cu33  1  0.77686100  0.20213100  0.49851300  1
  Cu  Cu34  1  0.57299400  0.82718000  0.19693900  1
  Cu  Cu35  1  0.09489000  0.19120000  0.99467900  1
  C  C36  1  0.73672800  0.08967400  0.42829700  1
  C  C37  1  0.43904800  0.89764900  0.19800100  1
  C  C38  1  0.55563600  0.80811600  0.48885000  1
  C  C39  1  0.14416100  0.12050700  0.09922200  1
  C  C40  1  0.17323600  0.61733400  0.72711400  1
  C  C41  1  0.67323600  0.88266600  0.27288600  1
  C  C42  1  0.66220200  0.26714700  0.55500300  1
  C  C43  1  0.26327200  0.58967400  0.07170300  1
  C  C44  1  0.12811500  0.63288400  0.91599700  1
  C  C45  1  0.14369300  0.80596100  0.05714400  1
  C  C46  1  0.44580400  0.17890400  0.29666900  1
  C  C47  1  0.06095200  0.10235100  0.69800100  1
  C  C48  1  0.76327200  0.91032600  0.92829700  1
  C  C49  1  0.05419600  0.82109600  0.79666900  1
  C  C50  1  0.35630700  0.19403900  0.55714400  1
  C  C51  1  0.64416100  0.37949300  0.90077800  1
  C  C52  1  0.65834500  0.47702700  0.72684400  1
  C  C53  1  0.85457600  0.83252800  0.49881100  1
  C  C54  1  0.94580400  0.32109600  0.70333100  1
  C  C55  1  0.14542400  0.33252800  0.00118900  1
  C  C56  1  0.05563600  0.69188400  0.51115000  1
  C  C57  1  0.85583900  0.62050700  0.40077800  1
  C  C58  1  0.84165500  0.52297300  0.22684400  1
  C  C59  1  0.94436400  0.19188400  0.98885000  1
  C  C60  1  0.16552600  0.11473500  0.91062500  1
  C  C61  1  0.93904800  0.60235100  0.80199900  1
  C  C62  1  0.37188500  0.36711600  0.41599700  1
  C  C63  1  0.05392600  0.49527800  0.33006000  1
  C  C64  1  0.66552600  0.38526500  0.08937500  1
  C  C65  1  0.33447400  0.88526500  0.41062500  1
  C  C66  1  0.32676400  0.38266600  0.22711400  1
  C  C67  1  0.64369300  0.69403900  0.94285600  1
  C  C68  1  0.83447400  0.61473500  0.58937500  1
  C  C69  1  0.49753400  0.28591200  0.76017100  1
  C  C70  1  0.87188500  0.13288400  0.58400300  1
  C  C71  1  0.99753400  0.21408800  0.23982900  1
  C  C72  1  0.34165500  0.97702700  0.77315600  1
  C  C73  1  0.15834500  0.02297300  0.27315600  1
  C  C74  1  0.35583900  0.87949300  0.59922200  1
  C  C75  1  0.64542400  0.16747200  0.99881100  1
  C  C76  1  0.50246600  0.78591200  0.73982900  1
  C  C77  1  0.83779800  0.73285300  0.05500300  1
  C  C78  1  0.44607400  0.50472200  0.83006000  1
  C  C79  1  0.55392600  0.00472200  0.66994000  1
  C  C80  1  0.44436400  0.30811600  0.01115000  1
  C  C81  1  0.35457600  0.66747200  0.50118900  1
  C  C82  1  0.94607400  0.99527800  0.16994000  1
  C  C83  1  0.82676400  0.11733400  0.77288600  1
  C  C84  1  0.85630700  0.30596100  0.44285600  1
  C  C85  1  0.00246600  0.71408800  0.26017100  1
  C  C86  1  0.16220200  0.23285300  0.44499700  1
  C  C87  1  0.23672800  0.41032600  0.57170300  1
  C  C88  1  0.56095200  0.39764900  0.30199900  1
  C  C89  1  0.55419600  0.67890400  0.20333100  1
  C  C90  1  0.33779800  0.76714700  0.94499700  1
  C  C91  1  0.62811500  0.86711600  0.08400300  1
