# generated using pymatgen
data_Cu4Ni14C17
_symmetry_space_group_name_H-M   'P 1'
_cell_length_a   7.81419948
_cell_length_b   7.81419948
_cell_length_c   15.07041034
_cell_angle_alpha   69.89597198
_cell_angle_beta   69.89597198
_cell_angle_gamma   60.32844085
_symmetry_Int_Tables_number   1
_chemical_formula_structural   Cu4Ni14C17
_chemical_formula_sum   'Cu8 Ni28 C34'
_cell_volume   733.65978743
_cell_formula_units_Z   2
loop_
 _symmetry_equiv_pos_site_id
 _symmetry_equiv_pos_as_xyz
  1  'x, y, z'
loop_
 _atom_site_type_symbol
 _atom_site_label
 _atom_site_symmetry_multiplicity
 _atom_site_fract_x
 _atom_site_fract_y
 _atom_site_fract_z
 _atom_site_occupancy
  C  C0  1  0.62220100  0.74186200  0.21904300  1
  C  C1  1  0.25813800  0.37779900  0.28095700  1
  C  C2  1  0.37779900  0.25813800  0.78095700  1
  C  C3  1  0.74186200  0.62220100  0.71904300  1
  Ni  Ni4  1  0.33602900  0.17872700  0.07149100  1
  Ni  Ni5  1  0.82127300  0.66397100  0.42850900  1
  Ni  Ni6  1  0.66397100  0.82127300  0.92850900  1
  Ni  Ni7  1  0.17872700  0.33602900  0.57149100  1
  Ni  Ni8  1  0.52882700  0.18785700  0.07627400  1
  Ni  Ni9  1  0.81214300  0.47117300  0.42372600  1
  Ni  Ni10  1  0.47117300  0.81214300  0.92372600  1
  Ni  Ni11  1  0.18785700  0.52882700  0.57627400  1
  Ni  Ni12  1  0.38487300  0.57205300  0.41418400  1
  Ni  Ni13  1  0.42794700  0.61512700  0.08581600  1
  Ni  Ni14  1  0.61512700  0.42794700  0.58581600  1
  Ni  Ni15  1  0.57205300  0.38487300  0.91418400  1
  Ni  Ni16  1  0.57309400  0.36808200  0.40381800  1
  Ni  Ni17  1  0.63191800  0.42690600  0.09618200  1
  Ni  Ni18  1  0.42690600  0.63191800  0.59618200  1
  Ni  Ni19  1  0.36808200  0.57309400  0.90381800  1
  Ni  Ni20  1  0.97070600  0.26891100  0.20083300  1
  Ni  Ni21  1  0.73108900  0.02929400  0.29916700  1
  Ni  Ni22  1  0.02929400  0.73108900  0.79916700  1
  Ni  Ni23  1  0.26891100  0.97070600  0.70083300  1
  Ni  Ni24  1  0.89429400  0.23149500  0.31302100  1
  Ni  Ni25  1  0.76850500  0.10570600  0.18697900  1
  Ni  Ni26  1  0.10570600  0.76850500  0.68697900  1
  Ni  Ni27  1  0.23149500  0.89429400  0.81302100  1
  Ni  Ni28  1  0.12652000  0.89596000  0.19568500  1
  Ni  Ni29  1  0.10404000  0.87348000  0.30431500  1
  Ni  Ni30  1  0.87348000  0.10404000  0.80431500  1
  Ni  Ni31  1  0.89596000  0.12652000  0.69568500  1
  Cu  Cu32  1  0.95898700  0.78658800  0.97688700  1
  Cu  Cu33  1  0.21341200  0.04101300  0.52311300  1
  Cu  Cu34  1  0.04101300  0.21341200  0.02311300  1
  Cu  Cu35  1  0.78658800  0.95898700  0.47688700  1
  Cu  Cu36  1  0.09784900  0.72636100  0.04656400  1
  Cu  Cu37  1  0.27363900  0.90215100  0.45343600  1
  Cu  Cu38  1  0.90215100  0.27363900  0.95343600  1
  Cu  Cu39  1  0.72636100  0.09784900  0.54656400  1
  C  C40  1  0.78948200  0.78198900  0.01411800  1
  C  C41  1  0.21801100  0.21051800  0.48588200  1
  C  C42  1  0.21051800  0.21801100  0.98588200  1
  C  C43  1  0.78198900  0.78948200  0.51411800  1
  C  C44  1  0.02868600  0.83256900  0.88644900  1
  C  C45  1  0.16743100  0.97131400  0.61355100  1
  C  C46  1  0.97131400  0.16743100  0.11355100  1
  C  C47  1  0.83256900  0.02868600  0.38644900  1
  C  C48  1  0.03078300  0.67902000  0.13605300  1
  C  C49  1  0.32098000  0.96921700  0.36394700  1
  C  C50  1  0.96921700  0.32098000  0.86394700  1
  C  C51  1  0.67902000  0.03078300  0.63605300  1
  C  C52  1  0.27156800  0.72471500  0.00784800  1
  C  C53  1  0.27528500  0.72843200  0.49215200  1
  C  C54  1  0.72843200  0.27528500  0.99215200  1
  C  C55  1  0.72471500  0.27156800  0.50784800  1
  C  C56  1  0.41427000  0.15816600  0.11774700  1
  C  C57  1  0.84183400  0.58573000  0.38225300  1
  C  C58  1  0.58573000  0.84183400  0.88225300  1
  C  C59  1  0.15816600  0.41427000  0.61774700  1
  C  C60  1  0.46806200  0.47617000  0.36903700  1
  C  C61  1  0.52383000  0.53193800  0.13096300  1
  C  C62  1  0.53193800  0.52383000  0.63096300  1
  C  C63  1  0.47617000  0.46806200  0.86903700  1
  C  C64  1  0.93615600  0.32659100  0.25735300  1
  C  C65  1  0.67340900  0.06384400  0.24264700  1
  C  C66  1  0.06384400  0.67340900  0.74264700  1
  C  C67  1  0.32659100  0.93615600  0.75735300  1
  C  C68  1  0.19278500  0.80721500  0.25000000  1
  C  C69  1  0.80721500  0.19278500  0.75000000  1
