# generated using pymatgen
data_Cu(Ni4C3)3
_symmetry_space_group_name_H-M   'P 1'
_cell_length_a   5.11927731
_cell_length_b   5.11927731
_cell_length_c   22.92006800
_cell_angle_alpha   90.00000000
_cell_angle_beta   90.00000000
_cell_angle_gamma   119.99999108
_symmetry_Int_Tables_number   1
_chemical_formula_structural   Cu(Ni4C3)3
_chemical_formula_sum   'Cu2 Ni24 C18'
_cell_volume   520.19225773
_cell_formula_units_Z   2
loop_
 _symmetry_equiv_pos_site_id
 _symmetry_equiv_pos_as_xyz
  1  'x, y, z'
loop_
 _atom_site_type_symbol
 _atom_site_label
 _atom_site_symmetry_multiplicity
 _atom_site_fract_x
 _atom_site_fract_y
 _atom_site_fract_z
 _atom_site_occupancy
  C  C0  1  0.66666700  0.33333300  0.97720300  1
  C  C1  1  0.66666700  0.33333300  0.52279700  1
  C  C2  1  0.33333300  0.66666700  0.47720300  1
  C  C3  1  0.33333300  0.66666700  0.02279700  1
  C  C4  1  0.00000000  0.00000000  0.75000000  1
  C  C5  1  0.00000000  0.00000000  0.25000000  1
  C  C6  1  0.33333300  0.66666700  0.64537900  1
  C  C7  1  0.66666700  0.33333300  0.35462100  1
  C  C8  1  0.33333300  0.66666700  0.85462100  1
  C  C9  1  0.66666700  0.33333300  0.14537900  1
  C  C10  1  0.00000000  0.00000000  0.43671500  1
  C  C11  1  0.66666700  0.33333300  0.82316400  1
  C  C12  1  0.00000000  0.00000000  0.93671500  1
  C  C13  1  0.00000000  0.00000000  0.06328500  1
  C  C14  1  0.33333300  0.66666700  0.32316400  1
  C  C15  1  0.33333300  0.66666700  0.17683600  1
  C  C16  1  0.00000000  0.00000000  0.56328500  1
  C  C17  1  0.66666700  0.33333300  0.67683600  1
  Ni  Ni18  1  0.29305300  0.14652700  0.06242400  1
  Ni  Ni19  1  0.81253300  0.18746700  0.67547700  1
  Ni  Ni20  1  0.14652700  0.85347300  0.93757600  1
  Ni  Ni21  1  0.70694700  0.85347300  0.56242400  1
  Ni  Ni22  1  0.85347300  0.70694700  0.06242400  1
  Ni  Ni23  1  0.14652700  0.29305300  0.56242400  1
  Ni  Ni24  1  0.62506600  0.81253300  0.32452300  1
  Ni  Ni25  1  0.18746700  0.81253300  0.17547700  1
  Ni  Ni26  1  0.14652700  0.85347300  0.56242400  1
  Ni  Ni27  1  0.37493400  0.18746700  0.82452300  1
  Ni  Ni28  1  0.81253300  0.62506600  0.82452300  1
  Ni  Ni29  1  0.85347300  0.14652700  0.06242400  1
  Ni  Ni30  1  0.18746700  0.37493400  0.32452300  1
  Ni  Ni31  1  0.18746700  0.81253300  0.32452300  1
  Ni  Ni32  1  0.37493400  0.18746700  0.67547700  1
  Ni  Ni33  1  0.18746700  0.37493400  0.17547700  1
  Ni  Ni34  1  0.81253300  0.62506600  0.67547700  1
  Ni  Ni35  1  0.85347300  0.70694700  0.43757600  1
  Ni  Ni36  1  0.29305300  0.14652700  0.43757600  1
  Ni  Ni37  1  0.85347300  0.14652700  0.43757600  1
  Ni  Ni38  1  0.70694700  0.85347300  0.93757600  1
  Ni  Ni39  1  0.14652700  0.29305300  0.93757600  1
  Ni  Ni40  1  0.62506600  0.81253300  0.17547700  1
  Ni  Ni41  1  0.81253300  0.18746700  0.82452300  1
  Cu  Cu42  1  0.66666700  0.33333300  0.25000000  1
  Cu  Cu43  1  0.33333300  0.66666700  0.75000000  1
