# generated using pymatgen
data_Cu6Ni6C5
_symmetry_space_group_name_H-M   'P 1'
_cell_length_a   7.00736689
_cell_length_b   7.00736689
_cell_length_c   7.59430600
_cell_angle_alpha   90.00000000
_cell_angle_beta   90.00000000
_cell_angle_gamma   120.00000842
_symmetry_Int_Tables_number   1
_chemical_formula_structural   Cu6Ni6C5
_chemical_formula_sum   'Cu6 Ni6 C5'
_cell_volume   322.94487807
_cell_formula_units_Z   1
loop_
 _symmetry_equiv_pos_site_id
 _symmetry_equiv_pos_as_xyz
  1  'x, y, z'
loop_
 _atom_site_type_symbol
 _atom_site_label
 _atom_site_symmetry_multiplicity
 _atom_site_fract_x
 _atom_site_fract_y
 _atom_site_fract_z
 _atom_site_occupancy
  C  C0  1  0.00000000  0.00000000  0.50000000  1
  C  C1  1  0.33333300  0.66666700  0.50000000  1
  C  C2  1  0.82790100  0.17209900  0.00000000  1
  C  C3  1  0.34419800  0.17209900  0.00000000  1
  C  C4  1  0.82790100  0.65580200  0.00000000  1
  Ni  Ni5  1  0.99372800  0.33413400  0.78538300  1
  Ni  Ni6  1  0.66586600  0.00627200  0.21461700  1
  Ni  Ni7  1  0.99372800  0.65959400  0.21461700  1
  Ni  Ni8  1  0.34040600  0.33413400  0.21461700  1
  Ni  Ni9  1  0.34040600  0.00627200  0.78538300  1
  Ni  Ni10  1  0.66586600  0.65959400  0.78538300  1
  Cu  Cu11  1  0.09775800  0.43161600  0.66227100  1
  Cu  Cu12  1  0.56838400  0.66614200  0.66227100  1
  Cu  Cu13  1  0.09775800  0.66614200  0.33772900  1
  Cu  Cu14  1  0.33385800  0.43161600  0.33772900  1
  Cu  Cu15  1  0.56838400  0.90224200  0.33772900  1
  Cu  Cu16  1  0.33385800  0.90224200  0.66227100  1
