# generated using pymatgen
data_Cu8Ni2C
_symmetry_space_group_name_H-M   'P 1'
_cell_length_a   4.31188500
_cell_length_b   6.09677400
_cell_length_c   8.39071300
_cell_angle_alpha   90.00000000
_cell_angle_beta   90.00000000
_cell_angle_gamma   90.00000000
_symmetry_Int_Tables_number   1
_chemical_formula_structural   Cu8Ni2C
_chemical_formula_sum   'Cu16 Ni4 C2'
_cell_volume   220.58000010
_cell_formula_units_Z   2
loop_
 _symmetry_equiv_pos_site_id
 _symmetry_equiv_pos_as_xyz
  1  'x, y, z'
loop_
 _atom_site_type_symbol
 _atom_site_label
 _atom_site_symmetry_multiplicity
 _atom_site_fract_x
 _atom_site_fract_y
 _atom_site_fract_z
 _atom_site_occupancy
  C  C0  1  0.00000000  0.69836400  0.50061900  1
  C  C1  1  0.00000000  0.30163600  0.00061900  1
  Ni  Ni2  1  0.00000000  0.51795600  0.24493900  1
  Ni  Ni3  1  0.00000000  0.48204400  0.74493900  1
  Ni  Ni4  1  0.50000000  0.10237200  0.97881200  1
  Ni  Ni5  1  0.50000000  0.89762800  0.47881200  1
  Cu  Cu6  1  0.27978700  0.94181500  0.56684900  1
  Cu  Cu7  1  0.50000000  0.00816100  0.35985500  1
  Cu  Cu8  1  0.50000000  0.99183900  0.85985500  1
  Cu  Cu9  1  0.00000000  0.41675800  0.37216700  1
  Cu  Cu10  1  0.00000000  0.71855500  0.25574200  1
  Cu  Cu11  1  0.27978700  0.05818500  0.06684900  1
  Cu  Cu12  1  0.75993200  0.53169300  0.67624800  1
  Cu  Cu13  1  0.24006800  0.46830700  0.17624800  1
  Cu  Cu14  1  0.00000000  0.28144500  0.75574200  1
  Cu  Cu15  1  0.50000000  0.70037000  0.44270200  1
  Cu  Cu16  1  0.72021300  0.05818500  0.06684900  1
  Cu  Cu17  1  0.00000000  0.58324200  0.87216700  1
  Cu  Cu18  1  0.72021300  0.94181500  0.56684900  1
  Cu  Cu19  1  0.24006800  0.53169300  0.67624800  1
  Cu  Cu20  1  0.75993200  0.46830700  0.17624800  1
  Cu  Cu21  1  0.50000000  0.29963000  0.94270200  1
