# generated using pymatgen
data_CuNi9C8
_symmetry_space_group_name_H-M   'P 1'
_cell_length_a   4.57346900
_cell_length_b   10.18582000
_cell_length_c   15.00284400
_cell_angle_alpha   90.00000000
_cell_angle_beta   90.00000000
_cell_angle_gamma   90.00000000
_symmetry_Int_Tables_number   1
_chemical_formula_structural   CuNi9C8
_chemical_formula_sum   'Cu4 Ni36 C32'
_cell_volume   698.90046655
_cell_formula_units_Z   4
loop_
 _symmetry_equiv_pos_site_id
 _symmetry_equiv_pos_as_xyz
  1  'x, y, z'
loop_
 _atom_site_type_symbol
 _atom_site_label
 _atom_site_symmetry_multiplicity
 _atom_site_fract_x
 _atom_site_fract_y
 _atom_site_fract_z
 _atom_site_occupancy
  C  C0  1  0.50047200  0.36929600  0.05739900  1
  C  C1  1  0.01018000  0.84867000  0.85147900  1
  C  C2  1  0.00047200  0.13070400  0.55739900  1
  C  C3  1  0.00047200  0.13070400  0.94260100  1
  C  C4  1  0.99766300  0.58005900  0.75000000  1
  C  C5  1  0.50047200  0.36929600  0.44260100  1
  C  C6  1  0.49952800  0.63070400  0.55739900  1
  C  C7  1  0.48982000  0.34867000  0.64852100  1
  C  C8  1  0.00233700  0.41994100  0.25000000  1
  C  C9  1  0.48982000  0.34867000  0.85147900  1
  C  C10  1  0.99952800  0.86929600  0.05739900  1
  C  C11  1  0.49766300  0.91994100  0.25000000  1
  C  C12  1  0.51018000  0.65133000  0.14852100  1
  C  C13  1  0.01018000  0.84867000  0.64852100  1
  C  C14  1  0.51018000  0.65133000  0.35147900  1
  C  C15  1  0.98982000  0.15133000  0.35147900  1
  C  C16  1  0.49952800  0.63070400  0.94260100  1
  C  C17  1  0.99952800  0.86929600  0.44260100  1
  C  C18  1  0.98982000  0.15133000  0.14852100  1
  C  C19  1  0.50233700  0.08005900  0.75000000  1
  C  C20  1  0.46546000  0.92494900  0.57630000  1
  C  C21  1  0.96546000  0.57505100  0.07630000  1
  C  C22  1  0.95463100  0.22192400  0.75000000  1
  C  C23  1  0.45463100  0.27807600  0.25000000  1
  C  C24  1  0.53454000  0.07505100  0.07630000  1
  C  C25  1  0.03454000  0.42494900  0.57630000  1
  C  C26  1  0.54536900  0.72192400  0.75000000  1
  C  C27  1  0.96546000  0.57505100  0.42370000  1
  C  C28  1  0.53454000  0.07505100  0.42370000  1
  C  C29  1  0.04536900  0.77807600  0.25000000  1
  C  C30  1  0.46546000  0.92494900  0.92370000  1
  C  C31  1  0.03454000  0.42494900  0.92370000  1
  Ni  Ni32  1  0.74407800  0.44571900  0.94579600  1
  Ni  Ni33  1  0.18851900  0.50744600  0.86533200  1
  Ni  Ni34  1  0.70149700  0.70071200  0.82891500  1
  Ni  Ni35  1  0.24407800  0.05428100  0.44579600  1
  Ni  Ni36  1  0.25592200  0.55428100  0.05420400  1
  Ni  Ni37  1  0.19318000  0.31534300  0.54586400  1
  Ni  Ni38  1  0.74407800  0.44571900  0.55420400  1
  Ni  Ni39  1  0.80682000  0.68465700  0.45413600  1
  Ni  Ni40  1  0.30682000  0.81534300  0.54586400  1
  Ni  Ni41  1  0.24909500  0.25263600  0.75000000  1
  Ni  Ni42  1  0.79850300  0.20071200  0.67108500  1
  Ni  Ni43  1  0.18851900  0.50744600  0.63466800  1
  Ni  Ni44  1  0.19318000  0.31534300  0.95413600  1
  Ni  Ni45  1  0.24407800  0.05428100  0.05420400  1
  Ni  Ni46  1  0.75592200  0.94571900  0.55420400  1
  Ni  Ni47  1  0.25592200  0.55428100  0.44579600  1
  Ni  Ni48  1  0.69318000  0.18465700  0.45413600  1
  Ni  Ni49  1  0.81148100  0.49255400  0.36533200  1
  Ni  Ni50  1  0.68851900  0.99255400  0.13466800  1
  Ni  Ni51  1  0.75090500  0.74736400  0.25000000  1
  Ni  Ni52  1  0.79850300  0.20071200  0.82891500  1
  Ni  Ni53  1  0.29850300  0.29928800  0.32891500  1
  Ni  Ni54  1  0.81148100  0.49255400  0.13466800  1
  Ni  Ni55  1  0.20149700  0.79928800  0.17108500  1
  Ni  Ni56  1  0.25090500  0.75263600  0.75000000  1
  Ni  Ni57  1  0.29850300  0.29928800  0.17108500  1
  Ni  Ni58  1  0.75592200  0.94571900  0.94579600  1
  Ni  Ni59  1  0.30682000  0.81534300  0.95413600  1
  Ni  Ni60  1  0.31148100  0.00744600  0.86533200  1
  Ni  Ni61  1  0.20149700  0.79928800  0.32891500  1
  Ni  Ni62  1  0.80682000  0.68465700  0.04586400  1
  Ni  Ni63  1  0.74909500  0.24736400  0.25000000  1
  Ni  Ni64  1  0.68851900  0.99255400  0.36533200  1
  Ni  Ni65  1  0.70149700  0.70071200  0.67108500  1
  Ni  Ni66  1  0.69318000  0.18465700  0.04586400  1
  Ni  Ni67  1  0.31148100  0.00744600  0.63466800  1
  Cu  Cu68  1  0.31518100  0.55791300  0.25000000  1
  Cu  Cu69  1  0.68481900  0.44208700  0.75000000  1
  Cu  Cu70  1  0.18481900  0.05791300  0.25000000  1
  Cu  Cu71  1  0.81518100  0.94208700  0.75000000  1
