# generated using pymatgen
data_Cu2(NiC)3
_symmetry_space_group_name_H-M   'P 1'
_cell_length_a   7.63721300
_cell_length_b   7.64394374
_cell_length_c   13.40636794
_cell_angle_alpha   84.55632548
_cell_angle_beta   78.91017072
_cell_angle_gamma   60.68956430
_symmetry_Int_Tables_number   1
_chemical_formula_structural   Cu2(NiC)3
_chemical_formula_sum   'Cu6 Ni9 C9'
_cell_volume   669.70513233
_cell_formula_units_Z   3
loop_
 _symmetry_equiv_pos_site_id
 _symmetry_equiv_pos_as_xyz
  1  'x, y, z'
loop_
 _atom_site_type_symbol
 _atom_site_label
 _atom_site_symmetry_multiplicity
 _atom_site_fract_x
 _atom_site_fract_y
 _atom_site_fract_z
 _atom_site_occupancy
  C  C0  1  0.30569300  0.33165200  0.08949200  1
  C  C1  1  0.43522300  0.33748000  0.69300300  1
  C  C2  1  0.10105700  0.00013400  0.68329200  1
  C  C3  1  0.69430700  0.66834800  0.91050800  1
  C  C4  1  0.56477700  0.66252000  0.30699700  1
  C  C5  1  0.89894300  0.99986600  0.31670800  1
  C  C6  1  0.20039700  0.33478900  0.39804500  1
  C  C7  1  0.79960300  0.66521100  0.60195500  1
  C  C8  1  0.00000000  0.00000000  0.00000000  1
  Ni  Ni9  1  0.28471500  0.78574900  0.11645800  1
  Ni  Ni10  1  0.18584400  0.68201500  0.49831000  1
  Ni  Ni11  1  0.81415600  0.31798500  0.50169000  1
  Ni  Ni12  1  0.85429300  0.32483700  0.11574500  1
  Ni  Ni13  1  0.25839800  0.10580300  0.88243600  1
  Ni  Ni14  1  0.71528500  0.21425100  0.88354200  1
  Ni  Ni15  1  0.50000000  0.00000000  0.50000000  1
  Ni  Ni16  1  0.74160200  0.89419700  0.11756400  1
  Ni  Ni17  1  0.14570700  0.67516300  0.88425500  1
  Cu  Cu18  1  0.56291400  0.66278000  0.69507800  1
  Cu  Cu19  1  0.76921700  0.87374500  0.69333300  1
  Cu  Cu20  1  0.01748000  0.54465100  0.30851900  1
  Cu  Cu21  1  0.98252000  0.45534900  0.69148100  1
  Cu  Cu22  1  0.23078300  0.12625500  0.30666700  1
  Cu  Cu23  1  0.43708600  0.33722000  0.30492200  1
