# generated using pymatgen
data_Cu(NiC6)2
_symmetry_space_group_name_H-M   'P 1'
_cell_length_a   7.41765000
_cell_length_b   6.42264700
_cell_length_c   7.39031370
_cell_angle_alpha   89.87820309
_cell_angle_beta   90.00000000
_cell_angle_gamma   90.00000000
_symmetry_Int_Tables_number   1
_chemical_formula_structural   Cu(NiC6)2
_chemical_formula_sum   'Cu2 Ni4 C24'
_cell_volume   352.08075153
_cell_formula_units_Z   2
loop_
 _symmetry_equiv_pos_site_id
 _symmetry_equiv_pos_as_xyz
  1  'x, y, z'
loop_
 _atom_site_type_symbol
 _atom_site_label
 _atom_site_symmetry_multiplicity
 _atom_site_fract_x
 _atom_site_fract_y
 _atom_site_fract_z
 _atom_site_occupancy
  Ni  Ni0  1  0.27929000  0.74502400  0.83418300  1
  Ni  Ni1  1  0.77929000  0.25497600  0.66581700  1
  Ni  Ni2  1  0.72071000  0.25497600  0.16581700  1
  Ni  Ni3  1  0.22071000  0.74502400  0.33418300  1
  Cu  Cu4  1  0.00000000  0.00000000  0.00000000  1
  Cu  Cu5  1  0.50000000  0.00000000  0.50000000  1
  C  C6  1  0.62196900  0.74971300  0.12773900  1
  C  C7  1  0.87803100  0.74971300  0.62773900  1
  C  C8  1  0.12196900  0.25028700  0.37226100  1
  C  C9  1  0.37803100  0.25028700  0.87226100  1
  C  C10  1  0.00497000  0.77898600  0.79457800  1
  C  C11  1  0.66421900  0.22723900  0.39048800  1
  C  C12  1  0.74578600  0.93811800  0.62399000  1
  C  C13  1  0.25421400  0.06188200  0.37601000  1
  C  C14  1  0.75421400  0.93811800  0.12399000  1
  C  C15  1  0.50497000  0.22101400  0.70542200  1
  C  C16  1  0.99503000  0.22101400  0.20542200  1
  C  C17  1  0.73955900  0.55405200  0.14625200  1
  C  C18  1  0.00956400  0.25454200  0.54644800  1
  C  C19  1  0.76044100  0.55405200  0.64625200  1
  C  C20  1  0.49043600  0.25454200  0.04644800  1
  C  C21  1  0.99043600  0.74545800  0.45355200  1
  C  C22  1  0.33578100  0.77276100  0.60951200  1
  C  C23  1  0.26044100  0.44594800  0.85374800  1
  C  C24  1  0.83578100  0.22723900  0.89048800  1
  C  C25  1  0.16421900  0.77276100  0.10951200  1
  C  C26  1  0.50956400  0.74545800  0.95355200  1
  C  C27  1  0.24578600  0.06188200  0.87601000  1
  C  C28  1  0.49503000  0.77898600  0.29457800  1
  C  C29  1  0.23955900  0.44594800  0.35374800  1
