# generated using pymatgen
data_Cu3NiC
_symmetry_space_group_name_H-M   'P 1'
_cell_length_a   12.82371000
_cell_length_b   5.65376900
_cell_length_c   8.75328922
_cell_angle_alpha   79.78013993
_cell_angle_beta   90.00000000
_cell_angle_gamma   90.00000000
_symmetry_Int_Tables_number   1
_chemical_formula_structural   Cu3NiC
_chemical_formula_sum   'Cu24 Ni8 C8'
_cell_volume   624.56455950
_cell_formula_units_Z   8
loop_
 _symmetry_equiv_pos_site_id
 _symmetry_equiv_pos_as_xyz
  1  'x, y, z'
loop_
 _atom_site_type_symbol
 _atom_site_label
 _atom_site_symmetry_multiplicity
 _atom_site_fract_x
 _atom_site_fract_y
 _atom_site_fract_z
 _atom_site_occupancy
  C  C0  1  0.41965400  0.32050300  0.88487700  1
  C  C1  1  0.25406200  0.86700200  0.65355900  1
  C  C2  1  0.91965400  0.67949700  0.61512300  1
  C  C3  1  0.74593800  0.13299800  0.34644100  1
  C  C4  1  0.75406200  0.13299800  0.84644100  1
  C  C5  1  0.58034600  0.67949700  0.11512300  1
  C  C6  1  0.08034600  0.32050300  0.38487700  1
  C  C7  1  0.24593800  0.86700200  0.15355900  1
  Ni  Ni8  1  0.32567400  0.46148600  0.48395200  1
  Ni  Ni9  1  0.17432600  0.46148600  0.98395200  1
  Ni  Ni10  1  0.82567400  0.53851400  0.01604800  1
  Ni  Ni11  1  0.67432600  0.53851400  0.51604800  1
  Ni  Ni12  1  0.97894000  0.90320000  0.24724700  1
  Ni  Ni13  1  0.52106000  0.90320000  0.74724700  1
  Ni  Ni14  1  0.02106000  0.09680000  0.75275300  1
  Ni  Ni15  1  0.47894000  0.09680000  0.25275300  1
  Cu  Cu16  1  0.09166900  0.00459200  0.24557300  1
  Cu  Cu17  1  0.24089200  0.68811800  0.91942500  1
  Cu  Cu18  1  0.57671200  0.08223600  0.83791200  1
  Cu  Cu19  1  0.75910800  0.31188200  0.08057500  1
  Cu  Cu20  1  0.25910800  0.68811800  0.41942500  1
  Cu  Cu21  1  0.65674000  0.49187300  0.34831400  1
  Cu  Cu22  1  0.97817500  0.66360800  0.36585800  1
  Cu  Cu23  1  0.74565500  0.75063100  0.00400200  1
  Cu  Cu24  1  0.34326000  0.50812700  0.65168600  1
  Cu  Cu25  1  0.90833100  0.99540800  0.75442700  1
  Cu  Cu26  1  0.02182500  0.33639200  0.63414200  1
  Cu  Cu27  1  0.75434500  0.75063100  0.50400200  1
  Cu  Cu28  1  0.40833100  0.00459200  0.74557300  1
  Cu  Cu29  1  0.15674000  0.50812700  0.15168600  1
  Cu  Cu30  1  0.84326000  0.49187300  0.84831400  1
  Cu  Cu31  1  0.24565500  0.24936900  0.49599800  1
  Cu  Cu32  1  0.74089200  0.31188200  0.58057500  1
  Cu  Cu33  1  0.07671200  0.91776400  0.66208800  1
  Cu  Cu34  1  0.92328800  0.08223600  0.33791200  1
  Cu  Cu35  1  0.59166900  0.99540800  0.25442700  1
  Cu  Cu36  1  0.52182500  0.66360800  0.86585800  1
  Cu  Cu37  1  0.25434500  0.24936900  0.99599800  1
  Cu  Cu38  1  0.47817500  0.33639200  0.13414200  1
  Cu  Cu39  1  0.42328800  0.91776400  0.16208800  1
