# generated using pymatgen
data_Cu2NiC20
_symmetry_space_group_name_H-M   'P 1'
_cell_length_a   7.44070000
_cell_length_b   8.79104900
_cell_length_c   13.97638569
_cell_angle_alpha   51.65477852
_cell_angle_beta   90.00000000
_cell_angle_gamma   90.00000000
_symmetry_Int_Tables_number   1
_chemical_formula_structural   Cu2NiC20
_chemical_formula_sum   'Cu4 Ni2 C40'
_cell_volume   717.00860001
_cell_formula_units_Z   2
loop_
 _symmetry_equiv_pos_site_id
 _symmetry_equiv_pos_as_xyz
  1  'x, y, z'
loop_
 _atom_site_type_symbol
 _atom_site_label
 _atom_site_symmetry_multiplicity
 _atom_site_fract_x
 _atom_site_fract_y
 _atom_site_fract_z
 _atom_site_occupancy
  Ni  Ni0  1  0.64400800  0.93667000  0.12042300  1
  Ni  Ni1  1  0.35599200  0.93667000  0.62042300  1
  Cu  Cu2  1  0.83606200  0.75434100  0.49854100  1
  Cu  Cu3  1  0.12857000  0.34194800  0.91076100  1
  Cu  Cu4  1  0.16393800  0.75434100  0.99854100  1
  Cu  Cu5  1  0.87143000  0.34194800  0.41076100  1
  C  C6  1  0.34139900  0.55138200  0.60279000  1
  C  C7  1  0.15613100  0.17221400  0.24103800  1
  C  C8  1  0.65210400  0.51956600  0.90216200  1
  C  C9  1  0.10147200  0.84149700  0.22863000  1
  C  C10  1  0.45022500  0.13169100  0.80524900  1
  C  C11  1  0.54977500  0.13169100  0.30524900  1
  C  C12  1  0.65860100  0.55138200  0.10279000  1
  C  C13  1  0.34789600  0.51956600  0.40216200  1
  C  C14  1  0.84386900  0.17221400  0.74103800  1
  C  C15  1  0.89852800  0.84149700  0.72863000  1
  C  C16  1  0.94284400  0.93942100  0.59701500  1
  C  C17  1  0.19868900  0.99698800  0.23556300  1
  C  C18  1  0.82643300  0.57609800  0.15284500  1
  C  C19  1  0.38724400  0.32535700  0.67473900  1
  C  C20  1  0.28912800  0.60752700  0.47203900  1
  C  C21  1  0.61275600  0.32535700  0.17473900  1
  C  C22  1  0.04844400  0.73552700  0.82014200  1
  C  C23  1  0.73170800  0.69761100  0.76491000  1
  C  C24  1  0.66371400  0.16555000  0.80741000  1
  C  C25  1  0.33628600  0.16555000  0.30741000  1
  C  C26  1  0.26829200  0.69761100  0.26491000  1
  C  C27  1  0.62475600  0.12011300  0.40976200  1
  C  C28  1  0.17356700  0.57609800  0.65284500  1
  C  C29  1  0.58960500  0.96787400  0.30237400  1
  C  C30  1  0.45264200  0.51869900  0.89073000  1
  C  C31  1  0.23697900  0.34265100  0.45037300  1
  C  C32  1  0.95155600  0.73552700  0.32014200  1
  C  C33  1  0.49483300  0.65975000  0.09249100  1
  C  C34  1  0.14855400  0.35619800  0.11146000  1
  C  C35  1  0.80131100  0.99698800  0.73556300  1
  C  C36  1  0.50516700  0.65975000  0.59249100  1
  C  C37  1  0.37524400  0.12011300  0.90976200  1
  C  C38  1  0.76302100  0.34265100  0.95037300  1
  C  C39  1  0.99502600  0.11850500  0.82766300  1
  C  C40  1  0.05715600  0.93942100  0.09701500  1
  C  C41  1  0.54735800  0.51869900  0.39073000  1
  C  C42  1  0.71087200  0.60752700  0.97203900  1
  C  C43  1  0.41039500  0.96787400  0.80237400  1
  C  C44  1  0.00497400  0.11850500  0.32766300  1
  C  C45  1  0.85144600  0.35619800  0.61146000  1
