# generated using pymatgen
data_Cu(Ni2C5)2
_symmetry_space_group_name_H-M   'P 1'
_cell_length_a   6.98779500
_cell_length_b   10.39860175
_cell_length_c   11.02402817
_cell_angle_alpha   84.86869348
_cell_angle_beta   89.35830044
_cell_angle_gamma   88.03629353
_symmetry_Int_Tables_number   1
_chemical_formula_structural   Cu(Ni2C5)2
_chemical_formula_sum   'Cu4 Ni16 C40'
_cell_volume   797.33676799
_cell_formula_units_Z   4
loop_
 _symmetry_equiv_pos_site_id
 _symmetry_equiv_pos_as_xyz
  1  'x, y, z'
loop_
 _atom_site_type_symbol
 _atom_site_label
 _atom_site_symmetry_multiplicity
 _atom_site_fract_x
 _atom_site_fract_y
 _atom_site_fract_z
 _atom_site_occupancy
  C  C0  1  0.79851500  0.90878600  0.58296100  1
  C  C1  1  0.20148500  0.09121400  0.41703900  1
  C  C2  1  0.68903200  0.02996300  0.32360800  1
  C  C3  1  0.31096800  0.97003700  0.67639200  1
  Ni  Ni4  1  0.54557600  0.35715800  0.23139600  1
  Ni  Ni5  1  0.45442400  0.64284200  0.76860400  1
  Ni  Ni6  1  0.93149600  0.16608900  0.79767200  1
  Ni  Ni7  1  0.83860000  0.27204500  0.58635100  1
  Ni  Ni8  1  0.79069200  0.70274100  0.82986500  1
  Ni  Ni9  1  0.42237000  0.24459400  0.18934300  1
  Ni  Ni10  1  0.57763000  0.75540600  0.81065700  1
  Ni  Ni11  1  0.82093500  0.70720000  0.33412500  1
  Ni  Ni12  1  0.17906500  0.29280000  0.66587500  1
  Ni  Ni13  1  0.49823900  0.79665000  0.93680200  1
  Ni  Ni14  1  0.99421300  0.80080500  0.33743700  1
  Ni  Ni15  1  0.00578700  0.19919500  0.66256300  1
  Ni  Ni16  1  0.16140000  0.72795500  0.41364900  1
  Ni  Ni17  1  0.06850400  0.83391100  0.20232800  1
  Ni  Ni18  1  0.20930800  0.29725900  0.17013500  1
  Ni  Ni19  1  0.50176100  0.20335000  0.06319800  1
  Cu  Cu20  1  0.05809100  0.08682200  0.60972000  1
  Cu  Cu21  1  0.42742000  0.13983500  0.27531900  1
  Cu  Cu22  1  0.57258000  0.86016500  0.72468100  1
  Cu  Cu23  1  0.94190900  0.91317800  0.39028000  1
  C  C24  1  0.29596600  0.81321100  0.44157900  1
  C  C25  1  0.74754500  0.36498600  0.64514200  1
  C  C26  1  0.37782200  0.12540600  0.01405500  1
  C  C27  1  0.18536300  0.37916500  0.06877900  1
  C  C28  1  0.46692100  0.69482800  0.01902600  1
  C  C29  1  0.81463700  0.62083500  0.93122100  1
  C  C30  1  0.14879900  0.36041700  0.26736500  1
  C  C31  1  0.75308500  0.11771000  0.79729800  1
  C  C32  1  0.62217800  0.87459400  0.98594500  1
  C  C33  1  0.87554300  0.58648400  0.30929200  1
  C  C34  1  0.67125500  0.13498200  0.07865300  1
  C  C35  1  0.04729300  0.07432200  0.85711100  1
  C  C36  1  0.90956800  0.80274400  0.83745500  1
  C  C37  1  0.26401700  0.67443400  0.77762900  1
  C  C38  1  0.30800400  0.24483600  0.75151600  1
  C  C39  1  0.73598300  0.32556600  0.22237100  1
  C  C40  1  0.90666500  0.32672300  0.47871200  1
  C  C41  1  0.51343800  0.47175500  0.16524400  1
  C  C42  1  0.72593100  0.69765100  0.44283800  1
  C  C43  1  0.49103700  0.62541500  0.65005400  1
  C  C44  1  0.53307900  0.30517200  0.98097400  1
  C  C45  1  0.32874500  0.86501800  0.92134700  1
  C  C46  1  0.07596700  0.72975700  0.13692000  1
  C  C47  1  0.50896300  0.37458500  0.34994600  1
  C  C48  1  0.85120100  0.63958300  0.73263500  1
  C  C49  1  0.48656200  0.52824500  0.83475600  1
  C  C50  1  0.09043200  0.19725600  0.16254500  1
  C  C51  1  0.25245500  0.63501400  0.35485800  1
  C  C52  1  0.95270700  0.92567800  0.14288900  1
  C  C53  1  0.12445700  0.41351600  0.69070800  1
  C  C54  1  0.69199600  0.75516400  0.24848400  1
  C  C55  1  0.70403400  0.18678900  0.55842100  1
  C  C56  1  0.27406900  0.30234900  0.55716200  1
  C  C57  1  0.24691500  0.88229000  0.20270200  1
  C  C58  1  0.92403300  0.27024300  0.86308000  1
  C  C59  1  0.09333500  0.67327700  0.52128800  1
