# generated using pymatgen
data_CuNiC16
_symmetry_space_group_name_H-M   'P 1'
_cell_length_a   7.10047000
_cell_length_b   8.61707793
_cell_length_c   9.93130928
_cell_angle_alpha   96.51202388
_cell_angle_beta   106.47013259
_cell_angle_gamma   101.75330173
_symmetry_Int_Tables_number   1
_chemical_formula_structural   CuNiC16
_chemical_formula_sum   'Cu2 Ni2 C32'
_cell_volume   560.93858711
_cell_formula_units_Z   2
loop_
 _symmetry_equiv_pos_site_id
 _symmetry_equiv_pos_as_xyz
  1  'x, y, z'
loop_
 _atom_site_type_symbol
 _atom_site_label
 _atom_site_symmetry_multiplicity
 _atom_site_fract_x
 _atom_site_fract_y
 _atom_site_fract_z
 _atom_site_occupancy
  C  C0  1  0.46216200  0.89469800  0.20271200  1
  C  C1  1  0.53783800  0.10530200  0.79728800  1
  Ni  Ni2  1  0.04078700  0.69692500  0.99235000  1
  Ni  Ni3  1  0.95921300  0.30307500  0.00765000  1
  Cu  Cu4  1  0.74683700  0.69811600  0.40468300  1
  Cu  Cu5  1  0.25316300  0.30188400  0.59531700  1
  C  C6  1  0.51741100  0.29837800  0.11976900  1
  C  C7  1  0.99458200  0.00714400  0.74857900  1
  C  C8  1  0.19847900  0.60229200  0.33446900  1
  C  C9  1  0.00541800  0.99285600  0.25142100  1
  C  C10  1  0.48258900  0.70162200  0.88023100  1
  C  C11  1  0.80152100  0.39770800  0.66553100  1
  C  C12  1  0.16261800  0.09659900  0.42572100  1
  C  C13  1  0.83738200  0.90340100  0.57427900  1
  C  C14  1  0.94223800  0.47543100  0.85170800  1
  C  C15  1  0.55677100  0.26688700  0.64519600  1
  C  C16  1  0.26158400  0.30419700  0.03458700  1
  C  C17  1  0.13914100  0.86218000  0.18165700  1
  C  C18  1  0.51084800  0.12861900  0.20346600  1
  C  C19  1  0.23238800  0.12554800  0.73706800  1
  C  C20  1  0.35221900  0.72397700  0.01207200  1
  C  C21  1  0.95259600  0.13486900  0.14088300  1
  C  C22  1  0.64967700  0.47971500  0.25481100  1
  C  C23  1  0.86085900  0.13782000  0.81834300  1
  C  C24  1  0.04740400  0.86513100  0.85911700  1
  C  C25  1  0.05776200  0.52456900  0.14829200  1
  C  C26  1  0.06032500  0.70448500  0.42528700  1
  C  C27  1  0.75265500  0.56223400  0.58001200  1
  C  C28  1  0.48915200  0.87138100  0.79653400  1
  C  C29  1  0.44322900  0.73311300  0.35480400  1
  C  C30  1  0.73841600  0.69580300  0.96541300  1
  C  C31  1  0.64778100  0.27602300  0.98792800  1
  C  C32  1  0.76761200  0.87445200  0.26293200  1
  C  C33  1  0.35032300  0.52028500  0.74518900  1
  C  C34  1  0.93967500  0.29551500  0.57471300  1
  C  C35  1  0.24734500  0.43776600  0.41998800  1
