# generated using pymatgen
data_CuNiC23
_symmetry_space_group_name_H-M   'P 1'
_cell_length_a   7.03118300
_cell_length_b   8.33484358
_cell_length_c   9.21112110
_cell_angle_alpha   114.54677223
_cell_angle_beta   83.01488564
_cell_angle_gamma   107.51685415
_symmetry_Int_Tables_number   1
_chemical_formula_structural   CuNiC23
_chemical_formula_sum   'Cu2 Ni2 C46'
_cell_volume   468.24734280
_cell_formula_units_Z   2
loop_
 _symmetry_equiv_pos_site_id
 _symmetry_equiv_pos_as_xyz
  1  'x, y, z'
loop_
 _atom_site_type_symbol
 _atom_site_label
 _atom_site_symmetry_multiplicity
 _atom_site_fract_x
 _atom_site_fract_y
 _atom_site_fract_z
 _atom_site_occupancy
  C  C0  1  0.82349800  0.00566800  0.12488700  1
  C  C1  1  0.17650200  0.99433200  0.87511300  1
  C  C2  1  0.26943000  0.49949900  0.34945400  1
  C  C3  1  0.40791400  0.67681900  0.11957300  1
  C  C4  1  0.46595600  0.70711200  0.37713600  1
  C  C5  1  0.20364100  0.47273600  0.08320100  1
  C  C6  1  0.88840100  0.66375800  0.25550300  1
  C  C7  1  0.73248900  0.29255600  0.47888200  1
  C  C8  1  0.21205200  0.95877400  0.49227900  1
  C  C9  1  0.54557600  0.83801100  0.87989800  1
  C  C10  1  0.93601100  0.67680800  0.44810100  1
  C  C11  1  0.06398900  0.32319200  0.55189900  1
  C  C12  1  0.11159900  0.33624200  0.74449700  1
  C  C13  1  0.45442400  0.16198900  0.12010200  1
  C  C14  1  0.73057000  0.50050100  0.65054600  1
  C  C15  1  0.93592800  0.47098600  0.27278000  1
  C  C16  1  0.79635900  0.52726400  0.91679900  1
  C  C17  1  0.76613400  0.81198400  0.82709100  1
  C  C18  1  0.83225600  0.33096400  0.93611800  1
  C  C19  1  0.14277900  0.93866500  0.30202000  1
  C  C20  1  0.78794800  0.04122600  0.50772100  1
  C  C21  1  0.53404400  0.29288800  0.62286400  1
  C  C22  1  0.06407200  0.52901400  0.72722000  1
  C  C23  1  0.85722100  0.06133500  0.69798000  1
  C  C24  1  0.59208600  0.32318100  0.88042700  1
  C  C25  1  0.26751100  0.70744400  0.52111800  1
  C  C26  1  0.60427000  0.04337900  0.66257300  1
  C  C27  1  0.23386600  0.18801600  0.17290900  1
  C  C28  1  0.16774400  0.66903600  0.06388200  1
  C  C29  1  0.39573000  0.95662100  0.33742700  1
  C  C30  1  0.69278500  0.35064800  0.60521600  1
  C  C31  1  0.24625800  0.62283500  0.12818400  1
  C  C32  1  0.23856000  0.90412700  0.36327400  1
  C  C33  1  0.02945400  0.37909000  0.67961600  1
  C  C34  1  0.76144000  0.09587300  0.63672600  1
  C  C35  1  0.75374200  0.37716500  0.87181600  1
  C  C36  1  0.30721500  0.64935200  0.39478400  1
  C  C37  1  0.97054600  0.62091000  0.32038400  1
  Ni  Ni38  1  0.19007000  0.69864500  0.30143100  1
  Ni  Ni39  1  0.80993000  0.30135500  0.69856900  1
  Cu  Cu40  1  0.33539900  0.18143800  0.08620900  1
  Cu  Cu41  1  0.66460100  0.81856200  0.91379100  1
  C  C42  1  0.02503400  0.86224400  0.01885200  1
  C  C43  1  0.29264200  0.13944400  0.75908800  1
  C  C44  1  0.97292700  0.81878700  0.71629900  1
  C  C45  1  0.70735800  0.86055600  0.24091200  1
  C  C46  1  0.35886700  0.84729000  0.80952200  1
  C  C47  1  0.02707300  0.18121300  0.28370100  1
  C  C48  1  0.97496600  0.13775600  0.98114800  1
  C  C49  1  0.64113300  0.15271000  0.19047800  1
