# generated using pymatgen
data_Cu9Ni3C
_symmetry_space_group_name_H-M   'P 1'
_cell_length_a   6.06245100
_cell_length_b   8.97103300
_cell_length_c   17.05991382
_cell_angle_alpha   64.94443947
_cell_angle_beta   90.00000000
_cell_angle_gamma   90.00000000
_symmetry_Int_Tables_number   1
_chemical_formula_structural   Cu9Ni3C
_chemical_formula_sum   'Cu36 Ni12 C4'
_cell_volume   840.51720948
_cell_formula_units_Z   4
loop_
 _symmetry_equiv_pos_site_id
 _symmetry_equiv_pos_as_xyz
  1  'x, y, z'
loop_
 _atom_site_type_symbol
 _atom_site_label
 _atom_site_symmetry_multiplicity
 _atom_site_fract_x
 _atom_site_fract_y
 _atom_site_fract_z
 _atom_site_occupancy
  C  C0  1  0.76746400  0.86156100  0.09936500  1
  C  C1  1  0.26746400  0.13843900  0.40063500  1
  C  C2  1  0.23253600  0.13843900  0.90063500  1
  C  C3  1  0.73253600  0.86156100  0.59936500  1
  Ni  Ni4  1  0.09044000  0.58448700  0.30165800  1
  Ni  Ni5  1  0.59044000  0.41551300  0.19834200  1
  Ni  Ni6  1  0.90956000  0.41551300  0.69834200  1
  Ni  Ni7  1  0.40956000  0.58448700  0.80165800  1
  Ni  Ni8  1  0.13690600  0.64004100  0.02252000  1
  Ni  Ni9  1  0.63690600  0.35995900  0.47748000  1
  Ni  Ni10  1  0.86309400  0.35995900  0.97748000  1
  Ni  Ni11  1  0.36309400  0.64004100  0.52252000  1
  Ni  Ni12  1  0.31216400  0.06949100  0.14921700  1
  Ni  Ni13  1  0.81216400  0.93050900  0.35078300  1
  Ni  Ni14  1  0.68783600  0.93050900  0.85078300  1
  Ni  Ni15  1  0.18783600  0.06949100  0.64921700  1
  Cu  Cu16  1  0.81730600  0.65660100  0.25427100  1
  Cu  Cu17  1  0.31730600  0.34339900  0.24572900  1
  Cu  Cu18  1  0.18269400  0.34339900  0.74572900  1
  Cu  Cu19  1  0.68269400  0.65660100  0.75427100  1
  Cu  Cu20  1  0.08610500  0.66802100  0.38287700  1
  Cu  Cu21  1  0.58610500  0.33197900  0.11712300  1
  Cu  Cu22  1  0.91389500  0.33197900  0.61712300  1
  Cu  Cu23  1  0.41389500  0.66802100  0.88287700  1
  Cu  Cu24  1  0.00110500  0.37000600  0.36849300  1
  Cu  Cu25  1  0.50110500  0.62999400  0.13150700  1
  Cu  Cu26  1  0.99889500  0.62999400  0.63150700  1
  Cu  Cu27  1  0.49889500  0.37000600  0.86849300  1
  Cu  Cu28  1  0.96775100  0.59791200  0.11923600  1
  Cu  Cu29  1  0.46775100  0.40208800  0.38076400  1
  Cu  Cu30  1  0.03224900  0.40208800  0.88076400  1
  Cu  Cu31  1  0.53224900  0.59791200  0.61923600  1
  Cu  Cu32  1  0.91352100  0.64167600  0.94636800  1
  Cu  Cu33  1  0.41352100  0.35832400  0.55363200  1
  Cu  Cu34  1  0.08647900  0.35832400  0.05363200  1
  Cu  Cu35  1  0.58647900  0.64167600  0.44636800  1
  Cu  Cu36  1  0.10056400  0.86628600  0.99024900  1
  Cu  Cu37  1  0.60056400  0.13371400  0.50975100  1
  Cu  Cu38  1  0.89943600  0.13371400  0.00975100  1
  Cu  Cu39  1  0.39943600  0.86628600  0.49024900  1
  Cu  Cu40  1  0.55061100  0.93715600  0.20235900  1
  Cu  Cu41  1  0.05061100  0.06284400  0.29764100  1
  Cu  Cu42  1  0.44938900  0.06284400  0.79764100  1
  Cu  Cu43  1  0.94938900  0.93715600  0.70235900  1
  Cu  Cu44  1  0.10563700  0.90483200  0.17076200  1
  Cu  Cu45  1  0.60563700  0.09516800  0.32923800  1
  Cu  Cu46  1  0.89436300  0.09516800  0.82923800  1
  Cu  Cu47  1  0.39436300  0.90483200  0.67076200  1
  Cu  Cu48  1  0.40568900  0.09228500  0.04131500  1
  Cu  Cu49  1  0.90568900  0.90771500  0.45868500  1
  Cu  Cu50  1  0.59431100  0.90771500  0.95868500  1
  Cu  Cu51  1  0.09431100  0.09228500  0.54131500  1
