# generated using pymatgen
data_CuNi11C20
_symmetry_space_group_name_H-M   'P 1'
_cell_length_a   7.96443211
_cell_length_b   7.96443008
_cell_length_c   10.53017879
_cell_angle_alpha   112.22127134
_cell_angle_beta   112.22137229
_cell_angle_gamma   89.99818872
_symmetry_Int_Tables_number   1
_chemical_formula_structural   CuNi11C20
_chemical_formula_sum   'Cu1 Ni11 C20'
_cell_volume   564.39407080
_cell_formula_units_Z   1
loop_
 _symmetry_equiv_pos_site_id
 _symmetry_equiv_pos_as_xyz
  1  'x, y, z'
loop_
 _atom_site_type_symbol
 _atom_site_label
 _atom_site_symmetry_multiplicity
 _atom_site_fract_x
 _atom_site_fract_y
 _atom_site_fract_z
 _atom_site_occupancy
  Ni  Ni0  1  0.29147600  0.29147700  0.58295900  1
  Ni  Ni1  1  0.50000000  0.00000000  0.00000000  1
  Ni  Ni2  1  0.24999900  0.75000100  0.50000100  1
  Ni  Ni3  1  0.92769400  0.92769500  0.24435000  1
  Ni  Ni4  1  0.07230500  0.68334700  0.75564300  1
  Ni  Ni5  1  0.70852300  0.70852300  0.41704200  1
  Ni  Ni6  1  0.00000000  0.50000100  0.00000100  1
  Ni  Ni7  1  0.68334600  0.07230500  0.75564300  1
  Ni  Ni8  1  0.31665400  0.31665700  0.24435600  1
  Ni  Ni9  1  0.75000000  0.25000000  0.50000100  1
  Ni  Ni10  1  0.50000100  0.50000100  0.00000000  1
  Cu  Cu11  1  0.00000000  0.00000000  0.00000100  1
  C  C12  1  0.86698100  0.38005100  0.24703200  1
  C  C13  1  0.13302400  0.13302300  0.75296800  1
  C  C14  1  0.61994700  0.61994800  0.75297200  1
  C  C15  1  0.38005600  0.86697500  0.24703100  1
  C  C16  1  0.41109600  0.01481800  0.42591000  1
  C  C17  1  0.79740300  0.79740300  0.88641300  1
  C  C18  1  0.64522500  0.33480300  0.22735400  1
  C  C19  1  0.33480400  0.64522300  0.22735500  1
  C  C20  1  0.01481700  0.41109500  0.42590900  1
  C  C21  1  0.58213600  0.89255200  0.22735500  1
  C  C22  1  0.35477600  0.10744600  0.77264500  1
  C  C23  1  0.20259600  0.91099300  0.11358700  1
  C  C24  1  0.58890200  0.58890200  0.57409100  1
  C  C25  1  0.08900500  0.08900400  0.88641000  1
  C  C26  1  0.66519700  0.41786500  0.77264600  1
  C  C27  1  0.98518300  0.98518400  0.57409300  1
  C  C28  1  0.89255200  0.58213700  0.22735700  1
  C  C29  1  0.91099300  0.20259600  0.11358600  1
  C  C30  1  0.10744500  0.35477600  0.77264500  1
  C  C31  1  0.41786300  0.66519700  0.77264600  1
