# generated using pymatgen
data_Cu2Ni2C9
_symmetry_space_group_name_H-M   'P 1'
_cell_length_a   8.66098609
_cell_length_b   8.66098609
_cell_length_c   8.59950300
_cell_angle_alpha   90.00000000
_cell_angle_beta   90.00000000
_cell_angle_gamma   120.00000068
_symmetry_Int_Tables_number   1
_chemical_formula_structural   Cu2Ni2C9
_chemical_formula_sum   'Cu6 Ni6 C27'
_cell_volume   558.64853361
_cell_formula_units_Z   3
loop_
 _symmetry_equiv_pos_site_id
 _symmetry_equiv_pos_as_xyz
  1  'x, y, z'
loop_
 _atom_site_type_symbol
 _atom_site_label
 _atom_site_symmetry_multiplicity
 _atom_site_fract_x
 _atom_site_fract_y
 _atom_site_fract_z
 _atom_site_occupancy
  C  C0  1  0.35832800  0.00000000  0.50000000  1
  C  C1  1  0.00000000  0.30994900  0.00000000  1
  C  C2  1  0.30994900  0.00000000  0.00000000  1
  C  C3  1  0.64167200  0.64167200  0.50000000  1
  C  C4  1  0.69005100  0.69005100  0.00000000  1
  C  C5  1  0.00000000  0.35832800  0.50000000  1
  Ni  Ni6  1  0.00000000  0.00000000  0.70070700  1
  Ni  Ni7  1  0.66666700  0.33333300  0.22118700  1
  Ni  Ni8  1  0.33333300  0.66666700  0.77881300  1
  Ni  Ni9  1  0.00000000  0.00000000  0.29929300  1
  Ni  Ni10  1  0.33333300  0.66666700  0.18264600  1
  Ni  Ni11  1  0.66666700  0.33333300  0.81735400  1
  Cu  Cu12  1  0.33506600  0.33398400  0.25658800  1
  Cu  Cu13  1  0.33398400  0.33506600  0.74341200  1
  Cu  Cu14  1  0.00108100  0.66601600  0.74341200  1
  Cu  Cu15  1  0.99891900  0.66493400  0.25658800  1
  Cu  Cu16  1  0.66601600  0.00108100  0.25658800  1
  Cu  Cu17  1  0.66493400  0.99891900  0.74341200  1
  C  C18  1  0.72664100  0.17832200  0.29251800  1
  C  C19  1  0.27335900  0.45168100  0.70748200  1
  C  C20  1  0.15750100  0.21379600  0.22630400  1
  C  C21  1  0.45168100  0.27335900  0.29251800  1
  C  C22  1  0.21379600  0.15750100  0.77369600  1
  C  C23  1  0.88289800  0.48465700  0.74772900  1
  C  C24  1  0.39824100  0.51534300  0.25227100  1
  C  C25  1  0.33333300  0.66666700  0.98080200  1
  C  C26  1  0.11710200  0.60175900  0.25227100  1
  C  C27  1  0.82167800  0.54831900  0.29251800  1
  C  C28  1  0.17832200  0.72664100  0.70748200  1
  C  C29  1  0.48465700  0.88289800  0.25227100  1
  C  C30  1  0.94370500  0.78620400  0.77369600  1
  C  C31  1  0.51534300  0.39824100  0.74772900  1
  C  C32  1  0.05629500  0.84249900  0.22630400  1
  C  C33  1  0.78620400  0.94370500  0.22630400  1
  C  C34  1  0.54831900  0.82167800  0.70748200  1
  C  C35  1  0.66666700  0.33333300  0.01919800  1
  C  C36  1  0.00000000  0.00000000  0.50000000  1
  C  C37  1  0.84249900  0.05629500  0.77369600  1
  C  C38  1  0.60175900  0.11710200  0.74772900  1
