# generated using pymatgen
data_Cu2Ni2C7
_symmetry_space_group_name_H-M   'P 1'
_cell_length_a   5.03378800
_cell_length_b   10.74117000
_cell_length_c   11.52302100
_cell_angle_alpha   90.00000000
_cell_angle_beta   90.00000000
_cell_angle_gamma   90.00000000
_symmetry_Int_Tables_number   1
_chemical_formula_structural   Cu2Ni2C7
_chemical_formula_sum   'Cu8 Ni8 C28'
_cell_volume   623.03560271
_cell_formula_units_Z   4
loop_
 _symmetry_equiv_pos_site_id
 _symmetry_equiv_pos_as_xyz
  1  'x, y, z'
loop_
 _atom_site_type_symbol
 _atom_site_label
 _atom_site_symmetry_multiplicity
 _atom_site_fract_x
 _atom_site_fract_y
 _atom_site_fract_z
 _atom_site_occupancy
  Ni  Ni0  1  0.18117300  0.84958500  0.50072900  1
  Ni  Ni1  1  0.68117300  0.15041500  0.00072900  1
  Ni  Ni2  1  0.31882700  0.34958500  0.50072900  1
  Ni  Ni3  1  0.81882700  0.15041500  0.49927100  1
  Ni  Ni4  1  0.31882700  0.84958500  0.99927100  1
  Ni  Ni5  1  0.81882700  0.65041500  0.00072900  1
  Ni  Ni6  1  0.68117300  0.65041500  0.49927100  1
  Ni  Ni7  1  0.18117300  0.34958500  0.99927100  1
  Cu  Cu8  1  0.69372900  0.41594400  0.10171000  1
  Cu  Cu9  1  0.30627100  0.08405600  0.60171000  1
  Cu  Cu10  1  0.30627100  0.58405600  0.89829000  1
  Cu  Cu11  1  0.80627100  0.91594400  0.10171000  1
  Cu  Cu12  1  0.19372900  0.08405600  0.89829000  1
  Cu  Cu13  1  0.69372900  0.91594400  0.39829000  1
  Cu  Cu14  1  0.80627100  0.41594400  0.39829000  1
  Cu  Cu15  1  0.19372900  0.58405600  0.60171000  1
  C  C16  1  0.25000000  0.55941000  0.25000000  1
  C  C17  1  0.75000000  0.44059000  0.75000000  1
  C  C18  1  0.25000000  0.05941000  0.25000000  1
  C  C19  1  0.75000000  0.94059000  0.75000000  1
  C  C20  1  0.66038400  0.52252600  0.37652500  1
  C  C21  1  0.33961600  0.47747400  0.62347500  1
  C  C22  1  0.31814800  0.18686500  0.94681100  1
  C  C23  1  0.31814800  0.68686500  0.55318900  1
  C  C24  1  0.33961600  0.97747400  0.87652500  1
  C  C25  1  0.68185200  0.81313500  0.05318900  1
  C  C26  1  0.83961600  0.02252600  0.37652500  1
  C  C27  1  0.68185200  0.31313500  0.44681100  1
  C  C28  1  0.57797100  0.58943900  0.87535600  1
  C  C29  1  0.92202900  0.08943900  0.87535600  1
  C  C30  1  0.66038400  0.02252600  0.12347500  1
  C  C31  1  0.16038400  0.47747400  0.87652500  1
  C  C32  1  0.18185200  0.68686500  0.94681100  1
  C  C33  1  0.92202900  0.58943900  0.62464400  1
  C  C34  1  0.18185200  0.18686500  0.55318900  1
  C  C35  1  0.57797100  0.08943900  0.62464400  1
  C  C36  1  0.07797100  0.91056100  0.12464400  1
  C  C37  1  0.42202900  0.91056100  0.37535600  1
  C  C38  1  0.16038400  0.97747400  0.62347500  1
  C  C39  1  0.81814800  0.31313500  0.05318900  1
  C  C40  1  0.07797100  0.41056100  0.37535600  1
  C  C41  1  0.83961600  0.52252600  0.12347500  1
  C  C42  1  0.81814800  0.81313500  0.44681100  1
  C  C43  1  0.42202900  0.41056100  0.12464400  1
