# generated using pymatgen
data_Cu3(NiC)2
_symmetry_space_group_name_H-M   'P 1'
_cell_length_a   6.85868126
_cell_length_b   6.85868126
_cell_length_c   3.70541100
_cell_angle_alpha   90.00000000
_cell_angle_beta   90.00000000
_cell_angle_gamma   151.37957669
_symmetry_Int_Tables_number   1
_chemical_formula_structural   Cu3(NiC)2
_chemical_formula_sum   'Cu3 Ni2 C2'
_cell_volume   83.49442577
_cell_formula_units_Z   1
loop_
 _symmetry_equiv_pos_site_id
 _symmetry_equiv_pos_as_xyz
  1  'x, y, z'
loop_
 _atom_site_type_symbol
 _atom_site_label
 _atom_site_symmetry_multiplicity
 _atom_site_fract_x
 _atom_site_fract_y
 _atom_site_fract_z
 _atom_site_occupancy
  C  C0  1  0.86297700  0.13702300  0.00000000  1
  C  C1  1  0.13702300  0.86297700  0.00000000  1
  Ni  Ni2  1  0.71678900  0.28321100  0.50000000  1
  Ni  Ni3  1  0.28321100  0.71678900  0.50000000  1
  Cu  Cu4  1  0.39941100  0.60058900  0.50000000  1
  Cu  Cu5  1  0.50000000  0.50000000  0.50000000  1
  Cu  Cu6  1  0.60058900  0.39941100  0.50000000  1
