# generated using pymatgen
data_Cu5(NiC)2
_symmetry_space_group_name_H-M   'P 1'
_cell_length_a   10.19472350
_cell_length_b   10.19472350
_cell_length_c   14.45990950
_cell_angle_alpha   65.90506812
_cell_angle_beta   65.90506812
_cell_angle_gamma   57.14074440
_symmetry_Int_Tables_number   1
_chemical_formula_structural   Cu5(NiC)2
_chemical_formula_sum   'Cu20 Ni8 C8'
_cell_volume   1117.71710984
_cell_formula_units_Z   4
loop_
 _symmetry_equiv_pos_site_id
 _symmetry_equiv_pos_as_xyz
  1  'x, y, z'
loop_
 _atom_site_type_symbol
 _atom_site_label
 _atom_site_symmetry_multiplicity
 _atom_site_fract_x
 _atom_site_fract_y
 _atom_site_fract_z
 _atom_site_occupancy
  C  C0  1  0.23706900  0.61450300  0.73920100  1
  C  C1  1  0.38549700  0.76293100  0.76079900  1
  C  C2  1  0.76293100  0.38549700  0.26079900  1
  C  C3  1  0.61450300  0.23706900  0.23920100  1
  C  C4  1  0.91976100  0.77788500  0.73890700  1
  C  C5  1  0.77788500  0.91976100  0.23890700  1
  C  C6  1  0.08023900  0.22211500  0.26109300  1
  C  C7  1  0.22211500  0.08023900  0.76109300  1
  Ni  Ni8  1  0.54063400  0.33571900  0.39148600  1
  Ni  Ni9  1  0.66428100  0.45936600  0.10851400  1
  Ni  Ni10  1  0.75363400  0.13517600  0.37627100  1
  Ni  Ni11  1  0.86482400  0.24636600  0.12372900  1
  Ni  Ni12  1  0.13517600  0.75363400  0.87627100  1
  Ni  Ni13  1  0.24636600  0.86482400  0.62372900  1
  Ni  Ni14  1  0.33571900  0.54063400  0.89148600  1
  Ni  Ni15  1  0.45936600  0.66428100  0.60851400  1
  Cu  Cu16  1  0.86398400  0.02495700  0.63326600  1
  Cu  Cu17  1  0.86407500  0.76707300  0.38479100  1
  Cu  Cu18  1  0.48267500  0.06389700  0.35299700  1
  Cu  Cu19  1  0.76707300  0.86407500  0.88479100  1
  Cu  Cu20  1  0.13592500  0.23292700  0.61520900  1
  Cu  Cu21  1  0.38040100  0.83798800  0.90477600  1
  Cu  Cu22  1  0.65513300  0.56526800  0.77077100  1
  Cu  Cu23  1  0.23292700  0.13592500  0.11520900  1
  Cu  Cu24  1  0.51732500  0.93610300  0.64700300  1
  Cu  Cu25  1  0.83798800  0.38040100  0.40477600  1
  Cu  Cu26  1  0.13601600  0.97504300  0.36673400  1
  Cu  Cu27  1  0.02495700  0.86398400  0.13326600  1
  Cu  Cu28  1  0.93610300  0.51732500  0.14700300  1
  Cu  Cu29  1  0.61959900  0.16201200  0.09522400  1
  Cu  Cu30  1  0.16201200  0.61959900  0.59522400  1
  Cu  Cu31  1  0.06389700  0.48267500  0.85299700  1
  Cu  Cu32  1  0.97504300  0.13601600  0.86673400  1
  Cu  Cu33  1  0.43473200  0.34486700  0.72922900  1
  Cu  Cu34  1  0.34486700  0.43473200  0.22922900  1
  Cu  Cu35  1  0.56526800  0.65513300  0.27077100  1
