# generated using pymatgen
data_Cu(Ni5C4)2
_symmetry_space_group_name_H-M   'P 1'
_cell_length_a   10.57722356
_cell_length_b   10.57722356
_cell_length_c   9.03490046
_cell_angle_alpha   79.94183158
_cell_angle_beta   79.94183158
_cell_angle_gamma   90.66119487
_symmetry_Int_Tables_number   1
_chemical_formula_structural   Cu(Ni5C4)2
_chemical_formula_sum   'Cu2 Ni20 C16'
_cell_volume   979.05025480
_cell_formula_units_Z   2
loop_
 _symmetry_equiv_pos_site_id
 _symmetry_equiv_pos_as_xyz
  1  'x, y, z'
loop_
 _atom_site_type_symbol
 _atom_site_label
 _atom_site_symmetry_multiplicity
 _atom_site_fract_x
 _atom_site_fract_y
 _atom_site_fract_z
 _atom_site_occupancy
  C  C0  1  0.29523800  0.44274300  0.13628000  1
  C  C1  1  0.71311800  0.96936000  0.87587600  1
  C  C2  1  0.96936000  0.71311800  0.37587600  1
  C  C3  1  0.55725700  0.70476200  0.36372000  1
  C  C4  1  0.44274300  0.29523800  0.63628000  1
  C  C5  1  0.03064000  0.28688200  0.62412400  1
  C  C6  1  0.70476200  0.55725700  0.86372000  1
  C  C7  1  0.28688200  0.03064000  0.12412400  1
  C  C8  1  0.95177300  0.23174500  0.11475200  1
  C  C9  1  0.04822700  0.76825500  0.88524800  1
  C  C10  1  0.64700500  0.22758400  0.12732600  1
  C  C11  1  0.77241600  0.35299500  0.37267400  1
  C  C12  1  0.22758400  0.64700500  0.62732600  1
  C  C13  1  0.35299500  0.77241600  0.87267400  1
  C  C14  1  0.76825500  0.04822700  0.38524800  1
  C  C15  1  0.23174500  0.95177300  0.61475200  1
  Ni  Ni16  1  0.14617600  0.26561800  0.95886400  1
  Ni  Ni17  1  0.97874700  0.02125300  0.25000000  1
  Ni  Ni18  1  0.73438200  0.85382400  0.54113600  1
  Ni  Ni19  1  0.39871200  0.98871000  0.77636500  1
  Ni  Ni20  1  0.26132900  0.49468300  0.48132000  1
  Ni  Ni21  1  0.01129000  0.60128800  0.72363500  1
  Ni  Ni22  1  0.82580400  0.27736000  0.91849000  1
  Ni  Ni23  1  0.41187600  0.58812400  0.75000000  1
  Ni  Ni24  1  0.49468300  0.26132900  0.98132000  1
  Ni  Ni25  1  0.02125300  0.97874700  0.75000000  1
  Ni  Ni26  1  0.27736000  0.82580400  0.41849000  1
  Ni  Ni27  1  0.98871000  0.39871200  0.27636500  1
  Ni  Ni28  1  0.85382400  0.73438200  0.04113600  1
  Ni  Ni29  1  0.73867100  0.50531700  0.51868000  1
  Ni  Ni30  1  0.60128800  0.01129000  0.22363500  1
  Ni  Ni31  1  0.72264000  0.17419600  0.58151000  1
  Ni  Ni32  1  0.17419600  0.72264000  0.08151000  1
  Ni  Ni33  1  0.58812400  0.41187600  0.25000000  1
  Ni  Ni34  1  0.26561800  0.14617600  0.45886400  1
  Ni  Ni35  1  0.50531700  0.73867100  0.01868000  1
  Cu  Cu36  1  0.21907200  0.78092800  0.75000000  1
  Cu  Cu37  1  0.78092800  0.21907200  0.25000000  1
