# generated using pymatgen
data_Cu2Ni5C21
_symmetry_space_group_name_H-M   'P 1'
_cell_length_a   9.00807006
_cell_length_b   9.00807006
_cell_length_c   10.62144965
_cell_angle_alpha   72.24236189
_cell_angle_beta   72.24236189
_cell_angle_gamma   102.99813822
_symmetry_Int_Tables_number   1
_chemical_formula_structural   Cu2Ni5C21
_chemical_formula_sum   'Cu4 Ni10 C42'
_cell_volume   732.10592617
_cell_formula_units_Z   2
loop_
 _symmetry_equiv_pos_site_id
 _symmetry_equiv_pos_as_xyz
  1  'x, y, z'
loop_
 _atom_site_type_symbol
 _atom_site_label
 _atom_site_symmetry_multiplicity
 _atom_site_fract_x
 _atom_site_fract_y
 _atom_site_fract_z
 _atom_site_occupancy
  Ni  Ni0  1  0.57928400  0.32061900  0.55729400  1
  Ni  Ni1  1  0.77227800  0.74389500  0.38216900  1
  Ni  Ni2  1  0.32061900  0.57928400  0.05729400  1
  Ni  Ni3  1  0.88721700  0.24252200  0.72487300  1
  Ni  Ni4  1  0.81563200  0.07358200  0.51320300  1
  Ni  Ni5  1  0.07358200  0.81563200  0.01320300  1
  Ni  Ni6  1  0.28112700  0.26878200  0.37064400  1
  Ni  Ni7  1  0.74389500  0.77227800  0.88216900  1
  Ni  Ni8  1  0.26878200  0.28112700  0.87064400  1
  Ni  Ni9  1  0.24252200  0.88721700  0.22487300  1
  Cu  Cu10  1  0.01443000  0.80002400  0.57118200  1
  Cu  Cu11  1  0.80002400  0.01443000  0.07118200  1
  Cu  Cu12  1  0.55140600  0.33144200  0.03003100  1
  Cu  Cu13  1  0.33144200  0.55140600  0.53003100  1
  C  C14  1  0.40813100  0.92625600  0.66695200  1
  C  C15  1  0.92625600  0.40813100  0.16695200  1
  C  C16  1  0.47212900  0.96808700  0.36895000  1
  C  C17  1  0.01445500  0.50271100  0.39519200  1
  C  C18  1  0.06815300  0.12927400  0.21580300  1
  C  C19  1  0.55444000  0.64319000  0.70963100  1
  C  C20  1  0.64319000  0.55444000  0.20963100  1
  C  C21  1  0.96808700  0.47212900  0.86895000  1
  C  C22  1  0.12927400  0.06815300  0.71580300  1
  C  C23  1  0.50271100  0.01445500  0.89519200  1
  C  C24  1  0.48063000  0.17490100  0.90646300  1
  C  C25  1  0.20167900  0.91975000  0.73847100  1
  C  C26  1  0.27431600  0.23344400  0.61411400  1
  C  C27  1  0.60740800  0.89785900  0.31393800  1
  C  C28  1  0.17490100  0.48063000  0.40646300  1
  C  C29  1  0.03779300  0.53430500  0.23139500  1
  C  C30  1  0.56721200  0.53165800  0.36773700  1
  C  C31  1  0.04588100  0.51027700  0.97695900  1
  C  C32  1  0.45920600  0.09949500  0.24474600  1
  C  C33  1  0.50985300  0.51293100  0.15079000  1
  C  C34  1  0.66109500  0.99357500  0.91499600  1
  C  C35  1  0.73010200  0.77695700  0.61265600  1
  C  C36  1  0.23344400  0.27431600  0.11411400  1
  C  C37  1  0.72794500  0.41869300  0.20504600  1
  C  C38  1  0.99898600  0.02410800  0.65368800  1
  C  C39  1  0.53165800  0.56721200  0.86773700  1
  C  C40  1  0.02410800  0.99898600  0.15368800  1
  C  C41  1  0.77695700  0.73010200  0.11265600  1
  C  C42  1  0.51027700  0.04588100  0.47695900  1
  C  C43  1  0.29988400  0.82272900  0.45884100  1
  C  C44  1  0.06669200  0.04368100  0.36630100  1
  C  C45  1  0.89785900  0.60740800  0.81393800  1
  C  C46  1  0.82272900  0.29988400  0.95884100  1
  C  C47  1  0.99357500  0.66109500  0.41499600  1
  C  C48  1  0.91975000  0.20167900  0.23847100  1
  C  C49  1  0.41869300  0.72794500  0.70504600  1
  C  C50  1  0.34605200  0.86002200  0.99917400  1
  C  C51  1  0.04368100  0.06669200  0.86630100  1
  C  C52  1  0.86002200  0.34605200  0.49917400  1
  C  C53  1  0.09949500  0.45920600  0.74474600  1
  C  C54  1  0.53430500  0.03779300  0.73139500  1
  C  C55  1  0.51293100  0.50985300  0.65079000  1
