# generated using pymatgen
data_Cu7(NiC)2
_symmetry_space_group_name_H-M   'P 1'
_cell_length_a   8.28300619
_cell_length_b   8.28300619
_cell_length_c   12.07042151
_cell_angle_alpha   63.64374741
_cell_angle_beta   63.64374741
_cell_angle_gamma   49.00319733
_symmetry_Int_Tables_number   1
_chemical_formula_structural   Cu7(NiC)2
_chemical_formula_sum   'Cu14 Ni4 C4'
_cell_volume   545.59159009
_cell_formula_units_Z   2
loop_
 _symmetry_equiv_pos_site_id
 _symmetry_equiv_pos_as_xyz
  1  'x, y, z'
loop_
 _atom_site_type_symbol
 _atom_site_label
 _atom_site_symmetry_multiplicity
 _atom_site_fract_x
 _atom_site_fract_y
 _atom_site_fract_z
 _atom_site_occupancy
  C  C0  1  0.89336100  0.32668000  0.95703300  1
  C  C1  1  0.67332000  0.10663900  0.54296700  1
  C  C2  1  0.10663900  0.67332000  0.04296700  1
  C  C3  1  0.32668000  0.89336100  0.45703300  1
  Ni  Ni4  1  0.60216700  0.16265300  0.84963800  1
  Ni  Ni5  1  0.83734700  0.39783300  0.65036200  1
  Ni  Ni6  1  0.39783300  0.83734700  0.15036200  1
  Ni  Ni7  1  0.16265300  0.60216700  0.34963800  1
  Cu  Cu8  1  0.52462500  0.47537500  0.75000000  1
  Cu  Cu9  1  0.47537500  0.52462500  0.25000000  1
  Cu  Cu10  1  0.44167600  0.80102600  0.98024100  1
  Cu  Cu11  1  0.19897400  0.55832400  0.51975900  1
  Cu  Cu12  1  0.55832400  0.19897400  0.01975900  1
  Cu  Cu13  1  0.80102600  0.44167600  0.48024100  1
  Cu  Cu14  1  0.37875800  0.14481100  0.83166700  1
  Cu  Cu15  1  0.85518900  0.62124200  0.66833300  1
  Cu  Cu16  1  0.62124200  0.85518900  0.16833300  1
  Cu  Cu17  1  0.14481100  0.37875800  0.33166700  1
  Cu  Cu18  1  0.90920000  0.91615800  0.77606200  1
  Cu  Cu19  1  0.08384200  0.09080000  0.72393800  1
  Cu  Cu20  1  0.09080000  0.08384200  0.22393800  1
  Cu  Cu21  1  0.91615800  0.90920000  0.27606200  1
