# generated using pymatgen
data_Cu(Ni3C4)2
_symmetry_space_group_name_H-M   'P 1'
_cell_length_a   6.60563033
_cell_length_b   6.60563033
_cell_length_c   6.60563033
_cell_angle_alpha   60.00000000
_cell_angle_beta   60.00000000
_cell_angle_gamma   60.00000000
_symmetry_Int_Tables_number   1
_chemical_formula_structural   Cu(Ni3C4)2
_chemical_formula_sum   'Cu1 Ni6 C8'
_cell_volume   203.81108411
_cell_formula_units_Z   1
loop_
 _symmetry_equiv_pos_site_id
 _symmetry_equiv_pos_as_xyz
  1  'x, y, z'
loop_
 _atom_site_type_symbol
 _atom_site_label
 _atom_site_symmetry_multiplicity
 _atom_site_fract_x
 _atom_site_fract_y
 _atom_site_fract_z
 _atom_site_occupancy
  Ni  Ni0  1  0.50000000  0.00000000  0.50000000  1
  Ni  Ni1  1  0.50000000  0.00000000  0.00000000  1
  Ni  Ni2  1  0.00000000  0.00000000  0.50000000  1
  Ni  Ni3  1  0.00000000  0.50000000  0.00000000  1
  Ni  Ni4  1  0.00000000  0.50000000  0.50000000  1
  Ni  Ni5  1  0.50000000  0.50000000  0.00000000  1
  Cu  Cu6  1  0.00000000  0.00000000  0.00000000  1
  C  C7  1  0.85576100  0.43271700  0.85576100  1
  C  C8  1  0.14423900  0.14423900  0.14423900  1
  C  C9  1  0.85576100  0.85576100  0.85576100  1
  C  C10  1  0.56728300  0.14423900  0.14423900  1
  C  C11  1  0.85576100  0.85576100  0.43271700  1
  C  C12  1  0.43271700  0.85576100  0.85576100  1
  C  C13  1  0.14423900  0.14423900  0.56728300  1
  C  C14  1  0.14423900  0.56728300  0.14423900  1
