# generated using pymatgen
data_CuNi3C17
_symmetry_space_group_name_H-M   'P 1'
_cell_length_a   10.43919606
_cell_length_b   10.43919606
_cell_length_c   7.74703800
_cell_angle_alpha   90.00000000
_cell_angle_beta   90.00000000
_cell_angle_gamma   120.00000038
_symmetry_Int_Tables_number   1
_chemical_formula_structural   CuNi3C17
_chemical_formula_sum   'Cu2 Ni6 C34'
_cell_volume   731.13979840
_cell_formula_units_Z   2
loop_
 _symmetry_equiv_pos_site_id
 _symmetry_equiv_pos_as_xyz
  1  'x, y, z'
loop_
 _atom_site_type_symbol
 _atom_site_label
 _atom_site_symmetry_multiplicity
 _atom_site_fract_x
 _atom_site_fract_y
 _atom_site_fract_z
 _atom_site_occupancy
  C  C0  1  0.66666700  0.33333300  0.00012500  1
  C  C1  1  0.75327200  0.74033100  0.75000000  1
  C  C2  1  0.24672800  0.25966900  0.25000000  1
  C  C3  1  0.25966900  0.01294100  0.75000000  1
  C  C4  1  0.01294100  0.75327200  0.25000000  1
  C  C5  1  0.33333300  0.66666700  0.50012500  1
  C  C6  1  0.66666700  0.33333300  0.49987500  1
  C  C7  1  0.98705900  0.24672800  0.75000000  1
  C  C8  1  0.74033100  0.98705900  0.25000000  1
  C  C9  1  0.33333300  0.66666700  0.99987500  1
  Ni  Ni10  1  0.59353200  0.96504200  0.75000000  1
  Ni  Ni11  1  0.37151000  0.40646800  0.75000000  1
  Ni  Ni12  1  0.62849000  0.59353200  0.25000000  1
  Ni  Ni13  1  0.40646800  0.03495800  0.25000000  1
  Ni  Ni14  1  0.96504200  0.37151000  0.25000000  1
  Ni  Ni15  1  0.03495800  0.62849000  0.75000000  1
  Cu  Cu16  1  0.00000000  0.00000000  0.00000000  1
  Cu  Cu17  1  0.00000000  0.00000000  0.50000000  1
  C  C18  1  0.08533500  0.72921000  0.58668600  1
  C  C19  1  0.35612500  0.08533500  0.08668600  1
  C  C20  1  0.52240200  0.65856600  0.25000000  1
  C  C21  1  0.47759800  0.34143400  0.75000000  1
  C  C22  1  0.91466500  0.27079000  0.41331400  1
  C  C23  1  0.34143400  0.86383600  0.25000000  1
  C  C24  1  0.46308700  0.57968000  0.75000000  1
  C  C25  1  0.27079000  0.35612500  0.58668600  1
  C  C26  1  0.86383600  0.52240200  0.75000000  1
  C  C27  1  0.72921000  0.64387500  0.08668600  1
  C  C28  1  0.42032000  0.88340600  0.75000000  1
  C  C29  1  0.91466500  0.27079000  0.08668600  1
  C  C30  1  0.64387500  0.91466500  0.91331400  1
  C  C31  1  0.57968000  0.11659400  0.25000000  1
  C  C32  1  0.53691300  0.42032000  0.25000000  1
  C  C33  1  0.88340600  0.46308700  0.25000000  1
  C  C34  1  0.64387500  0.91466500  0.58668600  1
  C  C35  1  0.35612500  0.08533500  0.41331400  1
  C  C36  1  0.65856600  0.13616400  0.75000000  1
  C  C37  1  0.11659400  0.53691300  0.75000000  1
  C  C38  1  0.27079000  0.35612500  0.91331400  1
  C  C39  1  0.72921000  0.64387500  0.41331400  1
  C  C40  1  0.08533500  0.72921000  0.91331400  1
  C  C41  1  0.13616400  0.47759800  0.25000000  1
