# generated using pymatgen
data_Cu10NiC4
_symmetry_space_group_name_H-M   'P 1'
_cell_length_a   10.40650400
_cell_length_b   16.44836400
_cell_length_c   20.72638900
_cell_angle_alpha   90.00000000
_cell_angle_beta   90.00000000
_cell_angle_gamma   90.00000000
_symmetry_Int_Tables_number   1
_chemical_formula_structural   Cu10NiC4
_chemical_formula_sum   'Cu80 Ni8 C32'
_cell_volume   3547.73529545
_cell_formula_units_Z   8
loop_
 _symmetry_equiv_pos_site_id
 _symmetry_equiv_pos_as_xyz
  1  'x, y, z'
loop_
 _atom_site_type_symbol
 _atom_site_label
 _atom_site_symmetry_multiplicity
 _atom_site_fract_x
 _atom_site_fract_y
 _atom_site_fract_z
 _atom_site_occupancy
  C  C0  1  0.79776100  0.58330100  0.36968400  1
  C  C1  1  0.70223900  0.08330100  0.36968400  1
  C  C2  1  0.79776100  0.91669900  0.86968400  1
  C  C3  1  0.29776100  0.91669900  0.63031600  1
  C  C4  1  0.70223900  0.41669900  0.86968400  1
  C  C5  1  0.20223900  0.41669900  0.63031600  1
  C  C6  1  0.20223900  0.08330100  0.13031600  1
  C  C7  1  0.29776100  0.58330100  0.13031600  1
  C  C8  1  0.65844700  0.64687200  0.65464900  1
  C  C9  1  0.15844700  0.85312800  0.34535100  1
  C  C10  1  0.19338400  0.27963100  0.90525500  1
  C  C11  1  0.80661600  0.77963100  0.59474500  1
  C  C12  1  0.84155300  0.14687200  0.65464900  1
  C  C13  1  0.80661600  0.72036900  0.09474500  1
  C  C14  1  0.15844700  0.64687200  0.84535100  1
  C  C15  1  0.34155300  0.35312800  0.34535100  1
  C  C16  1  0.19338400  0.22036900  0.40525500  1
  C  C17  1  0.65844700  0.85312800  0.15464900  1
  C  C18  1  0.30661600  0.72036900  0.40525500  1
  C  C19  1  0.30661600  0.77963100  0.90525500  1
  C  C20  1  0.69338400  0.22036900  0.09474500  1
  C  C21  1  0.84155300  0.35312800  0.15464900  1
  C  C22  1  0.69338400  0.27963100  0.59474500  1
  C  C23  1  0.34155300  0.14687200  0.84535100  1
  Ni  Ni24  1  0.19295300  0.71959500  0.89112900  1
  Ni  Ni25  1  0.80704700  0.21959500  0.60887100  1
  Ni  Ni26  1  0.80704700  0.28040500  0.10887100  1
  Ni  Ni27  1  0.30704700  0.21959500  0.89112900  1
  Ni  Ni28  1  0.69295300  0.78040500  0.10887100  1
  Ni  Ni29  1  0.69295300  0.71959500  0.60887100  1
  Ni  Ni30  1  0.30704700  0.28040500  0.39112900  1
  Ni  Ni31  1  0.19295300  0.78040500  0.39112900  1
  Cu  Cu32  1  0.37541900  0.66497500  0.32730200  1
  Cu  Cu33  1  0.62458100  0.16497500  0.17269800  1
  Cu  Cu34  1  0.37337400  0.18204500  0.75516600  1
  Cu  Cu35  1  0.99445200  0.59919300  0.32065700  1
  Cu  Cu36  1  0.79381000  0.77884800  0.88113700  1
  Cu  Cu37  1  0.16550600  0.57631800  0.04213400  1
  Cu  Cu38  1  0.79381000  0.72115200  0.38113700  1
  Cu  Cu39  1  0.12662600  0.68204500  0.75516600  1
  Cu  Cu40  1  0.12458100  0.33502500  0.82730200  1
  Cu  Cu41  1  0.49445200  0.90080700  0.67934300  1
  Cu  Cu42  1  0.16550600  0.92368200  0.54213400  1
  Cu  Cu43  1  0.49876700  0.09292400  0.87627100  1
  Cu  Cu44  1  0.83449400  0.07631800  0.45786600  1
  Cu  Cu45  1  0.99876700  0.40707600  0.12372900  1
  Cu  Cu46  1  0.74787700  0.63529500  0.03445500  1
  Cu  Cu47  1  0.20619000  0.22115200  0.11886300  1
  Cu  Cu48  1  0.00554800  0.09919300  0.17934300  1
  Cu  Cu49  1  0.12662600  0.81795500  0.25516600  1
  Cu  Cu50  1  0.25212300  0.13529500  0.46554500  1
  Cu  Cu51  1  0.36869400  0.04382000  0.60110800  1
  Cu  Cu52  1  0.83449400  0.42368200  0.95786600  1
  Cu  Cu53  1  0.63130600  0.95618000  0.39889200  1
  Cu  Cu54  1  0.99445200  0.90080700  0.82065700  1
  Cu  Cu55  1  0.87541900  0.66497500  0.17269800  1
  Cu  Cu56  1  0.00123300  0.90707600  0.37627100  1
  Cu  Cu57  1  0.25212300  0.36470500  0.96554500  1
  Cu  Cu58  1  0.95551300  0.77463200  0.05374400  1
  Cu  Cu59  1  0.62662600  0.68204500  0.74483400  1
  Cu  Cu60  1  0.75212300  0.36470500  0.53445500  1
  Cu  Cu61  1  0.49876700  0.40707600  0.37627100  1
  Cu  Cu62  1  0.86869400  0.45618000  0.39889200  1
  Cu  Cu63  1  0.54448700  0.27463200  0.05374400  1
  Cu  Cu64  1  0.33449400  0.42368200  0.54213400  1
  Cu  Cu65  1  0.00123300  0.59292400  0.87627100  1
  Cu  Cu66  1  0.20598700  0.06198400  0.83969900  1
  Cu  Cu67  1  0.70619000  0.27884800  0.88113700  1
  Cu  Cu68  1  0.50554800  0.40080700  0.82065700  1
  Cu  Cu69  1  0.37337400  0.31795500  0.25516600  1
  Cu  Cu70  1  0.87337400  0.31795500  0.24483400  1
  Cu  Cu71  1  0.95551300  0.72536800  0.55374400  1
  Cu  Cu72  1  0.29401300  0.93801600  0.33969900  1
  Cu  Cu73  1  0.24787700  0.86470500  0.96554500  1
  Cu  Cu74  1  0.33449400  0.07631800  0.04213400  1
  Cu  Cu75  1  0.45551300  0.77463200  0.44625600  1
  Cu  Cu76  1  0.37541900  0.83502500  0.82730200  1
  Cu  Cu77  1  0.79401300  0.56198400  0.66030100  1
  Cu  Cu78  1  0.29381000  0.77884800  0.61886300  1
  Cu  Cu79  1  0.00554800  0.40080700  0.67934300  1
  Cu  Cu80  1  0.04448700  0.27463200  0.44625600  1
  Cu  Cu81  1  0.50554800  0.09919300  0.32065700  1
  Cu  Cu82  1  0.62662600  0.81795500  0.24483400  1
  Cu  Cu83  1  0.04448700  0.22536800  0.94625600  1
  Cu  Cu84  1  0.13130600  0.95618000  0.10110800  1
  Cu  Cu85  1  0.54448700  0.22536800  0.55374400  1
  Cu  Cu86  1  0.87541900  0.83502500  0.67269800  1
  Cu  Cu87  1  0.70619000  0.22115200  0.38113700  1
  Cu  Cu88  1  0.63130600  0.54382000  0.89889200  1
  Cu  Cu89  1  0.20619000  0.27884800  0.61886300  1
  Cu  Cu90  1  0.70598700  0.43801600  0.16030100  1
  Cu  Cu91  1  0.62458100  0.33502500  0.67269800  1
  Cu  Cu92  1  0.99876700  0.09292400  0.62372900  1
  Cu  Cu93  1  0.49445200  0.59919300  0.17934300  1
  Cu  Cu94  1  0.66550600  0.92368200  0.95786600  1
  Cu  Cu95  1  0.75212300  0.13529500  0.03445500  1
  Cu  Cu96  1  0.79401300  0.93801600  0.16030100  1
  Cu  Cu97  1  0.74787700  0.86470500  0.53445500  1
  Cu  Cu98  1  0.50123300  0.59292400  0.62372900  1
  Cu  Cu99  1  0.12458100  0.16497500  0.32730200  1
  Cu  Cu100  1  0.70598700  0.06198400  0.66030100  1
  Cu  Cu101  1  0.29401300  0.56198400  0.83969900  1
  Cu  Cu102  1  0.87337400  0.18204500  0.74483400  1
  Cu  Cu103  1  0.13130600  0.54382000  0.60110800  1
  Cu  Cu104  1  0.29381000  0.72115200  0.11886300  1
  Cu  Cu105  1  0.20598700  0.43801600  0.33969900  1
  Cu  Cu106  1  0.45551300  0.72536800  0.94625600  1
  Cu  Cu107  1  0.86869400  0.04382000  0.89889200  1
  Cu  Cu108  1  0.66550600  0.57631800  0.45786600  1
  Cu  Cu109  1  0.50123300  0.90707600  0.12372900  1
  Cu  Cu110  1  0.36869400  0.45618000  0.10110800  1
  Cu  Cu111  1  0.24787700  0.63529500  0.46554500  1
  C  C112  1  0.70288200  0.56629900  0.31026800  1
  C  C113  1  0.79711800  0.43370100  0.81026800  1
  C  C114  1  0.29711800  0.43370100  0.68973200  1
  C  C115  1  0.20288200  0.56629900  0.18973200  1
  C  C116  1  0.29711800  0.06629900  0.18973200  1
  C  C117  1  0.79711800  0.06629900  0.31026800  1
  C  C118  1  0.20288200  0.93370100  0.68973200  1
  C  C119  1  0.70288200  0.93370100  0.81026800  1
