# generated using pymatgen
data_Cu6Ni2C7
_symmetry_space_group_name_H-M   'P 1'
_cell_length_a   11.85762300
_cell_length_b   8.42418800
_cell_length_c   8.85654871
_cell_angle_alpha   67.91689279
_cell_angle_beta   90.00000000
_cell_angle_gamma   90.00000000
_symmetry_Int_Tables_number   1
_chemical_formula_structural   Cu6Ni2C7
_chemical_formula_sum   'Cu12 Ni4 C14'
_cell_volume   819.78698685
_cell_formula_units_Z   2
loop_
 _symmetry_equiv_pos_site_id
 _symmetry_equiv_pos_as_xyz
  1  'x, y, z'
loop_
 _atom_site_type_symbol
 _atom_site_label
 _atom_site_symmetry_multiplicity
 _atom_site_fract_x
 _atom_site_fract_y
 _atom_site_fract_z
 _atom_site_occupancy
  C  C0  1  0.32724100  0.98906700  0.00768800  1
  C  C1  1  0.22085100  0.69204200  0.45650000  1
  C  C2  1  0.56198900  0.28287100  0.22559700  1
  C  C3  1  0.82724100  0.51093300  0.99231200  1
  C  C4  1  0.43801100  0.71712900  0.77440300  1
  C  C5  1  0.77914900  0.30795800  0.54350000  1
  C  C6  1  0.06198900  0.21712900  0.77440300  1
  C  C7  1  0.93801100  0.78287100  0.22559700  1
  C  C8  1  0.27914900  0.19204200  0.45650000  1
  C  C9  1  0.72085100  0.80795800  0.54350000  1
  C  C10  1  0.67275900  0.01093300  0.99231200  1
  C  C11  1  0.17275900  0.48906700  0.00768800  1
  Ni  Ni12  1  0.48986700  0.35022800  0.68452200  1
  Ni  Ni13  1  0.98986700  0.14977200  0.31547800  1
  Ni  Ni14  1  0.51013300  0.64977200  0.31547800  1
  Ni  Ni15  1  0.01013300  0.85022800  0.68452200  1
  Cu  Cu16  1  0.97724400  0.60979400  0.66508200  1
  Cu  Cu17  1  0.88442300  0.91167200  0.82670300  1
  Cu  Cu18  1  0.82139800  0.13029800  0.23930700  1
  Cu  Cu19  1  0.61557700  0.41167200  0.82670300  1
  Cu  Cu20  1  0.32139800  0.36970200  0.76069300  1
  Cu  Cu21  1  0.11557700  0.08832800  0.17329700  1
  Cu  Cu22  1  0.47724400  0.89020600  0.33491800  1
  Cu  Cu23  1  0.38442300  0.58832800  0.17329700  1
  Cu  Cu24  1  0.02275600  0.39020600  0.33491800  1
  Cu  Cu25  1  0.67860200  0.63029800  0.23930700  1
  Cu  Cu26  1  0.52275600  0.10979400  0.66508200  1
  Cu  Cu27  1  0.17860200  0.86970200  0.76069300  1
  C  C28  1  0.50000000  0.50000000  0.50000000  1
  C  C29  1  0.00000000  0.00000000  0.50000000  1
