# generated using pymatgen
data_CuNi
_symmetry_space_group_name_H-M   'P 1'
_cell_length_a   3.09491747
_cell_length_b   3.09491747
_cell_length_c   53.13655200
_cell_angle_alpha   90.00000000
_cell_angle_beta   90.00000000
_cell_angle_gamma   119.99998870
_symmetry_Int_Tables_number   1
_chemical_formula_structural   CuNi
_chemical_formula_sum   'Cu21 Ni21'
_cell_volume   440.78032049
_cell_formula_units_Z   21
loop_
 _symmetry_equiv_pos_site_id
 _symmetry_equiv_pos_as_xyz
  1  'x, y, z'
loop_
 _atom_site_type_symbol
 _atom_site_label
 _atom_site_symmetry_multiplicity
 _atom_site_fract_x
 _atom_site_fract_y
 _atom_site_fract_z
 _atom_site_occupancy
  Ni  Ni0  1  0.00000000  0.00000000  0.47620200  1
  Ni  Ni1  1  0.00000000  0.00000000  0.19048900  1
  Ni  Ni2  1  0.66666700  0.33333300  0.61906700  1
  Ni  Ni3  1  0.00000000  0.00000000  0.09520900  1
  Ni  Ni4  1  0.66666700  0.33333300  0.76188200  1
  Ni  Ni5  1  0.00000000  0.00000000  0.90477000  1
  Ni  Ni6  1  0.33333300  0.66666700  0.71426900  1
  Ni  Ni7  1  0.33333300  0.66666700  0.28569800  1
  Ni  Ni8  1  0.66666700  0.33333300  0.95234200  1
  Ni  Ni9  1  0.66666700  0.33333300  0.52376700  1
  Ni  Ni10  1  0.33333300  0.66666700  0.14285500  1
  Ni  Ni11  1  0.66666700  0.33333300  0.23805300  1
  Ni  Ni12  1  0.33333300  0.66666700  0.99999500  1
  Ni  Ni13  1  0.33333300  0.66666700  0.42855900  1
  Ni  Ni14  1  0.66666700  0.33333300  0.33333100  1
  Ni  Ni15  1  0.66666700  0.33333300  0.04763900  1
  Ni  Ni16  1  0.00000000  0.00000000  0.80947300  1
  Ni  Ni17  1  0.00000000  0.00000000  0.66665800  1
  Ni  Ni18  1  0.33333300  0.66666700  0.57141800  1
  Ni  Ni19  1  0.00000000  0.00000000  0.38090100  1
  Ni  Ni20  1  0.33333300  0.66666700  0.85712700  1
  Cu  Cu21  1  0.66666700  0.33333300  0.27375900  1
  Cu  Cu22  1  0.00000000  0.00000000  0.70239200  1
  Cu  Cu23  1  0.00000000  0.00000000  0.94047900  1
  Cu  Cu24  1  0.66666700  0.33333300  0.65478700  1
  Cu  Cu25  1  0.66666700  0.33333300  0.79761600  1
  Cu  Cu26  1  0.33333300  0.66666700  0.32150400  1
  Cu  Cu27  1  0.66666700  0.33333300  0.08336300  1
  Cu  Cu28  1  0.33333300  0.66666700  0.60723700  1
  Cu  Cu29  1  0.33333300  0.66666700  0.03582100  1
  Cu  Cu30  1  0.00000000  0.00000000  0.22619400  1
  Cu  Cu31  1  0.33333300  0.66666700  0.17867000  1
  Cu  Cu32  1  0.00000000  0.00000000  0.51190300  1
  Cu  Cu33  1  0.33333300  0.66666700  0.89294000  1
  Cu  Cu34  1  0.33333300  0.66666700  0.46436400  1
  Cu  Cu35  1  0.66666700  0.33333300  0.55947300  1
  Cu  Cu36  1  0.66666700  0.33333300  0.98804700  1
  Cu  Cu37  1  0.00000000  0.00000000  0.84518400  1
  Cu  Cu38  1  0.66666700  0.33333300  0.36903000  1
  Cu  Cu39  1  0.00000000  0.00000000  0.13092200  1
  Cu  Cu40  1  0.00000000  0.00000000  0.41659900  1
  Cu  Cu41  1  0.33333300  0.66666700  0.75001100  1
