# generated using pymatgen
data_Cu(NiC4)4
_symmetry_space_group_name_H-M   'P 1'
_cell_length_a   6.15088100
_cell_length_b   7.95256000
_cell_length_c   12.38013230
_cell_angle_alpha   50.44057559
_cell_angle_beta   90.00000000
_cell_angle_gamma   90.00000000
_symmetry_Int_Tables_number   1
_chemical_formula_structural   Cu(NiC4)4
_chemical_formula_sum   'Cu2 Ni8 C32'
_cell_volume   466.87855155
_cell_formula_units_Z   2
loop_
 _symmetry_equiv_pos_site_id
 _symmetry_equiv_pos_as_xyz
  1  'x, y, z'
loop_
 _atom_site_type_symbol
 _atom_site_label
 _atom_site_symmetry_multiplicity
 _atom_site_fract_x
 _atom_site_fract_y
 _atom_site_fract_z
 _atom_site_occupancy
  C  C0  1  0.60368000  0.50000000  0.25000000  1
  C  C1  1  0.39632000  0.50000000  0.75000000  1
  C  C2  1  0.91970900  0.03533600  0.30255400  1
  C  C3  1  0.08527600  0.60497200  0.16972800  1
  C  C4  1  0.88544400  0.86671800  0.82148600  1
  C  C5  1  0.08527600  0.39502800  0.33027200  1
  C  C6  1  0.91970900  0.96466400  0.19744600  1
  C  C7  1  0.91472400  0.39502800  0.83027200  1
  C  C8  1  0.11455600  0.86671800  0.32148600  1
  C  C9  1  0.91472400  0.60497200  0.66972800  1
  C  C10  1  0.08029100  0.03533600  0.80255400  1
  C  C11  1  0.08029100  0.96466400  0.69744600  1
  C  C12  1  0.88544400  0.13328200  0.67851400  1
  C  C13  1  0.11455600  0.13328200  0.17851400  1
  Ni  Ni14  1  0.40442200  0.42036900  0.04250700  1
  Ni  Ni15  1  0.40442200  0.57963100  0.45749300  1
  Ni  Ni16  1  0.61038200  0.03310500  0.01319800  1
  Ni  Ni17  1  0.38961800  0.96689500  0.98680200  1
  Ni  Ni18  1  0.38961800  0.03310500  0.51319800  1
  Ni  Ni19  1  0.61038200  0.96689500  0.48680200  1
  Ni  Ni20  1  0.59557800  0.42036900  0.54250700  1
  Ni  Ni21  1  0.59557800  0.57963100  0.95749300  1
  Cu  Cu22  1  0.01650500  0.00000000  0.25000000  1
  Cu  Cu23  1  0.98349500  0.00000000  0.75000000  1
  C  C24  1  0.38883800  0.33675400  0.16977100  1
  C  C25  1  0.72285000  0.88259400  0.11730600  1
  C  C26  1  0.33909600  0.76682600  0.07077400  1
  C  C27  1  0.27715000  0.11740600  0.88269400  1
  C  C28  1  0.27666400  0.38295700  0.97944600  1
  C  C29  1  0.61116200  0.33675400  0.66977100  1
  C  C30  1  0.72333600  0.38295700  0.47944600  1
  C  C31  1  0.66090400  0.23317400  0.92922600  1
  C  C32  1  0.66090400  0.76682600  0.57077400  1
  C  C33  1  0.72333600  0.61704300  0.02055400  1
  C  C34  1  0.27715000  0.88259400  0.61730600  1
  C  C35  1  0.33909600  0.23317400  0.42922600  1
  C  C36  1  0.38883800  0.66324600  0.33022900  1
  C  C37  1  0.72285000  0.11740600  0.38269400  1
  C  C38  1  0.99042400  0.50000000  0.25000000  1
  C  C39  1  0.00957600  0.50000000  0.75000000  1
  C  C40  1  0.61116200  0.66324600  0.83022900  1
  C  C41  1  0.27666400  0.61704300  0.52055400  1
