# generated using pymatgen
data_CuNiC6
_symmetry_space_group_name_H-M   'P 1'
_cell_length_a   6.25266500
_cell_length_b   7.05199000
_cell_length_c   10.91156200
_cell_angle_alpha   90.00000000
_cell_angle_beta   90.00000000
_cell_angle_gamma   90.00000000
_symmetry_Int_Tables_number   1
_chemical_formula_structural   CuNiC6
_chemical_formula_sum   'Cu4 Ni4 C24'
_cell_volume   481.13148020
_cell_formula_units_Z   4
loop_
 _symmetry_equiv_pos_site_id
 _symmetry_equiv_pos_as_xyz
  1  'x, y, z'
loop_
 _atom_site_type_symbol
 _atom_site_label
 _atom_site_symmetry_multiplicity
 _atom_site_fract_x
 _atom_site_fract_y
 _atom_site_fract_z
 _atom_site_occupancy
  C  C0  1  0.36663200  0.75000000  0.50000000  1
  C  C1  1  0.12959400  0.02823000  0.75000000  1
  C  C2  1  0.63336800  0.25000000  0.50000000  1
  C  C3  1  0.12959400  0.47177000  0.25000000  1
  C  C4  1  0.63336800  0.25000000  0.00000000  1
  C  C5  1  0.87040600  0.52823000  0.75000000  1
  C  C6  1  0.36663200  0.75000000  0.00000000  1
  C  C7  1  0.87040600  0.97177000  0.25000000  1
  Ni  Ni8  1  0.86244700  0.75000000  0.00000000  1
  Ni  Ni9  1  0.13755300  0.25000000  0.50000000  1
  Ni  Ni10  1  0.13755300  0.25000000  0.00000000  1
  Ni  Ni11  1  0.86244700  0.75000000  0.50000000  1
  Cu  Cu12  1  0.51907300  0.21712400  0.25000000  1
  Cu  Cu13  1  0.51907300  0.28287600  0.75000000  1
  Cu  Cu14  1  0.48092700  0.71712400  0.25000000  1
  Cu  Cu15  1  0.48092700  0.78287600  0.75000000  1
  C  C16  1  0.98999700  0.22812400  0.11491500  1
  C  C17  1  0.28416400  0.42363900  0.47666800  1
  C  C18  1  0.01000300  0.72812400  0.38508500  1
  C  C19  1  0.71583600  0.92363900  0.47666800  1
  C  C20  1  0.01000300  0.77187600  0.61491500  1
  C  C21  1  0.71583600  0.57636100  0.52333200  1
  C  C22  1  0.98999700  0.22812400  0.38508500  1
  C  C23  1  0.98999700  0.27187600  0.88508500  1
  C  C24  1  0.71583600  0.92363900  0.02333200  1
  C  C25  1  0.98999700  0.27187600  0.61491500  1
  C  C26  1  0.71583600  0.57636100  0.97666800  1
  C  C27  1  0.28416400  0.42363900  0.02333200  1
  C  C28  1  0.01000300  0.72812400  0.11491500  1
  C  C29  1  0.01000300  0.77187600  0.88508500  1
  C  C30  1  0.28416400  0.07636100  0.52333200  1
  C  C31  1  0.28416400  0.07636100  0.97666800  1
