# generated using pymatgen
data_Cu4NiC3
_symmetry_space_group_name_H-M   'P 1'
_cell_length_a   8.09565200
_cell_length_b   10.46500800
_cell_length_c   10.69716500
_cell_angle_alpha   90.00000000
_cell_angle_beta   90.00000000
_cell_angle_gamma   90.00000000
_symmetry_Int_Tables_number   1
_chemical_formula_structural   Cu4NiC3
_chemical_formula_sum   'Cu16 Ni4 C12'
_cell_volume   906.27518930
_cell_formula_units_Z   4
loop_
 _symmetry_equiv_pos_site_id
 _symmetry_equiv_pos_as_xyz
  1  'x, y, z'
loop_
 _atom_site_type_symbol
 _atom_site_label
 _atom_site_symmetry_multiplicity
 _atom_site_fract_x
 _atom_site_fract_y
 _atom_site_fract_z
 _atom_site_occupancy
  C  C0  1  0.44857000  0.74750300  0.26913500  1
  C  C1  1  0.94857000  0.75249700  0.76913500  1
  C  C2  1  0.75978000  0.00000000  0.50000000  1
  C  C3  1  0.25978000  0.50000000  0.00000000  1
  C  C4  1  0.94857000  0.24750300  0.23086500  1
  C  C5  1  0.94772500  0.50000000  0.50000000  1
  C  C6  1  0.44772500  0.00000000  0.00000000  1
  C  C7  1  0.44857000  0.25249700  0.73086500  1
  C  C8  1  0.45190500  0.50000000  0.50000000  1
  C  C9  1  0.72540500  0.50000000  0.00000000  1
  C  C10  1  0.22540500  0.00000000  0.50000000  1
  C  C11  1  0.95190500  0.00000000  0.00000000  1
  Ni  Ni12  1  0.44914100  0.72685900  0.72410400  1
  Ni  Ni13  1  0.94914100  0.22685900  0.77589600  1
  Ni  Ni14  1  0.94914100  0.77314100  0.22410400  1
  Ni  Ni15  1  0.44914100  0.27314100  0.27589600  1
  Cu  Cu16  1  0.80039200  0.42273800  0.78246600  1
  Cu  Cu17  1  0.30039200  0.92273800  0.71753400  1
  Cu  Cu18  1  0.58618900  0.71555800  0.91988400  1
  Cu  Cu19  1  0.30039200  0.07726200  0.28246600  1
  Cu  Cu20  1  0.80039200  0.57726200  0.21753400  1
  Cu  Cu21  1  0.76858000  0.95144400  0.20199800  1
  Cu  Cu22  1  0.13292100  0.20891100  0.94843700  1
  Cu  Cu23  1  0.63292100  0.70891100  0.55156300  1
  Cu  Cu24  1  0.26858000  0.54855600  0.70199800  1
  Cu  Cu25  1  0.08618900  0.21555800  0.58011600  1
  Cu  Cu26  1  0.76858000  0.04855600  0.79800200  1
  Cu  Cu27  1  0.63292100  0.29108900  0.44843700  1
  Cu  Cu28  1  0.13292100  0.79108900  0.05156300  1
  Cu  Cu29  1  0.08618900  0.78444200  0.41988400  1
  Cu  Cu30  1  0.58618900  0.28444200  0.08011600  1
  Cu  Cu31  1  0.26858000  0.45144400  0.29800200  1
