# generated using pymatgen
data_CuNiC16
_symmetry_space_group_name_H-M   'P 1'
_cell_length_a   8.89393000
_cell_length_b   10.35429000
_cell_length_c   12.81651322
_cell_angle_alpha   55.85657283
_cell_angle_beta   90.00000000
_cell_angle_gamma   90.00000000
_symmetry_Int_Tables_number   1
_chemical_formula_structural   CuNiC16
_chemical_formula_sum   'Cu4 Ni4 C64'
_cell_volume   976.83869505
_cell_formula_units_Z   4
loop_
 _symmetry_equiv_pos_site_id
 _symmetry_equiv_pos_as_xyz
  1  'x, y, z'
loop_
 _atom_site_type_symbol
 _atom_site_label
 _atom_site_symmetry_multiplicity
 _atom_site_fract_x
 _atom_site_fract_y
 _atom_site_fract_z
 _atom_site_occupancy
  Ni  Ni0  1  0.06452500  0.76804300  0.04145900  1
  Ni  Ni1  1  0.56452500  0.23195700  0.45854100  1
  Ni  Ni2  1  0.93547500  0.23195700  0.95854100  1
  Ni  Ni3  1  0.43547500  0.76804300  0.54145900  1
  Cu  Cu4  1  0.27288600  0.31512800  0.18291200  1
  Cu  Cu5  1  0.77288600  0.68487200  0.31708800  1
  Cu  Cu6  1  0.72711400  0.68487200  0.81708800  1
  Cu  Cu7  1  0.22711400  0.31512800  0.68291200  1
  C  C8  1  0.02532300  0.97407000  0.27987800  1
  C  C9  1  0.52532300  0.02593000  0.22012200  1
  C  C10  1  0.97467700  0.02593000  0.72012200  1
  C  C11  1  0.47467700  0.97407000  0.77987800  1
  C  C12  1  0.17072100  0.67333000  0.36748500  1
  C  C13  1  0.67072100  0.32667000  0.13251500  1
  C  C14  1  0.82927900  0.32667000  0.63251500  1
  C  C15  1  0.32927900  0.67333000  0.86748500  1
  C  C16  1  0.40929200  0.60936200  0.24220600  1
  C  C17  1  0.90929200  0.39063800  0.25779400  1
  C  C18  1  0.59070800  0.39063800  0.75779400  1
  C  C19  1  0.09070800  0.60936200  0.74220600  1
  C  C20  1  0.11261100  0.19928400  0.47601900  1
  C  C21  1  0.61261100  0.80071600  0.02398100  1
  C  C22  1  0.88738900  0.80071600  0.52398100  1
  C  C23  1  0.38738900  0.19928400  0.97601900  1
  C  C24  1  0.45070600  0.03819000  0.09879400  1
  C  C25  1  0.95070600  0.96181000  0.40120600  1
  C  C26  1  0.54929400  0.96181000  0.90120600  1
  C  C27  1  0.04929400  0.03819000  0.59879400  1
  C  C28  1  0.04345500  0.42416300  0.17523400  1
  C  C29  1  0.54345500  0.57583700  0.32476600  1
  C  C30  1  0.95654500  0.57583700  0.82476600  1
  C  C31  1  0.45654500  0.42416300  0.67523400  1
  C  C32  1  0.09443400  0.13285300  0.19938700  1
  C  C33  1  0.59443400  0.86714700  0.30061300  1
  C  C34  1  0.90556600  0.86714700  0.80061300  1
  C  C35  1  0.40556600  0.13285300  0.69938700  1
  C  C36  1  0.32484800  0.47548300  0.25623700  1
  C  C37  1  0.82484800  0.52451700  0.24376300  1
  C  C38  1  0.67515200  0.52451700  0.74376300  1
  C  C39  1  0.17515200  0.47548300  0.75623700  1
  C  C40  1  0.41460000  0.07318200  0.28185000  1
  C  C41  1  0.91460000  0.92681800  0.21815000  1
  C  C42  1  0.58540000  0.92681800  0.71815000  1
  C  C43  1  0.08540000  0.07318200  0.78185000  1
  C  C44  1  0.02567500  0.63107700  0.33418400  1
  C  C45  1  0.52567500  0.36892300  0.16581600  1
  C  C46  1  0.97432500  0.36892300  0.66581600  1
  C  C47  1  0.47432500  0.63107700  0.83418400  1
  C  C48  1  0.15868800  0.84423500  0.34430000  1
  C  C49  1  0.65868800  0.15576500  0.15570000  1
  C  C50  1  0.84131200  0.15576500  0.65570000  1
  C  C51  1  0.34131200  0.84423500  0.84430000  1
  C  C52  1  0.29023200  0.71824000  0.25578500  1
  C  C53  1  0.79023200  0.28176000  0.24421500  1
  C  C54  1  0.70976800  0.28176000  0.74421500  1
  C  C55  1  0.20976800  0.71824000  0.75578500  1
  C  C56  1  0.32890200  0.29698500  0.01958400  1
  C  C57  1  0.82890200  0.70301500  0.48041600  1
  C  C58  1  0.67109800  0.70301500  0.98041600  1
  C  C59  1  0.17109800  0.29698500  0.51958400  1
  C  C60  1  0.21520100  0.16522100  0.40119800  1
  C  C61  1  0.71520100  0.83477900  0.09880200  1
  C  C62  1  0.78479900  0.83477900  0.59880200  1
  C  C63  1  0.28479900  0.16522100  0.90119800  1
  C  C64  1  0.45345700  0.73127600  0.09676700  1
  C  C65  1  0.95345700  0.26872400  0.40323300  1
  C  C66  1  0.54654300  0.26872400  0.90323300  1
  C  C67  1  0.04654300  0.73127600  0.59676700  1
  C  C68  1  0.24183400  0.56806000  0.49412700  1
  C  C69  1  0.74183400  0.43194000  0.00587300  1
  C  C70  1  0.75816600  0.43194000  0.50587300  1
  C  C71  1  0.25816600  0.56806000  0.99412700  1
