# generated using pymatgen
data_Cu3NiC2
_symmetry_space_group_name_H-M   'P 1'
_cell_length_a   5.78953451
_cell_length_b   5.78953451
_cell_length_c   7.03845283
_cell_angle_alpha   86.11546680
_cell_angle_beta   86.11546680
_cell_angle_gamma   120.76727414
_symmetry_Int_Tables_number   1
_chemical_formula_structural   Cu3NiC2
_chemical_formula_sum   'Cu6 Ni2 C4'
_cell_volume   200.80089640
_cell_formula_units_Z   2
loop_
 _symmetry_equiv_pos_site_id
 _symmetry_equiv_pos_as_xyz
  1  'x, y, z'
loop_
 _atom_site_type_symbol
 _atom_site_label
 _atom_site_symmetry_multiplicity
 _atom_site_fract_x
 _atom_site_fract_y
 _atom_site_fract_z
 _atom_site_occupancy
  C  C0  1  0.33354100  0.66645900  0.25000000  1
  C  C1  1  0.66645900  0.33354100  0.75000000  1
  C  C2  1  0.00000000  0.00000000  0.50000000  1
  C  C3  1  0.00000000  0.00000000  0.00000000  1
  Ni  Ni4  1  0.33177900  0.66822100  0.75000000  1
  Ni  Ni5  1  0.66822100  0.33177900  0.25000000  1
  Cu  Cu6  1  0.78588100  0.57876400  0.29515600  1
  Cu  Cu7  1  0.79786800  0.20213200  0.25000000  1
  Cu  Cu8  1  0.20213200  0.79786800  0.75000000  1
  Cu  Cu9  1  0.21411900  0.42123600  0.70484400  1
  Cu  Cu10  1  0.42123600  0.21411900  0.20484400  1
  Cu  Cu11  1  0.57876400  0.78588100  0.79515600  1
