# generated using pymatgen
data_Cu5Ni4C21
_symmetry_space_group_name_H-M   'P 1'
_cell_length_a   7.04858100
_cell_length_b   7.14259629
_cell_length_c   18.23186567
_cell_angle_alpha   87.54217459
_cell_angle_beta   87.87917287
_cell_angle_gamma   79.41521357
_symmetry_Int_Tables_number   1
_chemical_formula_structural   Cu5Ni4C21
_chemical_formula_sum   'Cu10 Ni8 C42'
_cell_volume   901.04108494
_cell_formula_units_Z   2
loop_
 _symmetry_equiv_pos_site_id
 _symmetry_equiv_pos_as_xyz
  1  'x, y, z'
loop_
 _atom_site_type_symbol
 _atom_site_label
 _atom_site_symmetry_multiplicity
 _atom_site_fract_x
 _atom_site_fract_y
 _atom_site_fract_z
 _atom_site_occupancy
  C  C0  1  0.88117800  0.66735800  0.69840400  1
  C  C1  1  0.11882200  0.33264200  0.30159600  1
  Ni  Ni2  1  0.17446100  0.08180800  0.11317800  1
  Ni  Ni3  1  0.24986600  0.30099800  0.73354700  1
  Ni  Ni4  1  0.18548500  0.82740700  0.49270300  1
  Ni  Ni5  1  0.22226200  0.57425900  0.87486400  1
  Ni  Ni6  1  0.75013400  0.69900200  0.26645300  1
  Ni  Ni7  1  0.81451500  0.17259300  0.50729700  1
  Ni  Ni8  1  0.77773800  0.42574100  0.12513600  1
  Ni  Ni9  1  0.82553900  0.91819200  0.88682200  1
  Cu  Cu10  1  0.68154600  0.21993700  0.30887100  1
  Cu  Cu11  1  0.72962400  0.69181400  0.47157000  1
  Cu  Cu12  1  0.72811500  0.93901300  0.09585800  1
  Cu  Cu13  1  0.21731800  0.82446100  0.28474800  1
  Cu  Cu14  1  0.27188500  0.06098700  0.90414200  1
  Cu  Cu15  1  0.75140000  0.45574300  0.91314600  1
  Cu  Cu16  1  0.31845400  0.78006300  0.69112900  1
  Cu  Cu17  1  0.24860000  0.54425700  0.08685400  1
  Cu  Cu18  1  0.78268200  0.17553900  0.71525200  1
  Cu  Cu19  1  0.27037600  0.30818600  0.52843000  1
  C  C20  1  0.08711200  0.38491400  0.12510500  1
  C  C21  1  0.79327600  0.88149500  0.00422300  1
  C  C22  1  0.87625900  0.86344300  0.49735800  1
  C  C23  1  0.18213400  0.79845900  0.61021800  1
  C  C24  1  0.20213700  0.52880300  0.47883200  1
  C  C25  1  0.82984700  0.21228300  0.88899400  1
  C  C26  1  0.04739100  0.66483100  0.26881900  1
  C  C27  1  0.76956000  0.71728300  0.15499000  1
  C  C28  1  0.47876600  0.03465800  0.10442500  1
  C  C29  1  0.46285400  0.71392000  0.26398700  1
  C  C30  1  0.52123400  0.96534200  0.89557500  1
  C  C31  1  0.75426700  0.65149800  0.37354400  1
  C  C32  1  0.25168400  0.53422000  0.99006700  1
  C  C33  1  0.16201200  0.04755400  0.23388000  1
  C  C34  1  0.53714600  0.28608000  0.73601300  1
  C  C35  1  0.56341300  0.70706900  0.66884500  1
  C  C36  1  0.43658700  0.29293100  0.33115500  1
  C  C37  1  0.19719900  0.87973200  0.37844800  1
  C  C38  1  0.48565200  0.78745700  0.49284900  1
  C  C39  1  0.80280100  0.12026800  0.62155200  1
  C  C40  1  0.71615600  0.98625000  0.26916100  1
  C  C41  1  0.79786300  0.47119700  0.52116800  1
  C  C42  1  0.23044000  0.28271700  0.84501000  1
  C  C43  1  0.77556600  0.40336400  0.24869100  1
  C  C44  1  0.12374100  0.13655700  0.50264200  1
  C  C45  1  0.83798800  0.95244600  0.76612000  1
  C  C46  1  0.48094000  0.45885700  0.12331000  1
  C  C47  1  0.95260900  0.33516900  0.73118100  1
  C  C48  1  0.74831600  0.46578000  0.00993300  1
  C  C49  1  0.28384400  0.01375000  0.73083900  1
  C  C50  1  0.81786600  0.20154100  0.38978200  1
  C  C51  1  0.86017500  0.12308500  0.11897700  1
  C  C52  1  0.13982500  0.87691500  0.88102300  1
  C  C53  1  0.24573300  0.34850200  0.62645600  1
  C  C54  1  0.51434800  0.21254300  0.50715100  1
  C  C55  1  0.51906000  0.54114300  0.87669000  1
  C  C56  1  0.91288800  0.61508600  0.87489500  1
  C  C57  1  0.22443400  0.59663600  0.75130900  1
  C  C58  1  0.20672400  0.11850500  0.99577700  1
  C  C59  1  0.17015300  0.78771700  0.11100600  1
