# generated using pymatgen
data_CuNiC8
_symmetry_space_group_name_H-M   'P 1'
_cell_length_a   5.62076600
_cell_length_b   9.26578800
_cell_length_c   11.41228700
_cell_angle_alpha   90.00000000
_cell_angle_beta   90.00000000
_cell_angle_gamma   90.00000000
_symmetry_Int_Tables_number   1
_chemical_formula_structural   CuNiC8
_chemical_formula_sum   'Cu4 Ni4 C32'
_cell_volume   594.36133526
_cell_formula_units_Z   4
loop_
 _symmetry_equiv_pos_site_id
 _symmetry_equiv_pos_as_xyz
  1  'x, y, z'
loop_
 _atom_site_type_symbol
 _atom_site_label
 _atom_site_symmetry_multiplicity
 _atom_site_fract_x
 _atom_site_fract_y
 _atom_site_fract_z
 _atom_site_occupancy
  Ni  Ni0  1  0.25000000  0.03051200  0.82780200  1
  Ni  Ni1  1  0.75000000  0.96948800  0.17219800  1
  Ni  Ni2  1  0.25000000  0.53051200  0.67219800  1
  Ni  Ni3  1  0.75000000  0.46948800  0.32780200  1
  Cu  Cu4  1  0.25000000  0.13452700  0.44527000  1
  Cu  Cu5  1  0.75000000  0.86547300  0.55473000  1
  Cu  Cu6  1  0.75000000  0.36547300  0.94527000  1
  Cu  Cu7  1  0.25000000  0.63452700  0.05473000  1
  C  C8  1  0.25000000  0.75119900  0.36033200  1
  C  C9  1  0.25000000  0.25119900  0.13966800  1
  C  C10  1  0.75000000  0.24880100  0.63966800  1
  C  C11  1  0.75000000  0.74880100  0.86033200  1
  C  C12  1  0.50364000  0.77790400  0.72533900  1
  C  C13  1  0.98149800  0.07543300  0.61349600  1
  C  C14  1  0.98149800  0.57543300  0.88650400  1
  C  C15  1  0.50990000  0.82758700  0.98455700  1
  C  C16  1  0.49636000  0.72209600  0.22533900  1
  C  C17  1  0.00364000  0.72209600  0.22533900  1
  C  C18  1  0.48149800  0.92456700  0.38650400  1
  C  C19  1  0.49010000  0.67241300  0.48455700  1
  C  C20  1  0.99636000  0.77790400  0.72533900  1
  C  C21  1  0.99636000  0.27790400  0.77466100  1
  C  C22  1  0.99010000  0.82758700  0.98455700  1
  C  C23  1  0.75000000  0.97724900  0.83211200  1
  C  C24  1  0.99010000  0.32758700  0.51544300  1
  C  C25  1  0.49010000  0.17241300  0.01544300  1
  C  C26  1  0.00364000  0.22209600  0.27466100  1
  C  C27  1  0.50990000  0.32758700  0.51544300  1
  C  C28  1  0.51850200  0.57543300  0.88650400  1
  C  C29  1  0.75000000  0.47724900  0.66788800  1
  C  C30  1  0.01850200  0.92456700  0.38650400  1
  C  C31  1  0.25000000  0.52275100  0.33211200  1
  C  C32  1  0.01850200  0.42456700  0.11349600  1
  C  C33  1  0.48149800  0.42456700  0.11349600  1
  C  C34  1  0.50364000  0.27790400  0.77466100  1
  C  C35  1  0.00990000  0.17241300  0.01544300  1
  C  C36  1  0.00990000  0.67241300  0.48455700  1
  C  C37  1  0.51850200  0.07543300  0.61349600  1
  C  C38  1  0.25000000  0.02275100  0.16788800  1
  C  C39  1  0.49636000  0.22209600  0.27466100  1
