# generated using pymatgen
data_Cu2NiC3
_symmetry_space_group_name_H-M   'P 1'
_cell_length_a   10.95154532
_cell_length_b   10.95154532
_cell_length_c   7.08939700
_cell_angle_alpha   90.00000000
_cell_angle_beta   90.00000000
_cell_angle_gamma   98.90787994
_symmetry_Int_Tables_number   1
_chemical_formula_structural   Cu2NiC3
_chemical_formula_sum   'Cu8 Ni4 C12'
_cell_volume   840.02082187
_cell_formula_units_Z   4
loop_
 _symmetry_equiv_pos_site_id
 _symmetry_equiv_pos_as_xyz
  1  'x, y, z'
loop_
 _atom_site_type_symbol
 _atom_site_label
 _atom_site_symmetry_multiplicity
 _atom_site_fract_x
 _atom_site_fract_y
 _atom_site_fract_z
 _atom_site_occupancy
  C  C0  1  0.07615600  0.42384400  0.25000000  1
  C  C1  1  0.42384400  0.07615600  0.75000000  1
  C  C2  1  0.92384400  0.57615600  0.75000000  1
  C  C3  1  0.57615600  0.92384400  0.25000000  1
  C  C4  1  0.67175800  0.32824200  0.22090000  1
  C  C5  1  0.82824200  0.17175800  0.72090000  1
  C  C6  1  0.32824200  0.67175800  0.77910000  1
  C  C7  1  0.17175800  0.82824200  0.27910000  1
  C  C8  1  0.38092400  0.38092400  0.00000000  1
  C  C9  1  0.11907600  0.11907600  0.50000000  1
  C  C10  1  0.61907600  0.61907600  0.00000000  1
  C  C11  1  0.88092400  0.88092400  0.50000000  1
  Ni  Ni12  1  0.13224200  0.13224200  0.00000000  1
  Ni  Ni13  1  0.36775800  0.36775800  0.50000000  1
  Ni  Ni14  1  0.86775800  0.86775800  0.00000000  1
  Ni  Ni15  1  0.63224200  0.63224200  0.50000000  1
  Cu  Cu16  1  0.85591100  0.64408800  0.25000000  1
  Cu  Cu17  1  0.64408800  0.85591100  0.75000000  1
  Cu  Cu18  1  0.14408800  0.35591100  0.75000000  1
  Cu  Cu19  1  0.35591100  0.14408800  0.25000000  1
  Cu  Cu20  1  0.89423200  0.10576800  0.20608700  1
  Cu  Cu21  1  0.60576800  0.39423200  0.70608700  1
  Cu  Cu22  1  0.10576800  0.89423200  0.79391300  1
  Cu  Cu23  1  0.39423200  0.60576800  0.29391300  1
