# generated using pymatgen
data_Cu8NiC5
_symmetry_space_group_name_H-M   'P 1'
_cell_length_a   6.24547100
_cell_length_b   6.91691100
_cell_length_c   17.92019100
_cell_angle_alpha   90.00000000
_cell_angle_beta   90.00000000
_cell_angle_gamma   90.00000000
_symmetry_Int_Tables_number   1
_chemical_formula_structural   Cu8NiC5
_chemical_formula_sum   'Cu32 Ni4 C20'
_cell_volume   774.14090880
_cell_formula_units_Z   4
loop_
 _symmetry_equiv_pos_site_id
 _symmetry_equiv_pos_as_xyz
  1  'x, y, z'
loop_
 _atom_site_type_symbol
 _atom_site_label
 _atom_site_symmetry_multiplicity
 _atom_site_fract_x
 _atom_site_fract_y
 _atom_site_fract_z
 _atom_site_occupancy
  C  C0  1  0.87241500  0.98548600  0.90976400  1
  C  C1  1  0.12758500  0.01451400  0.40976400  1
  C  C2  1  0.62758500  0.48548600  0.59023600  1
  C  C3  1  0.88494100  0.29371200  0.25000000  1
  C  C4  1  0.12758500  0.01451400  0.09023600  1
  C  C5  1  0.62758500  0.48548600  0.90976400  1
  C  C6  1  0.37241500  0.51451400  0.09023600  1
  C  C7  1  0.37241500  0.51451400  0.40976400  1
  C  C8  1  0.38494100  0.20628800  0.75000000  1
  C  C9  1  0.11505900  0.70628800  0.75000000  1
  C  C10  1  0.61505900  0.79371200  0.25000000  1
  C  C11  1  0.87241500  0.98548600  0.59023600  1
  C  C12  1  0.62127700  0.02378900  0.09983200  1
  C  C13  1  0.12127700  0.47621100  0.90016800  1
  C  C14  1  0.37872300  0.97621100  0.90016800  1
  C  C15  1  0.62127700  0.02378900  0.40016800  1
  C  C16  1  0.87872300  0.52378900  0.40016800  1
  C  C17  1  0.37872300  0.97621100  0.59983200  1
  C  C18  1  0.12127700  0.47621100  0.59983200  1
  C  C19  1  0.87872300  0.52378900  0.09983200  1
  Ni  Ni20  1  0.73642000  0.45780100  0.75000000  1
  Ni  Ni21  1  0.76358000  0.95780100  0.75000000  1
  Ni  Ni22  1  0.23642000  0.04219900  0.25000000  1
  Ni  Ni23  1  0.26358000  0.54219900  0.25000000  1
  Cu  Cu24  1  0.53157400  0.16719700  0.61805800  1
  Cu  Cu25  1  0.05455600  0.69699200  0.09494000  1
  Cu  Cu26  1  0.29020300  0.48781600  0.96931700  1
  Cu  Cu27  1  0.05455600  0.69699200  0.40506000  1
  Cu  Cu28  1  0.27485100  0.46587800  0.67614500  1
  Cu  Cu29  1  0.94544400  0.30300800  0.90506000  1
  Cu  Cu30  1  0.55455600  0.80300800  0.59494000  1
  Cu  Cu31  1  0.77485100  0.03412200  0.17614500  1
  Cu  Cu32  1  0.70979700  0.51218400  0.03068300  1
  Cu  Cu33  1  0.46842600  0.83280300  0.11805800  1
  Cu  Cu34  1  0.22514900  0.96587800  0.82385500  1
  Cu  Cu35  1  0.03157400  0.33280300  0.38194200  1
  Cu  Cu36  1  0.79020300  0.01218400  0.03068300  1
  Cu  Cu37  1  0.77485100  0.03412200  0.32385500  1
  Cu  Cu38  1  0.96842600  0.66719700  0.88194200  1
  Cu  Cu39  1  0.70979700  0.51218400  0.46931700  1
  Cu  Cu40  1  0.29020300  0.48781600  0.53068300  1
  Cu  Cu41  1  0.46842600  0.83280300  0.38194200  1
  Cu  Cu42  1  0.72514900  0.53412200  0.17614500  1
  Cu  Cu43  1  0.20979700  0.98781600  0.53068300  1
  Cu  Cu44  1  0.27485100  0.46587800  0.82385500  1
  Cu  Cu45  1  0.72514900  0.53412200  0.32385500  1
  Cu  Cu46  1  0.79020300  0.01218400  0.46931700  1
  Cu  Cu47  1  0.22514900  0.96587800  0.67614500  1
  Cu  Cu48  1  0.44544400  0.19699200  0.09494000  1
  Cu  Cu49  1  0.44544400  0.19699200  0.40506000  1
  Cu  Cu50  1  0.20979700  0.98781600  0.96931700  1
  Cu  Cu51  1  0.55455600  0.80300800  0.90506000  1
  Cu  Cu52  1  0.94544400  0.30300800  0.59494000  1
  Cu  Cu53  1  0.03157400  0.33280300  0.11805800  1
  Cu  Cu54  1  0.96842600  0.66719700  0.61805800  1
  Cu  Cu55  1  0.53157400  0.16719700  0.88194200  1
