# generated using pymatgen
data_Cu3(Ni3C2)16
_symmetry_space_group_name_H-M   'P 1'
_cell_length_a   13.89648200
_cell_length_b   9.53799800
_cell_length_c   9.57541661
_cell_angle_alpha   60.17222626
_cell_angle_beta   90.00000000
_cell_angle_gamma   90.00000000
_symmetry_Int_Tables_number   1
_chemical_formula_structural   Cu3(Ni3C2)16
_chemical_formula_sum   'Cu3 Ni48 C32'
_cell_volume   1101.03594366
_cell_formula_units_Z   1
loop_
 _symmetry_equiv_pos_site_id
 _symmetry_equiv_pos_as_xyz
  1  'x, y, z'
loop_
 _atom_site_type_symbol
 _atom_site_label
 _atom_site_symmetry_multiplicity
 _atom_site_fract_x
 _atom_site_fract_y
 _atom_site_fract_z
 _atom_site_occupancy
  C  C0  1  0.24994100  0.00239500  0.75430700  1
  C  C1  1  0.75005900  0.00239500  0.75430700  1
  C  C2  1  0.25044000  0.24232500  0.00067100  1
  C  C3  1  0.74956000  0.24232500  0.00067100  1
  C  C4  1  0.37513600  0.66049000  0.67513400  1
  C  C5  1  0.87574400  0.66615600  0.66989400  1
  C  C6  1  0.12425600  0.66615600  0.66989400  1
  C  C7  1  0.62486400  0.66049000  0.67513400  1
  C  C8  1  0.50000000  0.27699200  0.72673800  1
  C  C9  1  0.25027600  0.75513300  0.24571100  1
  C  C10  1  0.74972400  0.75513300  0.24571100  1
  C  C11  1  0.12213100  0.32640800  0.33215000  1
  C  C12  1  0.62446700  0.33011600  0.33280500  1
  C  C13  1  0.87786900  0.32640800  0.33215000  1
  C  C14  1  0.37553300  0.33011600  0.33280500  1
  C  C15  1  0.50000000  0.71538800  0.00557800  1
  C  C16  1  0.00000000  0.00487700  0.25962500  1
  C  C17  1  0.50000000  0.01414700  0.27178900  1
  C  C18  1  0.00000000  0.24066900  0.75296500  1
  C  C19  1  0.00000000  0.74962800  0.00201800  1
  C  C20  1  0.00000000  0.39316200  0.97120600  1
  C  C21  1  0.50000000  0.38095300  0.97459500  1
  C  C22  1  0.00000000  0.97514900  0.63544100  1
  C  C23  1  0.50000000  0.97222000  0.64626300  1
  C  C24  1  0.25175900  0.37669800  0.59290800  1
  C  C25  1  0.74824100  0.37669800  0.59290800  1
  C  C26  1  0.00000000  0.63617300  0.38952900  1
  C  C27  1  0.50000000  0.64840800  0.37958000  1
  C  C28  1  0.24998200  0.02622800  0.37471100  1
  C  C29  1  0.75001800  0.02622800  0.37471100  1
  C  C30  1  0.25123400  0.59665400  0.02994900  1
  C  C31  1  0.74876600  0.59665400  0.02994900  1
  Ni  Ni32  1  0.90770600  0.91955600  0.76161800  1
  Ni  Ni33  1  0.41106900  0.91967600  0.75954700  1
  Ni  Ni34  1  0.09229400  0.91955600  0.76161800  1
  Ni  Ni35  1  0.58893100  0.91967600  0.75954700  1
  Ni  Ni36  1  0.25113700  0.66707000  0.84542500  1
  Ni  Ni37  1  0.74886300  0.66707000  0.84542500  1
  Ni  Ni38  1  0.00000000  0.59367800  0.87399200  1
  Ni  Ni39  1  0.50000000  0.58174200  0.87024300  1
  Ni  Ni40  1  0.09328800  0.33646900  0.90417100  1
  Ni  Ni41  1  0.59321000  0.31789600  0.91499600  1
  Ni  Ni42  1  0.90671200  0.33646900  0.90417100  1
  Ni  Ni43  1  0.40679000  0.31789600  0.91499600  1
  Ni  Ni44  1  0.00000000  0.87301500  0.53957600  1
  Ni  Ni45  1  0.50000000  0.87710700  0.55160200  1
  Ni  Ni46  1  0.25227900  0.49531800  0.65846400  1
  Ni  Ni47  1  0.74772100  0.49531800  0.65846400  1
  Ni  Ni48  1  0.25114100  0.84115400  0.49020000  1
  Ni  Ni49  1  0.74885900  0.84115400  0.49020000  1
  Ni  Ni50  1  0.00000000  0.53541200  0.57793000  1
  Ni  Ni51  1  0.50000000  0.55668700  0.56845100  1
  Ni  Ni52  1  0.34174900  0.26599000  0.64451600  1
  Ni  Ni53  1  0.83726000  0.26214400  0.65694600  1
  Ni  Ni54  1  0.65825100  0.26599000  0.64451600  1
  Ni  Ni55  1  0.16274000  0.26214400  0.65694600  1
  Ni  Ni56  1  0.91018900  0.74697600  0.33283600  1
  Ni  Ni57  1  0.41128300  0.76206700  0.31764600  1
  Ni  Ni58  1  0.08981100  0.74697600  0.33283600  1
  Ni  Ni59  1  0.58871700  0.76206700  0.31764600  1
  Ni  Ni60  1  0.24768700  0.46860700  0.40535100  1
  Ni  Ni61  1  0.75231300  0.46860700  0.40535100  1
  Ni  Ni62  1  0.00000000  0.17206000  0.51865600  1
  Ni  Ni63  1  0.50000000  0.15614100  0.52428800  1
  Ni  Ni64  1  0.00000000  0.52283400  0.31607800  1
  Ni  Ni65  1  0.50000000  0.52309900  0.32089800  1
  Ni  Ni66  1  0.24853200  0.12017200  0.46971800  1
  Ni  Ni67  1  0.75146800  0.12017200  0.46971800  1
  Ni  Ni68  1  0.34040500  0.65275400  0.08654600  1
  Ni  Ni69  1  0.83864500  0.65561300  0.08402100  1
  Ni  Ni70  1  0.16135500  0.65561300  0.08402100  1
  Ni  Ni71  1  0.65959500  0.65275400  0.08654600  1
  Ni  Ni72  1  0.75028100  0.40864900  0.12227400  1
  Ni  Ni73  1  0.24971900  0.40864900  0.12227400  1
  Ni  Ni74  1  0.00000000  0.31799500  0.16586100  1
  Ni  Ni75  1  0.50000000  0.31758600  0.16907200  1
  Ni  Ni76  1  0.16122500  0.07996100  0.26147500  1
  Ni  Ni77  1  0.65957200  0.08317400  0.26508400  1
  Ni  Ni78  1  0.34042800  0.08317400  0.26508400  1
  Ni  Ni79  1  0.83877500  0.07996100  0.26147500  1
  Cu  Cu80  1  0.25143900  0.99661700  0.00050900  1
  Cu  Cu81  1  0.74856100  0.99661700  0.00050900  1
  Cu  Cu82  1  0.00000000  0.99994200  0.00886300  1
