# generated using pymatgen
data_Cu5Ni3C10
_symmetry_space_group_name_H-M   'P 1'
_cell_length_a   10.59666468
_cell_length_b   10.59666468
_cell_length_c   7.10499800
_cell_angle_alpha   90.00000000
_cell_angle_beta   90.00000000
_cell_angle_gamma   120.00000422
_symmetry_Int_Tables_number   1
_chemical_formula_structural   Cu5Ni3C10
_chemical_formula_sum   'Cu10 Ni6 C20'
_cell_volume   690.92826019
_cell_formula_units_Z   2
loop_
 _symmetry_equiv_pos_site_id
 _symmetry_equiv_pos_as_xyz
  1  'x, y, z'
loop_
 _atom_site_type_symbol
 _atom_site_label
 _atom_site_symmetry_multiplicity
 _atom_site_fract_x
 _atom_site_fract_y
 _atom_site_fract_z
 _atom_site_occupancy
  Ni  Ni0  1  0.41468900  0.39967400  0.25000000  1
  Ni  Ni1  1  0.01501600  0.41468900  0.75000000  1
  Ni  Ni2  1  0.39967400  0.98498400  0.75000000  1
  Ni  Ni3  1  0.60032600  0.01501600  0.25000000  1
  Ni  Ni4  1  0.98498400  0.58531100  0.25000000  1
  Ni  Ni5  1  0.58531100  0.60032600  0.75000000  1
  Cu  Cu6  1  0.33333300  0.66666700  0.98839400  1
  Cu  Cu7  1  0.66666700  0.33333300  0.48839400  1
  Cu  Cu8  1  0.66666700  0.33333300  0.01160600  1
  Cu  Cu9  1  0.33333300  0.66666700  0.51160600  1
  Cu  Cu10  1  0.26768600  0.04226400  0.25000000  1
  Cu  Cu11  1  0.22542300  0.26768600  0.75000000  1
  Cu  Cu12  1  0.04226400  0.77457700  0.75000000  1
  Cu  Cu13  1  0.95773600  0.22542300  0.25000000  1
  Cu  Cu14  1  0.77457700  0.73231400  0.25000000  1
  Cu  Cu15  1  0.73231400  0.95773600  0.75000000  1
  C  C16  1  0.00000000  0.00000000  0.00000000  1
  C  C17  1  0.00000000  0.00000000  0.50000000  1
  C  C18  1  0.61259200  0.46327600  0.25000000  1
  C  C19  1  0.14931500  0.61259200  0.75000000  1
  C  C20  1  0.46327600  0.85068500  0.75000000  1
  C  C21  1  0.53672400  0.14931500  0.25000000  1
  C  C22  1  0.85068500  0.38740800  0.25000000  1
  C  C23  1  0.38740800  0.53672400  0.75000000  1
  C  C24  1  0.37035000  0.27605000  0.05789600  1
  C  C25  1  0.09430000  0.37035000  0.55789600  1
  C  C26  1  0.27605000  0.90570000  0.55789600  1
  C  C27  1  0.72395000  0.09430000  0.05789600  1
  C  C28  1  0.90570000  0.62965000  0.05789600  1
  C  C29  1  0.62965000  0.72395000  0.55789600  1
  C  C30  1  0.62965000  0.72395000  0.94210400  1
  C  C31  1  0.90570000  0.62965000  0.44210400  1
  C  C32  1  0.72395000  0.09430000  0.44210400  1
  C  C33  1  0.27605000  0.90570000  0.94210400  1
  C  C34  1  0.09430000  0.37035000  0.94210400  1
  C  C35  1  0.37035000  0.27605000  0.44210400  1
