# generated using pymatgen
data_Cu4NiC4
_symmetry_space_group_name_H-M   'P 1'
_cell_length_a   5.31948920
_cell_length_b   5.31948920
_cell_length_c   5.31948911
_cell_angle_alpha   72.04147760
_cell_angle_beta   72.04147760
_cell_angle_gamma   72.04148255
_symmetry_Int_Tables_number   1
_chemical_formula_structural   Cu4NiC4
_chemical_formula_sum   'Cu4 Ni1 C4'
_cell_volume   132.37886376
_cell_formula_units_Z   1
loop_
 _symmetry_equiv_pos_site_id
 _symmetry_equiv_pos_as_xyz
  1  'x, y, z'
loop_
 _atom_site_type_symbol
 _atom_site_label
 _atom_site_symmetry_multiplicity
 _atom_site_fract_x
 _atom_site_fract_y
 _atom_site_fract_z
 _atom_site_occupancy
  C  C0  1  0.57323400  0.05544800  0.57323400  1
  C  C1  1  0.57323400  0.57323400  0.05544800  1
  C  C2  1  0.05544800  0.57323400  0.57323400  1
  C  C3  1  0.17713900  0.17713900  0.17713900  1
  Ni  Ni4  1  0.96020300  0.96020300  0.96020300  1
  Cu  Cu5  1  0.84308700  0.84308700  0.84308700  1
  Cu  Cu6  1  0.75246900  0.12841200  0.12841200  1
  Cu  Cu7  1  0.12841200  0.12841200  0.75246900  1
  Cu  Cu8  1  0.12841200  0.75246900  0.12841200  1
