# generated using pymatgen
data_Cu3Ni7C9
_symmetry_space_group_name_H-M   'P 1'
_cell_length_a   7.59653810
_cell_length_b   7.59653810
_cell_length_c   6.01988500
_cell_angle_alpha   90.00000000
_cell_angle_beta   90.00000000
_cell_angle_gamma   120.00000084
_symmetry_Int_Tables_number   1
_chemical_formula_structural   Cu3Ni7C9
_chemical_formula_sum   'Cu3 Ni7 C9'
_cell_volume   300.85017135
_cell_formula_units_Z   1
loop_
 _symmetry_equiv_pos_site_id
 _symmetry_equiv_pos_as_xyz
  1  'x, y, z'
loop_
 _atom_site_type_symbol
 _atom_site_label
 _atom_site_symmetry_multiplicity
 _atom_site_fract_x
 _atom_site_fract_y
 _atom_site_fract_z
 _atom_site_occupancy
  C  C0  1  0.15716200  0.84283800  0.18903400  1
  C  C1  1  0.82839800  0.17160200  0.72992300  1
  C  C2  1  0.82839800  0.65679600  0.72992300  1
  C  C3  1  0.15716200  0.31432300  0.18903400  1
  C  C4  1  0.68567700  0.84283800  0.18903400  1
  C  C5  1  0.34320400  0.17160200  0.72992300  1
  C  C6  1  0.66666700  0.33333300  0.23839200  1
  C  C7  1  0.33333300  0.66666700  0.68525200  1
  C  C8  1  0.00000000  0.00000000  0.49236500  1
  Ni  Ni9  1  0.21014300  0.78985700  0.81764100  1
  Ni  Ni10  1  0.79374500  0.20625500  0.12407800  1
  Ni  Ni11  1  0.57971400  0.78985700  0.81764100  1
  Ni  Ni12  1  0.66666700  0.33333300  0.54336600  1
  Ni  Ni13  1  0.41251000  0.20625500  0.12407800  1
  Ni  Ni14  1  0.21014300  0.42028600  0.81764100  1
  Ni  Ni15  1  0.79374500  0.58749000  0.12407800  1
  Cu  Cu16  1  0.10249300  0.55124600  0.43971600  1
  Cu  Cu17  1  0.44875400  0.55124600  0.43971600  1
  Cu  Cu18  1  0.44875400  0.89750700  0.43971600  1
