# generated using pymatgen
data_Cu3NiC2
_symmetry_space_group_name_H-M   'P 1'
_cell_length_a   6.03579100
_cell_length_b   7.61849100
_cell_length_c   10.12631700
_cell_angle_alpha   90.00000000
_cell_angle_beta   90.00000000
_cell_angle_gamma   90.00000000
_symmetry_Int_Tables_number   1
_chemical_formula_structural   Cu3NiC2
_chemical_formula_sum   'Cu12 Ni4 C8'
_cell_volume   465.64470697
_cell_formula_units_Z   4
loop_
 _symmetry_equiv_pos_site_id
 _symmetry_equiv_pos_as_xyz
  1  'x, y, z'
loop_
 _atom_site_type_symbol
 _atom_site_label
 _atom_site_symmetry_multiplicity
 _atom_site_fract_x
 _atom_site_fract_y
 _atom_site_fract_z
 _atom_site_occupancy
  C  C0  1  0.75000000  0.30771500  0.41975700  1
  C  C1  1  0.25000000  0.19228500  0.91975700  1
  C  C2  1  0.25000000  0.03548400  0.26982300  1
  C  C3  1  0.75000000  0.80771500  0.08024300  1
  C  C4  1  0.75000000  0.46451600  0.76982300  1
  C  C5  1  0.25000000  0.53548400  0.23017700  1
  C  C6  1  0.25000000  0.69228500  0.58024300  1
  C  C7  1  0.75000000  0.96451600  0.73017700  1
  Ni  Ni8  1  0.75000000  0.24791200  0.08463600  1
  Ni  Ni9  1  0.25000000  0.75208800  0.91536400  1
  Ni  Ni10  1  0.25000000  0.25208800  0.58463600  1
  Ni  Ni11  1  0.75000000  0.74791200  0.41536400  1
  Cu  Cu12  1  0.56243300  0.78170800  0.35639700  1
  Cu  Cu13  1  0.43756700  0.71829200  0.85639700  1
  Cu  Cu14  1  0.43756700  0.21829200  0.64360300  1
  Cu  Cu15  1  0.93756700  0.28170800  0.14360300  1
  Cu  Cu16  1  0.75000000  0.67786800  0.53363800  1
  Cu  Cu17  1  0.25000000  0.32213200  0.46636200  1
  Cu  Cu18  1  0.56243300  0.28170800  0.14360300  1
  Cu  Cu19  1  0.75000000  0.17786800  0.96636200  1
  Cu  Cu20  1  0.93756700  0.78170800  0.35639700  1
  Cu  Cu21  1  0.25000000  0.82213200  0.03363800  1
  Cu  Cu22  1  0.06243300  0.21829200  0.64360300  1
  Cu  Cu23  1  0.06243300  0.71829200  0.85639700  1
