# generated using pymatgen
data_Cu3Ni9C4
_symmetry_space_group_name_H-M   'P 1'
_cell_length_a   8.21255476
_cell_length_b   8.21255476
_cell_length_c   8.21255474
_cell_angle_alpha   97.21273513
_cell_angle_beta   97.21273513
_cell_angle_gamma   97.21273975
_symmetry_Int_Tables_number   1
_chemical_formula_structural   Cu3Ni9C4
_chemical_formula_sum   'Cu6 Ni18 C8'
_cell_volume   539.52405143
_cell_formula_units_Z   2
loop_
 _symmetry_equiv_pos_site_id
 _symmetry_equiv_pos_as_xyz
  1  'x, y, z'
loop_
 _atom_site_type_symbol
 _atom_site_label
 _atom_site_symmetry_multiplicity
 _atom_site_fract_x
 _atom_site_fract_y
 _atom_site_fract_z
 _atom_site_occupancy
  C  C0  1  0.00000000  0.00000000  0.00000000  1
  C  C1  1  0.50000000  0.50000000  0.50000000  1
  C  C2  1  0.43973900  0.73698500  0.83912700  1
  C  C3  1  0.26301500  0.16087300  0.56026100  1
  C  C4  1  0.73698500  0.83912700  0.43973900  1
  C  C5  1  0.16087300  0.56026100  0.26301500  1
  C  C6  1  0.56026100  0.26301500  0.16087300  1
  C  C7  1  0.83912700  0.43973900  0.73698500  1
  Ni  Ni8  1  0.68666000  0.64761500  0.42973600  1
  Ni  Ni9  1  0.35238500  0.57026400  0.31334000  1
  Ni  Ni10  1  0.84844700  0.86280000  0.32248100  1
  Ni  Ni11  1  0.60640300  0.77116300  0.92094000  1
  Ni  Ni12  1  0.77116300  0.92094000  0.60640300  1
  Ni  Ni13  1  0.64761500  0.42973600  0.68666000  1
  Ni  Ni14  1  0.39359700  0.22883700  0.07906000  1
  Ni  Ni15  1  0.15155300  0.13720000  0.67751900  1
  Ni  Ni16  1  0.31334000  0.35238500  0.57026400  1
  Ni  Ni17  1  0.32248100  0.84844700  0.86280000  1
  Ni  Ni18  1  0.86280000  0.32248100  0.84844700  1
  Ni  Ni19  1  0.42973600  0.68666000  0.64761500  1
  Ni  Ni20  1  0.92094000  0.60640300  0.77116300  1
  Ni  Ni21  1  0.07906000  0.39359700  0.22883700  1
  Ni  Ni22  1  0.13720000  0.67751900  0.15155300  1
  Ni  Ni23  1  0.22883700  0.07906000  0.39359700  1
  Ni  Ni24  1  0.67751900  0.15155300  0.13720000  1
  Ni  Ni25  1  0.57026400  0.31334000  0.35238500  1
  Cu  Cu26  1  0.63662300  0.43467400  0.11130500  1
  Cu  Cu27  1  0.88869500  0.36337700  0.56532600  1
  Cu  Cu28  1  0.56532600  0.88869500  0.36337700  1
  Cu  Cu29  1  0.11130500  0.63662300  0.43467400  1
  Cu  Cu30  1  0.36337700  0.56532600  0.88869500  1
  Cu  Cu31  1  0.43467400  0.11130500  0.63662300  1
