# generated using pymatgen
data_CuNi3
_symmetry_space_group_name_H-M   'P 1'
_cell_length_a   7.92563590
_cell_length_b   7.92563590
_cell_length_c   8.25584700
_cell_angle_alpha   90.00000000
_cell_angle_beta   90.00000000
_cell_angle_gamma   119.99999915
_symmetry_Int_Tables_number   1
_chemical_formula_structural   CuNi3
_chemical_formula_sum   'Cu6 Ni18'
_cell_volume   449.11804566
_cell_formula_units_Z   6
loop_
 _symmetry_equiv_pos_site_id
 _symmetry_equiv_pos_as_xyz
  1  'x, y, z'
loop_
 _atom_site_type_symbol
 _atom_site_label
 _atom_site_symmetry_multiplicity
 _atom_site_fract_x
 _atom_site_fract_y
 _atom_site_fract_z
 _atom_site_occupancy
  Ni  Ni0  1  0.37117100  0.00000000  0.91206000  1
  Ni  Ni1  1  0.33333300  0.66666700  0.69640400  1
  Ni  Ni2  1  0.00000000  0.00000000  0.80530000  1
  Ni  Ni3  1  0.00000000  0.37117100  0.91206000  1
  Ni  Ni4  1  0.66666700  0.33333300  0.19640400  1
  Ni  Ni5  1  0.71392900  0.00000000  0.07134400  1
  Ni  Ni6  1  0.62882900  0.62882900  0.91206000  1
  Ni  Ni7  1  0.33333300  0.66666700  0.19640400  1
  Ni  Ni8  1  0.37117100  0.37117100  0.41206000  1
  Ni  Ni9  1  0.28607100  0.00000000  0.57134400  1
  Ni  Ni10  1  0.62882900  0.00000000  0.41206000  1
  Ni  Ni11  1  0.28607100  0.28607100  0.07134400  1
  Ni  Ni12  1  0.00000000  0.71392900  0.07134400  1
  Ni  Ni13  1  0.00000000  0.28607100  0.57134400  1
  Ni  Ni14  1  0.71392900  0.71392900  0.57134400  1
  Ni  Ni15  1  0.00000000  0.62882900  0.41206000  1
  Ni  Ni16  1  0.00000000  0.00000000  0.30530000  1
  Ni  Ni17  1  0.66666700  0.33333300  0.69640400  1
  Cu  Cu18  1  0.32837000  0.32837000  0.74152700  1
  Cu  Cu19  1  0.67163000  0.67163000  0.24152700  1
  Cu  Cu20  1  0.32837000  0.00000000  0.24152700  1
  Cu  Cu21  1  0.67163000  0.00000000  0.74152700  1
  Cu  Cu22  1  0.00000000  0.67163000  0.74152700  1
  Cu  Cu23  1  0.00000000  0.32837000  0.24152700  1
