# generated using pymatgen
data_Cu2NiC6
_symmetry_space_group_name_H-M   'P 1'
_cell_length_a   5.71688500
_cell_length_b   7.24591700
_cell_length_c   12.28199800
_cell_angle_alpha   90.00000000
_cell_angle_beta   90.00000000
_cell_angle_gamma   90.00000000
_symmetry_Int_Tables_number   1
_chemical_formula_structural   Cu2NiC6
_chemical_formula_sum   'Cu8 Ni4 C24'
_cell_volume   508.77039658
_cell_formula_units_Z   4
loop_
 _symmetry_equiv_pos_site_id
 _symmetry_equiv_pos_as_xyz
  1  'x, y, z'
loop_
 _atom_site_type_symbol
 _atom_site_label
 _atom_site_symmetry_multiplicity
 _atom_site_fract_x
 _atom_site_fract_y
 _atom_site_fract_z
 _atom_site_occupancy
  Ni  Ni0  1  0.75000000  0.06983900  0.09526600  1
  Ni  Ni1  1  0.25000000  0.93016100  0.90473400  1
  Ni  Ni2  1  0.25000000  0.56983900  0.40473400  1
  Ni  Ni3  1  0.75000000  0.43016100  0.59526600  1
  Cu  Cu4  1  0.25000000  0.11436700  0.28737100  1
  Cu  Cu5  1  0.75000000  0.88563300  0.71262900  1
  Cu  Cu6  1  0.75000000  0.61436700  0.21262900  1
  Cu  Cu7  1  0.25000000  0.38563300  0.78737100  1
  Cu  Cu8  1  0.25000000  0.39664400  0.07412100  1
  Cu  Cu9  1  0.75000000  0.60335600  0.92587900  1
  Cu  Cu10  1  0.75000000  0.89664400  0.42587900  1
  Cu  Cu11  1  0.25000000  0.10335600  0.57412100  1
  C  C12  1  0.75000000  0.28372200  0.33955500  1
  C  C13  1  0.25000000  0.71627800  0.66044500  1
  C  C14  1  0.25000000  0.78372200  0.16044500  1
  C  C15  1  0.75000000  0.21627800  0.83955500  1
  C  C16  1  0.50657400  0.16329200  0.43231200  1
  C  C17  1  0.00657400  0.83670800  0.56768800  1
  C  C18  1  0.49342600  0.66329200  0.06768800  1
  C  C19  1  0.99342600  0.33670800  0.93231200  1
  C  C20  1  0.49342600  0.83670800  0.56768800  1
  C  C21  1  0.99342600  0.16329200  0.43231200  1
  C  C22  1  0.50657400  0.33670800  0.93231200  1
  C  C23  1  0.00657400  0.66329200  0.06768800  1
  C  C24  1  0.50419300  0.35587800  0.22800600  1
  C  C25  1  0.00419300  0.64412200  0.77199400  1
  C  C26  1  0.49580700  0.85587800  0.27199400  1
  C  C27  1  0.99580700  0.14412200  0.72800600  1
  C  C28  1  0.49580700  0.64412200  0.77199400  1
  C  C29  1  0.99580700  0.35587800  0.22800600  1
  C  C30  1  0.50419300  0.14412200  0.72800600  1
  C  C31  1  0.00419300  0.85587800  0.27199400  1
  C  C32  1  0.25000000  0.08383800  0.10001700  1
  C  C33  1  0.75000000  0.91616200  0.89998300  1
  C  C34  1  0.75000000  0.58383800  0.39998300  1
  C  C35  1  0.25000000  0.41616200  0.60001700  1
