# generated using pymatgen
data_Cu2Ni
_symmetry_space_group_name_H-M   'P 1'
_cell_length_a   4.92292800
_cell_length_b   12.45863300
_cell_length_c   21.91559105
_cell_angle_alpha   72.12908114
_cell_angle_beta   90.00000000
_cell_angle_gamma   90.00000000
_symmetry_Int_Tables_number   1
_chemical_formula_structural   Cu2Ni
_chemical_formula_sum   'Cu32 Ni16'
_cell_volume   1279.29316523
_cell_formula_units_Z   16
loop_
 _symmetry_equiv_pos_site_id
 _symmetry_equiv_pos_as_xyz
  1  'x, y, z'
loop_
 _atom_site_type_symbol
 _atom_site_label
 _atom_site_symmetry_multiplicity
 _atom_site_fract_x
 _atom_site_fract_y
 _atom_site_fract_z
 _atom_site_occupancy
  Ni  Ni0  1  0.86155500  0.08558000  0.63046100  1
  Ni  Ni1  1  0.36155500  0.91442000  0.86953900  1
  Ni  Ni2  1  0.13844500  0.91442000  0.36953900  1
  Ni  Ni3  1  0.63844500  0.08558000  0.13046100  1
  Ni  Ni4  1  0.68558300  0.27100600  0.53344000  1
  Ni  Ni5  1  0.18558300  0.72899400  0.96656000  1
  Ni  Ni6  1  0.31441700  0.72899400  0.46656000  1
  Ni  Ni7  1  0.81441700  0.27100600  0.03344000  1
  Ni  Ni8  1  0.61057400  0.69355700  0.59253400  1
  Ni  Ni9  1  0.11057400  0.30644300  0.90746600  1
  Ni  Ni10  1  0.38942600  0.30644300  0.40746600  1
  Ni  Ni11  1  0.88942600  0.69355700  0.09253400  1
  Ni  Ni12  1  0.83155100  0.83307900  0.65581500  1
  Ni  Ni13  1  0.33155100  0.16692100  0.84418500  1
  Ni  Ni14  1  0.16844900  0.16692100  0.34418500  1
  Ni  Ni15  1  0.66844900  0.83307900  0.15581500  1
  Cu  Cu16  1  0.96611800  0.19832000  0.66076200  1
  Cu  Cu17  1  0.46611800  0.80168000  0.83923800  1
  Cu  Cu18  1  0.03388200  0.80168000  0.33923800  1
  Cu  Cu19  1  0.53388200  0.19832000  0.16076200  1
  Cu  Cu20  1  0.83271800  0.33764300  0.58797700  1
  Cu  Cu21  1  0.33271800  0.66235700  0.91202300  1
  Cu  Cu22  1  0.16728200  0.66235700  0.41202300  1
  Cu  Cu23  1  0.66728200  0.33764300  0.08797700  1
  Cu  Cu24  1  0.68929900  0.11881100  0.55395000  1
  Cu  Cu25  1  0.18929900  0.88118900  0.94605000  1
  Cu  Cu26  1  0.31070100  0.88118900  0.44605000  1
  Cu  Cu27  1  0.81070100  0.11881100  0.05395000  1
  Cu  Cu28  1  0.55265000  0.37313100  0.46111200  1
  Cu  Cu29  1  0.05265000  0.62686900  0.03888800  1
  Cu  Cu30  1  0.44735000  0.62686900  0.53888800  1
  Cu  Cu31  1  0.94735000  0.37313100  0.96111200  1
  Cu  Cu32  1  0.74075700  0.59143800  0.66397200  1
  Cu  Cu33  1  0.24075700  0.40856200  0.83602800  1
  Cu  Cu34  1  0.25924300  0.40856200  0.33602800  1
  Cu  Cu35  1  0.75924300  0.59143800  0.16397200  1
  Cu  Cu36  1  0.90715200  0.69622200  0.71135600  1
  Cu  Cu37  1  0.40715200  0.30377800  0.78864400  1
  Cu  Cu38  1  0.09284800  0.30377800  0.28864400  1
  Cu  Cu39  1  0.59284800  0.69622200  0.21135600  1
  Cu  Cu40  1  0.65477600  0.84241400  0.58188400  1
  Cu  Cu41  1  0.15477600  0.15758600  0.91811600  1
  Cu  Cu42  1  0.34522400  0.15758600  0.41811600  1
  Cu  Cu43  1  0.84522400  0.84241400  0.08188400  1
  Cu  Cu44  1  0.95245600  0.94718000  0.68445600  1
  Cu  Cu45  1  0.45245600  0.05282000  0.81554400  1
  Cu  Cu46  1  0.04754400  0.05282000  0.31554400  1
  Cu  Cu47  1  0.54754400  0.94718000  0.18445600  1
