# generated using pymatgen
data_Cu7(NiC20)2
_symmetry_space_group_name_H-M   'P 1'
_cell_length_a   9.81563566
_cell_length_b   9.81563566
_cell_length_c   7.37441972
_cell_angle_alpha   80.62980261
_cell_angle_beta   80.62980261
_cell_angle_gamma   68.15814525
_symmetry_Int_Tables_number   1
_chemical_formula_structural   Cu7(NiC20)2
_chemical_formula_sum   'Cu7 Ni2 C40'
_cell_volume   646.63017169
_cell_formula_units_Z   1
loop_
 _symmetry_equiv_pos_site_id
 _symmetry_equiv_pos_as_xyz
  1  'x, y, z'
loop_
 _atom_site_type_symbol
 _atom_site_label
 _atom_site_symmetry_multiplicity
 _atom_site_fract_x
 _atom_site_fract_y
 _atom_site_fract_z
 _atom_site_occupancy
  Ni  Ni0  1  0.50000000  0.50000000  0.00000000  1
  Ni  Ni1  1  0.50000000  0.50000000  0.50000000  1
  Cu  Cu2  1  0.55180500  0.15692700  0.30272400  1
  Cu  Cu3  1  0.73974600  0.73974600  0.11825800  1
  Cu  Cu4  1  0.26025400  0.26025400  0.88174200  1
  Cu  Cu5  1  0.84307300  0.44819500  0.69727600  1
  Cu  Cu6  1  0.15692700  0.55180500  0.30272400  1
  Cu  Cu7  1  0.44819500  0.84307300  0.69727600  1
  Cu  Cu8  1  0.00000000  0.00000000  0.00000000  1
  C  C9  1  0.13256700  0.64702100  0.79817900  1
  C  C10  1  0.16831300  0.16831300  0.45657400  1
  C  C11  1  0.86743300  0.35297900  0.20182100  1
  C  C12  1  0.64702100  0.13256700  0.79817900  1
  C  C13  1  0.83168700  0.83168700  0.54342600  1
  C  C14  1  0.35297900  0.86743300  0.20182100  1
  C  C15  1  0.77837500  0.22190000  0.79496400  1
  C  C16  1  0.98934100  0.22302500  0.37069800  1
  C  C17  1  0.22162500  0.77810000  0.20503600  1
  C  C18  1  0.88595800  0.65199400  0.45790700  1
  C  C19  1  0.03780100  0.51774300  0.81190500  1
  C  C20  1  0.34800600  0.11404200  0.54209300  1
  C  C21  1  0.75413100  0.75413100  0.76289100  1
  C  C22  1  0.24586900  0.24586900  0.23710900  1
  C  C23  1  0.25274400  0.51418300  0.96438300  1
  C  C24  1  0.44479900  0.74437200  0.39135900  1
  C  C25  1  0.22302500  0.98934100  0.37069800  1
  C  C26  1  0.99860600  0.26221100  0.00718100  1
  C  C27  1  0.77697500  0.01065900  0.62930200  1
  C  C28  1  0.74725600  0.48581700  0.03561700  1
  C  C29  1  0.73778900  0.00139400  0.99281900  1
  C  C30  1  0.26221100  0.99860600  0.00718100  1
  C  C31  1  0.51774300  0.03780100  0.81190500  1
  C  C32  1  0.01065900  0.77697500  0.62930200  1
  C  C33  1  0.11404200  0.34800600  0.54209300  1
  C  C34  1  0.25562800  0.55520100  0.60864100  1
  C  C35  1  0.77810000  0.22162500  0.20503600  1
  C  C36  1  0.10131000  0.10131000  0.68351200  1
  C  C37  1  0.96219900  0.48225700  0.18809500  1
  C  C38  1  0.89869000  0.89869000  0.31648800  1
  C  C39  1  0.74437200  0.44479900  0.39135900  1
  C  C40  1  0.00139400  0.73778900  0.99281900  1
  C  C41  1  0.65199400  0.88595800  0.45790700  1
  C  C42  1  0.48225700  0.96219900  0.18809500  1
  C  C43  1  0.48581700  0.74725600  0.03561700  1
  C  C44  1  0.51418300  0.25274400  0.96438300  1
  C  C45  1  0.22190000  0.77837500  0.79496400  1
  C  C46  1  0.55520100  0.25562800  0.60864100  1
  C  C47  1  0.42277800  0.42277800  0.28060000  1
  C  C48  1  0.57722200  0.57722200  0.71940000  1
