# generated using pymatgen
data_Cu5(NiC3)6
_symmetry_space_group_name_H-M   'P 1'
_cell_length_a   10.01742327
_cell_length_b   10.01742327
_cell_length_c   14.96913383
_cell_angle_alpha   54.29898573
_cell_angle_beta   54.29898573
_cell_angle_gamma   36.76681257
_symmetry_Int_Tables_number   1
_chemical_formula_structural   Cu5(NiC3)6
_chemical_formula_sum   'Cu10 Ni12 C36'
_cell_volume   709.02194962
_cell_formula_units_Z   2
loop_
 _symmetry_equiv_pos_site_id
 _symmetry_equiv_pos_as_xyz
  1  'x, y, z'
loop_
 _atom_site_type_symbol
 _atom_site_label
 _atom_site_symmetry_multiplicity
 _atom_site_fract_x
 _atom_site_fract_y
 _atom_site_fract_z
 _atom_site_occupancy
  Ni  Ni0  1  0.24993200  0.51253900  0.66067200  1
  Ni  Ni1  1  0.48746100  0.75006800  0.83932800  1
  Ni  Ni2  1  0.75006800  0.48746100  0.33932800  1
  Ni  Ni3  1  0.51253900  0.24993200  0.16067200  1
  Ni  Ni4  1  0.28965200  0.39256400  0.41219500  1
  Ni  Ni5  1  0.60743600  0.71034800  0.08780500  1
  Ni  Ni6  1  0.71034800  0.60743600  0.58780500  1
  Ni  Ni7  1  0.39256400  0.28965200  0.91219500  1
  Ni  Ni8  1  0.09135400  0.33476500  0.64944900  1
  Ni  Ni9  1  0.66523500  0.90864600  0.85055100  1
  Ni  Ni10  1  0.33476500  0.09135400  0.14944900  1
  Ni  Ni11  1  0.90864600  0.66523500  0.35055100  1
  Cu  Cu12  1  0.84122800  0.17020600  0.90444800  1
  Cu  Cu13  1  0.82979400  0.15877200  0.59555200  1
  Cu  Cu14  1  0.15877200  0.82979400  0.09555200  1
  Cu  Cu15  1  0.17020600  0.84122800  0.40444800  1
  Cu  Cu16  1  0.04942100  0.30863800  0.90923500  1
  Cu  Cu17  1  0.69136200  0.95057900  0.59076500  1
  Cu  Cu18  1  0.95057900  0.69136200  0.09076500  1
  Cu  Cu19  1  0.30863800  0.04942100  0.40923500  1
  Cu  Cu20  1  0.81848900  0.18151100  0.25000000  1
  Cu  Cu21  1  0.18151100  0.81848900  0.75000000  1
  C  C22  1  0.16028600  0.99872100  0.25164200  1
  C  C23  1  0.00127900  0.83971400  0.24835800  1
  C  C24  1  0.83971400  0.00127900  0.74835800  1
  C  C25  1  0.99872100  0.16028600  0.75164200  1
  C  C26  1  0.58109500  0.29117200  0.90888900  1
  C  C27  1  0.70882800  0.41890500  0.59111100  1
  C  C28  1  0.41890500  0.70882800  0.09111100  1
  C  C29  1  0.29117200  0.58109500  0.40888900  1
  C  C30  1  0.56088600  0.27584800  0.26499200  1
  C  C31  1  0.72415200  0.43911400  0.23500800  1
  C  C32  1  0.43911400  0.72415200  0.73500800  1
  C  C33  1  0.27584800  0.56088600  0.76499200  1
  C  C34  1  0.00780300  0.83135100  0.57232800  1
  C  C35  1  0.16864900  0.99219700  0.92767200  1
  C  C36  1  0.99219700  0.16864900  0.42767200  1
  C  C37  1  0.83135100  0.00780300  0.07232800  1
  C  C38  1  0.85294400  0.67460400  0.57689000  1
  C  C39  1  0.32539600  0.14705600  0.92311000  1
  C  C40  1  0.14705600  0.32539600  0.42311000  1
  C  C41  1  0.67460400  0.85294400  0.07689000  1
  C  C42  1  0.85758900  0.57955800  0.93751400  1
  C  C43  1  0.42044200  0.14241100  0.56248600  1
  C  C44  1  0.11545400  0.37920500  0.75511000  1
  C  C45  1  0.62079500  0.88454600  0.74489000  1
  C  C46  1  0.88454600  0.62079500  0.24489000  1
  C  C47  1  0.37920500  0.11545400  0.25511000  1
  C  C48  1  0.41904200  0.75309100  0.40616900  1
  C  C49  1  0.24690900  0.58095800  0.09383100  1
  C  C50  1  0.58095800  0.24690900  0.59383100  1
  C  C51  1  0.75309100  0.41904200  0.90616900  1
  C  C52  1  0.96235400  0.16780700  0.08967700  1
  C  C53  1  0.83219300  0.03764600  0.41032300  1
  C  C54  1  0.03764600  0.83219300  0.91032300  1
  C  C55  1  0.16780700  0.96235400  0.58967700  1
  C  C56  1  0.57955800  0.85758900  0.43751400  1
  C  C57  1  0.14241100  0.42044200  0.06248600  1
