# generated using pymatgen
data_Cu3Ni2C
_symmetry_space_group_name_H-M   'P 1'
_cell_length_a   6.67986500
_cell_length_b   6.67986500
_cell_length_c   6.67986500
_cell_angle_alpha   90.00000000
_cell_angle_beta   90.00000000
_cell_angle_gamma   90.00000000
_symmetry_Int_Tables_number   1
_chemical_formula_structural   Cu3Ni2C
_chemical_formula_sum   'Cu12 Ni8 C4'
_cell_volume   298.05956029
_cell_formula_units_Z   4
loop_
 _symmetry_equiv_pos_site_id
 _symmetry_equiv_pos_as_xyz
  1  'x, y, z'
loop_
 _atom_site_type_symbol
 _atom_site_label
 _atom_site_symmetry_multiplicity
 _atom_site_fract_x
 _atom_site_fract_y
 _atom_site_fract_z
 _atom_site_occupancy
  Ni  Ni0  1  0.06620700  0.06620700  0.06620700  1
  Ni  Ni1  1  0.31620700  0.18379300  0.81620700  1
  Ni  Ni2  1  0.81620700  0.31620700  0.18379300  1
  Ni  Ni3  1  0.18379300  0.81620700  0.31620700  1
  Ni  Ni4  1  0.43379300  0.93379300  0.56620700  1
  Ni  Ni5  1  0.56620700  0.43379300  0.93379300  1
  Ni  Ni6  1  0.93379300  0.56620700  0.43379300  1
  Ni  Ni7  1  0.68379300  0.68379300  0.68379300  1
  Cu  Cu8  1  0.20036200  0.45036200  0.12500000  1
  Cu  Cu9  1  0.45036200  0.12500000  0.20036200  1
  Cu  Cu10  1  0.95036200  0.37500000  0.79963800  1
  Cu  Cu11  1  0.87500000  0.70036200  0.04963800  1
  Cu  Cu12  1  0.12500000  0.20036200  0.45036200  1
  Cu  Cu13  1  0.79963800  0.95036200  0.37500000  1
  Cu  Cu14  1  0.70036200  0.04963800  0.87500000  1
  Cu  Cu15  1  0.04963800  0.87500000  0.70036200  1
  Cu  Cu16  1  0.62500000  0.29963800  0.54963800  1
  Cu  Cu17  1  0.54963800  0.62500000  0.29963800  1
  Cu  Cu18  1  0.37500000  0.79963800  0.95036200  1
  Cu  Cu19  1  0.29963800  0.54963800  0.62500000  1
  C  C20  1  0.37500000  0.37500000  0.37500000  1
  C  C21  1  0.62500000  0.87500000  0.12500000  1
  C  C22  1  0.12500000  0.62500000  0.87500000  1
  C  C23  1  0.87500000  0.12500000  0.62500000  1
