# generated using pymatgen
data_Cu2NiC9
_symmetry_space_group_name_H-M   'P 1'
_cell_length_a   5.75845300
_cell_length_b   5.75845138
_cell_length_c   14.81567800
_cell_angle_alpha   90.00001717
_cell_angle_beta   89.99998232
_cell_angle_gamma   120.00000357
_symmetry_Int_Tables_number   1
_chemical_formula_structural   Cu2NiC9
_chemical_formula_sum   'Cu4 Ni2 C18'
_cell_volume   425.46484108
_cell_formula_units_Z   2
loop_
 _symmetry_equiv_pos_site_id
 _symmetry_equiv_pos_as_xyz
  1  'x, y, z'
loop_
 _atom_site_type_symbol
 _atom_site_label
 _atom_site_symmetry_multiplicity
 _atom_site_fract_x
 _atom_site_fract_y
 _atom_site_fract_z
 _atom_site_occupancy
  C  C0  1  0.00000000  0.00000000  0.74999900  1
  C  C1  1  0.00000000  0.00000000  0.24999900  1
  Ni  Ni2  1  0.00000000  0.00000000  0.50001200  1
  Ni  Ni3  1  0.99999900  0.99999800  0.99999100  1
  Cu  Cu4  1  0.66666700  0.33333300  0.88170600  1
  Cu  Cu5  1  0.33333300  0.66666700  0.61829300  1
  Cu  Cu6  1  0.66666700  0.33333300  0.38171700  1
  Cu  Cu7  1  0.33333300  0.66666600  0.11828400  1
  C  C8  1  0.66666700  0.33333300  0.76362300  1
  C  C9  1  0.66666700  0.33333300  0.26360700  1
  C  C10  1  0.33333300  0.66666700  0.73637900  1
  C  C11  1  0.33333400  0.66666700  0.23639200  1
  C  C12  1  0.13404600  0.81192300  0.58120300  1
  C  C13  1  0.86595300  0.18808300  0.41877800  1
  C  C14  1  0.32212900  0.13404700  0.41877800  1
  C  C15  1  0.67787600  0.86595400  0.58120300  1
  C  C16  1  0.67787300  0.81191900  0.08122200  1
  C  C17  1  0.86595400  0.67787600  0.91879800  1
  C  C18  1  0.18808100  0.86595400  0.08122200  1
  C  C19  1  0.13404600  0.32212800  0.08122200  1
  C  C20  1  0.32212400  0.18807700  0.91879800  1
  C  C21  1  0.81192300  0.13404600  0.91879800  1
  C  C22  1  0.18807700  0.32212400  0.58120300  1
  C  C23  1  0.81191800  0.67787100  0.41877800  1
