# generated using pymatgen
data_Cu7Ni2C3
_symmetry_space_group_name_H-M   'P 1'
_cell_length_a   11.82626900
_cell_length_b   12.66202683
_cell_length_c   16.53794974
_cell_angle_alpha   86.77197770
_cell_angle_beta   75.68141227
_cell_angle_gamma   86.86471326
_symmetry_Int_Tables_number   1
_chemical_formula_structural   Cu7Ni2C3
_chemical_formula_sum   'Cu42 Ni12 C18'
_cell_volume   2393.60201378
_cell_formula_units_Z   6
loop_
 _symmetry_equiv_pos_site_id
 _symmetry_equiv_pos_as_xyz
  1  'x, y, z'
loop_
 _atom_site_type_symbol
 _atom_site_label
 _atom_site_symmetry_multiplicity
 _atom_site_fract_x
 _atom_site_fract_y
 _atom_site_fract_z
 _atom_site_occupancy
  C  C0  1  0.52634900  0.99636400  0.17634400  1
  C  C1  1  0.41170600  0.83572000  0.59117700  1
  C  C2  1  0.06695100  0.16941600  0.89458000  1
  C  C3  1  0.63658200  0.29144000  0.98964600  1
  C  C4  1  0.95945900  0.98454300  0.65421300  1
  C  C5  1  0.27365900  0.50873600  0.74881000  1
  C  C6  1  0.58829400  0.16428000  0.40882300  1
  C  C7  1  0.72634100  0.49126400  0.25119000  1
  C  C8  1  0.71340100  0.30608700  0.67780800  1
  C  C9  1  0.36341800  0.70856000  0.01035400  1
  C  C10  1  0.93304900  0.83058400  0.10542000  1
  C  C11  1  0.04054100  0.01545700  0.34578700  1
  C  C12  1  0.47365100  0.00363600  0.82365600  1
  C  C13  1  0.28659900  0.69391300  0.32219200  1
  C  C14  1  0.19883800  0.36200900  0.49020400  1
  C  C15  1  0.14225000  0.31645500  0.14918900  1
  C  C16  1  0.85775000  0.68354500  0.85081100  1
  C  C17  1  0.80116200  0.63799100  0.50979600  1
  Ni  Ni18  1  0.59947500  0.65681300  0.74846600  1
  Ni  Ni19  1  0.22000400  0.02512300  0.08544400  1
  Ni  Ni20  1  0.42304800  0.22069400  0.64901200  1
  Ni  Ni21  1  0.91841200  0.46495400  0.99228000  1
  Ni  Ni22  1  0.40052500  0.34318700  0.25153400  1
  Ni  Ni23  1  0.07344900  0.63921000  0.59313000  1
  Ni  Ni24  1  0.74728200  0.84767200  0.35966000  1
  Ni  Ni25  1  0.92655100  0.36079000  0.40687000  1
  Ni  Ni26  1  0.08158800  0.53504600  0.00772000  1
  Ni  Ni27  1  0.57695200  0.77930600  0.35098800  1
  Ni  Ni28  1  0.25271800  0.15232800  0.64034000  1
  Ni  Ni29  1  0.77999600  0.97487700  0.91455600  1
  Cu  Cu30  1  0.95861800  0.50099300  0.61213600  1
  Cu  Cu31  1  0.74531200  0.41938800  0.46255800  1
  Cu  Cu32  1  0.43262300  0.35317400  0.55195100  1
  Cu  Cu33  1  0.26862600  0.12827900  0.50494600  1
  Cu  Cu34  1  0.92209800  0.28509800  0.28932500  1
  Cu  Cu35  1  0.01172300  0.76076800  0.50858400  1
  Cu  Cu36  1  0.56936600  0.25900000  0.21192000  1
  Cu  Cu37  1  0.59966800  0.73280800  0.22242800  1
  Cu  Cu38  1  0.25468800  0.58061200  0.53744200  1
  Cu  Cu39  1  0.43829100  0.90184300  0.38717800  1
  Cu  Cu40  1  0.25909200  0.90353800  0.17691800  1
  Cu  Cu41  1  0.40629800  0.44636100  0.35570600  1
  Cu  Cu42  1  0.35972600  0.43189000  0.14015000  1
  Cu  Cu43  1  0.73137400  0.87172100  0.49505400  1
  Cu  Cu44  1  0.04580200  0.10542500  0.14247300  1
  Cu  Cu45  1  0.43063400  0.74100000  0.78808000  1
  Cu  Cu46  1  0.66364100  0.83430400  0.93237500  1
  Cu  Cu47  1  0.07790200  0.71490200  0.71067500  1
  Cu  Cu48  1  0.08924800  0.68315800  0.93061500  1
  Cu  Cu49  1  0.12192400  0.28802600  0.67090800  1
  Cu  Cu50  1  0.78659100  0.04771800  0.02935700  1
  Cu  Cu51  1  0.77725900  0.58940800  0.02799800  1
  Cu  Cu52  1  0.40033200  0.26719200  0.77757200  1
  Cu  Cu53  1  0.95419800  0.89457500  0.85752700  1
  Cu  Cu54  1  0.78604400  0.98713100  0.27771700  1
  Cu  Cu55  1  0.64027400  0.56811000  0.85985000  1
  Cu  Cu56  1  0.33635900  0.16569600  0.06762500  1
  Cu  Cu57  1  0.22274100  0.41059200  0.97200200  1
  Cu  Cu58  1  0.56737700  0.64682600  0.44804900  1
  Cu  Cu59  1  0.76220800  0.74868700  0.69220600  1
  Cu  Cu60  1  0.21395600  0.01286900  0.72228300  1
  Cu  Cu61  1  0.04138200  0.49900700  0.38786400  1
  Cu  Cu62  1  0.23779200  0.25131300  0.30779400  1
  Cu  Cu63  1  0.94672500  0.44689600  0.85633400  1
  Cu  Cu64  1  0.91075200  0.31684200  0.06938500  1
  Cu  Cu65  1  0.56170900  0.09815700  0.61282200  1
  Cu  Cu66  1  0.21340900  0.95228200  0.97064300  1
  Cu  Cu67  1  0.74090800  0.09646200  0.82308200  1
  Cu  Cu68  1  0.05327500  0.55310400  0.14366600  1
  Cu  Cu69  1  0.59370200  0.55363900  0.64429400  1
  Cu  Cu70  1  0.98827700  0.23923200  0.49141600  1
  Cu  Cu71  1  0.87807600  0.71197400  0.32909200  1
