# generated using pymatgen
data_Cu2NiC11
_symmetry_space_group_name_H-M   'P 1'
_cell_length_a   9.56908987
_cell_length_b   9.56908987
_cell_length_c   10.66264830
_cell_angle_alpha   87.11717712
_cell_angle_beta   87.11717712
_cell_angle_gamma   42.57942704
_symmetry_Int_Tables_number   1
_chemical_formula_structural   Cu2NiC11
_chemical_formula_sum   'Cu4 Ni2 C22'
_cell_volume   659.64794582
_cell_formula_units_Z   2
loop_
 _symmetry_equiv_pos_site_id
 _symmetry_equiv_pos_as_xyz
  1  'x, y, z'
loop_
 _atom_site_type_symbol
 _atom_site_label
 _atom_site_symmetry_multiplicity
 _atom_site_fract_x
 _atom_site_fract_y
 _atom_site_fract_z
 _atom_site_occupancy
  C  C0  1  0.82894500  0.17961100  0.00070700  1
  C  C1  1  0.17961100  0.82894500  0.50070700  1
  C  C2  1  0.61000800  0.26122200  0.38705000  1
  C  C3  1  0.26122200  0.61000800  0.88705000  1
  C  C4  1  0.47035300  0.10579300  0.09778200  1
  C  C5  1  0.10579300  0.47035300  0.59778200  1
  C  C6  1  0.59923800  0.85193900  0.44535300  1
  C  C7  1  0.85193900  0.59923800  0.94535300  1
  Ni  Ni8  1  0.96670100  0.33445800  0.28713300  1
  Ni  Ni9  1  0.33445800  0.96670100  0.78713300  1
  Cu  Cu10  1  0.40045800  0.74520600  0.17054000  1
  Cu  Cu11  1  0.74520600  0.40045800  0.67054000  1
  Cu  Cu12  1  0.03614500  0.69015200  0.24451100  1
  Cu  Cu13  1  0.69015200  0.03614500  0.74451100  1
  C  C14  1  0.80007100  0.13835300  0.59651900  1
  C  C15  1  0.13835300  0.80007100  0.09651900  1
  C  C16  1  0.70166700  0.96739700  0.28287900  1
  C  C17  1  0.96739700  0.70166700  0.78287900  1
  C  C18  1  0.08789600  0.45234300  0.14105700  1
  C  C19  1  0.45234300  0.08789600  0.64105700  1
  C  C20  1  0.47325600  0.85702100  0.01861900  1
  C  C21  1  0.85702100  0.47325600  0.51861900  1
  C  C22  1  0.29452900  0.93515000  0.34110300  1
  C  C23  1  0.93515000  0.29452900  0.84110300  1
  C  C24  1  0.40186000  0.67297400  0.70454200  1
  C  C25  1  0.67297400  0.40186000  0.20454200  1
  C  C26  1  0.21756600  0.55948800  0.41760500  1
  C  C27  1  0.55948800  0.21756600  0.91760500  1
