# generated using pymatgen
data_Cu2(Ni3C2)3
_symmetry_space_group_name_H-M   'P 1'
_cell_length_a   8.87257800
_cell_length_b   10.95090100
_cell_length_c   19.04214100
_cell_angle_alpha   90.00000000
_cell_angle_beta   90.00000000
_cell_angle_gamma   90.00000000
_symmetry_Int_Tables_number   1
_chemical_formula_structural   Cu2(Ni3C2)3
_chemical_formula_sum   'Cu16 Ni72 C48'
_cell_volume   1850.18627689
_cell_formula_units_Z   8
loop_
 _symmetry_equiv_pos_site_id
 _symmetry_equiv_pos_as_xyz
  1  'x, y, z'
loop_
 _atom_site_type_symbol
 _atom_site_label
 _atom_site_symmetry_multiplicity
 _atom_site_fract_x
 _atom_site_fract_y
 _atom_site_fract_z
 _atom_site_occupancy
  C  C0  1  0.74694600  0.69921800  0.78133800  1
  C  C1  1  0.24694600  0.69921800  0.71866200  1
  C  C2  1  0.25647300  0.50374500  0.02715800  1
  C  C3  1  0.75647300  0.99625500  0.97284200  1
  C  C4  1  0.25305400  0.19921800  0.71866200  1
  C  C5  1  0.75305400  0.19921800  0.78133800  1
  C  C6  1  0.25305400  0.30078200  0.21866200  1
  C  C7  1  0.75647300  0.50374500  0.47284200  1
  C  C8  1  0.74352700  0.00374500  0.47284200  1
  C  C9  1  0.75305400  0.30078200  0.28133800  1
  C  C10  1  0.74694600  0.80078200  0.28133800  1
  C  C11  1  0.24352700  0.00374500  0.02715800  1
  C  C12  1  0.24694600  0.80078200  0.21866200  1
  C  C13  1  0.74352700  0.49625500  0.97284200  1
  C  C14  1  0.24352700  0.49625500  0.52715800  1
  C  C15  1  0.25647300  0.99625500  0.52715800  1
  C  C16  1  0.05048400  0.23762400  0.92274300  1
  C  C17  1  0.96906400  0.54062300  0.16228700  1
  C  C18  1  0.96906400  0.95937700  0.66228700  1
  C  C19  1  0.94951600  0.76237600  0.07725700  1
  C  C20  1  0.03093600  0.45937700  0.83771300  1
  C  C21  1  0.44951600  0.76237600  0.42274300  1
  C  C22  1  0.55048400  0.23762400  0.57725700  1
  C  C23  1  0.44951600  0.73762400  0.92274300  1
  C  C24  1  0.55048400  0.26237600  0.07725700  1
  C  C25  1  0.53093600  0.04062300  0.16228700  1
  C  C26  1  0.53093600  0.45937700  0.66228700  1
  C  C27  1  0.03093600  0.04062300  0.33771300  1
  C  C28  1  0.94951600  0.73762400  0.57725700  1
  C  C29  1  0.46906400  0.54062300  0.33771300  1
  C  C30  1  0.05048400  0.26237600  0.42274300  1
  C  C31  1  0.46906400  0.95937700  0.83771300  1
  C  C32  1  0.58397600  0.51747300  0.16878800  1
  C  C33  1  0.41602400  0.48252700  0.83121200  1
  C  C34  1  0.08397600  0.98252700  0.83121200  1
  C  C35  1  0.44033000  0.25859600  0.40991600  1
  C  C36  1  0.55967000  0.74140400  0.59008400  1
  C  C37  1  0.44033000  0.24140400  0.90991600  1
  C  C38  1  0.91602400  0.48252700  0.66878800  1
  C  C39  1  0.05967000  0.75859600  0.40991600  1
  C  C40  1  0.05967000  0.74140400  0.90991600  1
  C  C41  1  0.94033000  0.25859600  0.09008400  1
  C  C42  1  0.08397600  0.51747300  0.33121200  1
  C  C43  1  0.94033000  0.24140400  0.59008400  1
  C  C44  1  0.91602400  0.01747300  0.16878800  1
  C  C45  1  0.41602400  0.01747300  0.33121200  1
  C  C46  1  0.58397600  0.98252700  0.66878800  1
  C  C47  1  0.55967000  0.75859600  0.09008400  1
  Ni  Ni48  1  0.73303400  0.99668400  0.17458500  1
  Ni  Ni49  1  0.98070500  0.80845800  0.97722200  1
  Ni  Ni50  1  0.97014700  0.62099200  0.88259200  1
  Ni  Ni51  1  0.51929500  0.19154200  0.47722200  1
  Ni  Ni52  1  0.49316500  0.97073800  0.25829700  1
  Ni  Ni53  1  0.97014700  0.87900800  0.38259200  1
  Ni  Ni54  1  0.23303400  0.99668400  0.32541500  1
  Ni  Ni55  1  0.95378400  0.79040500  0.67758400  1
  Ni  Ni56  1  0.76696600  0.49668400  0.17458500  1
  Ni  Ni57  1  0.26288500  0.28514400  0.42913400  1
  Ni  Ni58  1  0.76288500  0.21485600  0.57086600  1
  Ni  Ni59  1  0.47014700  0.62099200  0.61740800  1
  Ni  Ni60  1  0.73711500  0.78514400  0.07086600  1
  Ni  Ni61  1  0.50683500  0.47073800  0.24170300  1
  Ni  Ni62  1  0.52985300  0.12099200  0.88259200  1
  Ni  Ni63  1  0.44681000  0.16639800  0.33976600  1
  Ni  Ni64  1  0.54621600  0.20959500  0.17758400  1
  Ni  Ni65  1  0.98070500  0.69154200  0.47722200  1
  Ni  Ni66  1  0.46154700  0.90512700  0.93709200  1
  Ni  Ni67  1  0.45378400  0.79040500  0.82241600  1
  Ni  Ni68  1  0.53845300  0.40512700  0.56290800  1
  Ni  Ni69  1  0.53845300  0.09487300  0.06290800  1
  Ni  Ni70  1  0.05319000  0.66639800  0.33976600  1
  Ni  Ni71  1  0.02985300  0.12099200  0.61740800  1
  Ni  Ni72  1  0.48070500  0.69154200  0.02277800  1
  Ni  Ni73  1  0.05319000  0.83360200  0.83976600  1
  Ni  Ni74  1  0.04621600  0.20959500  0.32241600  1
  Ni  Ni75  1  0.01929500  0.30845800  0.52277800  1
  Ni  Ni76  1  0.02985300  0.37900800  0.11740800  1
  Ni  Ni77  1  0.26288500  0.21485600  0.92913400  1
  Ni  Ni78  1  0.94681000  0.16639800  0.16023400  1
  Ni  Ni79  1  0.73711500  0.71485600  0.57086600  1
  Ni  Ni80  1  0.49316500  0.52926200  0.75829700  1
  Ni  Ni81  1  0.97769000  0.55536700  0.60047900  1
  Ni  Ni82  1  0.55319000  0.66639800  0.16023400  1
  Ni  Ni83  1  0.04621600  0.29040500  0.82241600  1
  Ni  Ni84  1  0.26696600  0.49668400  0.32541500  1
  Ni  Ni85  1  0.47769000  0.55536700  0.89952100  1
  Ni  Ni86  1  0.76288500  0.28514400  0.07086600  1
  Ni  Ni87  1  0.26696600  0.00331600  0.82541500  1
  Ni  Ni88  1  0.73303400  0.50331600  0.67458500  1
  Ni  Ni89  1  0.47014700  0.87900800  0.11740800  1
  Ni  Ni90  1  0.76696600  0.00331600  0.67458500  1
  Ni  Ni91  1  0.46154700  0.59487300  0.43709200  1
  Ni  Ni92  1  0.55319000  0.83360200  0.66023400  1
  Ni  Ni93  1  0.97769000  0.94463300  0.10047900  1
  Ni  Ni94  1  0.03845300  0.09487300  0.43709200  1
  Ni  Ni95  1  0.96154700  0.90512700  0.56290800  1
  Ni  Ni96  1  0.02231000  0.05536700  0.89952100  1
  Ni  Ni97  1  0.23711500  0.78514400  0.42913400  1
  Ni  Ni98  1  0.52231000  0.44463300  0.10047900  1
  Ni  Ni99  1  0.95378400  0.70959500  0.17758400  1
  Ni  Ni100  1  0.96154700  0.59487300  0.06290800  1
  Ni  Ni101  1  0.52231000  0.05536700  0.60047900  1
  Ni  Ni102  1  0.48070500  0.80845800  0.52277800  1
  Ni  Ni103  1  0.23711500  0.71485600  0.92913400  1
  Ni  Ni104  1  0.99316500  0.52926200  0.74170300  1
  Ni  Ni105  1  0.01929500  0.19154200  0.02277800  1
  Ni  Ni106  1  0.02231000  0.44463300  0.39952100  1
  Ni  Ni107  1  0.94681000  0.33360200  0.66023400  1
  Ni  Ni108  1  0.52985300  0.37900800  0.38259200  1
  Ni  Ni109  1  0.00683500  0.47073800  0.25829700  1
  Ni  Ni110  1  0.47769000  0.94463300  0.39952100  1
  Ni  Ni111  1  0.03845300  0.40512700  0.93709200  1
  Ni  Ni112  1  0.23303400  0.50331600  0.82541500  1
  Ni  Ni113  1  0.00683500  0.02926200  0.75829700  1
  Ni  Ni114  1  0.51929500  0.30845800  0.97722200  1
  Ni  Ni115  1  0.54621600  0.29040500  0.67758400  1
  Ni  Ni116  1  0.45378400  0.70959500  0.32241600  1
  Ni  Ni117  1  0.99316500  0.97073800  0.24170300  1
  Ni  Ni118  1  0.50683500  0.02926200  0.74170300  1
  Ni  Ni119  1  0.44681000  0.33360200  0.83976600  1
  Cu  Cu120  1  0.82281200  0.27169400  0.41665400  1
  Cu  Cu121  1  0.29901600  0.05796700  0.16402600  1
  Cu  Cu122  1  0.79901600  0.05796700  0.33597400  1
  Cu  Cu123  1  0.20098400  0.55796700  0.16402600  1
  Cu  Cu124  1  0.67718800  0.72830600  0.91665400  1
  Cu  Cu125  1  0.82281200  0.22830600  0.91665400  1
  Cu  Cu126  1  0.29901600  0.44203300  0.66402600  1
  Cu  Cu127  1  0.32281200  0.22830600  0.58334600  1
  Cu  Cu128  1  0.70098400  0.55796700  0.33597400  1
  Cu  Cu129  1  0.20098400  0.94203300  0.66402600  1
  Cu  Cu130  1  0.32281200  0.27169400  0.08334600  1
  Cu  Cu131  1  0.70098400  0.94203300  0.83597400  1
  Cu  Cu132  1  0.67718800  0.77169400  0.41665400  1
  Cu  Cu133  1  0.17718800  0.77169400  0.08334600  1
  Cu  Cu134  1  0.79901600  0.44203300  0.83597400  1
  Cu  Cu135  1  0.17718800  0.72830600  0.58334600  1
