# generated using pymatgen
data_Cu8Ni4C3
_symmetry_space_group_name_H-M   'P 1'
_cell_length_a   7.01689481
_cell_length_b   7.01689481
_cell_length_c   7.01689481
_cell_angle_alpha   104.18894042
_cell_angle_beta   104.18894042
_cell_angle_gamma   120.64781107
_symmetry_Int_Tables_number   1
_chemical_formula_structural   Cu8Ni4C3
_chemical_formula_sum   'Cu8 Ni4 C3'
_cell_volume   258.24520506
_cell_formula_units_Z   1
loop_
 _symmetry_equiv_pos_site_id
 _symmetry_equiv_pos_as_xyz
  1  'x, y, z'
loop_
 _atom_site_type_symbol
 _atom_site_label
 _atom_site_symmetry_multiplicity
 _atom_site_fract_x
 _atom_site_fract_y
 _atom_site_fract_z
 _atom_site_occupancy
  C  C0  1  0.50000000  0.50000000  0.00000000  1
  C  C1  1  0.25000000  0.75000000  0.50000000  1
  C  C2  1  0.75000000  0.25000000  0.50000000  1
  Ni  Ni3  1  0.05886100  0.14591600  0.46970900  1
  Ni  Ni4  1  0.41084800  0.94113900  0.08705500  1
  Ni  Ni5  1  0.85408400  0.32379300  0.91294500  1
  Ni  Ni6  1  0.67620700  0.58915200  0.53029100  1
  Cu  Cu7  1  0.00456800  0.43064400  0.09980000  1
  Cu  Cu8  1  0.49264400  0.97211600  0.28402000  1
  Cu  Cu9  1  0.79137600  0.50735600  0.47947200  1
  Cu  Cu10  1  0.02788400  0.31190400  0.52052800  1
  Cu  Cu11  1  0.56935600  0.66915700  0.57392500  1
  Cu  Cu12  1  0.09523200  0.99543200  0.42607500  1
  Cu  Cu13  1  0.68809600  0.20862400  0.71598000  1
  Cu  Cu14  1  0.33084300  0.90476800  0.90020000  1
