# generated using pymatgen
data_Cu5Ni2C5
_symmetry_space_group_name_H-M   'P 1'
_cell_length_a   8.85838412
_cell_length_b   8.85835447
_cell_length_c   8.85836626
_cell_angle_alpha   109.33093403
_cell_angle_beta   109.57843499
_cell_angle_gamma   109.50457660
_symmetry_Int_Tables_number   1
_chemical_formula_structural   Cu5Ni2C5
_chemical_formula_sum   'Cu10 Ni4 C10'
_cell_volume   535.10151805
_cell_formula_units_Z   2
loop_
 _symmetry_equiv_pos_site_id
 _symmetry_equiv_pos_as_xyz
  1  'x, y, z'
loop_
 _atom_site_type_symbol
 _atom_site_label
 _atom_site_symmetry_multiplicity
 _atom_site_fract_x
 _atom_site_fract_y
 _atom_site_fract_z
 _atom_site_occupancy
  C  C0  1  0.65386400  0.40386600  0.24999900  1
  C  C1  1  0.25000300  0.65355400  0.40355000  1
  C  C2  1  0.84613600  0.09613300  0.75000100  1
  C  C3  1  0.40338200  0.24999900  0.65338400  1
  C  C4  1  0.09662100  0.75000000  0.84662100  1
  C  C5  1  0.74999900  0.84644600  0.09644900  1
  C  C6  1  0.50066900  0.00107000  0.31003800  1
  C  C7  1  0.30896500  0.49892700  0.99960100  1
  C  C8  1  0.99935200  0.30940800  0.50039400  1
  C  C9  1  0.19099100  0.19059600  0.18994900  1
  Ni  Ni10  1  0.99991000  0.88256000  0.50003500  1
  Ni  Ni11  1  0.61747300  0.61743700  0.61734800  1
  Ni  Ni12  1  0.88253400  0.49987700  0.99996900  1
  Ni  Ni13  1  0.50009000  0.00012300  0.88265600  1
  Cu  Cu14  1  0.98082100  0.98075600  0.98048500  1
  Cu  Cu15  1  0.99972800  0.51924400  0.50006500  1
  Cu  Cu16  1  0.51917800  0.49966500  0.99994100  1
  Cu  Cu17  1  0.50027500  0.00033600  0.51950600  1
  Cu  Cu18  1  0.11131800  0.36131700  0.75000800  1
  Cu  Cu19  1  0.75000000  0.11188400  0.36188500  1
  Cu  Cu20  1  0.13982200  0.25000100  0.38982800  1
  Cu  Cu21  1  0.25000200  0.38811600  0.13811300  1
  Cu  Cu22  1  0.38868600  0.13868200  0.24999800  1
  Cu  Cu23  1  0.36017900  0.75000000  0.11017800  1
