# generated using pymatgen
data_CuNi5C19
_symmetry_space_group_name_H-M   'P 1'
_cell_length_a   6.31489209
_cell_length_b   6.31489209
_cell_length_c   25.59410900
_cell_angle_alpha   90.00000000
_cell_angle_beta   90.00000000
_cell_angle_gamma   120.00000096
_symmetry_Int_Tables_number   1
_chemical_formula_structural   CuNi5C19
_chemical_formula_sum   'Cu2 Ni10 C38'
_cell_volume   883.89873065
_cell_formula_units_Z   2
loop_
 _symmetry_equiv_pos_site_id
 _symmetry_equiv_pos_as_xyz
  1  'x, y, z'
loop_
 _atom_site_type_symbol
 _atom_site_label
 _atom_site_symmetry_multiplicity
 _atom_site_fract_x
 _atom_site_fract_y
 _atom_site_fract_z
 _atom_site_occupancy
  Ni  Ni0  1  0.66666700  0.33333300  0.94195600  1
  Ni  Ni1  1  0.00000000  0.00000000  0.84503000  1
  Ni  Ni2  1  0.00000000  0.00000000  0.15497000  1
  Ni  Ni3  1  0.33333300  0.66666700  0.05804400  1
  Ni  Ni4  1  0.33333300  0.66666700  0.44195600  1
  Ni  Ni5  1  0.00000000  0.00000000  0.65497000  1
  Ni  Ni6  1  0.66666700  0.33333300  0.75000000  1
  Ni  Ni7  1  0.66666700  0.33333300  0.55804400  1
  Ni  Ni8  1  0.33333300  0.66666700  0.25000000  1
  Ni  Ni9  1  0.00000000  0.00000000  0.34503000  1
  Cu  Cu10  1  0.00000000  0.00000000  0.00000000  1
  Cu  Cu11  1  0.00000000  0.00000000  0.50000000  1
  C  C12  1  0.66666700  0.33333300  0.09069700  1
  C  C13  1  0.33333300  0.66666700  0.69723900  1
  C  C14  1  0.33333300  0.66666700  0.90930300  1
  C  C15  1  0.66666700  0.33333300  0.40930300  1
  C  C16  1  0.66666700  0.33333300  0.30276100  1
  C  C17  1  0.33333300  0.66666700  0.59069700  1
  C  C18  1  0.66666700  0.33333300  0.19723900  1
  C  C19  1  0.33333300  0.66666700  0.80276100  1
  C  C20  1  0.52579000  0.47421000  0.35392700  1
  C  C21  1  0.47421000  0.94842000  0.64607300  1
  C  C22  1  0.82493900  0.64987800  0.45065600  1
  C  C23  1  0.94842000  0.47421000  0.35392700  1
  C  C24  1  0.47421000  0.52579000  0.64607300  1
  C  C25  1  0.47421000  0.94842000  0.85392700  1
  C  C26  1  0.17506100  0.35012200  0.54934400  1
  C  C27  1  0.94842000  0.47421000  0.14607300  1
  C  C28  1  0.64987800  0.82493900  0.54934400  1
  C  C29  1  0.80791300  0.61582600  0.25000000  1
  C  C30  1  0.38417400  0.19208700  0.25000000  1
  C  C31  1  0.17506100  0.82493900  0.54934400  1
  C  C32  1  0.82493900  0.17506100  0.45065600  1
  C  C33  1  0.82493900  0.64987800  0.04934400  1
  C  C34  1  0.05158000  0.52579000  0.64607300  1
  C  C35  1  0.64987800  0.82493900  0.95065600  1
  C  C36  1  0.61582600  0.80791300  0.75000000  1
  C  C37  1  0.05158000  0.52579000  0.85392700  1
  C  C38  1  0.17506100  0.82493900  0.95065600  1
  C  C39  1  0.80791300  0.19208700  0.25000000  1
  C  C40  1  0.52579000  0.05158000  0.35392700  1
  C  C41  1  0.52579000  0.47421000  0.14607300  1
  C  C42  1  0.35012200  0.17506100  0.04934400  1
  C  C43  1  0.17506100  0.35012200  0.95065600  1
  C  C44  1  0.35012200  0.17506100  0.45065600  1
  C  C45  1  0.19208700  0.80791300  0.75000000  1
  C  C46  1  0.52579000  0.05158000  0.14607300  1
  C  C47  1  0.19208700  0.38417400  0.75000000  1
  C  C48  1  0.47421000  0.52579000  0.85392700  1
  C  C49  1  0.82493900  0.17506100  0.04934400  1
