# generated using pymatgen
data_Cu9NiC7
_symmetry_space_group_name_H-M   'P 1'
_cell_length_a   15.16141495
_cell_length_b   15.16141495
_cell_length_c   15.16141495
_cell_angle_alpha   109.47122063
_cell_angle_beta   109.47122063
_cell_angle_gamma   109.47122063
_symmetry_Int_Tables_number   1
_chemical_formula_structural   Cu9NiC7
_chemical_formula_sum   'Cu72 Ni8 C56'
_cell_volume   2682.85567900
_cell_formula_units_Z   8
loop_
 _symmetry_equiv_pos_site_id
 _symmetry_equiv_pos_as_xyz
  1  'x, y, z'
loop_
 _atom_site_type_symbol
 _atom_site_label
 _atom_site_symmetry_multiplicity
 _atom_site_fract_x
 _atom_site_fract_y
 _atom_site_fract_z
 _atom_site_occupancy
  C  C0  1  0.00000000  0.50000000  0.50000000  1
  C  C1  1  0.00000000  0.50000000  0.00000000  1
  C  C2  1  0.00000000  0.00000000  0.50000000  1
  C  C3  1  0.50000000  0.00000000  0.00000000  1
  C  C4  1  0.50000000  0.50000000  0.50000000  1
  C  C5  1  0.50000000  0.00000000  0.50000000  1
  C  C6  1  0.00000000  0.00000000  0.00000000  1
  C  C7  1  0.50000000  0.50000000  0.00000000  1
  C  C8  1  0.01281300  0.25000000  0.26281300  1
  C  C9  1  0.75000000  0.26938700  0.23061300  1
  C  C10  1  0.25000000  0.48718700  0.23718700  1
  C  C11  1  0.51281300  0.25000000  0.76281300  1
  C  C12  1  0.25000000  0.98718700  0.73718700  1
  C  C13  1  0.51938700  0.26938700  0.53877500  1
  C  C14  1  0.98061300  0.51938700  0.75000000  1
  C  C15  1  0.48718700  0.75000000  0.23718700  1
  C  C16  1  0.73061300  0.76938700  0.25000000  1
  C  C17  1  0.48061300  0.25000000  0.01938700  1
  C  C18  1  0.26938700  0.23061300  0.75000000  1
  C  C19  1  0.75000000  0.51281300  0.76281300  1
  C  C20  1  0.75000000  0.01281300  0.26281300  1
  C  C21  1  0.98718700  0.73718700  0.25000000  1
  C  C22  1  0.26281300  0.01281300  0.25000000  1
  C  C23  1  0.53877500  0.51938700  0.26938700  1
  C  C24  1  0.76281300  0.51281300  0.25000000  1
  C  C25  1  0.73718700  0.98718700  0.75000000  1
  C  C26  1  0.26938700  0.53877500  0.51938700  1
  C  C27  1  0.75000000  0.98061300  0.51938700  1
  C  C28  1  0.26281300  0.75000000  0.01281300  1
  C  C29  1  0.46122500  0.48061300  0.73061300  1
  C  C30  1  0.75000000  0.23718700  0.48718700  1
  C  C31  1  0.75000000  0.73718700  0.98718700  1
  C  C32  1  0.23061300  0.75000000  0.26938700  1
  C  C33  1  0.76938700  0.01938700  0.03877500  1
  C  C34  1  0.25000000  0.26281300  0.01281300  1
  C  C35  1  0.98718700  0.75000000  0.73718700  1
  C  C36  1  0.25000000  0.01938700  0.48061300  1
  C  C37  1  0.01938700  0.03877500  0.76938700  1
  C  C38  1  0.51938700  0.75000000  0.98061300  1
  C  C39  1  0.73718700  0.25000000  0.98718700  1
  C  C40  1  0.23718700  0.25000000  0.48718700  1
  C  C41  1  0.51281300  0.76281300  0.75000000  1
  C  C42  1  0.01938700  0.48061300  0.25000000  1
  C  C43  1  0.98061300  0.96122500  0.23061300  1
  C  C44  1  0.73061300  0.46122500  0.48061300  1
  C  C45  1  0.25000000  0.73061300  0.76938700  1
  C  C46  1  0.76281300  0.75000000  0.51281300  1
  C  C47  1  0.48061300  0.73061300  0.46122500  1
  C  C48  1  0.25000000  0.76281300  0.51281300  1
  C  C49  1  0.96122500  0.23061300  0.98061300  1
  C  C50  1  0.01281300  0.26281300  0.75000000  1
  C  C51  1  0.23718700  0.48718700  0.75000000  1
  C  C52  1  0.76938700  0.25000000  0.73061300  1
  C  C53  1  0.03877500  0.76938700  0.01938700  1
  C  C54  1  0.48718700  0.23718700  0.25000000  1
  C  C55  1  0.23061300  0.98061300  0.96122500  1
  Ni  Ni56  1  0.50000000  0.00000000  0.25000000  1
  Ni  Ni57  1  0.25000000  0.50000000  0.00000000  1
  Ni  Ni58  1  0.50000000  0.00000000  0.75000000  1
  Ni  Ni59  1  0.75000000  0.75000000  0.75000000  1
  Ni  Ni60  1  0.00000000  0.25000000  0.50000000  1
  Ni  Ni61  1  0.25000000  0.25000000  0.25000000  1
  Ni  Ni62  1  0.75000000  0.50000000  0.00000000  1
  Ni  Ni63  1  0.00000000  0.75000000  0.50000000  1
  Cu  Cu64  1  0.43886300  0.58936600  0.65240200  1
  Cu  Cu65  1  0.58936600  0.65240200  0.43886300  1
  Cu  Cu66  1  0.28646100  0.93696400  0.34759800  1
  Cu  Cu67  1  0.89404000  0.78808000  0.14404000  1
  Cu  Cu68  1  0.06113700  0.84759800  0.91063400  1
  Cu  Cu69  1  0.41063400  0.34759800  0.56113700  1
  Cu  Cu70  1  0.71353900  0.15050300  0.06113700  1
  Cu  Cu71  1  0.85596000  0.10596000  0.21192000  1
  Cu  Cu72  1  0.78646100  0.43886300  0.34949700  1
  Cu  Cu73  1  0.21353900  0.56113700  0.65050300  1
  Cu  Cu74  1  0.14404000  0.89404000  0.78808000  1
  Cu  Cu75  1  0.93696400  0.34759800  0.28646100  1
  Cu  Cu76  1  0.41063400  0.56303600  0.84949700  1
  Cu  Cu77  1  0.39404000  0.64404000  0.28808100  1
  Cu  Cu78  1  0.28646100  0.84949700  0.93886300  1
  Cu  Cu79  1  0.43696400  0.15050300  0.58936600  1
  Cu  Cu80  1  0.58936600  0.43696400  0.15050300  1
  Cu  Cu81  1  0.15050300  0.58936600  0.43696400  1
  Cu  Cu82  1  0.93886300  0.28646100  0.84949700  1
  Cu  Cu83  1  0.15240200  0.08936600  0.93886300  1
  Cu  Cu84  1  0.15050300  0.06113700  0.71353900  1
  Cu  Cu85  1  0.65240200  0.43886300  0.58936600  1
  Cu  Cu86  1  0.85596000  0.25000000  0.64404000  1
  Cu  Cu87  1  0.84759800  0.91063400  0.06113700  1
  Cu  Cu88  1  0.21353900  0.15240200  0.56303600  1
  Cu  Cu89  1  0.15240200  0.56303600  0.21353900  1
  Cu  Cu90  1  0.75000000  0.35596000  0.14404000  1
  Cu  Cu91  1  0.43696400  0.78646100  0.84759800  1
  Cu  Cu92  1  0.14404000  0.75000000  0.35596000  1
  Cu  Cu93  1  0.65050300  0.93696400  0.08936600  1
  Cu  Cu94  1  0.89404000  0.60596000  0.75000000  1
  Cu  Cu95  1  0.84949700  0.41063400  0.56303600  1
  Cu  Cu96  1  0.64404000  0.85596000  0.25000000  1
  Cu  Cu97  1  0.71353900  0.06303600  0.65240200  1
  Cu  Cu98  1  0.43886300  0.34949700  0.78646100  1
  Cu  Cu99  1  0.34949700  0.06303600  0.91063400  1
  Cu  Cu100  1  0.93886300  0.15240200  0.08936600  1
  Cu  Cu101  1  0.78646100  0.84759800  0.43696400  1
  Cu  Cu102  1  0.35596000  0.71191900  0.60596000  1
  Cu  Cu103  1  0.84759800  0.43696400  0.78646100  1
  Cu  Cu104  1  0.25000000  0.64404000  0.85596000  1
  Cu  Cu105  1  0.06303600  0.91063400  0.34949700  1
  Cu  Cu106  1  0.10596000  0.21191900  0.85596000  1
  Cu  Cu107  1  0.06113700  0.71353900  0.15050300  1
  Cu  Cu108  1  0.08936600  0.93886300  0.15240200  1
  Cu  Cu109  1  0.65050300  0.21353900  0.56113700  1
  Cu  Cu110  1  0.25000000  0.10596000  0.39404000  1
  Cu  Cu111  1  0.56113700  0.41063400  0.34759800  1
  Cu  Cu112  1  0.56303600  0.84949700  0.41063400  1
  Cu  Cu113  1  0.08936600  0.65050300  0.93696400  1
  Cu  Cu114  1  0.56113700  0.65050300  0.21353900  1
  Cu  Cu115  1  0.84949700  0.93886300  0.28646100  1
  Cu  Cu116  1  0.65240200  0.71353900  0.06303600  1
  Cu  Cu117  1  0.10596000  0.39404000  0.25000000  1
  Cu  Cu118  1  0.34759800  0.56113700  0.41063400  1
  Cu  Cu119  1  0.60596000  0.75000000  0.89404000  1
  Cu  Cu120  1  0.56303600  0.21353900  0.15240200  1
  Cu  Cu121  1  0.06303600  0.65240200  0.71353900  1
  Cu  Cu122  1  0.60596000  0.35596000  0.71192000  1
  Cu  Cu123  1  0.28808000  0.39404000  0.64404000  1
  Cu  Cu124  1  0.21191900  0.85596000  0.10596000  1
  Cu  Cu125  1  0.64404000  0.28808000  0.39404000  1
  Cu  Cu126  1  0.39404000  0.25000000  0.10596000  1
  Cu  Cu127  1  0.91063400  0.06113700  0.84759800  1
  Cu  Cu128  1  0.71191900  0.60596000  0.35596000  1
  Cu  Cu129  1  0.78808000  0.14404000  0.89404000  1
  Cu  Cu130  1  0.91063400  0.34949700  0.06303600  1
  Cu  Cu131  1  0.75000000  0.89404000  0.60596000  1
  Cu  Cu132  1  0.34759800  0.28646100  0.93696400  1
  Cu  Cu133  1  0.93696400  0.08936600  0.65050300  1
  Cu  Cu134  1  0.34949700  0.78646100  0.43886300  1
  Cu  Cu135  1  0.35596000  0.14404000  0.75000000  1
