# generated using pymatgen
data_Cu7NiC4
_symmetry_space_group_name_H-M   'P 1'
_cell_length_a   10.33287367
_cell_length_b   10.33287367
_cell_length_c   6.10775900
_cell_angle_alpha   90.00000000
_cell_angle_beta   90.00000000
_cell_angle_gamma   119.99999790
_symmetry_Int_Tables_number   1
_chemical_formula_structural   Cu7NiC4
_chemical_formula_sum   'Cu14 Ni2 C8'
_cell_volume   564.74809269
_cell_formula_units_Z   2
loop_
 _symmetry_equiv_pos_site_id
 _symmetry_equiv_pos_as_xyz
  1  'x, y, z'
loop_
 _atom_site_type_symbol
 _atom_site_label
 _atom_site_symmetry_multiplicity
 _atom_site_fract_x
 _atom_site_fract_y
 _atom_site_fract_z
 _atom_site_occupancy
  C  C0  1  0.22006600  0.35589100  0.42007700  1
  C  C1  1  0.86417500  0.22006600  0.92007700  1
  C  C2  1  0.35589100  0.13582500  0.92007700  1
  C  C3  1  0.64410900  0.86417500  0.42007700  1
  C  C4  1  0.13582500  0.77993400  0.42007700  1
  C  C5  1  0.77993400  0.64410900  0.92007700  1
  C  C6  1  0.00000000  0.00000000  0.47300700  1
  C  C7  1  0.00000000  0.00000000  0.97300700  1
  Ni  Ni8  1  0.66666700  0.33333300  0.33719700  1
  Ni  Ni9  1  0.33333300  0.66666700  0.83719700  1
  Cu  Cu10  1  0.26264700  0.10287400  0.45494500  1
  Cu  Cu11  1  0.15977300  0.26264700  0.95494500  1
  Cu  Cu12  1  0.10287400  0.84022700  0.95494500  1
  Cu  Cu13  1  0.89712600  0.15977300  0.45494500  1
  Cu  Cu14  1  0.84022700  0.73735300  0.45494500  1
  Cu  Cu15  1  0.73735300  0.89712600  0.95494500  1
  Cu  Cu16  1  0.51792800  0.42544200  0.17061000  1
  Cu  Cu17  1  0.09248600  0.51792800  0.67061000  1
  Cu  Cu18  1  0.42544200  0.90751400  0.67061000  1
  Cu  Cu19  1  0.57455800  0.09248600  0.17061000  1
  Cu  Cu20  1  0.90751400  0.48207200  0.17061000  1
  Cu  Cu21  1  0.48207200  0.57455800  0.67061000  1
  Cu  Cu22  1  0.33333300  0.66666700  0.22421900  1
  Cu  Cu23  1  0.66666700  0.33333300  0.72421900  1
