# generated using pymatgen
data_Cu5(NiC2)2
_symmetry_space_group_name_H-M   'P 1'
_cell_length_a   7.61342178
_cell_length_b   7.61342178
_cell_length_c   11.71430400
_cell_angle_alpha   90.00000000
_cell_angle_beta   90.00000000
_cell_angle_gamma   134.25526526
_symmetry_Int_Tables_number   1
_chemical_formula_structural   Cu5(NiC2)2
_chemical_formula_sum   'Cu10 Ni4 C8'
_cell_volume   486.33275170
_cell_formula_units_Z   2
loop_
 _symmetry_equiv_pos_site_id
 _symmetry_equiv_pos_as_xyz
  1  'x, y, z'
loop_
 _atom_site_type_symbol
 _atom_site_label
 _atom_site_symmetry_multiplicity
 _atom_site_fract_x
 _atom_site_fract_y
 _atom_site_fract_z
 _atom_site_occupancy
  C  C0  1  0.34610400  0.65389600  0.95561500  1
  C  C1  1  0.65389600  0.34610400  0.45561500  1
  C  C2  1  0.34610400  0.65389600  0.54438500  1
  C  C3  1  0.09134000  0.90866000  0.75000000  1
  C  C4  1  0.65389600  0.34610400  0.04438500  1
  C  C5  1  0.90866000  0.09134000  0.25000000  1
  C  C6  1  0.24621800  0.75378200  0.25000000  1
  C  C7  1  0.75378200  0.24621800  0.75000000  1
  Ni  Ni8  1  0.50442200  0.49557800  0.75000000  1
  Ni  Ni9  1  0.00000000  0.00000000  0.00000000  1
  Ni  Ni10  1  0.00000000  0.00000000  0.50000000  1
  Ni  Ni11  1  0.49557800  0.50442200  0.25000000  1
  Cu  Cu12  1  0.50457100  0.94338000  0.13636300  1
  Cu  Cu13  1  0.88097900  0.11902100  0.75000000  1
  Cu  Cu14  1  0.94338000  0.50457100  0.63636300  1
  Cu  Cu15  1  0.49542900  0.05662000  0.86363700  1
  Cu  Cu16  1  0.11902100  0.88097900  0.25000000  1
  Cu  Cu17  1  0.49542900  0.05662000  0.63636300  1
  Cu  Cu18  1  0.94338000  0.50457100  0.86363700  1
  Cu  Cu19  1  0.05662000  0.49542900  0.13636300  1
  Cu  Cu20  1  0.50457100  0.94338000  0.36363700  1
  Cu  Cu21  1  0.05662000  0.49542900  0.36363700  1
