# generated using pymatgen
data_Cu4NiC4
_symmetry_space_group_name_H-M   'P 1'
_cell_length_a   5.87925838
_cell_length_b   5.87925838
_cell_length_c   5.70421944
_cell_angle_alpha   81.10324829
_cell_angle_beta   81.10324829
_cell_angle_gamma   112.98826952
_symmetry_Int_Tables_number   1
_chemical_formula_structural   Cu4NiC4
_chemical_formula_sum   'Cu4 Ni1 C4'
_cell_volume   174.24298230
_cell_formula_units_Z   1
loop_
 _symmetry_equiv_pos_site_id
 _symmetry_equiv_pos_as_xyz
  1  'x, y, z'
loop_
 _atom_site_type_symbol
 _atom_site_label
 _atom_site_symmetry_multiplicity
 _atom_site_fract_x
 _atom_site_fract_y
 _atom_site_fract_z
 _atom_site_occupancy
  C  C0  1  0.32998000  0.32998000  0.75033700  1
  C  C1  1  0.79882600  0.79882600  0.95815000  1
  C  C2  1  0.12617300  0.59420500  0.31576400  1
  C  C3  1  0.59420500  0.12617300  0.31576400  1
  Ni  Ni4  1  0.98857800  0.98857800  0.45472900  1
  Cu  Cu5  1  0.12950600  0.12950600  0.20791300  1
  Cu  Cu6  1  0.76745900  0.76745900  0.44587900  1
  Cu  Cu7  1  0.14799900  0.91012400  0.58119200  1
  Cu  Cu8  1  0.91012400  0.14799900  0.58119200  1
