# generated using pymatgen
data_Cu2NiC9
_symmetry_space_group_name_H-M   'P 1'
_cell_length_a   9.59698179
_cell_length_b   9.59698179
_cell_length_c   5.66558300
_cell_angle_alpha   90.00000000
_cell_angle_beta   90.00000000
_cell_angle_gamma   145.59507235
_symmetry_Int_Tables_number   1
_chemical_formula_structural   Cu2NiC9
_chemical_formula_sum   'Cu4 Ni2 C18'
_cell_volume   294.84351229
_cell_formula_units_Z   2
loop_
 _symmetry_equiv_pos_site_id
 _symmetry_equiv_pos_as_xyz
  1  'x, y, z'
loop_
 _atom_site_type_symbol
 _atom_site_label
 _atom_site_symmetry_multiplicity
 _atom_site_fract_x
 _atom_site_fract_y
 _atom_site_fract_z
 _atom_site_occupancy
  Ni  Ni0  1  0.25506200  0.25506200  0.25000000  1
  Ni  Ni1  1  0.74493800  0.74493800  0.75000000  1
  Cu  Cu2  1  0.26158400  0.73841600  0.00000000  1
  Cu  Cu3  1  0.73841600  0.26158400  0.00000000  1
  Cu  Cu4  1  0.73841600  0.26158400  0.50000000  1
  Cu  Cu5  1  0.26158400  0.73841600  0.50000000  1
  C  C6  1  0.36156300  0.13078800  0.75000000  1
  C  C7  1  0.86921200  0.63843700  0.25000000  1
  C  C8  1  0.63843700  0.86921200  0.25000000  1
  C  C9  1  0.13078800  0.36156300  0.75000000  1
  C  C10  1  0.61631200  0.38368800  0.00000000  1
  C  C11  1  0.90519800  0.09480200  0.50000000  1
  C  C12  1  0.38368800  0.61631200  0.50000000  1
  C  C13  1  0.56283600  0.99929800  0.25000000  1
  C  C14  1  0.29698400  0.29698400  0.75000000  1
  C  C15  1  0.90519800  0.09480200  0.00000000  1
  C  C16  1  0.61631200  0.38368800  0.50000000  1
  C  C17  1  0.00070200  0.43716400  0.75000000  1
  C  C18  1  0.70301600  0.70301600  0.25000000  1
  C  C19  1  0.99929800  0.56283600  0.25000000  1
  C  C20  1  0.38368800  0.61631200  0.00000000  1
  C  C21  1  0.43716400  0.00070200  0.75000000  1
  C  C22  1  0.09480200  0.90519800  0.00000000  1
  C  C23  1  0.09480200  0.90519800  0.50000000  1
