# generated using pymatgen
data_Cu6NiC30
_symmetry_space_group_name_H-M   'P 1'
_cell_length_a   14.67324397
_cell_length_b   14.67324397
_cell_length_c   14.67324434
_cell_angle_alpha   43.87873346
_cell_angle_beta   43.87873346
_cell_angle_gamma   43.87873693
_symmetry_Int_Tables_number   1
_chemical_formula_structural   Cu6NiC30
_chemical_formula_sum   'Cu12 Ni2 C60'
_cell_volume   1378.22302426
_cell_formula_units_Z   2
loop_
 _symmetry_equiv_pos_site_id
 _symmetry_equiv_pos_as_xyz
  1  'x, y, z'
loop_
 _atom_site_type_symbol
 _atom_site_label
 _atom_site_symmetry_multiplicity
 _atom_site_fract_x
 _atom_site_fract_y
 _atom_site_fract_z
 _atom_site_occupancy
  C  C0  1  0.36031400  0.75000000  0.13968600  1
  C  C1  1  0.75000000  0.13968600  0.36031400  1
  C  C2  1  0.13968600  0.36031400  0.75000000  1
  C  C3  1  0.14669600  0.14669600  0.14669600  1
  C  C4  1  0.25000000  0.86031400  0.63968600  1
  C  C5  1  0.86031400  0.63968600  0.25000000  1
  C  C6  1  0.63968600  0.25000000  0.86031400  1
  C  C7  1  0.64669600  0.64669600  0.64669600  1
  C  C8  1  0.85330400  0.85330400  0.85330400  1
  C  C9  1  0.35330400  0.35330400  0.35330400  1
  C  C10  1  0.00000000  0.00000000  0.00000000  1
  C  C11  1  0.50000000  0.50000000  0.50000000  1
  Ni  Ni12  1  0.75000000  0.75000000  0.75000000  1
  Ni  Ni13  1  0.25000000  0.25000000  0.25000000  1
  Cu  Cu14  1  0.52747300  0.11257900  0.75955800  1
  Cu  Cu15  1  0.61257900  0.02747300  0.25955800  1
  Cu  Cu16  1  0.24044200  0.47252700  0.88742100  1
  Cu  Cu17  1  0.25955800  0.61257900  0.02747300  1
  Cu  Cu18  1  0.11257900  0.75955800  0.52747300  1
  Cu  Cu19  1  0.74044200  0.38742100  0.97252700  1
  Cu  Cu20  1  0.75955800  0.52747300  0.11257900  1
  Cu  Cu21  1  0.02747300  0.25955800  0.61257900  1
  Cu  Cu22  1  0.38742100  0.97252700  0.74044200  1
  Cu  Cu23  1  0.97252700  0.74044200  0.38742100  1
  Cu  Cu24  1  0.88742100  0.24044200  0.47252700  1
  Cu  Cu25  1  0.47252700  0.88742100  0.24044200  1
  C  C26  1  0.11070800  0.84351000  0.57314700  1
  C  C27  1  0.63795700  0.90467200  0.11741100  1
  C  C28  1  0.11741100  0.63795700  0.90467200  1
  C  C29  1  0.57314700  0.11070800  0.84351000  1
  C  C30  1  0.70448300  0.67785800  0.95882400  1
  C  C31  1  0.49331600  0.71379700  0.39641800  1
  C  C32  1  0.15649000  0.42685300  0.88929200  1
  C  C33  1  0.78620300  0.00668400  0.10358200  1
  C  C34  1  0.36204300  0.09532800  0.88258900  1
  C  C35  1  0.86204300  0.38258900  0.59532800  1
  C  C36  1  0.88258900  0.36204300  0.09532800  1
  C  C37  1  0.28620300  0.60358200  0.50668400  1
  C  C38  1  0.13795700  0.61741100  0.40467200  1
  C  C39  1  0.42685300  0.88929200  0.15649000  1
  C  C40  1  0.89641800  0.21379700  0.99331600  1
  C  C41  1  0.32214200  0.04117600  0.29551700  1
  C  C42  1  0.65649000  0.38929200  0.92685300  1
  C  C43  1  0.90467200  0.11741100  0.63795700  1
  C  C44  1  0.38258900  0.59532800  0.86204300  1
  C  C45  1  0.61070800  0.07314700  0.34351000  1
  C  C46  1  0.88929200  0.15649000  0.42685300  1
  C  C47  1  0.84351000  0.57314700  0.11070800  1
  C  C48  1  0.10358200  0.78620300  0.00668400  1
  C  C49  1  0.95882400  0.70448300  0.67785800  1
  C  C50  1  0.29551700  0.32214200  0.04117600  1
  C  C51  1  0.45882400  0.17785800  0.20448300  1
  C  C52  1  0.61741100  0.40467200  0.13795700  1
  C  C53  1  0.59532800  0.86204300  0.38258900  1
  C  C54  1  0.17785800  0.20448300  0.45882400  1
  C  C55  1  0.82214200  0.79551700  0.54117600  1
  C  C56  1  0.79551700  0.54117600  0.82214200  1
  C  C57  1  0.21379700  0.99331600  0.89641800  1
  C  C58  1  0.40467200  0.13795700  0.61741100  1
  C  C59  1  0.09532800  0.88258900  0.36204300  1
  C  C60  1  0.50668400  0.28620300  0.60358200  1
  C  C61  1  0.34351000  0.61070800  0.07314700  1
  C  C62  1  0.39641800  0.49331600  0.71379700  1
  C  C63  1  0.38929200  0.92685300  0.65649000  1
  C  C64  1  0.92685300  0.65649000  0.38929200  1
  C  C65  1  0.99331600  0.89641800  0.21379700  1
  C  C66  1  0.67785800  0.95882400  0.70448300  1
  C  C67  1  0.60358200  0.50668400  0.28620300  1
  C  C68  1  0.04117600  0.29551700  0.32214200  1
  C  C69  1  0.07314700  0.34351000  0.61070800  1
  C  C70  1  0.20448300  0.45882400  0.17785800  1
  C  C71  1  0.00668400  0.10358200  0.78620300  1
  C  C72  1  0.71379700  0.39641800  0.49331600  1
  C  C73  1  0.54117600  0.82214200  0.79551700  1
