# generated using pymatgen
data_Cu2NiC7
_symmetry_space_group_name_H-M   'P 1'
_cell_length_a   6.21931600
_cell_length_b   7.85065400
_cell_length_c   16.53370900
_cell_angle_alpha   90.00000000
_cell_angle_beta   90.00000000
_cell_angle_gamma   90.00000000
_symmetry_Int_Tables_number   1
_chemical_formula_structural   Cu2NiC7
_chemical_formula_sum   'Cu8 Ni4 C28'
_cell_volume   807.26988299
_cell_formula_units_Z   4
loop_
 _symmetry_equiv_pos_site_id
 _symmetry_equiv_pos_as_xyz
  1  'x, y, z'
loop_
 _atom_site_type_symbol
 _atom_site_label
 _atom_site_symmetry_multiplicity
 _atom_site_fract_x
 _atom_site_fract_y
 _atom_site_fract_z
 _atom_site_occupancy
  C  C0  1  0.25000000  0.88008200  0.40623800  1
  C  C1  1  0.25000000  0.38273600  0.71694200  1
  C  C2  1  0.75000000  0.11726400  0.21694200  1
  C  C3  1  0.75000000  0.11991800  0.59376200  1
  C  C4  1  0.75000000  0.61991800  0.90623800  1
  C  C5  1  0.25000000  0.88273600  0.78305800  1
  C  C6  1  0.75000000  0.61726400  0.28305800  1
  C  C7  1  0.25000000  0.38008200  0.09376200  1
  C  C8  1  0.25000000  0.87897900  0.03766000  1
  C  C9  1  0.75000000  0.12102100  0.96234000  1
  C  C10  1  0.25000000  0.37897900  0.46234000  1
  C  C11  1  0.75000000  0.62102100  0.53766000  1
  Ni  Ni12  1  0.25000000  0.87003700  0.19733600  1
  Ni  Ni13  1  0.75000000  0.12996300  0.80266400  1
  Ni  Ni14  1  0.75000000  0.62996300  0.69733600  1
  Ni  Ni15  1  0.25000000  0.37003700  0.30266400  1
  Cu  Cu16  1  0.25000000  0.66201200  0.94768600  1
  Cu  Cu17  1  0.25000000  0.09884800  0.95170500  1
  Cu  Cu18  1  0.75000000  0.90115200  0.04829500  1
  Cu  Cu19  1  0.25000000  0.59884800  0.54829500  1
  Cu  Cu20  1  0.75000000  0.33798800  0.05231400  1
  Cu  Cu21  1  0.75000000  0.40115200  0.45170500  1
  Cu  Cu22  1  0.75000000  0.83798800  0.44768600  1
  Cu  Cu23  1  0.25000000  0.16201200  0.55231400  1
  C  C24  1  0.75000000  0.27599100  0.86313600  1
  C  C25  1  0.25000000  0.22400900  0.36313600  1
  C  C26  1  0.55471900  0.63288000  0.74787800  1
  C  C27  1  0.75000000  0.77599100  0.63686400  1
  C  C28  1  0.94528100  0.63288000  0.74787800  1
  C  C29  1  0.25000000  0.52469400  0.35835600  1
  C  C30  1  0.44528100  0.36712000  0.25212200  1
  C  C31  1  0.75000000  0.97530600  0.85835600  1
  C  C32  1  0.75000000  0.47530600  0.64164400  1
  C  C33  1  0.05471900  0.36712000  0.25212200  1
  C  C34  1  0.94528100  0.13288000  0.75212200  1
  C  C35  1  0.25000000  0.72400900  0.13686400  1
  C  C36  1  0.44528100  0.86712000  0.24787800  1
  C  C37  1  0.05471900  0.86712000  0.24787800  1
  C  C38  1  0.55471900  0.13288000  0.75212200  1
  C  C39  1  0.25000000  0.02469400  0.14164400  1
