# generated using pymatgen
data_Cu3(NiC5)2
_symmetry_space_group_name_H-M   'P 1'
_cell_length_a   6.74129600
_cell_length_b   10.33559500
_cell_length_c   13.81850815
_cell_angle_alpha   82.33354289
_cell_angle_beta   90.00000000
_cell_angle_gamma   90.00000000
_symmetry_Int_Tables_number   1
_chemical_formula_structural   Cu3(NiC5)2
_chemical_formula_sum   'Cu6 Ni4 C20'
_cell_volume   954.20267806
_cell_formula_units_Z   2
loop_
 _symmetry_equiv_pos_site_id
 _symmetry_equiv_pos_as_xyz
  1  'x, y, z'
loop_
 _atom_site_type_symbol
 _atom_site_label
 _atom_site_symmetry_multiplicity
 _atom_site_fract_x
 _atom_site_fract_y
 _atom_site_fract_z
 _atom_site_occupancy
  C  C0  1  0.84026400  0.27797700  0.30810700  1
  C  C1  1  0.34026400  0.72202300  0.19189300  1
  C  C2  1  0.65973600  0.27797700  0.80810700  1
  C  C3  1  0.15973600  0.72202300  0.69189300  1
  Ni  Ni4  1  0.68308400  0.78510300  0.92445000  1
  Ni  Ni5  1  0.31691600  0.21489700  0.07555000  1
  Ni  Ni6  1  0.18308400  0.21489700  0.57555000  1
  Ni  Ni7  1  0.81691600  0.78510300  0.42445000  1
  Cu  Cu8  1  0.29607200  0.00209000  0.37966000  1
  Cu  Cu9  1  0.20392800  0.00209000  0.87966000  1
  Cu  Cu10  1  0.70392800  0.99791000  0.62034000  1
  Cu  Cu11  1  0.50000000  0.50000000  0.50000000  1
  Cu  Cu12  1  0.79607200  0.99791000  0.12034000  1
  Cu  Cu13  1  0.00000000  0.50000000  0.00000000  1
  C  C14  1  0.32324100  0.77535700  0.92524700  1
  C  C15  1  0.20504800  0.41877100  0.13425200  1
  C  C16  1  0.19593600  0.23379300  0.90859200  1
  C  C17  1  0.17675900  0.77535700  0.42524700  1
  C  C18  1  0.79495200  0.58122900  0.86574800  1
  C  C19  1  0.82324100  0.22464300  0.57475300  1
  C  C20  1  0.70504800  0.58122900  0.36574800  1
  C  C21  1  0.80406400  0.76620700  0.09140800  1
  C  C22  1  0.31893900  0.03159200  0.67735600  1
  C  C23  1  0.29495200  0.41877100  0.63425200  1
  C  C24  1  0.30406400  0.23379300  0.40859200  1
  C  C25  1  0.68106100  0.96840800  0.32264400  1
  C  C26  1  0.67675900  0.22464300  0.07475300  1
  C  C27  1  0.69593600  0.76620700  0.59140800  1
  C  C28  1  0.18106100  0.03159200  0.17735600  1
  C  C29  1  0.81893900  0.96840800  0.82264400  1
