# generated using pymatgen
data_Cu2NiC4
_symmetry_space_group_name_H-M   'P 1'
_cell_length_a   11.45048233
_cell_length_b   11.45048233
_cell_length_c   11.45048233
_cell_angle_alpha   99.93203960
_cell_angle_beta   99.93203960
_cell_angle_gamma   130.92269167
_symmetry_Int_Tables_number   1
_chemical_formula_structural   Cu2NiC4
_chemical_formula_sum   'Cu16 Ni8 C32'
_cell_volume   1031.92745476
_cell_formula_units_Z   8
loop_
 _symmetry_equiv_pos_site_id
 _symmetry_equiv_pos_as_xyz
  1  'x, y, z'
loop_
 _atom_site_type_symbol
 _atom_site_label
 _atom_site_symmetry_multiplicity
 _atom_site_fract_x
 _atom_site_fract_y
 _atom_site_fract_z
 _atom_site_occupancy
  Ni  Ni0  1  0.23433300  0.87500000  0.85933300  1
  Ni  Ni1  1  0.62500000  0.98433300  0.85933300  1
  Ni  Ni2  1  0.12500000  0.76566700  0.14066700  1
  Ni  Ni3  1  0.01566700  0.37500000  0.14066700  1
  Ni  Ni4  1  0.01566700  0.87500000  0.64066700  1
  Ni  Ni5  1  0.62500000  0.76566700  0.64066700  1
  Ni  Ni6  1  0.12500000  0.98433300  0.35933300  1
  Ni  Ni7  1  0.23433300  0.37500000  0.35933300  1
  Cu  Cu8  1  0.34203000  0.34203000  0.68405900  1
  Cu  Cu9  1  0.90797000  0.09203000  0.50000000  1
  Cu  Cu10  1  0.59203000  0.40797000  0.50000000  1
  Cu  Cu11  1  0.65797000  0.65797000  0.31594100  1
  Cu  Cu12  1  0.90797000  0.40797000  0.81594100  1
  Cu  Cu13  1  0.34203000  0.65797000  0.00000000  1
  Cu  Cu14  1  0.65797000  0.34203000  0.00000000  1
  Cu  Cu15  1  0.59203000  0.09203000  0.18405900  1
  Cu  Cu16  1  0.84872700  0.98975100  0.14102500  1
  Cu  Cu17  1  0.95770200  0.59872700  0.35897500  1
  Cu  Cu18  1  0.23975100  0.59872700  0.64102500  1
  Cu  Cu19  1  0.84872700  0.70770200  0.85897500  1
  Cu  Cu20  1  0.01024900  0.15127300  0.85897500  1
  Cu  Cu21  1  0.29229800  0.15127300  0.14102500  1
  Cu  Cu22  1  0.40127300  0.04229800  0.64102500  1
  Cu  Cu23  1  0.40127300  0.76024900  0.35897500  1
  C  C24  1  0.58756200  0.93831600  0.04300300  1
  C  C25  1  0.79455900  0.33756200  0.14924700  1
  C  C26  1  0.18831600  0.64531200  0.85075300  1
  C  C27  1  0.89531200  0.54455900  0.95699700  1
  C  C28  1  0.06168400  0.41243800  0.95699700  1
  C  C29  1  0.45544100  0.10468800  0.04300300  1
  C  C30  1  0.66243800  0.20544100  0.85075300  1
  C  C31  1  0.35468800  0.81168400  0.14924700  1
  C  C32  1  0.66243800  0.81168400  0.45699700  1
  C  C33  1  0.45544100  0.41243800  0.35075300  1
  C  C34  1  0.06168400  0.10468800  0.64924700  1
  C  C35  1  0.35468800  0.20544100  0.54300300  1
  C  C36  1  0.18831600  0.33756200  0.54300300  1
  C  C37  1  0.79455900  0.64531200  0.45699700  1
  C  C38  1  0.58756200  0.54455900  0.64924700  1
  C  C39  1  0.89531200  0.93831600  0.35075300  1
  C  C40  1  0.31166100  0.54071700  0.22905600  1
  C  C41  1  0.33260600  0.06166100  0.27094400  1
  C  C42  1  0.79071700  0.06166100  0.72905600  1
  C  C43  1  0.31166100  0.08260600  0.77094400  1
  C  C44  1  0.45928300  0.68833900  0.77094400  1
  C  C45  1  0.91739400  0.68833900  0.22905600  1
  C  C46  1  0.93833900  0.66739400  0.72905600  1
  C  C47  1  0.93833900  0.20928300  0.27094400  1
  C  C48  1  0.10702300  0.10702300  0.21404600  1
  C  C49  1  0.14297700  0.85702300  0.50000000  1
  C  C50  1  0.35702300  0.64297700  0.50000000  1
  C  C51  1  0.89297700  0.89297700  0.78595400  1
  C  C52  1  0.14297700  0.64297700  0.28595400  1
  C  C53  1  0.10702300  0.89297700  0.00000000  1
  C  C54  1  0.89297700  0.10702300  0.00000000  1
  C  C55  1  0.35702300  0.85702300  0.71404600  1
