# generated using pymatgen
data_Cu2NiC10
_symmetry_space_group_name_H-M   'P 1'
_cell_length_a   10.59217818
_cell_length_b   10.59217818
_cell_length_c   11.06808700
_cell_angle_alpha   90.00000000
_cell_angle_beta   90.00000000
_cell_angle_gamma   132.13377171
_symmetry_Int_Tables_number   1
_chemical_formula_structural   Cu2NiC10
_chemical_formula_sum   'Cu8 Ni4 C40'
_cell_volume   920.87662055
_cell_formula_units_Z   4
loop_
 _symmetry_equiv_pos_site_id
 _symmetry_equiv_pos_as_xyz
  1  'x, y, z'
loop_
 _atom_site_type_symbol
 _atom_site_label
 _atom_site_symmetry_multiplicity
 _atom_site_fract_x
 _atom_site_fract_y
 _atom_site_fract_z
 _atom_site_occupancy
  C  C0  1  0.46376900  0.03623100  0.25000000  1
  C  C1  1  0.36854500  0.63145500  0.06969900  1
  C  C2  1  0.86854500  0.13145500  0.43030100  1
  C  C3  1  0.53623100  0.96376900  0.75000000  1
  C  C4  1  0.03623100  0.46376900  0.75000000  1
  C  C5  1  0.13145500  0.86854500  0.56969900  1
  C  C6  1  0.96376900  0.53623100  0.25000000  1
  C  C7  1  0.63145500  0.36854500  0.93030100  1
  Ni  Ni8  1  0.17841900  0.17841900  0.00000000  1
  Ni  Ni9  1  0.67841900  0.67841900  0.50000000  1
  Ni  Ni10  1  0.82158100  0.82158100  0.00000000  1
  Ni  Ni11  1  0.32158100  0.32158100  0.50000000  1
  Cu  Cu12  1  0.53140000  0.46860000  0.21644800  1
  Cu  Cu13  1  0.46860000  0.53140000  0.78355200  1
  Cu  Cu14  1  0.34316800  0.65683200  0.46505100  1
  Cu  Cu15  1  0.03140000  0.96860000  0.28355200  1
  Cu  Cu16  1  0.65683200  0.34316800  0.53494900  1
  Cu  Cu17  1  0.96860000  0.03140000  0.71644900  1
  Cu  Cu18  1  0.15683200  0.84316800  0.96505100  1
  Cu  Cu19  1  0.84316800  0.15683200  0.03494900  1
  C  C20  1  0.16149000  0.16456300  0.36463400  1
  C  C21  1  0.21497100  0.43262700  0.49936400  1
  C  C22  1  0.99912200  0.00087800  0.12666000  1
  C  C23  1  0.83851000  0.83543700  0.63536600  1
  C  C24  1  0.87696400  0.12303600  0.70631800  1
  C  C25  1  0.37696400  0.62303600  0.79368200  1
  C  C26  1  0.16456300  0.16149000  0.63536600  1
  C  C27  1  0.26745800  0.73254200  0.55743400  1
  C  C28  1  0.66456300  0.66149000  0.86463400  1
  C  C29  1  0.56737300  0.78502900  0.49936400  1
  C  C30  1  0.23254200  0.76745800  0.05743400  1
  C  C31  1  0.68462200  0.31537800  0.68955600  1
  C  C32  1  0.62303600  0.37696400  0.20631800  1
  C  C33  1  0.71497100  0.93262700  0.00063600  1
  C  C34  1  0.83543700  0.83851000  0.36463400  1
  C  C35  1  0.12303600  0.87696400  0.29368200  1
  C  C36  1  0.43262700  0.21497100  0.50063600  1
  C  C37  1  0.06737300  0.28502900  0.00063600  1
  C  C38  1  0.50087800  0.49912200  0.62666000  1
  C  C39  1  0.28502900  0.06737300  0.99936400  1
  C  C40  1  0.00087800  0.99912200  0.87334000  1
  C  C41  1  0.81537800  0.18462200  0.18955600  1
  C  C42  1  0.76745800  0.23254200  0.94256600  1
  C  C43  1  0.33851000  0.33543700  0.86463400  1
  C  C44  1  0.49912200  0.50087800  0.37334000  1
  C  C45  1  0.18462200  0.81537800  0.81044400  1
  C  C46  1  0.66149000  0.66456300  0.13536600  1
  C  C47  1  0.31537800  0.68462200  0.31044400  1
  C  C48  1  0.93262700  0.71497100  0.99936400  1
  C  C49  1  0.73254200  0.26745800  0.44256600  1
  C  C50  1  0.78502900  0.56737300  0.50063600  1
  C  C51  1  0.33543700  0.33851000  0.13536600  1
