# generated using pymatgen
data_CuNiC
_symmetry_space_group_name_H-M   'P 1'
_cell_length_a   9.64481800
_cell_length_b   9.25453800
_cell_length_c   16.84950259
_cell_angle_alpha   58.63995038
_cell_angle_beta   90.00000000
_cell_angle_gamma   90.00000000
_symmetry_Int_Tables_number   1
_chemical_formula_structural   CuNiC
_chemical_formula_sum   'Cu16 Ni16 C16'
_cell_volume   1284.25106163
_cell_formula_units_Z   16
loop_
 _symmetry_equiv_pos_site_id
 _symmetry_equiv_pos_as_xyz
  1  'x, y, z'
loop_
 _atom_site_type_symbol
 _atom_site_label
 _atom_site_symmetry_multiplicity
 _atom_site_fract_x
 _atom_site_fract_y
 _atom_site_fract_z
 _atom_site_occupancy
  C  C0  1  0.20674800  0.95729200  0.01765200  1
  C  C1  1  0.09468200  0.92244200  0.67838100  1
  C  C2  1  0.29325200  0.95729200  0.51765200  1
  C  C3  1  0.59468200  0.07755800  0.82161900  1
  C  C4  1  0.87984400  0.69092800  0.63928000  1
  C  C5  1  0.92209700  0.27363700  0.52154400  1
  C  C6  1  0.37984400  0.30907200  0.86072000  1
  C  C7  1  0.90531800  0.07755800  0.32161900  1
  C  C8  1  0.70674800  0.04270800  0.48234800  1
  C  C9  1  0.07790300  0.72636300  0.47845600  1
  C  C10  1  0.12015600  0.30907200  0.36072000  1
  C  C11  1  0.79325200  0.04270800  0.98234800  1
  C  C12  1  0.42209700  0.72636300  0.97845600  1
  C  C13  1  0.40531800  0.92244200  0.17838100  1
  C  C14  1  0.62015600  0.69092800  0.13928000  1
  C  C15  1  0.57790300  0.27363700  0.02154400  1
  Ni  Ni16  1  0.40428900  0.58723100  0.13767000  1
  Ni  Ni17  1  0.65396000  0.66531800  0.01206100  1
  Ni  Ni18  1  0.26508600  0.73709400  0.16347800  1
  Ni  Ni19  1  0.23491400  0.73709400  0.66347800  1
  Ni  Ni20  1  0.90428900  0.41276900  0.36233000  1
  Ni  Ni21  1  0.59571100  0.41276900  0.86233000  1
  Ni  Ni22  1  0.76508600  0.26290600  0.33652200  1
  Ni  Ni23  1  0.84604000  0.66531800  0.51206100  1
  Ni  Ni24  1  0.09571100  0.58723100  0.63767000  1
  Ni  Ni25  1  0.76285800  0.88718200  0.91292000  1
  Ni  Ni26  1  0.26285800  0.11281800  0.58708000  1
  Ni  Ni27  1  0.73491400  0.26290600  0.83652200  1
  Ni  Ni28  1  0.34604000  0.33468200  0.98793900  1
  Ni  Ni29  1  0.15396000  0.33468200  0.48793900  1
  Ni  Ni30  1  0.23714200  0.11281800  0.08708000  1
  Ni  Ni31  1  0.73714200  0.88718200  0.41292000  1
  Cu  Cu32  1  0.06473900  0.29810500  0.22570800  1
  Cu  Cu33  1  0.96407500  0.13603100  0.68481400  1
  Cu  Cu34  1  0.32249100  0.77180200  0.45979500  1
  Cu  Cu35  1  0.67750900  0.22819800  0.54020500  1
  Cu  Cu36  1  0.82249100  0.22819800  0.04020500  1
  Cu  Cu37  1  0.65062400  0.79691700  0.62833900  1
  Cu  Cu38  1  0.93526100  0.70189500  0.77429200  1
  Cu  Cu39  1  0.84937600  0.79691700  0.12833900  1
  Cu  Cu40  1  0.34937600  0.20308300  0.37166100  1
  Cu  Cu41  1  0.17750900  0.77180200  0.95979500  1
  Cu  Cu42  1  0.43526100  0.29810500  0.72570800  1
  Cu  Cu43  1  0.53592500  0.13603100  0.18481400  1
  Cu  Cu44  1  0.03592500  0.86396900  0.31518600  1
  Cu  Cu45  1  0.46407500  0.86396900  0.81518600  1
  Cu  Cu46  1  0.15062400  0.20308300  0.87166100  1
  Cu  Cu47  1  0.56473900  0.70189500  0.27429200  1
