# generated using pymatgen
data_Cu3NiC
_symmetry_space_group_name_H-M   'P 1'
_cell_length_a   6.59845990
_cell_length_b   6.59845990
_cell_length_c   7.68219807
_cell_angle_alpha   61.07195719
_cell_angle_beta   61.07195719
_cell_angle_gamma   67.06055004
_symmetry_Int_Tables_number   1
_chemical_formula_structural   Cu3NiC
_chemical_formula_sum   'Cu6 Ni2 C2'
_cell_volume   250.86576132
_cell_formula_units_Z   2
loop_
 _symmetry_equiv_pos_site_id
 _symmetry_equiv_pos_as_xyz
  1  'x, y, z'
loop_
 _atom_site_type_symbol
 _atom_site_label
 _atom_site_symmetry_multiplicity
 _atom_site_fract_x
 _atom_site_fract_y
 _atom_site_fract_z
 _atom_site_occupancy
  C  C0  1  0.25380700  0.74619300  0.00000000  1
  C  C1  1  0.74619300  0.25380700  0.00000000  1
  Ni  Ni2  1  0.35546200  0.35546200  0.70740800  1
  Ni  Ni3  1  0.64453800  0.64453800  0.29259200  1
  Cu  Cu4  1  0.67111200  0.67111200  0.00948900  1
  Cu  Cu5  1  0.32888800  0.32888800  0.99051100  1
  Cu  Cu6  1  0.71415900  0.28584100  0.50000000  1
  Cu  Cu7  1  0.28584100  0.71415900  0.50000000  1
  Cu  Cu8  1  0.83192700  0.83192700  0.28100200  1
  Cu  Cu9  1  0.16807300  0.16807300  0.71899800  1
