# generated using pymatgen
data_Cu9(NiC)2
_symmetry_space_group_name_H-M   'P 1'
_cell_length_a   5.25480300
_cell_length_b   9.08004200
_cell_length_c   17.67494400
_cell_angle_alpha   90.00000000
_cell_angle_beta   90.00000000
_cell_angle_gamma   90.00000000
_symmetry_Int_Tables_number   1
_chemical_formula_structural   Cu9(NiC)2
_chemical_formula_sum   'Cu36 Ni8 C8'
_cell_volume   843.33930760
_cell_formula_units_Z   4
loop_
 _symmetry_equiv_pos_site_id
 _symmetry_equiv_pos_as_xyz
  1  'x, y, z'
loop_
 _atom_site_type_symbol
 _atom_site_label
 _atom_site_symmetry_multiplicity
 _atom_site_fract_x
 _atom_site_fract_y
 _atom_site_fract_z
 _atom_site_occupancy
  C  C0  1  0.75000000  0.67110800  0.06502000  1
  C  C1  1  0.25000000  0.17110800  0.43498000  1
  C  C2  1  0.75000000  0.82889200  0.56502000  1
  C  C3  1  0.25000000  0.32889200  0.93498000  1
  C  C4  1  0.75000000  0.57934400  0.30967500  1
  C  C5  1  0.25000000  0.07934400  0.19032500  1
  C  C6  1  0.75000000  0.92065600  0.80967500  1
  C  C7  1  0.25000000  0.42065600  0.69032500  1
  Ni  Ni8  1  0.75000000  0.97724300  0.30485700  1
  Ni  Ni9  1  0.75000000  0.36906700  0.56957600  1
  Ni  Ni10  1  0.25000000  0.63093300  0.43042400  1
  Ni  Ni11  1  0.25000000  0.02275700  0.69514300  1
  Ni  Ni12  1  0.25000000  0.86906700  0.93042400  1
  Ni  Ni13  1  0.75000000  0.13093300  0.06957600  1
  Ni  Ni14  1  0.75000000  0.52275700  0.80485700  1
  Ni  Ni15  1  0.25000000  0.47724300  0.19514300  1
  Cu  Cu16  1  0.75000000  0.52124000  0.54657100  1
  Cu  Cu17  1  0.25000000  0.75727200  0.98888800  1
  Cu  Cu18  1  0.75000000  0.10159900  0.84042000  1
  Cu  Cu19  1  0.75000000  0.97876000  0.04657100  1
  Cu  Cu20  1  0.01949500  0.93619800  0.72307100  1
  Cu  Cu21  1  0.25000000  0.16827300  0.73132900  1
  Cu  Cu22  1  0.02305500  0.66286600  0.37779900  1
  Cu  Cu23  1  0.75000000  0.66827300  0.76867100  1
  Cu  Cu24  1  0.01949500  0.56380200  0.22307100  1
  Cu  Cu25  1  0.51949500  0.43619800  0.77692900  1
  Cu  Cu26  1  0.97694500  0.33713400  0.62220100  1
  Cu  Cu27  1  0.75000000  0.25727200  0.51111200  1
  Cu  Cu28  1  0.25000000  0.74272800  0.48888800  1
  Cu  Cu29  1  0.75000000  0.97903600  0.38678900  1
  Cu  Cu30  1  0.52305500  0.16286600  0.12220100  1
  Cu  Cu31  1  0.48050500  0.93619800  0.72307100  1
  Cu  Cu32  1  0.25000000  0.33172700  0.23132900  1
  Cu  Cu33  1  0.47694500  0.66286600  0.37779900  1
  Cu  Cu34  1  0.75000000  0.83172700  0.26867100  1
  Cu  Cu35  1  0.47694500  0.83713400  0.87779900  1
  Cu  Cu36  1  0.98050500  0.06380200  0.27692900  1
  Cu  Cu37  1  0.52305500  0.33713400  0.62220100  1
  Cu  Cu38  1  0.25000000  0.02096400  0.61321100  1
  Cu  Cu39  1  0.75000000  0.24272800  0.01111200  1
  Cu  Cu40  1  0.75000000  0.39840100  0.34042000  1
  Cu  Cu41  1  0.02305500  0.83713400  0.87779900  1
  Cu  Cu42  1  0.25000000  0.47876000  0.45342900  1
  Cu  Cu43  1  0.97694500  0.16286600  0.12220100  1
  Cu  Cu44  1  0.75000000  0.52096400  0.88678900  1
  Cu  Cu45  1  0.25000000  0.47903600  0.11321100  1
  Cu  Cu46  1  0.48050500  0.56380200  0.22307100  1
  Cu  Cu47  1  0.25000000  0.60159900  0.65958000  1
  Cu  Cu48  1  0.51949500  0.06380200  0.27692900  1
  Cu  Cu49  1  0.25000000  0.02124000  0.95342900  1
  Cu  Cu50  1  0.25000000  0.89840100  0.15958000  1
  Cu  Cu51  1  0.98050500  0.43619800  0.77692900  1
