# generated using pymatgen
data_Cu2(NiC3)3
_symmetry_space_group_name_H-M   'P 1'
_cell_length_a   6.89854010
_cell_length_b   6.89854010
_cell_length_c   9.75470600
_cell_angle_alpha   90.00000000
_cell_angle_beta   90.00000000
_cell_angle_gamma   120.00000092
_symmetry_Int_Tables_number   1
_chemical_formula_structural   Cu2(NiC3)3
_chemical_formula_sum   'Cu4 Ni6 C18'
_cell_volume   402.03068140
_cell_formula_units_Z   2
loop_
 _symmetry_equiv_pos_site_id
 _symmetry_equiv_pos_as_xyz
  1  'x, y, z'
loop_
 _atom_site_type_symbol
 _atom_site_label
 _atom_site_symmetry_multiplicity
 _atom_site_fract_x
 _atom_site_fract_y
 _atom_site_fract_z
 _atom_site_occupancy
  Ni  Ni0  1  0.21686900  0.27775500  0.75000000  1
  Ni  Ni1  1  0.72224500  0.93911400  0.75000000  1
  Ni  Ni2  1  0.78313100  0.72224500  0.25000000  1
  Ni  Ni3  1  0.93911400  0.21686900  0.25000000  1
  Ni  Ni4  1  0.06088600  0.78313100  0.75000000  1
  Ni  Ni5  1  0.27775500  0.06088600  0.25000000  1
  Cu  Cu6  1  0.66666700  0.33333300  0.52055100  1
  Cu  Cu7  1  0.66666700  0.33333300  0.97944900  1
  Cu  Cu8  1  0.33333300  0.66666700  0.02055100  1
  Cu  Cu9  1  0.33333300  0.66666700  0.47944900  1
  C  C10  1  0.19292000  0.24582000  0.25000000  1
  C  C11  1  0.58713900  0.92832400  0.61038100  1
  C  C12  1  0.34118500  0.41286100  0.88961900  1
  C  C13  1  0.94710000  0.19292000  0.75000000  1
  C  C14  1  0.05290000  0.80708000  0.25000000  1
  C  C15  1  0.92832400  0.34118500  0.38961900  1
  C  C16  1  0.92832400  0.34118500  0.11038100  1
  C  C17  1  0.24582000  0.05290000  0.75000000  1
  C  C18  1  0.80708000  0.75418000  0.75000000  1
  C  C19  1  0.07167600  0.65881500  0.61038100  1
  C  C20  1  0.41286100  0.07167600  0.38961900  1
  C  C21  1  0.07167600  0.65881500  0.88961900  1
  C  C22  1  0.65881500  0.58713900  0.11038100  1
  C  C23  1  0.65881500  0.58713900  0.38961900  1
  C  C24  1  0.75418000  0.94710000  0.25000000  1
  C  C25  1  0.41286100  0.07167600  0.11038100  1
  C  C26  1  0.34118500  0.41286100  0.61038100  1
  C  C27  1  0.58713900  0.92832400  0.88961900  1
