# generated using pymatgen
data_Cu2Ni4C7
_symmetry_space_group_name_H-M   'P 1'
_cell_length_a   7.47355538
_cell_length_b   7.47355538
_cell_length_c   9.24650099
_cell_angle_alpha   79.43905219
_cell_angle_beta   79.43905219
_cell_angle_gamma   97.52943459
_symmetry_Int_Tables_number   1
_chemical_formula_structural   Cu2Ni4C7
_chemical_formula_sum   'Cu4 Ni8 C14'
_cell_volume   491.81046812
_cell_formula_units_Z   2
loop_
 _symmetry_equiv_pos_site_id
 _symmetry_equiv_pos_as_xyz
  1  'x, y, z'
loop_
 _atom_site_type_symbol
 _atom_site_label
 _atom_site_symmetry_multiplicity
 _atom_site_fract_x
 _atom_site_fract_y
 _atom_site_fract_z
 _atom_site_occupancy
  C  C0  1  0.42338500  0.57661500  0.75000000  1
  C  C1  1  0.57661500  0.42338500  0.25000000  1
  Ni  Ni2  1  0.03706400  0.43134100  0.70562200  1
  Ni  Ni3  1  0.41690000  0.83666600  0.81410000  1
  Ni  Ni4  1  0.16333400  0.58310000  0.68590000  1
  Ni  Ni5  1  0.43134100  0.03706400  0.20562200  1
  Ni  Ni6  1  0.96293600  0.56865900  0.29437800  1
  Ni  Ni7  1  0.58310000  0.16333400  0.18590000  1
  Ni  Ni8  1  0.56865900  0.96293600  0.79437800  1
  Ni  Ni9  1  0.83666600  0.41690000  0.31410000  1
  Cu  Cu10  1  0.25166100  0.42764200  0.01547200  1
  Cu  Cu11  1  0.74833900  0.57235800  0.98452800  1
  Cu  Cu12  1  0.42764200  0.25166100  0.51547200  1
  Cu  Cu13  1  0.57235800  0.74833900  0.48452800  1
  C  C14  1  0.05478800  0.26400600  0.77220200  1
  C  C15  1  0.94521200  0.73599400  0.22779800  1
  C  C16  1  0.73599400  0.94521200  0.72779800  1
  C  C17  1  0.26400600  0.05478800  0.27220200  1
  C  C18  1  0.74757900  0.13270000  0.11545300  1
  C  C19  1  0.12149500  0.56800500  0.34025500  1
  C  C20  1  0.87850500  0.43199500  0.65974500  1
  C  C21  1  0.13270000  0.74757900  0.61545300  1
  C  C22  1  0.86730000  0.25242100  0.38454700  1
  C  C23  1  0.56800500  0.12149500  0.84025500  1
  C  C24  1  0.43199500  0.87850500  0.15974500  1
  C  C25  1  0.25242100  0.86730000  0.88454700  1
