# generated using pymatgen
data_Cu2(NiC)3
_symmetry_space_group_name_H-M   'P 1'
_cell_length_a   5.79645200
_cell_length_b   7.38449529
_cell_length_c   8.03199303
_cell_angle_alpha   95.06420289
_cell_angle_beta   98.93359259
_cell_angle_gamma   97.38317479
_symmetry_Int_Tables_number   1
_chemical_formula_structural   Cu2(NiC)3
_chemical_formula_sum   'Cu4 Ni6 C6'
_cell_volume   334.75229820
_cell_formula_units_Z   2
loop_
 _symmetry_equiv_pos_site_id
 _symmetry_equiv_pos_as_xyz
  1  'x, y, z'
loop_
 _atom_site_type_symbol
 _atom_site_label
 _atom_site_symmetry_multiplicity
 _atom_site_fract_x
 _atom_site_fract_y
 _atom_site_fract_z
 _atom_site_occupancy
  C  C0  1  0.75995300  0.85386400  0.02174500  1
  C  C1  1  0.24004700  0.14613600  0.97825500  1
  C  C2  1  0.74879300  0.63715700  0.33440500  1
  C  C3  1  0.82125800  0.12731700  0.68198700  1
  C  C4  1  0.25120700  0.36284300  0.66559500  1
  C  C5  1  0.17874200  0.87268300  0.31801300  1
  Ni  Ni6  1  0.98542400  0.26582500  0.59492800  1
  Ni  Ni7  1  0.05800900  0.92271300  0.13943100  1
  Ni  Ni8  1  0.01457600  0.73417500  0.40507200  1
  Ni  Ni9  1  0.65746100  0.70524700  0.15750800  1
  Ni  Ni10  1  0.34253900  0.29475300  0.84249200  1
  Ni  Ni11  1  0.94199100  0.07728700  0.86056900  1
  Cu  Cu12  1  0.37948100  0.88528700  0.83485600  1
  Cu  Cu13  1  0.19807300  0.35271700  0.19070200  1
  Cu  Cu14  1  0.62051900  0.11471300  0.16514400  1
  Cu  Cu15  1  0.80192700  0.64728300  0.80929800  1
