# generated using pymatgen
data_Cu3NiC2
_symmetry_space_group_name_H-M   'P 1'
_cell_length_a   10.85784900
_cell_length_b   7.68470900
_cell_length_c   10.35535881
_cell_angle_alpha   66.87216825
_cell_angle_beta   90.00000000
_cell_angle_gamma   90.00000000
_symmetry_Int_Tables_number   1
_chemical_formula_structural   Cu3NiC2
_chemical_formula_sum   'Cu12 Ni4 C8'
_cell_volume   794.60242879
_cell_formula_units_Z   4
loop_
 _symmetry_equiv_pos_site_id
 _symmetry_equiv_pos_as_xyz
  1  'x, y, z'
loop_
 _atom_site_type_symbol
 _atom_site_label
 _atom_site_symmetry_multiplicity
 _atom_site_fract_x
 _atom_site_fract_y
 _atom_site_fract_z
 _atom_site_occupancy
  C  C0  1  0.87457900  0.77029500  0.84754900  1
  C  C1  1  0.37457900  0.22970500  0.65245100  1
  C  C2  1  0.62542100  0.77029500  0.34754900  1
  C  C3  1  0.12542100  0.22970500  0.15245100  1
  Ni  Ni4  1  0.53180800  0.15146500  0.37754600  1
  Ni  Ni5  1  0.46819200  0.84853500  0.62245400  1
  Ni  Ni6  1  0.96819200  0.15146500  0.87754600  1
  Ni  Ni7  1  0.03180800  0.84853500  0.12245400  1
  Cu  Cu8  1  0.34015900  0.94719900  0.84753500  1
  Cu  Cu9  1  0.30563900  0.37423500  0.05600200  1
  Cu  Cu10  1  0.01923300  0.58708800  0.79305700  1
  Cu  Cu11  1  0.80563900  0.62576500  0.44399800  1
  Cu  Cu12  1  0.65984100  0.05280100  0.15246500  1
  Cu  Cu13  1  0.51923300  0.41291200  0.70694300  1
  Cu  Cu14  1  0.19436100  0.37423500  0.55600200  1
  Cu  Cu15  1  0.69436100  0.62576500  0.94399800  1
  Cu  Cu16  1  0.98076700  0.41291200  0.20694300  1
  Cu  Cu17  1  0.84015900  0.05280100  0.65246500  1
  Cu  Cu18  1  0.15984100  0.94719900  0.34753500  1
  Cu  Cu19  1  0.48076700  0.58708800  0.29305700  1
  C  C20  1  0.04593200  0.10646100  0.04574400  1
  C  C21  1  0.45406800  0.10646100  0.54574400  1
  C  C22  1  0.54593200  0.89353900  0.45425600  1
  C  C23  1  0.95406800  0.89353900  0.95425600  1
