# generated using pymatgen
data_Cu3Ni3C2
_symmetry_space_group_name_H-M   'P 1'
_cell_length_a   8.37761764
_cell_length_b   8.37761764
_cell_length_c   8.37761743
_cell_angle_alpha   89.94249035
_cell_angle_beta   89.94249035
_cell_angle_gamma   89.94249985
_symmetry_Int_Tables_number   1
_chemical_formula_structural   Cu3Ni3C2
_chemical_formula_sum   'Cu12 Ni12 C8'
_cell_volume   587.97781325
_cell_formula_units_Z   4
loop_
 _symmetry_equiv_pos_site_id
 _symmetry_equiv_pos_as_xyz
  1  'x, y, z'
loop_
 _atom_site_type_symbol
 _atom_site_label
 _atom_site_symmetry_multiplicity
 _atom_site_fract_x
 _atom_site_fract_y
 _atom_site_fract_z
 _atom_site_occupancy
  C  C0  1  0.25079200  0.25079200  0.25079200  1
  C  C1  1  0.74920800  0.74920800  0.74920800  1
  C  C2  1  0.75324300  0.25184200  0.25348800  1
  C  C3  1  0.25184200  0.25348800  0.75324300  1
  C  C4  1  0.25348800  0.75324300  0.25184200  1
  C  C5  1  0.74651200  0.24675700  0.74815800  1
  C  C6  1  0.24675700  0.74815800  0.74651200  1
  C  C7  1  0.74815800  0.74651200  0.24675700  1
  Ni  Ni8  1  0.99960300  0.32922800  0.84172800  1
  Ni  Ni9  1  0.32922800  0.84172800  0.99960300  1
  Ni  Ni10  1  0.84172800  0.99960300  0.32922800  1
  Ni  Ni11  1  0.00039700  0.67077200  0.15827200  1
  Ni  Ni12  1  0.67077200  0.15827200  0.00039700  1
  Ni  Ni13  1  0.15827200  0.00039700  0.67077200  1
  Ni  Ni14  1  0.49836300  0.82792700  0.65878400  1
  Ni  Ni15  1  0.82792700  0.65878400  0.49836300  1
  Ni  Ni16  1  0.65878400  0.49836300  0.82792700  1
  Ni  Ni17  1  0.50163700  0.17207300  0.34121600  1
  Ni  Ni18  1  0.17207300  0.34121600  0.50163700  1
  Ni  Ni19  1  0.34121600  0.50163700  0.17207300  1
  Cu  Cu20  1  0.99765700  0.65624300  0.85083800  1
  Cu  Cu21  1  0.65624300  0.85083800  0.99765700  1
  Cu  Cu22  1  0.85083800  0.99765700  0.65624300  1
  Cu  Cu23  1  0.00234300  0.34375700  0.14916200  1
  Cu  Cu24  1  0.34375700  0.14916200  0.00234300  1
  Cu  Cu25  1  0.14916200  0.00234300  0.34375700  1
  Cu  Cu26  1  0.49929700  0.15549800  0.65212800  1
  Cu  Cu27  1  0.15549800  0.65212800  0.49929700  1
  Cu  Cu28  1  0.65212800  0.49929700  0.15549700  1
  Cu  Cu29  1  0.50070300  0.84450300  0.34787200  1
  Cu  Cu30  1  0.84450300  0.34787200  0.50070300  1
  Cu  Cu31  1  0.34787200  0.50070300  0.84450300  1
