# generated using pymatgen
data_CuNiC14
_symmetry_space_group_name_H-M   'P 1'
_cell_length_a   9.84059143
_cell_length_b   9.84059143
_cell_length_c   12.17955600
_cell_angle_alpha   90.00000000
_cell_angle_beta   90.00000000
_cell_angle_gamma   115.28545524
_symmetry_Int_Tables_number   1
_chemical_formula_structural   CuNiC14
_chemical_formula_sum   'Cu2 Ni2 C28'
_cell_volume   1066.43414353
_cell_formula_units_Z   2
loop_
 _symmetry_equiv_pos_site_id
 _symmetry_equiv_pos_as_xyz
  1  'x, y, z'
loop_
 _atom_site_type_symbol
 _atom_site_label
 _atom_site_symmetry_multiplicity
 _atom_site_fract_x
 _atom_site_fract_y
 _atom_site_fract_z
 _atom_site_occupancy
  C  C0  1  0.79335600  0.20664400  0.99797200  1
  C  C1  1  0.20664400  0.79335600  0.49797200  1
  Ni  Ni2  1  0.45083200  0.54916800  0.34712300  1
  Ni  Ni3  1  0.54916800  0.45083200  0.84712300  1
  Cu  Cu4  1  0.14024500  0.85975500  0.03625500  1
  Cu  Cu5  1  0.85975500  0.14024500  0.53625500  1
  C  C6  1  0.30992500  0.01402900  0.61250600  1
  C  C7  1  0.86409900  0.13590100  0.37550200  1
  C  C8  1  0.62444600  0.69531700  0.86990100  1
  C  C9  1  0.13590100  0.86409900  0.87550200  1
  C  C10  1  0.93500200  0.76190600  0.09301000  1
  C  C11  1  0.69531700  0.62444600  0.36990100  1
  C  C12  1  0.74729000  0.25271000  0.58298100  1
  C  C13  1  0.23809400  0.06499800  0.09301000  1
  C  C14  1  0.69007500  0.98597100  0.11250600  1
  C  C15  1  0.25271000  0.74729000  0.08298100  1
  C  C16  1  0.06499800  0.23809400  0.59301000  1
  C  C17  1  0.10184000  0.57255400  0.38115200  1
  C  C18  1  0.98597100  0.69007500  0.61250600  1
  C  C19  1  0.01402900  0.30992500  0.11250600  1
  C  C20  1  0.08802300  0.91197700  0.38335900  1
  C  C21  1  0.89816000  0.42744600  0.88115200  1
  C  C22  1  0.57255400  0.10184000  0.88115200  1
  C  C23  1  0.42744600  0.89816000  0.38115200  1
  C  C24  1  0.30468300  0.37555400  0.86990100  1
  C  C25  1  0.37555400  0.30468300  0.36990100  1
  C  C26  1  0.91197700  0.08802300  0.88335900  1
  C  C27  1  0.55315400  0.44684600  0.66418800  1
  C  C28  1  0.32654600  0.67345400  0.60878000  1
  C  C29  1  0.67345400  0.32654600  0.10878000  1
  C  C30  1  0.76190600  0.93500200  0.59301000  1
  C  C31  1  0.44684600  0.55315400  0.16418800  1
