# generated using pymatgen
data_Cu4Ni3
_symmetry_space_group_name_H-M   'P 1'
_cell_length_a   6.69043433
_cell_length_b   6.69043433
_cell_length_c   6.69043459
_cell_angle_alpha   113.88063758
_cell_angle_beta   113.88063758
_cell_angle_gamma   113.88064577
_symmetry_Int_Tables_number   1
_chemical_formula_structural   Cu4Ni3
_chemical_formula_sum   'Cu8 Ni6'
_cell_volume   183.54668272
_cell_formula_units_Z   2
loop_
 _symmetry_equiv_pos_site_id
 _symmetry_equiv_pos_as_xyz
  1  'x, y, z'
loop_
 _atom_site_type_symbol
 _atom_site_label
 _atom_site_symmetry_multiplicity
 _atom_site_fract_x
 _atom_site_fract_y
 _atom_site_fract_z
 _atom_site_occupancy
  Ni  Ni0  1  0.50554600  0.10863800  0.24262100  1
  Ni  Ni1  1  0.75737900  0.49445400  0.89136200  1
  Ni  Ni2  1  0.49445400  0.89136200  0.75737900  1
  Ni  Ni3  1  0.89136200  0.75737900  0.49445400  1
  Ni  Ni4  1  0.10863800  0.24262100  0.50554600  1
  Ni  Ni5  1  0.24262100  0.50554600  0.10863800  1
  Cu  Cu6  1  0.41547600  0.25632700  0.93973000  1
  Cu  Cu7  1  0.58452400  0.74367300  0.06027000  1
  Cu  Cu8  1  0.25632700  0.93973000  0.41547600  1
  Cu  Cu9  1  0.93973000  0.41547600  0.25632700  1
  Cu  Cu10  1  0.74367300  0.06027000  0.58452400  1
  Cu  Cu11  1  0.00000000  0.00000000  0.00000000  1
  Cu  Cu12  1  0.06027000  0.58452400  0.74367300  1
  Cu  Cu13  1  0.50000000  0.50000000  0.50000000  1
