# generated using pymatgen
data_Cu7Ni44
_symmetry_space_group_name_H-M   'P 1'
_cell_length_a   14.26550128
_cell_length_b   14.26550087
_cell_length_c   14.26550056
_cell_angle_alpha   59.99999840
_cell_angle_beta   59.99999934
_cell_angle_gamma   59.99999996
_symmetry_Int_Tables_number   1
_chemical_formula_structural   Cu7Ni44
_chemical_formula_sum   'Cu14 Ni88'
_cell_volume   2052.79731636
_cell_formula_units_Z   2
loop_
 _symmetry_equiv_pos_site_id
 _symmetry_equiv_pos_as_xyz
  1  'x, y, z'
loop_
 _atom_site_type_symbol
 _atom_site_label
 _atom_site_symmetry_multiplicity
 _atom_site_fract_x
 _atom_site_fract_y
 _atom_site_fract_z
 _atom_site_occupancy
  Ni  Ni0  1  0.48069386  0.13015333  0.48069386  1
  Ni  Ni1  1  0.48069386  0.90845895  0.48069386  1
  Ni  Ni2  1  0.71945214  0.08918834  0.71945214  1
  Ni  Ni3  1  0.56161623  0.56161623  0.31515132  1
  Ni  Ni4  1  0.35580539  0.14419461  0.35580539  1
  Ni  Ni5  1  0.81804078  0.18195922  0.18195922  1
  Ni  Ni6  1  0.90845895  0.48069386  0.48069386  1
  Ni  Ni7  1  0.76693369  0.33788334  0.33788334  1
  Ni  Ni8  1  0.48069386  0.90845895  0.13015333  1
  Ni  Ni9  1  0.00023874  0.21509190  0.56957745  1
  Ni  Ni10  1  0.33434722  0.97950640  0.70663999  1
  Ni  Ni11  1  0.08918834  0.71945214  0.47190738  1
  Ni  Ni12  1  0.48069386  0.48069386  0.13015333  1
  Ni  Ni13  1  0.47190738  0.71945214  0.71945214  1
  Ni  Ni14  1  0.13015333  0.48069386  0.48069386  1
  Ni  Ni15  1  0.21509190  0.21509190  0.56957745  1
  Ni  Ni16  1  0.13015333  0.90845895  0.48069386  1
  Ni  Ni17  1  0.76693369  0.33788334  0.55729963  1
  Ni  Ni18  1  0.18195922  0.18195922  0.81804078  1
  Ni  Ni19  1  0.33434722  0.97950640  0.97950640  1
  Ni  Ni20  1  0.56957745  0.21509190  0.00023874  1
  Ni  Ni21  1  0.21509190  0.00023874  0.21509190  1
  Ni  Ni22  1  0.71945214  0.47190738  0.71945214  1
  Ni  Ni23  1  0.21509190  0.21509190  0.00023874  1
  Ni  Ni24  1  0.00023874  0.21509190  0.21509190  1
  Ni  Ni25  1  0.81804078  0.18195922  0.81804078  1
  Ni  Ni26  1  0.81804078  0.81804078  0.18195922  1
  Ni  Ni27  1  0.97950640  0.97950640  0.70663999  1
  Ni  Ni28  1  0.71945214  0.71945214  0.47190738  1
  Ni  Ni29  1  0.91235585  0.69588138  0.69588138  1
  Ni  Ni30  1  0.21509190  0.56957745  0.21509190  1
  Ni  Ni31  1  0.33788334  0.33788334  0.76693369  1
  Ni  Ni32  1  0.69588138  0.91235585  0.69588138  1
  Ni  Ni33  1  0.97950640  0.70663999  0.33434722  1
  Ni  Ni34  1  0.50001548  0.83332817  0.83332817  1
  Ni  Ni35  1  0.94767769  0.94767769  0.94767769  1
  Ni  Ni36  1  0.90845895  0.13015333  0.48069386  1
  Ni  Ni37  1  0.76693369  0.55729963  0.33788334  1
  Ni  Ni38  1  0.55729963  0.33788334  0.33788334  1
  Ni  Ni39  1  0.08918834  0.47190738  0.71945214  1
  Ni  Ni40  1  0.33788334  0.55729963  0.76693369  1
  Ni  Ni41  1  0.18195922  0.81804078  0.18195922  1
  Ni  Ni42  1  0.33434722  0.70663999  0.97950640  1
  Ni  Ni43  1  0.71945214  0.47190738  0.08918834  1
  Ni  Ni44  1  0.56161623  0.56161623  0.56161623  1
  Ni  Ni45  1  0.83332817  0.50001548  0.83332817  1
  Ni  Ni46  1  0.35580539  0.14419461  0.14419461  1
  Ni  Ni47  1  0.97950640  0.33434722  0.70663999  1
  Ni  Ni48  1  0.55729963  0.76693369  0.33788334  1
  Ni  Ni49  1  0.47190738  0.08918834  0.71945214  1
  Ni  Ni50  1  0.83332817  0.83332817  0.83332817  1
  Ni  Ni51  1  0.97950640  0.97950640  0.33434722  1
  Ni  Ni52  1  0.56161623  0.31515132  0.56161623  1
  Ni  Ni53  1  0.70663999  0.97950640  0.97950640  1
  Ni  Ni54  1  0.48069386  0.13015333  0.90845895  1
  Ni  Ni55  1  0.14419461  0.35580539  0.14419461  1
  Ni  Ni56  1  0.15696693  0.94767769  0.94767769  1
  Ni  Ni57  1  0.35580539  0.35580539  0.14419461  1
  Ni  Ni58  1  0.70663999  0.33434722  0.97950640  1
  Ni  Ni59  1  0.14419461  0.14419461  0.35580539  1
  Ni  Ni60  1  0.13015333  0.48069386  0.90845895  1
  Ni  Ni61  1  0.56957745  0.00023874  0.21509190  1
  Ni  Ni62  1  0.71945214  0.71945214  0.08918834  1
  Ni  Ni63  1  0.21509190  0.56957745  0.00023874  1
  Ni  Ni64  1  0.48069386  0.48069386  0.90845895  1
  Ni  Ni65  1  0.70663999  0.97950640  0.33434722  1
  Ni  Ni66  1  0.33788334  0.76693369  0.55729963  1
  Ni  Ni67  1  0.47190738  0.71945214  0.08918834  1
  Ni  Ni68  1  0.31515132  0.56161623  0.56161623  1
  Ni  Ni69  1  0.18195922  0.81804078  0.81804078  1
  Ni  Ni70  1  0.83332817  0.83332817  0.50001548  1
  Ni  Ni71  1  0.33788334  0.33788334  0.55729963  1
  Ni  Ni72  1  0.55729963  0.33788334  0.76693369  1
  Ni  Ni73  1  0.33788334  0.55729963  0.33788334  1
  Ni  Ni74  1  0.97950640  0.33434722  0.97950640  1
  Ni  Ni75  1  0.56957745  0.21509190  0.21509190  1
  Ni  Ni76  1  0.90845895  0.48069386  0.13015333  1
  Ni  Ni77  1  0.94767769  0.94767769  0.15696693  1
  Ni  Ni78  1  0.69588138  0.69588138  0.69588138  1
  Ni  Ni79  1  0.97950640  0.70663999  0.97950640  1
  Ni  Ni80  1  0.21509190  0.00023874  0.56957745  1
  Ni  Ni81  1  0.08918834  0.71945214  0.71945214  1
  Ni  Ni82  1  0.00023874  0.56957745  0.21509190  1
  Ni  Ni83  1  0.14419461  0.35580539  0.35580539  1
  Ni  Ni84  1  0.94767769  0.15696693  0.94767769  1
  Ni  Ni85  1  0.69588138  0.69588138  0.91235585  1
  Ni  Ni86  1  0.33788334  0.76693369  0.33788334  1
  Ni  Ni87  1  0.71945214  0.08918834  0.47190738  1
  Cu  Cu88  1  0.58676948  0.91323052  0.58676948  1
  Cu  Cu89  1  0.34888913  0.95333261  0.34888913  1
  Cu  Cu90  1  0.08296427  0.75110720  0.08296427  1
  Cu  Cu91  1  0.95333261  0.34888913  0.34888913  1
  Cu  Cu92  1  0.75110720  0.08296427  0.08296427  1
  Cu  Cu93  1  0.58676948  0.91323052  0.91323052  1
  Cu  Cu94  1  0.34888913  0.34888913  0.34888913  1
  Cu  Cu95  1  0.08296427  0.08296427  0.08296427  1
  Cu  Cu96  1  0.91323052  0.58676948  0.58676948  1
  Cu  Cu97  1  0.91323052  0.58676948  0.91323052  1
  Cu  Cu98  1  0.34888913  0.34888913  0.95333261  1
  Cu  Cu99  1  0.08296427  0.08296427  0.75110720  1
  Cu  Cu100  1  0.58676948  0.58676948  0.91323052  1
  Cu  Cu101  1  0.91323052  0.91323052  0.58676948  1
