# generated using pymatgen
data_Cu3NiC8
_symmetry_space_group_name_H-M   'P 1'
_cell_length_a   8.03455100
_cell_length_b   13.08547000
_cell_length_c   18.60393648
_cell_angle_alpha   52.38273456
_cell_angle_beta   90.00000000
_cell_angle_gamma   90.00000000
_symmetry_Int_Tables_number   1
_chemical_formula_structural   Cu3NiC8
_chemical_formula_sum   'Cu12 Ni4 C32'
_cell_volume   1549.31223355
_cell_formula_units_Z   4
loop_
 _symmetry_equiv_pos_site_id
 _symmetry_equiv_pos_as_xyz
  1  'x, y, z'
loop_
 _atom_site_type_symbol
 _atom_site_label
 _atom_site_symmetry_multiplicity
 _atom_site_fract_x
 _atom_site_fract_y
 _atom_site_fract_z
 _atom_site_occupancy
  C  C0  1  0.89908000  0.58537100  0.76325800  1
  C  C1  1  0.39908000  0.41462900  0.73674200  1
  C  C2  1  0.10092000  0.41462900  0.23674200  1
  C  C3  1  0.60092000  0.58537100  0.26325800  1
  C  C4  1  0.37185800  0.78088400  0.38934300  1
  C  C5  1  0.87185800  0.21911600  0.11065700  1
  C  C6  1  0.62814200  0.21911600  0.61065700  1
  C  C7  1  0.12814200  0.78088400  0.88934300  1
  Ni  Ni8  1  0.99321300  0.52762600  0.57303300  1
  Ni  Ni9  1  0.49321300  0.47237400  0.92696700  1
  Ni  Ni10  1  0.00678700  0.47237400  0.42696700  1
  Ni  Ni11  1  0.50678700  0.52762600  0.07303300  1
  Cu  Cu12  1  0.08981500  0.22176900  0.65192200  1
  Cu  Cu13  1  0.58981500  0.77823100  0.84807800  1
  Cu  Cu14  1  0.91018500  0.77823100  0.34807800  1
  Cu  Cu15  1  0.41018500  0.22176900  0.15192200  1
  Cu  Cu16  1  0.95841900  0.16609600  0.86278200  1
  Cu  Cu17  1  0.45841900  0.83390400  0.63721800  1
  Cu  Cu18  1  0.04158100  0.83390400  0.13721800  1
  Cu  Cu19  1  0.54158100  0.16609600  0.36278200  1
  Cu  Cu20  1  0.33248500  0.11538200  0.00616600  1
  Cu  Cu21  1  0.83248500  0.88461800  0.49383400  1
  Cu  Cu22  1  0.66751500  0.88461800  0.99383400  1
  Cu  Cu23  1  0.16751500  0.11538200  0.50616600  1
  C  C24  1  0.23864900  0.05204600  0.65778800  1
  C  C25  1  0.73864900  0.94795400  0.84221200  1
  C  C26  1  0.76135100  0.94795400  0.34221200  1
  C  C27  1  0.26135100  0.05204600  0.15778800  1
  C  C28  1  0.74247500  0.58798200  0.44626100  1
  C  C29  1  0.24247500  0.41201800  0.05373900  1
  C  C30  1  0.25752500  0.41201800  0.55373900  1
  C  C31  1  0.75752500  0.58798200  0.94626100  1
  C  C32  1  0.20475200  0.11931200  0.80452900  1
  C  C33  1  0.70475200  0.88068800  0.69547100  1
  C  C34  1  0.79524800  0.88068800  0.19547100  1
  C  C35  1  0.29524800  0.11931200  0.30452900  1
  C  C36  1  0.83009800  0.34482400  0.72907300  1
  C  C37  1  0.33009800  0.65517600  0.77092700  1
  C  C38  1  0.16990200  0.65517600  0.27092700  1
  C  C39  1  0.66990200  0.34482400  0.22907300  1
  C  C40  1  0.10602200  0.27590800  0.91562900  1
  C  C41  1  0.60602200  0.72409200  0.58437100  1
  C  C42  1  0.89397800  0.72409200  0.08437100  1
  C  C43  1  0.39397800  0.27590800  0.41562900  1
  C  C44  1  0.06906800  0.75098300  0.54008200  1
  C  C45  1  0.56906800  0.24901700  0.95991800  1
  C  C46  1  0.93093200  0.24901700  0.45991800  1
  C  C47  1  0.43093200  0.75098300  0.04008200  1
