# generated using pymatgen
data_Cu(NiC)2
_symmetry_space_group_name_H-M   'P 1'
_cell_length_a   4.92629400
_cell_length_b   9.32330300
_cell_length_c   10.96064100
_cell_angle_alpha   90.00000000
_cell_angle_beta   90.00000000
_cell_angle_gamma   90.00000000
_symmetry_Int_Tables_number   1
_chemical_formula_structural   Cu(NiC)2
_chemical_formula_sum   'Cu8 Ni16 C16'
_cell_volume   503.41491536
_cell_formula_units_Z   8
loop_
 _symmetry_equiv_pos_site_id
 _symmetry_equiv_pos_as_xyz
  1  'x, y, z'
loop_
 _atom_site_type_symbol
 _atom_site_label
 _atom_site_symmetry_multiplicity
 _atom_site_fract_x
 _atom_site_fract_y
 _atom_site_fract_z
 _atom_site_occupancy
  C  C0  1  0.99348900  0.75000000  0.91187700  1
  C  C1  1  0.98550500  0.42994200  0.36246600  1
  C  C2  1  0.48550500  0.92994200  0.13753400  1
  C  C3  1  0.98550500  0.07005800  0.36246600  1
  C  C4  1  0.01449500  0.92994200  0.63753400  1
  C  C5  1  0.00651100  0.25000000  0.08812300  1
  C  C6  1  0.51449500  0.42994200  0.86246600  1
  C  C7  1  0.48550500  0.57005800  0.13753400  1
  C  C8  1  0.01449500  0.57005800  0.63753400  1
  C  C9  1  0.50651100  0.75000000  0.41187700  1
  C  C10  1  0.51449500  0.07005800  0.86246600  1
  C  C11  1  0.49348900  0.25000000  0.58812300  1
  C  C12  1  0.42141600  0.25000000  0.27880400  1
  C  C13  1  0.57858400  0.75000000  0.72119600  1
  C  C14  1  0.07858400  0.25000000  0.77880400  1
  C  C15  1  0.92141600  0.75000000  0.22119600  1
  Ni  Ni16  1  0.24660100  0.75000000  0.72299200  1
  Ni  Ni17  1  0.75339900  0.25000000  0.27700800  1
  Ni  Ni18  1  0.21537100  0.25000000  0.91720900  1
  Ni  Ni19  1  0.22096700  0.11013200  0.70941500  1
  Ni  Ni20  1  0.27903300  0.38986800  0.20941500  1
  Ni  Ni21  1  0.28462900  0.25000000  0.41720900  1
  Ni  Ni22  1  0.22096700  0.38986800  0.70941500  1
  Ni  Ni23  1  0.77903300  0.88986800  0.29058500  1
  Ni  Ni24  1  0.72096700  0.88986800  0.79058500  1
  Ni  Ni25  1  0.71537100  0.75000000  0.58279100  1
  Ni  Ni26  1  0.72096700  0.61013200  0.79058500  1
  Ni  Ni27  1  0.74660100  0.25000000  0.77700800  1
  Ni  Ni28  1  0.25339900  0.75000000  0.22299200  1
  Ni  Ni29  1  0.27903300  0.11013200  0.20941500  1
  Ni  Ni30  1  0.78462900  0.75000000  0.08279100  1
  Ni  Ni31  1  0.77903300  0.61013200  0.29058500  1
  Cu  Cu32  1  0.76842800  0.41717100  0.53220600  1
  Cu  Cu33  1  0.26842800  0.58282900  0.96779400  1
  Cu  Cu34  1  0.26842800  0.91717100  0.96779400  1
  Cu  Cu35  1  0.73157200  0.41717100  0.03220600  1
  Cu  Cu36  1  0.76842800  0.08282900  0.53220600  1
  Cu  Cu37  1  0.23157200  0.58282900  0.46779400  1
  Cu  Cu38  1  0.23157200  0.91717100  0.46779400  1
  Cu  Cu39  1  0.73157200  0.08282900  0.03220600  1
