# generated using pymatgen
data_Cu4NiC3
_symmetry_space_group_name_H-M   'P 1'
_cell_length_a   9.17720500
_cell_length_b   6.70654800
_cell_length_c   19.46544207
_cell_angle_alpha   74.18326752
_cell_angle_beta   90.00000000
_cell_angle_gamma   90.00000000
_symmetry_Int_Tables_number   1
_chemical_formula_structural   Cu4NiC3
_chemical_formula_sum   'Cu32 Ni8 C24'
_cell_volume   1152.68676374
_cell_formula_units_Z   8
loop_
 _symmetry_equiv_pos_site_id
 _symmetry_equiv_pos_as_xyz
  1  'x, y, z'
loop_
 _atom_site_type_symbol
 _atom_site_label
 _atom_site_symmetry_multiplicity
 _atom_site_fract_x
 _atom_site_fract_y
 _atom_site_fract_z
 _atom_site_occupancy
  C  C0  1  0.61945700  0.51434300  0.22804400  1
  C  C1  1  0.88054300  0.51434300  0.72804400  1
  C  C2  1  0.11945700  0.48565700  0.27195600  1
  C  C3  1  0.38054300  0.48565700  0.77195600  1
  C  C4  1  0.45672500  0.80971300  0.31939200  1
  C  C5  1  0.75551500  0.06261900  0.32377700  1
  C  C6  1  0.95672500  0.19028700  0.18060800  1
  C  C7  1  0.74448500  0.06261900  0.82377700  1
  C  C8  1  0.25551500  0.93738100  0.17622300  1
  C  C9  1  0.04327500  0.80971300  0.81939200  1
  C  C10  1  0.24448500  0.93738100  0.67622300  1
  C  C11  1  0.54327500  0.19028700  0.68060800  1
  C  C12  1  0.92668900  0.77727100  0.11185300  1
  C  C13  1  0.57331100  0.77727100  0.61185300  1
  C  C14  1  0.07331100  0.22272900  0.88814700  1
  C  C15  1  0.60773900  0.09095400  0.13732400  1
  C  C16  1  0.10773900  0.90904600  0.36267600  1
  C  C17  1  0.39226100  0.90904600  0.86267600  1
  C  C18  1  0.29001300  0.45135100  0.10577500  1
  C  C19  1  0.42668900  0.22272900  0.38814700  1
  C  C20  1  0.70998700  0.54864900  0.89422500  1
  C  C21  1  0.20998700  0.45135100  0.60577500  1
  C  C22  1  0.79001300  0.54864900  0.39422500  1
  C  C23  1  0.89226100  0.09095400  0.63732400  1
  Ni  Ni24  1  0.10407800  0.74646900  0.94767800  1
  Ni  Ni25  1  0.89592200  0.25353100  0.05232200  1
  Ni  Ni26  1  0.39592200  0.74646900  0.44767800  1
  Ni  Ni27  1  0.31925400  0.09048700  0.04769900  1
  Ni  Ni28  1  0.68074600  0.90951300  0.95230100  1
  Ni  Ni29  1  0.60407800  0.25353100  0.55232200  1
  Ni  Ni30  1  0.81925400  0.90951300  0.45230100  1
  Ni  Ni31  1  0.18074600  0.09048700  0.54769900  1
  Cu  Cu32  1  0.73808500  0.35828900  0.83872000  1
  Cu  Cu33  1  0.42862300  0.49366300  0.32391000  1
  Cu  Cu34  1  0.23253600  0.83706600  0.29376300  1
  Cu  Cu35  1  0.01643100  0.37189600  0.64095000  1
  Cu  Cu36  1  0.26191500  0.64171100  0.16128000  1
  Cu  Cu37  1  0.73090700  0.81827400  0.14129800  1
  Cu  Cu38  1  0.23090700  0.18172600  0.35870200  1
  Cu  Cu39  1  0.30974800  0.23721900  0.67529800  1
  Cu  Cu40  1  0.26746400  0.83706600  0.79376300  1
  Cu  Cu41  1  0.97918400  0.09266500  0.29693600  1
  Cu  Cu42  1  0.92862300  0.50633700  0.17609000  1
  Cu  Cu43  1  0.76909300  0.81827400  0.64129800  1
  Cu  Cu44  1  0.76191500  0.35828900  0.33872000  1
  Cu  Cu45  1  0.26909300  0.18172600  0.85870200  1
  Cu  Cu46  1  0.52081600  0.09266500  0.79693600  1
  Cu  Cu47  1  0.19025200  0.23721900  0.17529800  1
  Cu  Cu48  1  0.52277100  0.10351000  0.32211000  1
  Cu  Cu49  1  0.80974800  0.76278100  0.82470200  1
  Cu  Cu50  1  0.23808500  0.64171100  0.66128000  1
  Cu  Cu51  1  0.51643100  0.62810400  0.85905000  1
  Cu  Cu52  1  0.07137700  0.49366300  0.82391000  1
  Cu  Cu53  1  0.48356900  0.37189600  0.14095000  1
  Cu  Cu54  1  0.97722900  0.10351000  0.82211000  1
  Cu  Cu55  1  0.02081600  0.90733500  0.70306400  1
  Cu  Cu56  1  0.98356900  0.62810400  0.35905000  1
  Cu  Cu57  1  0.73253600  0.16293400  0.20623700  1
  Cu  Cu58  1  0.02277100  0.89649000  0.17789000  1
  Cu  Cu59  1  0.69025200  0.76278100  0.32470200  1
  Cu  Cu60  1  0.47722900  0.89649000  0.67789000  1
  Cu  Cu61  1  0.76746400  0.16293400  0.70623700  1
  Cu  Cu62  1  0.47918400  0.90733500  0.20306400  1
  Cu  Cu63  1  0.57137700  0.50633700  0.67609000  1
