# generated using pymatgen
data_Cu3NiC16
_symmetry_space_group_name_H-M   'P 1'
_cell_length_a   7.97391600
_cell_length_b   10.12784093
_cell_length_c   10.32354564
_cell_angle_alpha   92.82842553
_cell_angle_beta   106.86752942
_cell_angle_gamma   106.31582187
_symmetry_Int_Tables_number   1
_chemical_formula_structural   Cu3NiC16
_chemical_formula_sum   'Cu6 Ni2 C32'
_cell_volume   757.90337255
_cell_formula_units_Z   2
loop_
 _symmetry_equiv_pos_site_id
 _symmetry_equiv_pos_as_xyz
  1  'x, y, z'
loop_
 _atom_site_type_symbol
 _atom_site_label
 _atom_site_symmetry_multiplicity
 _atom_site_fract_x
 _atom_site_fract_y
 _atom_site_fract_z
 _atom_site_occupancy
  C  C0  1  0.77332200  0.23632400  0.27356800  1
  C  C1  1  0.25149300  0.47567100  0.02176500  1
  C  C2  1  0.65034500  0.56879800  0.38666600  1
  C  C3  1  0.74850700  0.52432900  0.97823500  1
  C  C4  1  0.50000000  0.00000000  0.50000000  1
  C  C5  1  0.22667800  0.76367600  0.72643200  1
  C  C6  1  0.00000000  0.00000000  0.50000000  1
  C  C7  1  0.34965500  0.43120200  0.61333400  1
  Ni  Ni8  1  0.16310400  0.87902700  0.05323700  1
  Ni  Ni9  1  0.83689600  0.12097300  0.94676300  1
  Cu  Cu10  1  0.61914800  0.84630800  0.11534600  1
  Cu  Cu11  1  0.12385100  0.64418900  0.31787400  1
  Cu  Cu12  1  0.76155400  0.80684600  0.75175400  1
  Cu  Cu13  1  0.38085200  0.15369200  0.88465400  1
  Cu  Cu14  1  0.23844600  0.19315400  0.24824600  1
  Cu  Cu15  1  0.87614900  0.35581100  0.68212600  1
  C  C16  1  0.60806200  0.15640800  0.99168900  1
  C  C17  1  0.55528100  0.68636300  0.76155000  1
  C  C18  1  0.30953600  0.57395000  0.37492200  1
  C  C19  1  0.88637200  0.30474100  0.85153300  1
  C  C20  1  0.44471900  0.31363700  0.23845000  1
  C  C21  1  0.39193800  0.84359200  0.00831100  1
  C  C22  1  0.96103800  0.77476000  0.87007700  1
  C  C23  1  0.15590600  0.78697400  0.44312400  1
  C  C24  1  0.69046400  0.42605000  0.62507800  1
  C  C25  1  0.91195900  0.51081800  0.29684300  1
  C  C26  1  0.79446700  0.92372500  0.03856000  1
  C  C27  1  0.11362800  0.69525900  0.14846700  1
  C  C28  1  0.84409400  0.21302600  0.55687600  1
  C  C29  1  0.61081600  0.66982800  0.13286000  1
  C  C30  1  0.03896200  0.22524000  0.12992300  1
  C  C31  1  0.74712200  0.98278800  0.76642100  1
  C  C32  1  0.20553300  0.07627500  0.96144000  1
  C  C33  1  0.25287800  0.01721200  0.23357900  1
  C  C34  1  0.08804100  0.48918200  0.70315700  1
  C  C35  1  0.32378500  0.05683100  0.71971900  1
  C  C36  1  0.21942100  0.21886500  0.41439400  1
  C  C37  1  0.38918400  0.33017200  0.86714000  1
  C  C38  1  0.78057900  0.78113500  0.58560600  1
  C  C39  1  0.67621500  0.94316900  0.28028100  1
