# generated using pymatgen
data_Cu2NiC9
_symmetry_space_group_name_H-M   'P 1'
_cell_length_a   6.26364265
_cell_length_b   6.26364265
_cell_length_c   7.74295498
_cell_angle_alpha   64.86889947
_cell_angle_beta   64.86889947
_cell_angle_gamma   50.75483333
_symmetry_Int_Tables_number   1
_chemical_formula_structural   Cu2NiC9
_chemical_formula_sum   'Cu2 Ni1 C9'
_cell_volume   207.65180089
_cell_formula_units_Z   1
loop_
 _symmetry_equiv_pos_site_id
 _symmetry_equiv_pos_as_xyz
  1  'x, y, z'
loop_
 _atom_site_type_symbol
 _atom_site_label
 _atom_site_symmetry_multiplicity
 _atom_site_fract_x
 _atom_site_fract_y
 _atom_site_fract_z
 _atom_site_occupancy
  C  C0  1  0.50000000  0.50000000  0.50000000  1
  Ni  Ni1  1  0.00000000  0.00000000  0.00000000  1
  Cu  Cu2  1  0.30352800  0.30352800  0.15424900  1
  Cu  Cu3  1  0.69647200  0.69647200  0.84575100  1
  C  C4  1  0.85031300  0.85031300  0.66717200  1
  C  C5  1  0.67105800  0.67105800  0.07186500  1
  C  C6  1  0.14968700  0.14968700  0.33282800  1
  C  C7  1  0.32894200  0.32894200  0.92813500  1
  C  C8  1  0.63171100  0.13234600  0.20536300  1
  C  C9  1  0.36828900  0.86765400  0.79463700  1
  C  C10  1  0.13234600  0.63171100  0.20536300  1
  C  C11  1  0.86765400  0.36828900  0.79463700  1
