# generated using pymatgen
data_Cu3(Ni4C)2
_symmetry_space_group_name_H-M   'P 1'
_cell_length_a   10.42434086
_cell_length_b   10.42434086
_cell_length_c   10.42434086
_cell_angle_alpha   109.47122063
_cell_angle_beta   109.47122063
_cell_angle_gamma   109.47122063
_symmetry_Int_Tables_number   1
_chemical_formula_structural   Cu3(Ni4C)2
_chemical_formula_sum   'Cu12 Ni32 C8'
_cell_volume   872.01492866
_cell_formula_units_Z   4
loop_
 _symmetry_equiv_pos_site_id
 _symmetry_equiv_pos_as_xyz
  1  'x, y, z'
loop_
 _atom_site_type_symbol
 _atom_site_label
 _atom_site_symmetry_multiplicity
 _atom_site_fract_x
 _atom_site_fract_y
 _atom_site_fract_z
 _atom_site_occupancy
  Ni  Ni0  1  0.00000000  0.20998900  0.50000000  1
  Ni  Ni1  1  0.01054700  0.00055500  0.76744800  1
  Ni  Ni2  1  0.24309900  0.73255200  0.73310700  1
  Ni  Ni3  1  0.73310700  0.24309900  0.73255200  1
  Ni  Ni4  1  0.49000800  0.75690100  0.98945300  1
  Ni  Ni5  1  0.23310700  0.23255200  0.74309900  1
  Ni  Ni6  1  0.99000800  0.48945300  0.25690100  1
  Ni  Ni7  1  0.74309900  0.23310700  0.23255200  1
  Ni  Ni8  1  0.50000000  0.00000000  0.70998900  1
  Ni  Ni9  1  0.98945300  0.49000800  0.75690100  1
  Ni  Ni10  1  0.70998900  0.50000000  0.00000000  1
  Ni  Ni11  1  0.49944500  0.50999200  0.76689300  1
  Ni  Ni12  1  0.99944500  0.26689300  0.00999200  1
  Ni  Ni13  1  0.50999200  0.76689300  0.49944500  1
  Ni  Ni14  1  0.00055500  0.76744800  0.01054700  1
  Ni  Ni15  1  0.48945300  0.25690100  0.99000800  1
  Ni  Ni16  1  0.00999200  0.99944500  0.26689300  1
  Ni  Ni17  1  0.51054700  0.26744800  0.50055500  1
  Ni  Ni18  1  0.23255200  0.74309900  0.23310700  1
  Ni  Ni19  1  0.73255200  0.73310700  0.24309900  1
  Ni  Ni20  1  0.76689300  0.49944500  0.50999200  1
  Ni  Ni21  1  0.00000000  0.70998900  0.50000000  1
  Ni  Ni22  1  0.76744800  0.01054700  0.00055500  1
  Ni  Ni23  1  0.26744800  0.50055500  0.51054700  1
  Ni  Ni24  1  0.29001100  0.29001100  0.29001100  1
  Ni  Ni25  1  0.79001100  0.79001100  0.79001100  1
  Ni  Ni26  1  0.26689300  0.00999200  0.99944500  1
  Ni  Ni27  1  0.50000000  0.00000000  0.20998900  1
  Ni  Ni28  1  0.25690100  0.99000800  0.48945300  1
  Ni  Ni29  1  0.75690100  0.98945300  0.49000800  1
  Ni  Ni30  1  0.20998900  0.50000000  0.00000000  1
  Ni  Ni31  1  0.50055500  0.51054700  0.26744800  1
  Cu  Cu32  1  0.23198900  0.48198900  0.75000000  1
  Cu  Cu33  1  0.75000000  0.51801100  0.76801100  1
  Cu  Cu34  1  0.25000000  0.98198900  0.73198900  1
  Cu  Cu35  1  0.75000000  0.23198900  0.48198900  1
  Cu  Cu36  1  0.98198900  0.73198900  0.25000000  1
  Cu  Cu37  1  0.48198900  0.75000000  0.23198900  1
  Cu  Cu38  1  0.76801100  0.75000000  0.51801100  1
  Cu  Cu39  1  0.01801100  0.25000000  0.26801100  1
  Cu  Cu40  1  0.73198900  0.25000000  0.98198900  1
  Cu  Cu41  1  0.51801100  0.76801100  0.75000000  1
  Cu  Cu42  1  0.25000000  0.26801100  0.01801100  1
  Cu  Cu43  1  0.26801100  0.01801100  0.25000000  1
  C  C44  1  0.50000000  0.00000000  0.45792400  1
  C  C45  1  0.54207600  0.54207600  0.54207600  1
  C  C46  1  0.95792400  0.50000000  0.00000000  1
  C  C47  1  0.00000000  0.95792400  0.50000000  1
  C  C48  1  0.45792400  0.50000000  0.00000000  1
  C  C49  1  0.50000000  0.00000000  0.95792400  1
  C  C50  1  0.04207600  0.04207600  0.04207600  1
  C  C51  1  0.00000000  0.45792400  0.50000000  1
