# generated using pymatgen
data_CuNiC8
_symmetry_space_group_name_H-M   'P 1'
_cell_length_a   5.54823900
_cell_length_b   5.50645600
_cell_length_c   19.98105687
_cell_angle_alpha   75.98735738
_cell_angle_beta   90.00000000
_cell_angle_gamma   90.00000000
_symmetry_Int_Tables_number   1
_chemical_formula_structural   CuNiC8
_chemical_formula_sum   'Cu4 Ni4 C32'
_cell_volume   592.27854977
_cell_formula_units_Z   4
loop_
 _symmetry_equiv_pos_site_id
 _symmetry_equiv_pos_as_xyz
  1  'x, y, z'
loop_
 _atom_site_type_symbol
 _atom_site_label
 _atom_site_symmetry_multiplicity
 _atom_site_fract_x
 _atom_site_fract_y
 _atom_site_fract_z
 _atom_site_occupancy
  Ni  Ni0  1  0.24682100  0.31475200  0.43145900  1
  Ni  Ni1  1  0.75317900  0.68524800  0.56854100  1
  Ni  Ni2  1  0.75317900  0.31475200  0.93145900  1
  Ni  Ni3  1  0.24682100  0.68524800  0.06854100  1
  Cu  Cu4  1  0.32785400  0.50000000  0.75000000  1
  Cu  Cu5  1  0.67214600  0.50000000  0.25000000  1
  Cu  Cu6  1  0.79221600  0.00000000  0.75000000  1
  Cu  Cu7  1  0.20778400  0.00000000  0.25000000  1
  C  C8  1  0.22385800  0.18212500  0.61962200  1
  C  C9  1  0.77614200  0.18212500  0.11962200  1
  C  C10  1  0.22385800  0.81787500  0.88037800  1
  C  C11  1  0.77614200  0.81787500  0.38037800  1
  C  C12  1  0.05395600  0.84751400  0.43668400  1
  C  C13  1  0.05395600  0.15248600  0.06331600  1
  C  C14  1  0.94604400  0.15248600  0.56331600  1
  C  C15  1  0.94604400  0.84751400  0.93668400  1
  C  C16  1  0.02370100  0.35158000  0.67653400  1
  C  C17  1  0.02370100  0.64842000  0.82346600  1
  C  C18  1  0.97629900  0.64842000  0.32346600  1
  C  C19  1  0.97629900  0.35158000  0.17653400  1
  C  C20  1  0.28601400  0.50185200  0.55543600  1
  C  C21  1  0.28601400  0.49814800  0.94456400  1
  C  C22  1  0.71398600  0.49814800  0.44456400  1
  C  C23  1  0.71398600  0.50185200  0.05543600  1
  C  C24  1  0.59106000  0.02864800  0.06075000  1
  C  C25  1  0.59106000  0.97135200  0.43925000  1
  C  C26  1  0.40894000  0.97135200  0.93925000  1
  C  C27  1  0.40894000  0.02864800  0.56075000  1
  C  C28  1  0.86936100  0.87264700  0.18576500  1
  C  C29  1  0.86936100  0.12735300  0.31423500  1
  C  C30  1  0.13063900  0.12735300  0.81423500  1
  C  C31  1  0.13063900  0.87264700  0.68576500  1
  C  C32  1  0.49586600  0.74861100  0.82494200  1
  C  C33  1  0.49586600  0.25138900  0.67505800  1
  C  C34  1  0.50413400  0.25138900  0.17505800  1
  C  C35  1  0.50413400  0.74861100  0.32494200  1
  C  C36  1  0.37045800  0.73624700  0.19142600  1
  C  C37  1  0.37045800  0.26375300  0.30857400  1
  C  C38  1  0.62954200  0.26375300  0.80857400  1
  C  C39  1  0.62954200  0.73624700  0.69142600  1
