# generated using pymatgen
data_Cu6Ni6C5
_symmetry_space_group_name_H-M   'P 1'
_cell_length_a   7.28577591
_cell_length_b   7.28577591
_cell_length_c   8.27832100
_cell_angle_alpha   90.00000000
_cell_angle_beta   90.00000000
_cell_angle_gamma   119.99999920
_symmetry_Int_Tables_number   1
_chemical_formula_structural   Cu6Ni6C5
_chemical_formula_sum   'Cu6 Ni6 C5'
_cell_volume   380.56120788
_cell_formula_units_Z   1
loop_
 _symmetry_equiv_pos_site_id
 _symmetry_equiv_pos_as_xyz
  1  'x, y, z'
loop_
 _atom_site_type_symbol
 _atom_site_label
 _atom_site_symmetry_multiplicity
 _atom_site_fract_x
 _atom_site_fract_y
 _atom_site_fract_z
 _atom_site_occupancy
  C  C0  1  0.33333300  0.66666700  0.00000000  1
  C  C1  1  0.00000000  0.00000000  0.00000000  1
  C  C2  1  0.50965700  0.01931300  0.50000000  1
  C  C3  1  0.50965700  0.49034300  0.50000000  1
  C  C4  1  0.98068700  0.49034300  0.50000000  1
  Ni  Ni5  1  0.65919400  0.00970700  0.70756400  1
  Ni  Ni6  1  0.65919400  0.64948800  0.29243600  1
  Ni  Ni7  1  0.35051200  0.00970700  0.29243600  1
  Ni  Ni8  1  0.99029300  0.64948800  0.70756400  1
  Ni  Ni9  1  0.35051200  0.34080600  0.70756400  1
  Ni  Ni10  1  0.99029300  0.34080600  0.29243600  1
  Cu  Cu11  1  0.74150500  0.74196100  0.17381300  1
  Cu  Cu12  1  0.74150500  0.99954400  0.82618700  1
  Cu  Cu13  1  0.25803900  0.25849500  0.82618700  1
  Cu  Cu14  1  0.25803900  0.99954400  0.17381300  1
  Cu  Cu15  1  0.00045600  0.25849500  0.17381300  1
  Cu  Cu16  1  0.00045600  0.74196100  0.82618700  1
