# generated using pymatgen
data_Cu6NiC9
_symmetry_space_group_name_H-M   'P 1'
_cell_length_a   10.42679990
_cell_length_b   10.42679990
_cell_length_c   10.42679990
_cell_angle_alpha   140.46493210
_cell_angle_beta   140.46493210
_cell_angle_gamma   57.14804141
_symmetry_Int_Tables_number   1
_chemical_formula_structural   Cu6NiC9
_chemical_formula_sum   'Cu12 Ni2 C18'
_cell_volume   455.47637211
_cell_formula_units_Z   2
loop_
 _symmetry_equiv_pos_site_id
 _symmetry_equiv_pos_as_xyz
  1  'x, y, z'
loop_
 _atom_site_type_symbol
 _atom_site_label
 _atom_site_symmetry_multiplicity
 _atom_site_fract_x
 _atom_site_fract_y
 _atom_site_fract_z
 _atom_site_occupancy
  Ni  Ni0  1  0.00000000  0.00000000  0.00000000  1
  Ni  Ni1  1  0.75000000  0.25000000  0.50000000  1
  Cu  Cu2  1  0.08045900  0.12500000  0.45545900  1
  Cu  Cu3  1  0.66954100  0.12500000  0.04454100  1
  Cu  Cu4  1  0.37500000  0.91954100  0.04454100  1
  Cu  Cu5  1  0.23611100  0.23611100  0.00000000  1
  Cu  Cu6  1  0.66954100  0.62500000  0.54454100  1
  Cu  Cu7  1  0.98611100  0.48611100  0.50000000  1
  Cu  Cu8  1  0.51388900  0.01388900  0.50000000  1
  Cu  Cu9  1  0.37500000  0.33045900  0.45545900  1
  Cu  Cu10  1  0.76388900  0.76388900  0.00000000  1
  Cu  Cu11  1  0.87500000  0.91954100  0.54454100  1
  Cu  Cu12  1  0.87500000  0.33045900  0.95545900  1
  Cu  Cu13  1  0.08045900  0.62500000  0.95545900  1
  C  C14  1  0.25000000  0.75000000  0.50000000  1
  C  C15  1  0.50000000  0.50000000  0.00000000  1
  C  C16  1  0.29728900  0.62378500  0.32649600  1
  C  C17  1  0.29728900  0.97079300  0.67350400  1
  C  C18  1  0.45271100  0.62621500  0.17350400  1
  C  C19  1  0.69874400  0.00403500  0.30529100  1
  C  C20  1  0.99596500  0.30125600  0.69470900  1
  C  C21  1  0.14345300  0.94874400  0.19470900  1
  C  C22  1  0.75403500  0.94874400  0.80529100  1
  C  C23  1  0.60654700  0.30125600  0.30529100  1
  C  C24  1  0.05125600  0.85654700  0.80529100  1
  C  C25  1  0.72079300  0.54728900  0.17350400  1
  C  C26  1  0.69874400  0.39345300  0.69470900  1
  C  C27  1  0.37621500  0.70271100  0.67350400  1
  C  C28  1  0.05125600  0.24596500  0.19470900  1
  C  C29  1  0.02920700  0.70271100  0.32649600  1
  C  C30  1  0.37378500  0.54728900  0.82649600  1
  C  C31  1  0.45271100  0.27920700  0.82649600  1
