# generated using pymatgen
data_Cu(NiC2)2
_symmetry_space_group_name_H-M   'P 1'
_cell_length_a   15.41176780
_cell_length_b   12.74360261
_cell_length_c   12.58330267
_cell_angle_alpha   74.96122326
_cell_angle_beta   52.99230856
_cell_angle_gamma   52.04646818
_symmetry_Int_Tables_number   1
_chemical_formula_structural   Cu(NiC2)2
_chemical_formula_sum   'Cu8 Ni16 C32'
_cell_volume   1531.90112786
_cell_formula_units_Z   8
loop_
 _symmetry_equiv_pos_site_id
 _symmetry_equiv_pos_as_xyz
  1  'x, y, z'
loop_
 _atom_site_type_symbol
 _atom_site_label
 _atom_site_symmetry_multiplicity
 _atom_site_fract_x
 _atom_site_fract_y
 _atom_site_fract_z
 _atom_site_occupancy
  Ni  Ni0  1  0.49024600  0.75873100  0.73728600  1
  Ni  Ni1  1  0.26361000  0.98755800  0.59496600  1
  Ni  Ni2  1  0.23626300  0.51271400  0.49126900  1
  Ni  Ni3  1  0.26244200  0.98639000  0.09613400  1
  Ni  Ni4  1  0.49126900  0.75975400  0.23626300  1
  Ni  Ni5  1  0.15386600  0.59496600  0.98755800  1
  Ni  Ni6  1  0.65503400  0.09613400  0.98639000  1
  Ni  Ni7  1  0.75975400  0.49126900  0.51271400  1
  Ni  Ni8  1  0.09613400  0.65503400  0.26244200  1
  Ni  Ni9  1  0.59496600  0.15386600  0.26361000  1
  Ni  Ni10  1  0.98639000  0.26244200  0.65503400  1
  Ni  Ni11  1  0.73728600  0.01373700  0.49024600  1
  Ni  Ni12  1  0.51271400  0.23626300  0.75975400  1
  Ni  Ni13  1  0.75873100  0.49024600  0.01373700  1
  Ni  Ni14  1  0.98755800  0.26361000  0.15386600  1
  Ni  Ni15  1  0.01373700  0.73728600  0.75873100  1
  Cu  Cu16  1  0.24737700  0.24737700  0.75262300  1
  Cu  Cu17  1  0.25000000  0.25000000  0.25000000  1
  Cu  Cu18  1  0.00000000  0.00000000  0.00000000  1
  Cu  Cu19  1  0.75262300  0.75262300  0.24737700  1
  Cu  Cu20  1  0.00262300  0.00262300  0.49737700  1
  Cu  Cu21  1  0.49737700  0.49737700  0.00262300  1
  Cu  Cu22  1  0.50000000  0.50000000  0.50000000  1
  Cu  Cu23  1  0.75000000  0.75000000  0.75000000  1
  C  C24  1  0.78042300  0.96794400  0.28233800  1
  C  C25  1  0.21123800  0.70781700  0.54074200  1
  C  C26  1  0.30712400  0.43786500  0.78048100  1
  C  C27  1  0.20754900  0.21190900  0.53937600  1
  C  C28  1  0.04116600  0.53937600  0.21190900  1
  C  C29  1  0.54020300  0.54074200  0.70781700  1
  C  C30  1  0.54218300  0.03876200  0.70979700  1
  C  C31  1  0.04245100  0.03809100  0.71062400  1
  C  C32  1  0.43786500  0.30712400  0.47453000  1
  C  C33  1  0.70979700  0.70925800  0.54218300  1
  C  C34  1  0.70925800  0.70979700  0.03876200  1
  C  C35  1  0.78048100  0.47453000  0.30712400  1
  C  C36  1  0.54074200  0.54020300  0.21123800  1
  C  C37  1  0.81213500  0.94287600  0.77547000  1
  C  C38  1  0.96794400  0.78042300  0.96929600  1
  C  C39  1  0.46957700  0.28205600  0.96766200  1
  C  C40  1  0.46951900  0.77547000  0.94287600  1
  C  C41  1  0.28205600  0.46957700  0.28070400  1
  C  C42  1  0.71062400  0.20883400  0.04245100  1
  C  C43  1  0.96766200  0.28070400  0.46957700  1
  C  C44  1  0.03876200  0.54218300  0.70925800  1
  C  C45  1  0.21190900  0.20754900  0.04116600  1
  C  C46  1  0.47453000  0.78048100  0.43786500  1
  C  C47  1  0.77547000  0.46951900  0.81213500  1
  C  C48  1  0.70781700  0.21123800  0.54020300  1
  C  C49  1  0.20883400  0.71062400  0.03809100  1
  C  C50  1  0.94287600  0.81213500  0.46951900  1
  C  C51  1  0.53937600  0.04116600  0.20754900  1
  C  C52  1  0.28233800  0.96929600  0.78042300  1
  C  C53  1  0.03809100  0.04245100  0.20883400  1
  C  C54  1  0.28070400  0.96766200  0.28205600  1
  C  C55  1  0.96929600  0.28233800  0.96794400  1
