# generated using pymatgen
data_CuNi2C3
_symmetry_space_group_name_H-M   'P 1'
_cell_length_a   9.77847503
_cell_length_b   9.77847503
_cell_length_c   9.77847503
_cell_angle_alpha   60.00000000
_cell_angle_beta   60.00000000
_cell_angle_gamma   60.00000000
_symmetry_Int_Tables_number   1
_chemical_formula_structural   CuNi2C3
_chemical_formula_sum   'Cu4 Ni8 C12'
_cell_volume   661.14755290
_cell_formula_units_Z   4
loop_
 _symmetry_equiv_pos_site_id
 _symmetry_equiv_pos_as_xyz
  1  'x, y, z'
loop_
 _atom_site_type_symbol
 _atom_site_label
 _atom_site_symmetry_multiplicity
 _atom_site_fract_x
 _atom_site_fract_y
 _atom_site_fract_z
 _atom_site_occupancy
  C  C0  1  0.04693800  0.45306200  0.04693800  1
  C  C1  1  0.79693800  0.20306200  0.20306200  1
  C  C2  1  0.20306200  0.79693800  0.79693800  1
  C  C3  1  0.79693800  0.20306200  0.79693800  1
  C  C4  1  0.20306200  0.20306200  0.79693800  1
  C  C5  1  0.79693800  0.79693800  0.20306200  1
  C  C6  1  0.04693800  0.04693800  0.45306200  1
  C  C7  1  0.45306200  0.04693800  0.04693800  1
  C  C8  1  0.04693800  0.45306200  0.45306200  1
  C  C9  1  0.45306200  0.45306200  0.04693800  1
  C  C10  1  0.20306200  0.79693800  0.20306200  1
  C  C11  1  0.45306200  0.04693800  0.45306200  1
  Ni  Ni12  1  0.83268800  0.83268800  0.83268800  1
  Ni  Ni13  1  0.74806500  0.41731200  0.41731200  1
  Ni  Ni14  1  0.41731200  0.74806500  0.41731200  1
  Ni  Ni15  1  0.41731200  0.41731200  0.74806500  1
  Ni  Ni16  1  0.83268800  0.50193500  0.83268800  1
  Ni  Ni17  1  0.83268800  0.83268800  0.50193500  1
  Ni  Ni18  1  0.50193500  0.83268800  0.83268800  1
  Ni  Ni19  1  0.41731200  0.41731200  0.41731200  1
  Cu  Cu20  1  0.62500000  0.62500000  0.62500000  1
  Cu  Cu21  1  0.12500000  0.62500000  0.62500000  1
  Cu  Cu22  1  0.62500000  0.12500000  0.62500000  1
  Cu  Cu23  1  0.62500000  0.62500000  0.12500000  1
