# generated using pymatgen
data_CuNiC3
_symmetry_space_group_name_H-M   'P 1'
_cell_length_a   4.51795300
_cell_length_b   9.69647200
_cell_length_c   16.66595400
_cell_angle_alpha   90.00000000
_cell_angle_beta   90.00000000
_cell_angle_gamma   90.00000000
_symmetry_Int_Tables_number   1
_chemical_formula_structural   CuNiC3
_chemical_formula_sum   'Cu4 Ni4 C12'
_cell_volume   730.10552538
_cell_formula_units_Z   4
loop_
 _symmetry_equiv_pos_site_id
 _symmetry_equiv_pos_as_xyz
  1  'x, y, z'
loop_
 _atom_site_type_symbol
 _atom_site_label
 _atom_site_symmetry_multiplicity
 _atom_site_fract_x
 _atom_site_fract_y
 _atom_site_fract_z
 _atom_site_occupancy
  C  C0  1  0.75000000  0.71202300  0.29163900  1
  C  C1  1  0.25000000  0.02592300  0.40172600  1
  C  C2  1  0.25000000  0.52592300  0.09827400  1
  C  C3  1  0.25000000  0.78797700  0.79163900  1
  C  C4  1  0.75000000  0.82752000  0.00107100  1
  C  C5  1  0.25000000  0.28797700  0.70836100  1
  C  C6  1  0.25000000  0.17248000  0.99892900  1
  C  C7  1  0.75000000  0.47407700  0.90172600  1
  C  C8  1  0.25000000  0.67248000  0.50107100  1
  C  C9  1  0.75000000  0.32752000  0.49892900  1
  C  C10  1  0.75000000  0.21202300  0.20836100  1
  C  C11  1  0.75000000  0.97407700  0.59827400  1
  Ni  Ni12  1  0.75000000  0.57745700  0.67245900  1
  Ni  Ni13  1  0.25000000  0.42254300  0.32754100  1
  Ni  Ni14  1  0.25000000  0.92254300  0.17245900  1
  Ni  Ni15  1  0.75000000  0.07745700  0.82754100  1
  Cu  Cu16  1  0.25000000  0.16649200  0.56172200  1
  Cu  Cu17  1  0.75000000  0.83350800  0.43827800  1
  Cu  Cu18  1  0.75000000  0.33350800  0.06172200  1
  Cu  Cu19  1  0.25000000  0.66649200  0.93827800  1
