# generated using pymatgen
data_Cu(NiC)5
_symmetry_space_group_name_H-M   'P 1'
_cell_length_a   7.46962900
_cell_length_b   9.38129300
_cell_length_c   13.97787400
_cell_angle_alpha   90.00000000
_cell_angle_beta   90.00000000
_cell_angle_gamma   90.00000000
_symmetry_Int_Tables_number   1
_chemical_formula_structural   Cu(NiC)5
_chemical_formula_sum   'Cu4 Ni20 C20'
_cell_volume   979.49642096
_cell_formula_units_Z   4
loop_
 _symmetry_equiv_pos_site_id
 _symmetry_equiv_pos_as_xyz
  1  'x, y, z'
loop_
 _atom_site_type_symbol
 _atom_site_label
 _atom_site_symmetry_multiplicity
 _atom_site_fract_x
 _atom_site_fract_y
 _atom_site_fract_z
 _atom_site_occupancy
  C  C0  1  0.63129300  0.00234700  0.34865900  1
  C  C1  1  0.13129300  0.99765300  0.15134100  1
  C  C2  1  0.36870700  0.50234700  0.65134100  1
  C  C3  1  0.86870700  0.49765300  0.84865900  1
  C  C4  1  0.36870700  0.99765300  0.65134100  1
  C  C5  1  0.86870700  0.00234700  0.84865900  1
  C  C6  1  0.63129300  0.49765300  0.34865900  1
  C  C7  1  0.13129300  0.50234700  0.15134100  1
  C  C8  1  0.19002300  0.75000000  0.39367100  1
  C  C9  1  0.69002300  0.25000000  0.10632900  1
  C  C10  1  0.80997700  0.25000000  0.60632900  1
  C  C11  1  0.30997700  0.75000000  0.89367100  1
  C  C12  1  0.96522200  0.83526900  0.53432300  1
  C  C13  1  0.46522200  0.16473100  0.96567700  1
  C  C14  1  0.03477800  0.33526900  0.46567700  1
  C  C15  1  0.53477800  0.66473100  0.03432300  1
  C  C16  1  0.03477800  0.16473100  0.46567700  1
  C  C17  1  0.53477800  0.83526900  0.03432300  1
  C  C18  1  0.96522200  0.66473100  0.53432300  1
  C  C19  1  0.46522200  0.33526900  0.96567700  1
  Ni  Ni20  1  0.19132800  0.00400600  0.39822600  1
  Ni  Ni21  1  0.69132800  0.99599400  0.10177400  1
  Ni  Ni22  1  0.80867200  0.50400600  0.60177400  1
  Ni  Ni23  1  0.30867200  0.49599400  0.89822600  1
  Ni  Ni24  1  0.80867200  0.99599400  0.60177400  1
  Ni  Ni25  1  0.30867200  0.00400600  0.89822600  1
  Ni  Ni26  1  0.19132800  0.49599400  0.39822600  1
  Ni  Ni27  1  0.69132800  0.50400600  0.10177400  1
  Ni  Ni28  1  0.92729600  0.75000000  0.29611100  1
  Ni  Ni29  1  0.42729600  0.25000000  0.20388900  1
  Ni  Ni30  1  0.07270400  0.25000000  0.70388900  1
  Ni  Ni31  1  0.57270400  0.75000000  0.79611100  1
  Ni  Ni32  1  0.37437800  0.75000000  0.25566600  1
  Ni  Ni33  1  0.87437800  0.25000000  0.24433400  1
  Ni  Ni34  1  0.62562200  0.25000000  0.74433400  1
  Ni  Ni35  1  0.12562200  0.75000000  0.75566600  1
  Ni  Ni36  1  0.45393000  0.75000000  0.49250600  1
  Ni  Ni37  1  0.95393000  0.25000000  0.00749400  1
  Ni  Ni38  1  0.54607000  0.25000000  0.50749400  1
  Ni  Ni39  1  0.04607000  0.75000000  0.99250600  1
  Cu  Cu40  1  0.03540400  0.75000000  0.51568100  1
  Cu  Cu41  1  0.53540400  0.25000000  0.98431900  1
  Cu  Cu42  1  0.96459600  0.25000000  0.48431900  1
  Cu  Cu43  1  0.46459600  0.75000000  0.01568100  1
