# generated using pymatgen
data_CuNi5C8
_symmetry_space_group_name_H-M   'P 1'
_cell_length_a   6.05661139
_cell_length_b   5.97311469
_cell_length_c   29.87694314
_cell_angle_alpha   60.00842886
_cell_angle_beta   60.40404974
_cell_angle_gamma   60.23618732
_symmetry_Int_Tables_number   1
_chemical_formula_structural   CuNi5C8
_chemical_formula_sum   'Cu5 Ni25 C40'
_cell_volume   768.00190376
_cell_formula_units_Z   5
loop_
 _symmetry_equiv_pos_site_id
 _symmetry_equiv_pos_as_xyz
  1  'x, y, z'
loop_
 _atom_site_type_symbol
 _atom_site_label
 _atom_site_symmetry_multiplicity
 _atom_site_fract_x
 _atom_site_fract_y
 _atom_site_fract_z
 _atom_site_occupancy
  Ni  Ni0  1  0.12636035  0.10729050  0.02632962  1
  Ni  Ni1  1  0.00000000  0.50000000  0.10000000  1
  Ni  Ni2  1  0.49980344  0.49492497  0.00106248  1
  Ni  Ni3  1  0.10384429  0.12801317  0.22704075  1
  Ni  Ni4  1  0.50000000  0.50000000  0.10000000  1
  Ni  Ni5  1  0.50019656  0.50507503  0.19893752  1
  Ni  Ni6  1  0.10161638  0.13366933  0.42641736  1
  Ni  Ni7  1  0.50535550  0.49609543  0.29970457  1
  Ni  Ni8  1  0.87363965  0.89270950  0.17367038  1
  Ni  Ni9  1  0.50414878  0.49876163  0.39971107  1
  Ni  Ni10  1  0.09688943  0.13460606  0.62687657  1
  Ni  Ni11  1  0.50480250  -0.00068718  0.29939636  1
  Ni  Ni12  1  0.50253037  0.50000115  0.49955975  1
  Ni  Ni13  1  0.90735123  0.86303121  0.37277681  1
  Ni  Ni14  1  0.50273191  -0.00111994  0.49974461  1
  Ni  Ni15  1  0.09264877  0.13696879  0.82722319  1
  Ni  Ni16  1  0.50000000  0.50000000  0.60000000  1
  Ni  Ni17  1  0.49746963  0.49999885  0.70044025  1
  Ni  Ni18  1  0.49519750  1.00068718  0.90060364  1
  Ni  Ni19  1  0.49726809  1.00111994  0.70025539  1
  Ni  Ni20  1  0.90311057  0.86539394  0.57312343  1
  Ni  Ni21  1  0.49585122  0.50123837  0.80028893  1
  Ni  Ni22  1  0.49464450  0.50390457  0.90029543  1
  Ni  Ni23  1  0.89838362  0.86633067  0.77358264  1
  Ni  Ni24  1  0.89615571  0.87198683  0.97295925  1
  C  C25  1  0.26458235  0.23743320  0.05305431  1
  C  C26  1  0.26500863  0.23773064  0.14639815  1
  C  C27  1  0.26321129  0.70954220  0.05367658  1
  C  C28  1  0.72755324  0.24043134  0.05302548  1
  C  C29  1  0.27244676  0.75956866  0.14697452  1
  C  C30  1  0.23934389  0.26709311  0.25259658  1
  C  C31  1  0.73678871  0.29045780  0.14632342  1
  C  C32  1  0.73499137  0.76226936  0.05360185  1
  C  C33  1  0.24151076  0.26295246  0.34565100  1
  C  C34  1  0.24343072  0.72378575  0.25348870  1
  C  C35  1  0.70976657  0.25999429  0.25375634  1
  C  C36  1  0.73541765  0.76256680  0.14694569  1
  C  C37  1  0.30175647  0.73179820  0.34629834  1
  C  C38  1  0.24105104  0.26868711  0.45221256  1
  C  C39  1  0.76270043  0.73274300  0.25444726  1
  C  C40  1  0.76659938  0.26732119  0.34572888  1
  C  C41  1  0.23926308  0.26485753  0.54600100  1
  C  C42  1  0.23909019  0.72976677  0.45320194  1
  C  C43  1  0.76806695  0.72662892  0.34714902  1
  C  C44  1  0.70844198  0.26433852  0.45256789  1
  C  C45  1  0.29669797  0.73344984  0.54702585  1
  C  C46  1  0.23503093  0.26938544  0.65301188  1
  C  C47  1  0.76638138  0.26981155  0.54622590  1
  C  C48  1  0.76678119  0.73315337  0.45355146  1
  C  C49  1  0.23321881  0.26684663  0.74644854  1
  C  C50  1  0.23361862  0.73018845  0.65377410  1
  C  C51  1  0.76496907  0.73061456  0.54698812  1
  C  C52  1  0.70330203  0.26655016  0.65297415  1
  C  C53  1  0.23193305  0.27337108  0.85285098  1
  C  C54  1  0.29155802  0.73566148  0.74743211  1
  C  C55  1  0.76073692  0.73514247  0.65399900  1
  C  C56  1  0.76090981  0.27023323  0.74679806  1
  C  C57  1  0.23729957  0.26725700  0.94555274  1
  C  C58  1  0.23340062  0.73267881  0.85427112  1
  C  C59  1  0.69824353  0.26820180  0.85370166  1
  C  C60  1  0.75894896  0.73131289  0.74778744  1
  C  C61  1  0.29023343  0.74000571  0.94624366  1
  C  C62  1  0.75656928  0.27621425  0.94651130  1
  C  C63  1  0.75848924  0.73704754  0.85434900  1
  C  C64  1  0.76065611  0.73290689  0.94740342  1
  Cu  Cu65  1  0.50000000  0.00000000  0.10000000  1
  Cu  Cu66  1  0.00297945  0.49904047  0.49985087  1
  Cu  Cu67  1  1.00322437  0.49590075  0.29999578  1
  Cu  Cu68  1  -0.00322437  0.50409925  0.90000422  1
  Cu  Cu69  1  0.99702055  0.50095953  0.70014913  1
