# generated using pymatgen
data_CuNiC5
_symmetry_space_group_name_H-M   'P 1'
_cell_length_a   5.69608448
_cell_length_b   5.69608448
_cell_length_c   7.28459000
_cell_angle_alpha   90.00000000
_cell_angle_beta   90.00000000
_cell_angle_gamma   120.00000557
_symmetry_Int_Tables_number   1
_chemical_formula_structural   CuNiC5
_chemical_formula_sum   'Cu2 Ni2 C10'
_cell_volume   204.68620037
_cell_formula_units_Z   2
loop_
 _symmetry_equiv_pos_site_id
 _symmetry_equiv_pos_as_xyz
  1  'x, y, z'
loop_
 _atom_site_type_symbol
 _atom_site_label
 _atom_site_symmetry_multiplicity
 _atom_site_fract_x
 _atom_site_fract_y
 _atom_site_fract_z
 _atom_site_occupancy
  Ni  Ni0  1  0.33333300  0.66666700  0.32777500  1
  Ni  Ni1  1  0.00000000  0.00000000  0.00292700  1
  Cu  Cu2  1  0.00000000  0.00000000  0.50291600  1
  Cu  Cu3  1  0.66666700  0.33333300  0.70289800  1
  C  C4  1  0.33333300  0.66666700  0.77122200  1
  C  C5  1  0.66666700  0.33333300  0.23272700  1
  C  C6  1  0.19068200  0.80931800  0.69874600  1
  C  C7  1  0.80905800  0.19094200  0.30462600  1
  C  C8  1  0.33333300  0.66666700  0.97291100  1
  C  C9  1  0.80905800  0.61811700  0.30462600  1
  C  C10  1  0.19068200  0.38136400  0.69874600  1
  C  C11  1  0.66666700  0.33333300  0.02950800  1
  C  C12  1  0.38188300  0.19094200  0.30462600  1
  C  C13  1  0.61863600  0.80931800  0.69874600  1
