# generated using pymatgen
data_CuNiC4
_symmetry_space_group_name_H-M   'P 1'
_cell_length_a   10.83389400
_cell_length_b   8.86784200
_cell_length_c   20.22779100
_cell_angle_alpha   87.03322465
_cell_angle_beta   90.00000000
_cell_angle_gamma   90.00000000
_symmetry_Int_Tables_number   1
_chemical_formula_structural   CuNiC4
_chemical_formula_sum   'Cu12 Ni12 C48'
_cell_volume   1940.74518660
_cell_formula_units_Z   12
loop_
 _symmetry_equiv_pos_site_id
 _symmetry_equiv_pos_as_xyz
  1  'x, y, z'
loop_
 _atom_site_type_symbol
 _atom_site_label
 _atom_site_symmetry_multiplicity
 _atom_site_fract_x
 _atom_site_fract_y
 _atom_site_fract_z
 _atom_site_occupancy
  C  C0  1  0.70349700  0.47776800  0.50832700  1
  C  C1  1  0.49150600  0.85332500  0.89774800  1
  C  C2  1  0.20349700  0.52223200  0.99167300  1
  C  C3  1  0.50849400  0.14667500  0.10225200  1
  C  C4  1  0.99150600  0.14667500  0.60225200  1
  C  C5  1  0.00849400  0.85332500  0.39774800  1
  C  C6  1  0.79650300  0.47776800  0.00832700  1
  C  C7  1  0.17474800  0.19435300  0.79301100  1
  C  C8  1  0.29650300  0.52223200  0.49167300  1
  C  C9  1  0.32525200  0.19435300  0.29301100  1
  C  C10  1  0.67474800  0.80564700  0.70698900  1
  C  C11  1  0.82525200  0.80564700  0.20698900  1
  Ni  Ni12  1  0.99282600  0.82447200  0.86333900  1
  Ni  Ni13  1  0.64194700  0.47018800  0.27412000  1
  Ni  Ni14  1  0.35805300  0.52981200  0.72588000  1
  Ni  Ni15  1  0.70668000  0.13526900  0.39203800  1
  Ni  Ni16  1  0.49282600  0.17552800  0.63666100  1
  Ni  Ni17  1  0.00717400  0.17552800  0.13666100  1
  Ni  Ni18  1  0.29332000  0.86473100  0.60796200  1
  Ni  Ni19  1  0.20668000  0.86473100  0.10796200  1
  Ni  Ni20  1  0.85805300  0.47018800  0.77412000  1
  Ni  Ni21  1  0.14194700  0.52981200  0.22588000  1
  Ni  Ni22  1  0.50717400  0.82447200  0.36333900  1
  Ni  Ni23  1  0.79332000  0.13526900  0.89203800  1
  Cu  Cu24  1  0.94362600  0.39530100  0.35652000  1
  Cu  Cu25  1  0.55637400  0.39530100  0.85652000  1
  Cu  Cu26  1  0.05637400  0.60469900  0.64348000  1
  Cu  Cu27  1  0.40679400  0.73200700  0.23720400  1
  Cu  Cu28  1  0.44362600  0.60469900  0.14348000  1
  Cu  Cu29  1  0.58072300  0.93085100  0.52169800  1
  Cu  Cu30  1  0.09320600  0.73200700  0.73720400  1
  Cu  Cu31  1  0.59320600  0.26799300  0.76279600  1
  Cu  Cu32  1  0.90679400  0.26799300  0.26279600  1
  Cu  Cu33  1  0.41927700  0.06914900  0.47830200  1
  Cu  Cu34  1  0.08072300  0.06914900  0.97830200  1
  Cu  Cu35  1  0.91927700  0.93085100  0.02169800  1
  C  C36  1  0.80278700  0.57866400  0.34852500  1
  C  C37  1  0.45067500  0.56394500  0.32112800  1
  C  C38  1  0.31434200  0.13118300  0.56877200  1
  C  C39  1  0.13834300  0.47110000  0.34850200  1
  C  C40  1  0.53578300  0.92482900  0.24296800  1
  C  C41  1  0.19721300  0.42133600  0.65147500  1
  C  C42  1  0.03578300  0.07517100  0.25703200  1
  C  C43  1  0.59994600  0.22869800  0.93921900  1
  C  C44  1  0.29249800  0.79604300  0.72701900  1
  C  C45  1  0.70750200  0.20395700  0.27298100  1
  C  C46  1  0.30278700  0.42133600  0.15147500  1
  C  C47  1  0.09994600  0.77130200  0.56078100  1
  C  C48  1  0.95067500  0.43605500  0.17887200  1
  C  C49  1  0.40005400  0.77130200  0.06078100  1
  C  C50  1  0.31951500  0.91676300  0.41344600  1
  C  C51  1  0.96421700  0.92482900  0.74296800  1
  C  C52  1  0.36165700  0.47110000  0.84850200  1
  C  C53  1  0.20750200  0.79604300  0.22701900  1
  C  C54  1  0.68048500  0.08323700  0.58655400  1
  C  C55  1  0.46421700  0.07517100  0.75703200  1
  C  C56  1  0.18565800  0.13118300  0.06877200  1
  C  C57  1  0.99089000  0.26227100  0.92339000  1
  C  C58  1  0.63834300  0.52890000  0.15149800  1
  C  C59  1  0.18048500  0.91676300  0.91344600  1
  C  C60  1  0.04932500  0.56394500  0.82112800  1
  C  C61  1  0.90005400  0.22869800  0.43921900  1
  C  C62  1  0.50911000  0.26227100  0.42339000  1
  C  C63  1  0.81951500  0.08323700  0.08655400  1
  C  C64  1  0.79249800  0.20395700  0.77298100  1
  C  C65  1  0.00911000  0.73772900  0.07661000  1
  C  C66  1  0.68565800  0.86881700  0.43122800  1
  C  C67  1  0.86165700  0.52890000  0.65149800  1
  C  C68  1  0.81434200  0.86881700  0.93122800  1
  C  C69  1  0.54932500  0.43605500  0.67887200  1
  C  C70  1  0.49089000  0.73772900  0.57661000  1
  C  C71  1  0.69721300  0.57866400  0.84852500  1
