# generated using pymatgen
data_Cu8Ni2C3
_symmetry_space_group_name_H-M   'P 1'
_cell_length_a   10.52052500
_cell_length_b   8.81316600
_cell_length_c   15.31639025
_cell_angle_alpha   89.19671974
_cell_angle_beta   90.00000000
_cell_angle_gamma   90.00000000
_symmetry_Int_Tables_number   1
_chemical_formula_structural   Cu8Ni2C3
_chemical_formula_sum   'Cu64 Ni16 C24'
_cell_volume   1419.98286275
_cell_formula_units_Z   8
loop_
 _symmetry_equiv_pos_site_id
 _symmetry_equiv_pos_as_xyz
  1  'x, y, z'
loop_
 _atom_site_type_symbol
 _atom_site_label
 _atom_site_symmetry_multiplicity
 _atom_site_fract_x
 _atom_site_fract_y
 _atom_site_fract_z
 _atom_site_occupancy
  C  C0  1  0.00697700  0.25000000  0.25000000  1
  C  C1  1  0.60247300  0.80209600  0.01392600  1
  C  C2  1  0.41998600  0.25000000  0.75000000  1
  C  C3  1  0.89389200  0.30026100  0.98056700  1
  C  C4  1  0.39752700  0.19790400  0.98607400  1
  C  C5  1  0.60247300  0.69790400  0.48607400  1
  C  C6  1  0.15964000  0.75000000  0.25000000  1
  C  C7  1  0.99302300  0.75000000  0.75000000  1
  C  C8  1  0.34732600  0.25000000  0.25000000  1
  C  C9  1  0.10610800  0.69973900  0.01943300  1
  C  C10  1  0.84036000  0.25000000  0.75000000  1
  C  C11  1  0.58001400  0.75000000  0.25000000  1
  C  C12  1  0.65267400  0.75000000  0.75000000  1
  C  C13  1  0.10610800  0.80026100  0.48056700  1
  C  C14  1  0.39752700  0.30209600  0.51392600  1
  C  C15  1  0.89389200  0.19973900  0.51943300  1
  C  C16  1  0.12528600  0.42695200  0.62407000  1
  C  C17  1  0.61925900  0.08474600  0.37689300  1
  C  C18  1  0.61925900  0.41525400  0.12310700  1
  C  C19  1  0.38074100  0.91525400  0.62310700  1
  C  C20  1  0.87471400  0.57304800  0.37593000  1
  C  C21  1  0.87471400  0.92695200  0.12407000  1
  C  C22  1  0.38074100  0.58474600  0.87689300  1
  C  C23  1  0.12528600  0.07304800  0.87593000  1
  Ni  Ni24  1  0.87000100  0.92365800  0.90956500  1
  Ni  Ni25  1  0.11096700  0.43713400  0.84266600  1
  Ni  Ni26  1  0.11096700  0.06286600  0.65733400  1
  Ni  Ni27  1  0.12999900  0.07634200  0.09043500  1
  Ni  Ni28  1  0.37235600  0.93490600  0.40444000  1
  Ni  Ni29  1  0.88903300  0.56286600  0.15733400  1
  Ni  Ni30  1  0.60741800  0.07309700  0.15716300  1
  Ni  Ni31  1  0.62764400  0.06509400  0.59556000  1
  Ni  Ni32  1  0.60741800  0.42690300  0.34283700  1
  Ni  Ni33  1  0.12999900  0.42365800  0.40956500  1
  Ni  Ni34  1  0.88903300  0.93713400  0.34266600  1
  Ni  Ni35  1  0.62764400  0.43490600  0.90444000  1
  Ni  Ni36  1  0.87000100  0.57634200  0.59043500  1
  Ni  Ni37  1  0.39258200  0.57309700  0.65716300  1
  Ni  Ni38  1  0.37235600  0.56509400  0.09556000  1
  Ni  Ni39  1  0.39258200  0.92690300  0.84283700  1
  Cu  Cu40  1  0.26969300  0.57352200  0.15997700  1
  Cu  Cu41  1  0.31287500  0.07014100  0.84701300  1
  Cu  Cu42  1  0.15664200  0.58584200  0.39354400  1
  Cu  Cu43  1  0.52007500  0.33135100  0.88403200  1
  Cu  Cu44  1  0.68102900  0.39894500  0.99335500  1
  Cu  Cu45  1  0.52007500  0.16864900  0.61596800  1
  Cu  Cu46  1  0.18335500  0.12914700  0.00402100  1
  Cu  Cu47  1  0.15664200  0.91415800  0.10645600  1
  Cu  Cu48  1  0.30424100  0.79424500  0.85289300  1
  Cu  Cu49  1  0.45626900  0.92627700  0.75556900  1
  Cu  Cu50  1  0.98584000  0.40003900  0.41525500  1
  Cu  Cu51  1  0.42801700  0.40495400  0.09321100  1
  Cu  Cu52  1  0.31897100  0.60105500  0.00664500  1
  Cu  Cu53  1  0.07983900  0.49909200  0.75377400  1
  Cu  Cu54  1  0.57198300  0.59504600  0.90678900  1
  Cu  Cu55  1  0.47992500  0.66864900  0.11596800  1
  Cu  Cu56  1  0.25252300  0.08373500  0.64840400  1
  Cu  Cu57  1  0.98584000  0.09996100  0.08474500  1
  Cu  Cu58  1  0.94142800  0.03750600  0.40844600  1
  Cu  Cu59  1  0.94989200  0.78234900  0.35178000  1
  Cu  Cu60  1  0.94989200  0.71765100  0.14822000  1
  Cu  Cu61  1  0.68102900  0.10105500  0.50664500  1
  Cu  Cu62  1  0.69575900  0.20575500  0.14710700  1
  Cu  Cu63  1  0.17988900  0.17276500  0.16004400  1
  Cu  Cu64  1  0.31897100  0.89894500  0.49335500  1
  Cu  Cu65  1  0.47992500  0.83135100  0.38403200  1
  Cu  Cu66  1  0.05857200  0.96249400  0.59155400  1
  Cu  Cu67  1  0.82011100  0.82723500  0.83995600  1
  Cu  Cu68  1  0.25252300  0.41626500  0.85159600  1
  Cu  Cu69  1  0.05010800  0.28234900  0.85178000  1
  Cu  Cu70  1  0.01416000  0.90003900  0.91525500  1
  Cu  Cu71  1  0.48810600  0.56900200  0.58818900  1
  Cu  Cu72  1  0.73030700  0.42647800  0.84002300  1
  Cu  Cu73  1  0.05857200  0.53750600  0.90844600  1
  Cu  Cu74  1  0.54373100  0.42627700  0.25556900  1
  Cu  Cu75  1  0.92016100  0.50090800  0.24622600  1
  Cu  Cu76  1  0.57198300  0.90495400  0.59321100  1
  Cu  Cu77  1  0.69575900  0.29424500  0.35289300  1
  Cu  Cu78  1  0.92016100  0.99909200  0.25377400  1
  Cu  Cu79  1  0.82011100  0.67276500  0.66004400  1
  Cu  Cu80  1  0.94142800  0.46249400  0.09155400  1
  Cu  Cu81  1  0.54373100  0.07372300  0.24443100  1
  Cu  Cu82  1  0.51189400  0.06900200  0.08818900  1
  Cu  Cu83  1  0.51189400  0.43099800  0.41181100  1
  Cu  Cu84  1  0.18335500  0.37085300  0.49597900  1
  Cu  Cu85  1  0.26969300  0.92647800  0.34002300  1
  Cu  Cu86  1  0.74747700  0.91626500  0.35159600  1
  Cu  Cu87  1  0.31287500  0.42985900  0.65298700  1
  Cu  Cu88  1  0.81664500  0.87085300  0.99597900  1
  Cu  Cu89  1  0.81664500  0.62914700  0.50402100  1
  Cu  Cu90  1  0.42801700  0.09504600  0.40678900  1
  Cu  Cu91  1  0.48810600  0.93099800  0.91181100  1
  Cu  Cu92  1  0.84335800  0.08584200  0.89354400  1
  Cu  Cu93  1  0.84335800  0.41415800  0.60645600  1
  Cu  Cu94  1  0.05010800  0.21765100  0.64822000  1
  Cu  Cu95  1  0.01416000  0.59996100  0.58474500  1
  Cu  Cu96  1  0.17988900  0.32723500  0.33995600  1
  Cu  Cu97  1  0.30424100  0.70575500  0.64710700  1
  Cu  Cu98  1  0.74747700  0.58373500  0.14840400  1
  Cu  Cu99  1  0.45626900  0.57372300  0.74443100  1
  Cu  Cu100  1  0.68712500  0.92985900  0.15298700  1
  Cu  Cu101  1  0.73030700  0.07352200  0.65997700  1
  Cu  Cu102  1  0.07983900  0.00090800  0.74622600  1
  Cu  Cu103  1  0.68712500  0.57014100  0.34701300  1
