# generated using pymatgen
data_Cu6NiC4
_symmetry_space_group_name_H-M   'P 1'
_cell_length_a   14.95652800
_cell_length_b   5.41876900
_cell_length_c   9.28159398
_cell_angle_alpha   80.31718416
_cell_angle_beta   90.00000000
_cell_angle_gamma   90.00000000
_symmetry_Int_Tables_number   1
_chemical_formula_structural   Cu6NiC4
_chemical_formula_sum   'Cu24 Ni4 C16'
_cell_volume   741.51940695
_cell_formula_units_Z   4
loop_
 _symmetry_equiv_pos_site_id
 _symmetry_equiv_pos_as_xyz
  1  'x, y, z'
loop_
 _atom_site_type_symbol
 _atom_site_label
 _atom_site_symmetry_multiplicity
 _atom_site_fract_x
 _atom_site_fract_y
 _atom_site_fract_z
 _atom_site_occupancy
  C  C0  1  0.41344000  0.74565300  0.02566500  1
  C  C1  1  0.91344000  0.25434700  0.47433500  1
  C  C2  1  0.58656000  0.25434700  0.97433500  1
  C  C3  1  0.08656000  0.74565300  0.52566500  1
  C  C4  1  0.77554600  0.27232200  0.17405000  1
  C  C5  1  0.27554600  0.72767800  0.32595000  1
  C  C6  1  0.72445400  0.27232200  0.67405000  1
  C  C7  1  0.22445400  0.72767800  0.82595000  1
  C  C8  1  0.34800000  0.25474600  0.78117600  1
  C  C9  1  0.65200000  0.74525400  0.21882400  1
  C  C10  1  0.58723900  0.78005800  0.70557000  1
  C  C11  1  0.15200000  0.25474600  0.28117600  1
  C  C12  1  0.08723900  0.21994200  0.79443000  1
  C  C13  1  0.84800000  0.74525400  0.71882400  1
  C  C14  1  0.41276100  0.21994200  0.29443000  1
  C  C15  1  0.91276100  0.78005800  0.20557000  1
  Ni  Ni16  1  0.89561100  0.26991200  0.94457000  1
  Ni  Ni17  1  0.10438900  0.73008800  0.05543000  1
  Ni  Ni18  1  0.60438900  0.26991200  0.44457000  1
  Ni  Ni19  1  0.39561100  0.73008800  0.55543000  1
  Cu  Cu20  1  0.01754800  0.37299800  0.63359000  1
  Cu  Cu21  1  0.63908800  0.03878700  0.79552900  1
  Cu  Cu22  1  0.48245200  0.37299800  0.13359000  1
  Cu  Cu23  1  0.51754800  0.62700200  0.86641000  1
  Cu  Cu24  1  0.67814500  0.53213700  0.77387700  1
  Cu  Cu25  1  0.78796900  0.01627700  0.59421400  1
  Cu  Cu26  1  0.67463300  0.49805300  0.09858900  1
  Cu  Cu27  1  0.82536700  0.49805300  0.59858900  1
  Cu  Cu28  1  0.86091200  0.03878700  0.29552900  1
  Cu  Cu29  1  0.32536700  0.50194700  0.90141100  1
  Cu  Cu30  1  0.71203100  0.01627700  0.09421400  1
  Cu  Cu31  1  0.28796900  0.98372300  0.90578600  1
  Cu  Cu32  1  0.32185500  0.46786300  0.22612300  1
  Cu  Cu33  1  0.17814500  0.46786300  0.72612300  1
  Cu  Cu34  1  0.36091200  0.96121300  0.20447100  1
  Cu  Cu35  1  0.95619300  0.87804100  0.62619700  1
  Cu  Cu36  1  0.13908800  0.96121300  0.70447100  1
  Cu  Cu37  1  0.45619300  0.12195900  0.87380300  1
  Cu  Cu38  1  0.82185500  0.53213700  0.27387700  1
  Cu  Cu39  1  0.54380700  0.87804100  0.12619700  1
  Cu  Cu40  1  0.21203100  0.98372300  0.40578600  1
  Cu  Cu41  1  0.98245200  0.62700200  0.36641000  1
  Cu  Cu42  1  0.04380700  0.12195900  0.37380300  1
  Cu  Cu43  1  0.17463300  0.50194700  0.40141100  1
