# generated using pymatgen
data_Cu(NiC3)2
_symmetry_space_group_name_H-M   'P 1'
_cell_length_a   6.13021100
_cell_length_b   6.13021100
_cell_length_c   10.12016200
_cell_angle_alpha   90.00000000
_cell_angle_beta   90.00000000
_cell_angle_gamma   90.00000000
_symmetry_Int_Tables_number   1
_chemical_formula_structural   Cu(NiC3)2
_chemical_formula_sum   'Cu2 Ni4 C12'
_cell_volume   380.31049535
_cell_formula_units_Z   2
loop_
 _symmetry_equiv_pos_site_id
 _symmetry_equiv_pos_as_xyz
  1  'x, y, z'
loop_
 _atom_site_type_symbol
 _atom_site_label
 _atom_site_symmetry_multiplicity
 _atom_site_fract_x
 _atom_site_fract_y
 _atom_site_fract_z
 _atom_site_occupancy
  C  C0  1  0.50000000  0.50000000  0.00000000  1
  C  C1  1  0.00000000  0.00000000  0.00000000  1
  Ni  Ni2  1  0.50000000  0.00000000  0.69355300  1
  Ni  Ni3  1  0.00000000  0.50000000  0.73563400  1
  Ni  Ni4  1  0.50000000  0.00000000  0.26436600  1
  Ni  Ni5  1  0.00000000  0.50000000  0.30644700  1
  Cu  Cu6  1  0.50000000  0.50000000  0.50000000  1
  Cu  Cu7  1  0.00000000  0.00000000  0.50000000  1
  C  C8  1  0.50000000  0.00000000  0.03537400  1
  C  C9  1  0.76397900  0.26397900  0.18016200  1
  C  C10  1  0.26397900  0.23602100  0.81983800  1
  C  C11  1  0.76397900  0.73602100  0.18016200  1
  C  C12  1  0.73602100  0.76397900  0.81983800  1
  C  C13  1  0.23602100  0.26397900  0.18016200  1
  C  C14  1  0.00000000  0.50000000  0.96462600  1
  C  C15  1  0.73602100  0.23602100  0.81983800  1
  C  C16  1  0.26397900  0.76397900  0.81983800  1
  C  C17  1  0.23602100  0.73602100  0.18016200  1
