# generated using pymatgen
data_Cu2NiC7
_symmetry_space_group_name_H-M   'P 1'
_cell_length_a   7.92105900
_cell_length_b   10.48827700
_cell_length_c   13.59140600
_cell_angle_alpha   90.00000000
_cell_angle_beta   90.00000000
_cell_angle_gamma   90.00000000
_symmetry_Int_Tables_number   1
_chemical_formula_structural   Cu2NiC7
_chemical_formula_sum   'Cu16 Ni8 C56'
_cell_volume   1129.15037401
_cell_formula_units_Z   8
loop_
 _symmetry_equiv_pos_site_id
 _symmetry_equiv_pos_as_xyz
  1  'x, y, z'
loop_
 _atom_site_type_symbol
 _atom_site_label
 _atom_site_symmetry_multiplicity
 _atom_site_fract_x
 _atom_site_fract_y
 _atom_site_fract_z
 _atom_site_occupancy
  C  C0  1  0.32649600  0.75653500  0.85704300  1
  C  C1  1  0.82649600  0.24346500  0.64295700  1
  C  C2  1  0.67350400  0.24346500  0.14295700  1
  C  C3  1  0.67350400  0.74346500  0.35704300  1
  C  C4  1  0.82649600  0.74346500  0.85704300  1
  C  C5  1  0.32649600  0.25653500  0.64295700  1
  C  C6  1  0.17350400  0.75653500  0.35704300  1
  C  C7  1  0.17350400  0.25653500  0.14295700  1
  Ni  Ni8  1  0.69439300  0.50244500  0.01990700  1
  Ni  Ni9  1  0.30560700  0.49755500  0.98009300  1
  Ni  Ni10  1  0.80560700  0.00244500  0.98009300  1
  Ni  Ni11  1  0.30560700  0.99755500  0.51990700  1
  Ni  Ni12  1  0.69439300  0.00244500  0.48009300  1
  Ni  Ni13  1  0.19439300  0.49755500  0.48009300  1
  Ni  Ni14  1  0.80560700  0.50244500  0.51990700  1
  Ni  Ni15  1  0.19439300  0.99755500  0.01990700  1
  Cu  Cu16  1  0.45044500  0.71144600  0.57439000  1
  Cu  Cu17  1  0.07987700  0.01005600  0.76738600  1
  Cu  Cu18  1  0.92012300  0.48994400  0.26738600  1
  Cu  Cu19  1  0.57987700  0.98994400  0.73261400  1
  Cu  Cu20  1  0.42012300  0.51005600  0.23261400  1
  Cu  Cu21  1  0.57987700  0.48994400  0.76738600  1
  Cu  Cu22  1  0.04955500  0.21144600  0.42561000  1
  Cu  Cu23  1  0.04955500  0.71144600  0.07439000  1
  Cu  Cu24  1  0.92012300  0.98994400  0.23261400  1
  Cu  Cu25  1  0.95044500  0.78855400  0.57439000  1
  Cu  Cu26  1  0.07987700  0.51005600  0.73261400  1
  Cu  Cu27  1  0.45044500  0.21144600  0.92561000  1
  Cu  Cu28  1  0.54955500  0.28855400  0.42561000  1
  Cu  Cu29  1  0.42012300  0.01005600  0.26738600  1
  Cu  Cu30  1  0.54955500  0.78855400  0.07439000  1
  Cu  Cu31  1  0.95044500  0.28855400  0.92561000  1
  C  C32  1  0.13178700  0.12427300  0.54135400  1
  C  C33  1  0.56986100  0.31082700  0.76637900  1
  C  C34  1  0.49833800  0.87219500  0.50795900  1
  C  C35  1  0.26247000  0.48053300  0.12710000  1
  C  C36  1  0.81910500  0.16085100  0.45195700  1
  C  C37  1  0.87074100  0.97300400  0.83670900  1
  C  C38  1  0.73753000  0.51946700  0.87290000  1
  C  C39  1  0.76247000  0.51946700  0.37290000  1
  C  C40  1  0.87074100  0.47300400  0.66329100  1
  C  C41  1  0.36821300  0.12427300  0.04135400  1
  C  C42  1  0.13178700  0.62427300  0.95864600  1
  C  C43  1  0.93013900  0.81082700  0.23362100  1
  C  C44  1  0.63178700  0.37572700  0.54135400  1
  C  C45  1  0.81910500  0.66085100  0.04804300  1
  C  C46  1  0.68089500  0.66085100  0.54804300  1
  C  C47  1  0.31910500  0.33914900  0.45195700  1
  C  C48  1  0.68089500  0.16085100  0.95195700  1
  C  C49  1  0.86821300  0.37572700  0.04135400  1
  C  C50  1  0.00166200  0.87219500  0.00795900  1
  C  C51  1  0.36821300  0.62427300  0.45864600  1
  C  C52  1  0.18089500  0.83914900  0.54804300  1
  C  C53  1  0.37074100  0.52699600  0.83670900  1
  C  C54  1  0.12925900  0.02699600  0.16329100  1
  C  C55  1  0.99833800  0.12780500  0.99204100  1
  C  C56  1  0.23753000  0.98053300  0.87290000  1
  C  C57  1  0.63178700  0.87572700  0.95864600  1
  C  C58  1  0.49833800  0.37219500  0.99204100  1
  C  C59  1  0.26247000  0.98053300  0.37290000  1
  C  C60  1  0.31910500  0.83914900  0.04804300  1
  C  C61  1  0.93013900  0.31082700  0.26637900  1
  C  C62  1  0.56986100  0.81082700  0.73362100  1
  C  C63  1  0.43013900  0.68917300  0.23362100  1
  C  C64  1  0.23753000  0.48053300  0.62710000  1
  C  C65  1  0.99833800  0.62780500  0.50795900  1
  C  C66  1  0.37074100  0.02699600  0.66329100  1
  C  C67  1  0.62925900  0.47300400  0.16329100  1
  C  C68  1  0.50166200  0.62780500  0.00795900  1
  C  C69  1  0.06986100  0.18917300  0.76637900  1
  C  C70  1  0.00166200  0.37219500  0.49204100  1
  C  C71  1  0.73753000  0.01946700  0.62710000  1
  C  C72  1  0.50166200  0.12780500  0.49204100  1
  C  C73  1  0.06986100  0.68917300  0.73362100  1
  C  C74  1  0.12925900  0.52699600  0.33670900  1
  C  C75  1  0.86821300  0.87572700  0.45864600  1
  C  C76  1  0.62925900  0.97300400  0.33670900  1
  C  C77  1  0.43013900  0.18917300  0.26637900  1
  C  C78  1  0.76247000  0.01946700  0.12710000  1
  C  C79  1  0.18089500  0.33914900  0.95195700  1
