# generated using pymatgen
data_Cu3NiC
_symmetry_space_group_name_H-M   'P 1'
_cell_length_a   7.99834758
_cell_length_b   7.99834758
_cell_length_c   8.88058988
_cell_angle_alpha   66.17844589
_cell_angle_beta   66.17844589
_cell_angle_gamma   60.62971656
_symmetry_Int_Tables_number   1
_chemical_formula_structural   Cu3NiC
_chemical_formula_sum   'Cu6 Ni2 C2'
_cell_volume   437.57095566
_cell_formula_units_Z   2
loop_
 _symmetry_equiv_pos_site_id
 _symmetry_equiv_pos_as_xyz
  1  'x, y, z'
loop_
 _atom_site_type_symbol
 _atom_site_label
 _atom_site_symmetry_multiplicity
 _atom_site_fract_x
 _atom_site_fract_y
 _atom_site_fract_z
 _atom_site_occupancy
  C  C0  1  0.73094600  0.73094600  0.76749100  1
  C  C1  1  0.26905400  0.26905400  0.23250900  1
  Ni  Ni2  1  0.00000000  0.00000000  0.00000000  1
  Ni  Ni3  1  0.50000000  0.50000000  0.50000000  1
  Cu  Cu4  1  0.28542500  0.28542500  0.64587000  1
  Cu  Cu5  1  0.80005600  0.27211900  0.18357000  1
  Cu  Cu6  1  0.19994400  0.72788100  0.81643000  1
  Cu  Cu7  1  0.72788100  0.19994400  0.81643000  1
  Cu  Cu8  1  0.27211900  0.80005600  0.18357000  1
  Cu  Cu9  1  0.71457500  0.71457500  0.35413000  1
