# generated using pymatgen
data_CuNiC5
_symmetry_space_group_name_H-M   'P 1'
_cell_length_a   9.13901800
_cell_length_b   5.72978400
_cell_length_c   11.39469862
_cell_angle_alpha   60.44018788
_cell_angle_beta   90.00000000
_cell_angle_gamma   90.00000000
_symmetry_Int_Tables_number   1
_chemical_formula_structural   CuNiC5
_chemical_formula_sum   'Cu4 Ni4 C20'
_cell_volume   519.01580854
_cell_formula_units_Z   4
loop_
 _symmetry_equiv_pos_site_id
 _symmetry_equiv_pos_as_xyz
  1  'x, y, z'
loop_
 _atom_site_type_symbol
 _atom_site_label
 _atom_site_symmetry_multiplicity
 _atom_site_fract_x
 _atom_site_fract_y
 _atom_site_fract_z
 _atom_site_occupancy
  Ni  Ni0  1  0.99775500  0.45273600  0.78027800  1
  Ni  Ni1  1  0.50224500  0.45273600  0.28027900  1
  Ni  Ni2  1  0.00224500  0.54726400  0.21972200  1
  Ni  Ni3  1  0.49775500  0.54726400  0.71972200  1
  Cu  Cu4  1  0.31292300  0.84887300  0.91287600  1
  Cu  Cu5  1  0.68707700  0.15112700  0.08712400  1
  Cu  Cu6  1  0.81292300  0.15112700  0.58712400  1
  Cu  Cu7  1  0.18707700  0.84887300  0.41287600  1
  C  C8  1  0.29051100  0.18744300  0.07414300  1
  C  C9  1  0.70948900  0.81255700  0.92585700  1
  C  C10  1  0.20948900  0.18744300  0.57414300  1
  C  C11  1  0.79051100  0.81255700  0.42585700  1
  C  C12  1  0.76963000  0.87929500  0.77426300  1
  C  C13  1  0.76541200  0.50609300  0.04113900  1
  C  C14  1  0.47172600  0.17597600  0.07541000  1
  C  C15  1  0.73458800  0.50609300  0.54113900  1
  C  C16  1  0.26963000  0.12070500  0.72573700  1
  C  C17  1  0.97172600  0.82402400  0.42459000  1
  C  C18  1  0.23037000  0.12070500  0.22573700  1
  C  C19  1  0.02827400  0.17597600  0.57541000  1
  C  C20  1  0.22370300  0.96398400  0.03433300  1
  C  C21  1  0.23458800  0.49390700  0.95886100  1
  C  C22  1  0.73037000  0.87929500  0.27426300  1
  C  C23  1  0.26541200  0.49390700  0.45886100  1
  C  C24  1  0.72370300  0.03601600  0.46566700  1
  C  C25  1  0.52827400  0.82402400  0.92459000  1
  C  C26  1  0.77629700  0.03601600  0.96566700  1
  C  C27  1  0.27629700  0.96398400  0.53433300  1
