# generated using pymatgen
data_Cu7(NiC2)2
_symmetry_space_group_name_H-M   'P 1'
_cell_length_a   8.02766699
_cell_length_b   8.02766699
_cell_length_c   6.95337202
_cell_angle_alpha   66.96481878
_cell_angle_beta   66.96481878
_cell_angle_gamma   28.52046223
_symmetry_Int_Tables_number   1
_chemical_formula_structural   Cu7(NiC2)2
_chemical_formula_sum   'Cu7 Ni2 C4'
_cell_volume   195.74220855
_cell_formula_units_Z   1
loop_
 _symmetry_equiv_pos_site_id
 _symmetry_equiv_pos_as_xyz
  1  'x, y, z'
loop_
 _atom_site_type_symbol
 _atom_site_label
 _atom_site_symmetry_multiplicity
 _atom_site_fract_x
 _atom_site_fract_y
 _atom_site_fract_z
 _atom_site_occupancy
  C  C0  1  0.30743700  0.30743700  0.16444600  1
  C  C1  1  0.69256300  0.69256300  0.83555400  1
  C  C2  1  0.96524400  0.96524400  0.79916700  1
  C  C3  1  0.03475600  0.03475600  0.20083300  1
  Ni  Ni4  1  0.67879000  0.67879000  0.43446000  1
  Ni  Ni5  1  0.32121000  0.32121000  0.56554000  1
  Cu  Cu6  1  0.45445100  0.45445100  0.83687500  1
  Cu  Cu7  1  0.54554900  0.54554900  0.16312500  1
  Cu  Cu8  1  0.91876800  0.91876800  0.15313900  1
  Cu  Cu9  1  0.00000000  0.00000000  0.50000000  1
  Cu  Cu10  1  0.82516900  0.82516900  0.93098200  1
  Cu  Cu11  1  0.08123200  0.08123200  0.84686100  1
  Cu  Cu12  1  0.17483100  0.17483100  0.06901800  1
