# generated using pymatgen
data_CuNiC10
_symmetry_space_group_name_H-M   'P 1'
_cell_length_a   8.68908600
_cell_length_b   9.83454700
_cell_length_c   10.13449000
_cell_angle_alpha   90.00000000
_cell_angle_beta   90.00000000
_cell_angle_gamma   90.00000000
_symmetry_Int_Tables_number   1
_chemical_formula_structural   CuNiC10
_chemical_formula_sum   'Cu8 Ni8 C80'
_cell_volume   866.02485072
_cell_formula_units_Z   8
loop_
 _symmetry_equiv_pos_site_id
 _symmetry_equiv_pos_as_xyz
  1  'x, y, z'
loop_
 _atom_site_type_symbol
 _atom_site_label
 _atom_site_symmetry_multiplicity
 _atom_site_fract_x
 _atom_site_fract_y
 _atom_site_fract_z
 _atom_site_occupancy
  Ni  Ni0  1  0.15197500  0.17134800  0.13237600  1
  Ni  Ni1  1  0.65197500  0.32865200  0.86762400  1
  Ni  Ni2  1  0.84802500  0.67134800  0.36762400  1
  Ni  Ni3  1  0.34802500  0.82865200  0.63237600  1
  Ni  Ni4  1  0.84802500  0.82865200  0.86762400  1
  Ni  Ni5  1  0.34802500  0.67134800  0.13237600  1
  Ni  Ni6  1  0.15197500  0.32865200  0.63237600  1
  Ni  Ni7  1  0.65197500  0.17134800  0.36762400  1
  Cu  Cu8  1  0.47006300  0.35585600  0.14876700  1
  Cu  Cu9  1  0.97006300  0.14414400  0.85123300  1
  Cu  Cu10  1  0.52993700  0.85585600  0.35123300  1
  Cu  Cu11  1  0.02993700  0.64414400  0.64876700  1
  Cu  Cu12  1  0.52993700  0.64414400  0.85123300  1
  Cu  Cu13  1  0.02993700  0.85585600  0.14876700  1
  Cu  Cu14  1  0.47006300  0.14414400  0.64876700  1
  Cu  Cu15  1  0.97006300  0.35585600  0.35123300  1
  C  C16  1  0.29345300  0.95857500  0.07014500  1
  C  C17  1  0.79345300  0.54142500  0.92985500  1
  C  C18  1  0.70654700  0.45857500  0.42985500  1
  C  C19  1  0.20654700  0.04142500  0.57014500  1
  C  C20  1  0.70654700  0.04142500  0.92985500  1
  C  C21  1  0.20654700  0.45857500  0.07014500  1
  C  C22  1  0.29345300  0.54142500  0.57014500  1
  C  C23  1  0.79345300  0.95857500  0.42985500  1
  C  C24  1  0.35452300  0.07282600  0.96702500  1
  C  C25  1  0.85452300  0.42717400  0.03297500  1
  C  C26  1  0.64547700  0.57282600  0.53297500  1
  C  C27  1  0.14547700  0.92717400  0.46702500  1
  C  C28  1  0.64547700  0.92717400  0.03297500  1
  C  C29  1  0.14547700  0.57282600  0.96702500  1
  C  C30  1  0.35452300  0.42717400  0.46702500  1
  C  C31  1  0.85452300  0.07282600  0.53297500  1
  C  C32  1  0.33720400  0.08171400  0.32255100  1
  C  C33  1  0.83720400  0.41828600  0.67744900  1
  C  C34  1  0.66279600  0.58171400  0.17744900  1
  C  C35  1  0.16279600  0.91828600  0.82255100  1
  C  C36  1  0.66279600  0.91828600  0.67744900  1
  C  C37  1  0.16279600  0.58171400  0.32255100  1
  C  C38  1  0.33720400  0.41828600  0.82255100  1
  C  C39  1  0.83720400  0.08171400  0.17744900  1
  C  C40  1  0.19021400  0.17484400  0.37690900  1
  C  C41  1  0.69021400  0.32515600  0.62309100  1
  C  C42  1  0.80978600  0.67484400  0.12309100  1
  C  C43  1  0.30978600  0.82515600  0.87690900  1
  C  C44  1  0.80978600  0.82515600  0.62309100  1
  C  C45  1  0.30978600  0.67484400  0.37690900  1
  C  C46  1  0.19021400  0.32515600  0.87690900  1
  C  C47  1  0.69021400  0.17484400  0.12309100  1
  C  C48  1  0.29893300  0.32759100  0.11123300  1
  C  C49  1  0.79893300  0.17240900  0.88876700  1
  C  C50  1  0.70106700  0.82759100  0.38876700  1
  C  C51  1  0.20106700  0.67240900  0.61123300  1
  C  C52  1  0.70106700  0.67240900  0.88876700  1
  C  C53  1  0.20106700  0.82759100  0.11123300  1
  C  C54  1  0.29893300  0.17240900  0.61123300  1
  C  C55  1  0.79893300  0.32759100  0.38876700  1
  C  C56  1  0.58253600  0.28773700  0.04807700  1
  C  C57  1  0.08253600  0.21226300  0.95192300  1
  C  C58  1  0.41746400  0.78773700  0.45192300  1
  C  C59  1  0.91746400  0.71226300  0.54807700  1
  C  C60  1  0.41746400  0.71226300  0.95192300  1
  C  C61  1  0.91746400  0.78773700  0.04807700  1
  C  C62  1  0.58253600  0.21226300  0.54807700  1
  C  C63  1  0.08253600  0.28773700  0.45192300  1
  C  C64  1  0.50380200  0.29632800  0.28671100  1
  C  C65  1  0.00380200  0.20367200  0.71328900  1
  C  C66  1  0.49619800  0.79632800  0.21328900  1
  C  C67  1  0.99619800  0.70367200  0.78671100  1
  C  C68  1  0.49619800  0.70367200  0.71328900  1
  C  C69  1  0.99619800  0.79632800  0.28671100  1
  C  C70  1  0.50380200  0.20367200  0.78671100  1
  C  C71  1  0.00380200  0.29632800  0.21328900  1
  C  C72  1  0.49370200  0.51258000  0.14488800  1
  C  C73  1  0.99370200  0.98742000  0.85511200  1
  C  C74  1  0.50629800  0.01258000  0.35511200  1
  C  C75  1  0.00629800  0.48742000  0.64488800  1
  C  C76  1  0.50629800  0.48742000  0.85511200  1
  C  C77  1  0.00629800  0.01258000  0.14488800  1
  C  C78  1  0.49370200  0.98742000  0.64488800  1
  C  C79  1  0.99370200  0.51258000  0.35511200  1
  C  C80  1  0.32876000  0.05634600  0.05967800  1
  C  C81  1  0.82876000  0.44365400  0.94032200  1
  C  C82  1  0.67124000  0.55634600  0.44032200  1
  C  C83  1  0.17124000  0.94365400  0.55967800  1
  C  C84  1  0.67124000  0.94365400  0.94032200  1
  C  C85  1  0.17124000  0.55634600  0.05967800  1
  C  C86  1  0.32876000  0.44365400  0.55967800  1
  C  C87  1  0.82876000  0.05634600  0.44032200  1
  C  C88  1  0.22641000  0.10760500  0.30891800  1
  C  C89  1  0.72641000  0.39239500  0.69108200  1
  C  C90  1  0.77359000  0.60760500  0.19108200  1
  C  C91  1  0.27359000  0.89239500  0.80891800  1
  C  C92  1  0.77359000  0.89239500  0.69108200  1
  C  C93  1  0.27359000  0.60760500  0.30891800  1
  C  C94  1  0.22641000  0.39239500  0.80891800  1
  C  C95  1  0.72641000  0.10760500  0.19108200  1
