# generated using pymatgen
data_Cu3Ni9C4
_symmetry_space_group_name_H-M   'P 1'
_cell_length_a   7.13904806
_cell_length_b   7.13904806
_cell_length_c   6.80570500
_cell_angle_alpha   90.00000000
_cell_angle_beta   90.00000000
_cell_angle_gamma   120.00000059
_symmetry_Int_Tables_number   1
_chemical_formula_structural   Cu3Ni9C4
_chemical_formula_sum   'Cu6 Ni18 C8'
_cell_volume   300.38923236
_cell_formula_units_Z   2
loop_
 _symmetry_equiv_pos_site_id
 _symmetry_equiv_pos_as_xyz
  1  'x, y, z'
loop_
 _atom_site_type_symbol
 _atom_site_label
 _atom_site_symmetry_multiplicity
 _atom_site_fract_x
 _atom_site_fract_y
 _atom_site_fract_z
 _atom_site_occupancy
  C  C0  1  0.00000000  0.00000000  0.25000000  1
  C  C1  1  0.00000000  0.00000000  0.75000000  1
  Ni  Ni2  1  0.41538900  0.27108400  0.38199900  1
  Ni  Ni3  1  0.49489100  0.06448600  0.75000000  1
  Ni  Ni4  1  0.56959500  0.50510900  0.75000000  1
  Ni  Ni5  1  0.06448600  0.56959500  0.25000000  1
  Ni  Ni6  1  0.58461100  0.72891600  0.88199900  1
  Ni  Ni7  1  0.58461100  0.72891600  0.61800100  1
  Ni  Ni8  1  0.14430500  0.41538900  0.88199900  1
  Ni  Ni9  1  0.41538900  0.27108400  0.11800100  1
  Ni  Ni10  1  0.27108400  0.85569500  0.61800100  1
  Ni  Ni11  1  0.50510900  0.93551400  0.25000000  1
  Ni  Ni12  1  0.72891600  0.14430500  0.11800100  1
  Ni  Ni13  1  0.85569500  0.58461100  0.11800100  1
  Ni  Ni14  1  0.72891600  0.14430500  0.38199900  1
  Ni  Ni15  1  0.27108400  0.85569500  0.88199900  1
  Ni  Ni16  1  0.14430500  0.41538900  0.61800100  1
  Ni  Ni17  1  0.93551400  0.43040500  0.75000000  1
  Ni  Ni18  1  0.43040500  0.49489100  0.25000000  1
  Ni  Ni19  1  0.85569500  0.58461100  0.38199900  1
  Cu  Cu20  1  0.68130400  0.04180400  0.25000000  1
  Cu  Cu21  1  0.04180400  0.36049900  0.75000000  1
  Cu  Cu22  1  0.36049900  0.31869600  0.25000000  1
  Cu  Cu23  1  0.95819600  0.63950100  0.25000000  1
  Cu  Cu24  1  0.31869600  0.95819600  0.75000000  1
  Cu  Cu25  1  0.63950100  0.68130400  0.75000000  1
  C  C26  1  0.12931700  0.22166500  0.25000000  1
  C  C27  1  0.09234800  0.87068300  0.25000000  1
  C  C28  1  0.22166500  0.09234800  0.75000000  1
  C  C29  1  0.87068300  0.77833500  0.75000000  1
  C  C30  1  0.77833500  0.90765200  0.25000000  1
  C  C31  1  0.90765200  0.12931700  0.75000000  1
