# generated using pymatgen
data_CuNi2C3
_symmetry_space_group_name_H-M   'P 1'
_cell_length_a   3.29968400
_cell_length_b   10.41881600
_cell_length_c   12.73605100
_cell_angle_alpha   90.00000000
_cell_angle_beta   90.00000000
_cell_angle_gamma   90.00000000
_symmetry_Int_Tables_number   1
_chemical_formula_structural   CuNi2C3
_chemical_formula_sum   'Cu4 Ni8 C12'
_cell_volume   437.85015590
_cell_formula_units_Z   4
loop_
 _symmetry_equiv_pos_site_id
 _symmetry_equiv_pos_as_xyz
  1  'x, y, z'
loop_
 _atom_site_type_symbol
 _atom_site_label
 _atom_site_symmetry_multiplicity
 _atom_site_fract_x
 _atom_site_fract_y
 _atom_site_fract_z
 _atom_site_occupancy
  Ni  Ni0  1  0.75000000  0.63643000  0.39474600  1
  Ni  Ni1  1  0.25000000  0.36357000  0.60525400  1
  Ni  Ni2  1  0.75000000  0.13643000  0.10525400  1
  Ni  Ni3  1  0.25000000  0.86357000  0.89474600  1
  Ni  Ni4  1  0.75000000  0.79191700  0.15437500  1
  Ni  Ni5  1  0.25000000  0.20808300  0.84562500  1
  Ni  Ni6  1  0.75000000  0.29191700  0.34562500  1
  Ni  Ni7  1  0.25000000  0.70808300  0.65437500  1
  Cu  Cu8  1  0.25000000  0.96096200  0.39029600  1
  Cu  Cu9  1  0.75000000  0.03903800  0.60970400  1
  Cu  Cu10  1  0.25000000  0.46096200  0.10970400  1
  Cu  Cu11  1  0.75000000  0.53903800  0.89029600  1
  C  C12  1  0.75000000  0.89376500  0.49024800  1
  C  C13  1  0.25000000  0.10623500  0.50975200  1
  C  C14  1  0.75000000  0.39376500  0.00975200  1
  C  C15  1  0.25000000  0.60623500  0.99024800  1
  C  C16  1  0.75000000  0.54252800  0.19020300  1
  C  C17  1  0.25000000  0.45747200  0.80979700  1
  C  C18  1  0.75000000  0.04252800  0.30979700  1
  C  C19  1  0.25000000  0.95747200  0.69020300  1
  C  C20  1  0.25000000  0.78952700  0.31055400  1
  C  C21  1  0.75000000  0.21047300  0.68944600  1
  C  C22  1  0.25000000  0.28952700  0.18944600  1
  C  C23  1  0.75000000  0.71047300  0.81055400  1
