# generated using pymatgen
data_Cu2NiC3
_symmetry_space_group_name_H-M   'P 1'
_cell_length_a   12.15899740
_cell_length_b   12.15899740
_cell_length_c   12.15899740
_cell_angle_alpha   97.98715008
_cell_angle_beta   97.98715008
_cell_angle_gamma   136.22796686
_symmetry_Int_Tables_number   1
_chemical_formula_structural   Cu2NiC3
_chemical_formula_sum   'Cu16 Ni8 C24'
_cell_volume   1153.93674848
_cell_formula_units_Z   8
loop_
 _symmetry_equiv_pos_site_id
 _symmetry_equiv_pos_as_xyz
  1  'x, y, z'
loop_
 _atom_site_type_symbol
 _atom_site_label
 _atom_site_symmetry_multiplicity
 _atom_site_fract_x
 _atom_site_fract_y
 _atom_site_fract_z
 _atom_site_occupancy
  C  C0  1  0.64012900  0.23887000  0.93890300  1
  C  C1  1  0.76113000  0.70003400  0.40125900  1
  C  C2  1  0.48887000  0.39012900  0.43890300  1
  C  C3  1  0.29877500  0.35987100  0.59874100  1
  C  C4  1  0.60987100  0.04877500  0.09874100  1
  C  C5  1  0.29996600  0.70122500  0.06109700  1
  C  C6  1  0.95003400  0.51113000  0.90125900  1
  C  C7  1  0.95122500  0.04996600  0.56109700  1
  C  C8  1  0.98185700  0.51285000  0.75618300  1
  C  C9  1  0.77432600  0.01814300  0.53099300  1
  C  C10  1  0.76285000  0.73185700  0.25618300  1
  C  C11  1  0.29099000  0.50700400  0.61513500  1
  C  C12  1  0.49333300  0.23715000  0.96900700  1
  C  C13  1  0.32414400  0.70901000  0.21601400  1
  C  C14  1  0.47567400  0.50666700  0.74381700  1
  C  C15  1  0.35813100  0.24299600  0.28398600  1
  C  C16  1  0.49299600  0.10813100  0.78398600  1
  C  C17  1  0.75700400  0.04099000  0.11513500  1
  C  C18  1  0.26814300  0.52432600  0.03099300  1
  C  C19  1  0.75666700  0.22567400  0.24381700  1
  C  C20  1  0.95901000  0.07414400  0.71601400  1
  C  C21  1  0.89186900  0.67585600  0.38486500  1
  C  C22  1  0.92585600  0.64186900  0.88486500  1
  C  C23  1  0.48715000  0.24333300  0.46900700  1
  Ni  Ni24  1  0.90033100  0.50811700  0.08864900  1
  Ni  Ni25  1  0.75811700  0.65033100  0.58864900  1
  Ni  Ni26  1  0.18831800  0.09966900  0.60778500  1
  Ni  Ni27  1  0.06168200  0.16946700  0.41135100  1
  Ni  Ni28  1  0.49188300  0.58053300  0.39221500  1
  Ni  Ni29  1  0.41946700  0.81168200  0.91135100  1
  Ni  Ni30  1  0.34966900  0.93831800  0.10778500  1
  Ni  Ni31  1  0.83053300  0.24188300  0.89221500  1
  Cu  Cu32  1  0.30908500  0.17462200  0.18320500  1
  Cu  Cu33  1  0.37588100  0.74141700  0.31679500  1
  Cu  Cu34  1  0.99710900  0.51638900  0.66442700  1
  Cu  Cu35  1  0.85196200  0.33268100  0.33557300  1
  Cu  Cu36  1  0.94091500  0.62411900  0.36553700  1
  Cu  Cu37  1  0.66731900  0.00289100  0.51928000  1
  Cu  Cu38  1  0.25858300  0.57537800  0.63446300  1
  Cu  Cu39  1  0.87411900  0.69091500  0.86553700  1
  Cu  Cu40  1  0.39803800  0.23361100  0.98072000  1
  Cu  Cu41  1  0.48361100  0.14803800  0.48072000  1
  Cu  Cu42  1  0.42462200  0.05908500  0.68320500  1
  Cu  Cu43  1  0.76638900  0.74710900  0.16442700  1
  Cu  Cu44  1  0.82537800  0.00858300  0.13446300  1
  Cu  Cu45  1  0.25289100  0.41731900  0.01928000  1
  Cu  Cu46  1  0.58268100  0.60196200  0.83557300  1
  Cu  Cu47  1  0.99141700  0.12588100  0.81679500  1
