# generated using pymatgen
data_Cu6NiC32
_symmetry_space_group_name_H-M   'P 1'
_cell_length_a   12.05807000
_cell_length_b   10.43028800
_cell_length_c   13.35716657
_cell_angle_alpha   60.92073280
_cell_angle_beta   90.00000000
_cell_angle_gamma   90.00000000
_symmetry_Int_Tables_number   1
_chemical_formula_structural   Cu6NiC32
_chemical_formula_sum   'Cu12 Ni2 C64'
_cell_volume   1468.16244145
_cell_formula_units_Z   2
loop_
 _symmetry_equiv_pos_site_id
 _symmetry_equiv_pos_as_xyz
  1  'x, y, z'
loop_
 _atom_site_type_symbol
 _atom_site_label
 _atom_site_symmetry_multiplicity
 _atom_site_fract_x
 _atom_site_fract_y
 _atom_site_fract_z
 _atom_site_occupancy
  C  C0  1  0.57038500  0.64087100  0.10809900  1
  C  C1  1  0.07038500  0.35912900  0.39190100  1
  C  C2  1  0.20259700  0.18993900  0.70667100  1
  C  C3  1  0.44404300  0.83236800  0.28135700  1
  C  C4  1  0.72087100  0.39733400  0.42286800  1
  C  C5  1  0.42961500  0.35912900  0.89190100  1
  C  C6  1  0.79740300  0.81006100  0.29332900  1
  C  C7  1  0.70259700  0.81006100  0.79332900  1
  C  C8  1  0.27912900  0.60266600  0.57713200  1
  C  C9  1  0.29740300  0.18993900  0.20667100  1
  C  C10  1  0.22087100  0.60266600  0.07713200  1
  C  C11  1  0.55595700  0.16763200  0.71864300  1
  C  C12  1  0.94404300  0.16763200  0.21864300  1
  C  C13  1  0.05595700  0.83236800  0.78135700  1
  C  C14  1  0.92961500  0.64087100  0.60809900  1
  C  C15  1  0.77912900  0.39733400  0.92286800  1
  Ni  Ni16  1  0.00000000  0.00000000  0.00000000  1
  Ni  Ni17  1  0.50000000  0.00000000  0.50000000  1
  Cu  Cu18  1  0.60691100  0.61524000  0.59821200  1
  Cu  Cu19  1  0.89541800  0.23339900  0.70643900  1
  Cu  Cu20  1  0.31957200  0.98507200  0.99377100  1
  Cu  Cu21  1  0.10458200  0.76660100  0.29356100  1
  Cu  Cu22  1  0.68042800  0.01492800  0.00622900  1
  Cu  Cu23  1  0.39308900  0.38476000  0.40178800  1
  Cu  Cu24  1  0.39541800  0.76660100  0.79356100  1
  Cu  Cu25  1  0.18042800  0.98507200  0.49377100  1
  Cu  Cu26  1  0.89308900  0.61524000  0.09821200  1
  Cu  Cu27  1  0.10691100  0.38476000  0.90178800  1
  Cu  Cu28  1  0.81957200  0.01492800  0.50622900  1
  Cu  Cu29  1  0.60458200  0.23339900  0.20643900  1
  C  C30  1  0.70423500  0.60430500  0.50196500  1
  C  C31  1  0.98449600  0.46192500  0.15117300  1
  C  C32  1  0.65400300  0.92996300  0.92133700  1
  C  C33  1  0.51550400  0.46192500  0.65117300  1
  C  C34  1  0.20423500  0.39569500  0.99803500  1
  C  C35  1  0.81969100  0.61454100  0.21413700  1
  C  C36  1  0.47498900  0.92124800  0.67504100  1
  C  C37  1  0.18030900  0.38545900  0.78586300  1
  C  C38  1  0.02472100  0.21147800  0.97864400  1
  C  C39  1  0.22447700  0.82467400  0.33968200  1
  C  C40  1  0.85355500  0.35888500  0.75243300  1
  C  C41  1  0.31969100  0.38545900  0.28586300  1
  C  C42  1  0.52501100  0.07875200  0.32495900  1
  C  C43  1  0.38147100  0.09850900  0.85722900  1
  C  C44  1  0.64644500  0.35888500  0.25243300  1
  C  C45  1  0.01550400  0.53807500  0.84882700  1
  C  C46  1  0.48811300  0.67234500  0.90924900  1
  C  C47  1  0.97498900  0.07875200  0.82495900  1
  C  C48  1  0.98811300  0.32765500  0.59075100  1
  C  C49  1  0.52472100  0.78852200  0.52135600  1
  C  C50  1  0.01188700  0.67234500  0.40924900  1
  C  C51  1  0.51188700  0.32765500  0.09075100  1
  C  C52  1  0.87742500  0.19374000  0.43149500  1
  C  C53  1  0.79576500  0.60430500  0.00196500  1
  C  C54  1  0.77552300  0.17532600  0.66031800  1
  C  C55  1  0.02501100  0.92124800  0.17504100  1
  C  C56  1  0.16674200  0.97914600  0.97469000  1
  C  C57  1  0.72447700  0.17532600  0.16031800  1
  C  C58  1  0.15400300  0.07003700  0.57866300  1
  C  C59  1  0.88147100  0.90149100  0.64277100  1
  C  C60  1  0.37742500  0.80626000  0.06850500  1
  C  C61  1  0.27552300  0.82467400  0.83968200  1
  C  C62  1  0.61852900  0.90149100  0.14277100  1
  C  C63  1  0.12257500  0.80626000  0.56850500  1
  C  C64  1  0.29576500  0.39569500  0.49803500  1
  C  C65  1  0.83325800  0.02085400  0.02531000  1
  C  C66  1  0.68030900  0.61454100  0.71413700  1
  C  C67  1  0.48449600  0.53807500  0.34882700  1
  C  C68  1  0.66674200  0.02085400  0.52531000  1
  C  C69  1  0.47527900  0.21147800  0.47864400  1
  C  C70  1  0.11852900  0.09850900  0.35722900  1
  C  C71  1  0.33325800  0.97914600  0.47469000  1
  C  C72  1  0.84599700  0.92996300  0.42133700  1
  C  C73  1  0.34599700  0.07003700  0.07866300  1
  C  C74  1  0.62257500  0.19374000  0.93149500  1
  C  C75  1  0.97527900  0.78852200  0.02135600  1
  C  C76  1  0.35355500  0.64111500  0.74756700  1
  C  C77  1  0.14644500  0.64111500  0.24756700  1
