# generated using pymatgen
data_Cu3NiC17
_symmetry_space_group_name_H-M   'P 1'
_cell_length_a   6.65766181
_cell_length_b   6.65766181
_cell_length_c   6.65766157
_cell_angle_alpha   99.98873497
_cell_angle_beta   99.98873497
_cell_angle_gamma   99.98873197
_symmetry_Int_Tables_number   1
_chemical_formula_structural   Cu3NiC17
_chemical_formula_sum   'Cu3 Ni1 C17'
_cell_volume   279.84546305
_cell_formula_units_Z   1
loop_
 _symmetry_equiv_pos_site_id
 _symmetry_equiv_pos_as_xyz
  1  'x, y, z'
loop_
 _atom_site_type_symbol
 _atom_site_label
 _atom_site_symmetry_multiplicity
 _atom_site_fract_x
 _atom_site_fract_y
 _atom_site_fract_z
 _atom_site_occupancy
  C  C0  1  0.92088400  0.47410100  0.47410100  1
  C  C1  1  0.47410100  0.47410100  0.92088400  1
  C  C2  1  0.47410100  0.92088400  0.47410100  1
  C  C3  1  0.00012000  0.00012000  0.00012000  1
  Ni  Ni4  1  0.42049300  0.42049300  0.42049300  1
  Cu  Cu5  1  0.93307800  0.93307800  0.43412300  1
  Cu  Cu6  1  0.43412300  0.93307800  0.93307800  1
  Cu  Cu7  1  0.93307800  0.43412300  0.93307800  1
  C  C8  1  0.06001100  0.84054200  0.34279500  1
  C  C9  1  0.34279500  0.06001100  0.84054200  1
  C  C10  1  0.60533900  0.88879200  0.88879200  1
  C  C11  1  0.56138000  0.56138000  0.31392100  1
  C  C12  1  0.25545500  0.25545500  0.25545500  1
  C  C13  1  0.84054200  0.34279500  0.06001100  1
  C  C14  1  0.84054200  0.06001100  0.34279500  1
  C  C15  1  0.31392100  0.56138000  0.56138000  1
  C  C16  1  0.88879200  0.88879200  0.60533900  1
  C  C17  1  0.06001100  0.34279500  0.84054200  1
  C  C18  1  0.34279500  0.84054200  0.06001100  1
  C  C19  1  0.56138000  0.31392100  0.56138000  1
  C  C20  1  0.88879200  0.60533900  0.88879200  1
