# generated using pymatgen
data_CuNi2C13
_symmetry_space_group_name_H-M   'P 1'
_cell_length_a   5.54970800
_cell_length_b   7.17009600
_cell_length_c   9.35530993
_cell_angle_alpha   81.45124915
_cell_angle_beta   90.00000000
_cell_angle_gamma   90.00000000
_symmetry_Int_Tables_number   1
_chemical_formula_structural   CuNi2C13
_chemical_formula_sum   'Cu2 Ni4 C26'
_cell_volume   368.12995193
_cell_formula_units_Z   2
loop_
 _symmetry_equiv_pos_site_id
 _symmetry_equiv_pos_as_xyz
  1  'x, y, z'
loop_
 _atom_site_type_symbol
 _atom_site_label
 _atom_site_symmetry_multiplicity
 _atom_site_fract_x
 _atom_site_fract_y
 _atom_site_fract_z
 _atom_site_occupancy
  C  C0  1  0.75000000  0.19784500  0.72390100  1
  C  C1  1  0.25000000  0.80215500  0.27609900  1
  C  C2  1  0.75000000  0.16997200  0.19740600  1
  C  C3  1  0.89963200  0.37624900  0.14654000  1
  C  C4  1  0.25000000  0.83002800  0.80259400  1
  C  C5  1  0.25000000  0.65729800  0.69584700  1
  C  C6  1  0.10036800  0.62375100  0.85346000  1
  C  C7  1  0.39963200  0.62375100  0.85346000  1
  C  C8  1  0.60036800  0.37624900  0.14654000  1
  C  C9  1  0.75000000  0.34270200  0.30415300  1
  Ni  Ni10  1  0.75000000  0.72387800  0.56592100  1
  Ni  Ni11  1  0.75000000  0.81129500  0.07317100  1
  Ni  Ni12  1  0.25000000  0.18870500  0.92682900  1
  Ni  Ni13  1  0.25000000  0.27612200  0.43407900  1
  Cu  Cu14  1  0.25000000  0.68461900  0.80064200  1
  Cu  Cu15  1  0.75000000  0.31538100  0.19935800  1
  C  C16  1  0.25000000  0.06561200  0.06754200  1
  C  C17  1  0.25000000  0.09982800  0.36846200  1
  C  C18  1  0.75000000  0.55952000  0.68371300  1
  C  C19  1  0.02938900  0.28181700  0.52331600  1
  C  C20  1  0.52958600  0.68989500  0.08752300  1
  C  C21  1  0.75000000  0.90017200  0.63153800  1
  C  C22  1  0.97061100  0.71818300  0.47668400  1
  C  C23  1  0.75000000  0.92254400  0.19754400  1
  C  C24  1  0.02958600  0.31010500  0.91247700  1
  C  C25  1  0.47061100  0.28181700  0.52331600  1
  C  C26  1  0.75000000  0.93438800  0.93245800  1
  C  C27  1  0.25000000  0.44048000  0.31628700  1
  C  C28  1  0.52938900  0.71818300  0.47668400  1
  C  C29  1  0.47041400  0.31010500  0.91247700  1
  C  C30  1  0.25000000  0.07745600  0.80245600  1
  C  C31  1  0.97041400  0.68989500  0.08752300  1
