# generated using pymatgen
data_Cu(Ni12C)2
_symmetry_space_group_name_H-M   'P 1'
_cell_length_a   8.96590600
_cell_length_b   8.96590600
_cell_length_c   5.08913900
_cell_angle_alpha   90.00000000
_cell_angle_beta   90.00000000
_cell_angle_gamma   90.00000000
_symmetry_Int_Tables_number   1
_chemical_formula_structural   Cu(Ni12C)2
_chemical_formula_sum   'Cu2 Ni48 C4'
_cell_volume   409.10301073
_cell_formula_units_Z   2
loop_
 _symmetry_equiv_pos_site_id
 _symmetry_equiv_pos_as_xyz
  1  'x, y, z'
loop_
 _atom_site_type_symbol
 _atom_site_label
 _atom_site_symmetry_multiplicity
 _atom_site_fract_x
 _atom_site_fract_y
 _atom_site_fract_z
 _atom_site_occupancy
  C  C0  1  0.00000000  0.00000000  0.00000000  1
  C  C1  1  0.50000000  0.50000000  0.50000000  1
  C  C2  1  0.00000000  0.50000000  0.75000000  1
  C  C3  1  0.50000000  0.00000000  0.25000000  1
  Ni  Ni4  1  0.59843100  0.80587000  0.08291600  1
  Ni  Ni5  1  0.75903900  0.07769000  0.91534800  1
  Ni  Ni6  1  0.61578400  0.37165600  0.87573600  1
  Ni  Ni7  1  0.75151900  0.73521900  0.91507900  1
  Ni  Ni8  1  0.25151900  0.76478100  0.41507900  1
  Ni  Ni9  1  0.40156900  0.19413000  0.08291600  1
  Ni  Ni10  1  0.26478100  0.75151900  0.08492100  1
  Ni  Ni11  1  0.73085500  0.40716800  0.58750700  1
  Ni  Ni12  1  0.92231000  0.75903900  0.08465200  1
  Ni  Ni13  1  0.32528000  0.92046400  0.59859100  1
  Ni  Ni14  1  0.24096100  0.92231000  0.91534800  1
  Ni  Ni15  1  0.90716800  0.23085500  0.91249300  1
  Ni  Ni16  1  0.73521900  0.24848100  0.08492100  1
  Ni  Ni17  1  0.38421600  0.62834400  0.87573600  1
  Ni  Ni18  1  0.07769000  0.24096100  0.08465200  1
  Ni  Ni19  1  0.42231000  0.74096100  0.58465200  1
  Ni  Ni20  1  0.90156900  0.30587000  0.58291600  1
  Ni  Ni21  1  0.23521900  0.25151900  0.58492100  1
  Ni  Ni22  1  0.11578400  0.12834400  0.37573600  1
  Ni  Ni23  1  0.80587000  0.40156900  0.91708400  1
  Ni  Ni24  1  0.62834400  0.61578400  0.12426400  1
  Ni  Ni25  1  0.76914500  0.90716800  0.08750700  1
  Ni  Ni26  1  0.74848100  0.23521900  0.41507900  1
  Ni  Ni27  1  0.74096100  0.57769000  0.41534800  1
  Ni  Ni28  1  0.09283200  0.76914500  0.91249300  1
  Ni  Ni29  1  0.25903900  0.42231000  0.41534800  1
  Ni  Ni30  1  0.40716800  0.26914500  0.41249300  1
  Ni  Ni31  1  0.24848100  0.26478100  0.91507900  1
  Ni  Ni32  1  0.88421600  0.87165600  0.37573600  1
  Ni  Ni33  1  0.57953600  0.17472000  0.90140900  1
  Ni  Ni34  1  0.42046400  0.82528000  0.90140900  1
  Ni  Ni35  1  0.69413000  0.90156900  0.41708400  1
  Ni  Ni36  1  0.57769000  0.25903900  0.58465200  1
  Ni  Ni37  1  0.87165600  0.11578400  0.62426400  1
  Ni  Ni38  1  0.30587000  0.09843100  0.41708400  1
  Ni  Ni39  1  0.59283200  0.73085500  0.41249300  1
  Ni  Ni40  1  0.07953600  0.32528000  0.40140900  1
  Ni  Ni41  1  0.37165600  0.38421600  0.12426400  1
  Ni  Ni42  1  0.92046400  0.67472000  0.40140900  1
  Ni  Ni43  1  0.26914500  0.59283200  0.58750700  1
  Ni  Ni44  1  0.09843100  0.69413000  0.58291600  1
  Ni  Ni45  1  0.19413000  0.59843100  0.91708400  1
  Ni  Ni46  1  0.76478100  0.74848100  0.58492100  1
  Ni  Ni47  1  0.23085500  0.09283200  0.08750700  1
  Ni  Ni48  1  0.17472000  0.42046400  0.09859100  1
  Ni  Ni49  1  0.12834400  0.88421600  0.62426400  1
  Ni  Ni50  1  0.82528000  0.57953600  0.09859100  1
  Ni  Ni51  1  0.67472000  0.07953600  0.59859100  1
  Cu  Cu52  1  0.00000000  0.00000000  0.50000000  1
  Cu  Cu53  1  0.50000000  0.50000000  0.00000000  1
