# generated using pymatgen
data_Cu2NiC11
_symmetry_space_group_name_H-M   'P 1'
_cell_length_a   10.73728785
_cell_length_b   10.73728785
_cell_length_c   4.74986800
_cell_angle_alpha   90.00000000
_cell_angle_beta   90.00000000
_cell_angle_gamma   119.99999906
_symmetry_Int_Tables_number   1
_chemical_formula_structural   Cu2NiC11
_chemical_formula_sum   'Cu6 Ni3 C33'
_cell_volume   474.24347944
_cell_formula_units_Z   3
loop_
 _symmetry_equiv_pos_site_id
 _symmetry_equiv_pos_as_xyz
  1  'x, y, z'
loop_
 _atom_site_type_symbol
 _atom_site_label
 _atom_site_symmetry_multiplicity
 _atom_site_fract_x
 _atom_site_fract_y
 _atom_site_fract_z
 _atom_site_occupancy
  C  C0  1  0.00000000  0.00000000  0.00480500  1
  C  C1  1  0.56997700  0.78498800  0.95508800  1
  C  C2  1  0.21501200  0.78498800  0.95508800  1
  C  C3  1  0.21501200  0.43002300  0.95508800  1
  C  C4  1  0.78439400  0.21560600  0.00091500  1
  C  C5  1  0.78439400  0.56878900  0.00091500  1
  C  C6  1  0.43121100  0.21560600  0.00091500  1
  Ni  Ni7  1  0.49299100  0.50700900  0.40073300  1
  Ni  Ni8  1  0.01401800  0.50700900  0.40073300  1
  Ni  Ni9  1  0.49299100  0.98598200  0.40073300  1
  Cu  Cu10  1  0.74935800  0.74921700  0.48256600  1
  Cu  Cu11  1  0.99985900  0.25064200  0.48256600  1
  Cu  Cu12  1  0.25078300  0.25064200  0.48256600  1
  Cu  Cu13  1  0.74935800  0.00014100  0.48256600  1
  Cu  Cu14  1  0.25078300  0.00014100  0.48256600  1
  Cu  Cu15  1  0.99985900  0.74921700  0.48256600  1
  C  C16  1  0.42610000  0.85219900  0.18249500  1
  C  C17  1  0.02538700  0.63341500  0.62287300  1
  C  C18  1  0.28674400  0.14337200  0.59823100  1
  C  C19  1  0.56942400  0.13884800  0.23026800  1
  C  C20  1  0.11151000  0.88849000  0.60445100  1
  C  C21  1  0.73712100  0.99810400  0.18204200  1
  C  C22  1  0.36658500  0.39197200  0.62287300  1
  C  C23  1  0.86115200  0.43057600  0.23026800  1
  C  C24  1  0.42610000  0.57390000  0.18249500  1
  C  C25  1  0.00189600  0.73901700  0.18204200  1
  C  C26  1  0.60802800  0.97461300  0.62287300  1
  C  C27  1  0.02538700  0.39197200  0.62287300  1
  C  C28  1  0.77698000  0.88849000  0.60445100  1
  C  C29  1  0.00189600  0.26287900  0.18204200  1
  C  C30  1  0.36658500  0.97461300  0.62287300  1
  C  C31  1  0.26098300  0.26287900  0.18204200  1
  C  C32  1  0.60802800  0.63341500  0.62287300  1
  C  C33  1  0.85662800  0.71325600  0.59823100  1
  C  C34  1  0.11151000  0.22302000  0.60445100  1
  C  C35  1  0.26098300  0.99810400  0.18204200  1
  C  C36  1  0.73712100  0.73901700  0.18204200  1
  C  C37  1  0.14780100  0.57390000  0.18249500  1
  C  C38  1  0.56942400  0.43057600  0.23026800  1
  C  C39  1  0.85662800  0.14337200  0.59823100  1
  C  C40  1  0.33333300  0.66666700  0.74892400  1
  C  C41  1  0.66666700  0.33333300  0.79798000  1
