# generated using pymatgen
data_Cu3NiC
_symmetry_space_group_name_H-M   'P 1'
_cell_length_a   5.17417800
_cell_length_b   6.07244900
_cell_length_c   8.49990300
_cell_angle_alpha   90.00000000
_cell_angle_beta   90.00000000
_cell_angle_gamma   90.00000000
_symmetry_Int_Tables_number   1
_chemical_formula_structural   Cu3NiC
_chemical_formula_sum   'Cu12 Ni4 C4'
_cell_volume   267.06637445
_cell_formula_units_Z   4
loop_
 _symmetry_equiv_pos_site_id
 _symmetry_equiv_pos_as_xyz
  1  'x, y, z'
loop_
 _atom_site_type_symbol
 _atom_site_label
 _atom_site_symmetry_multiplicity
 _atom_site_fract_x
 _atom_site_fract_y
 _atom_site_fract_z
 _atom_site_occupancy
  C  C0  1  0.25000000  0.25568000  0.91619100  1
  C  C1  1  0.75000000  0.24432000  0.41619100  1
  C  C2  1  0.75000000  0.74432000  0.08380900  1
  C  C3  1  0.25000000  0.75568000  0.58380900  1
  Ni  Ni4  1  0.25000000  0.41343000  0.25930700  1
  Ni  Ni5  1  0.75000000  0.58657000  0.74069300  1
  Ni  Ni6  1  0.75000000  0.08657000  0.75930700  1
  Ni  Ni7  1  0.25000000  0.91343000  0.24069300  1
  Cu  Cu8  1  0.96804100  0.08688600  0.68223400  1
  Cu  Cu9  1  0.46804100  0.41311400  0.18223400  1
  Cu  Cu10  1  0.46804100  0.91311400  0.31776600  1
  Cu  Cu11  1  0.75000000  0.59814100  0.58786300  1
  Cu  Cu12  1  0.75000000  0.09814100  0.91213700  1
  Cu  Cu13  1  0.53195900  0.08688600  0.68223400  1
  Cu  Cu14  1  0.25000000  0.90185900  0.08786300  1
  Cu  Cu15  1  0.25000000  0.40185900  0.41213700  1
  Cu  Cu16  1  0.53195900  0.58688600  0.81776600  1
  Cu  Cu17  1  0.96804100  0.58688600  0.81776600  1
  Cu  Cu18  1  0.03195900  0.41311400  0.18223400  1
  Cu  Cu19  1  0.03195900  0.91311400  0.31776600  1
