# generated using pymatgen
data_Cu6NiC10
_symmetry_space_group_name_H-M   'P 1'
_cell_length_a   5.70762978
_cell_length_b   5.70762978
_cell_length_c   23.38969811
_cell_angle_alpha   82.90735263
_cell_angle_beta   82.90735263
_cell_angle_gamma   60.26330238
_symmetry_Int_Tables_number   1
_chemical_formula_structural   Cu6NiC10
_chemical_formula_sum   'Cu24 Ni4 C40'
_cell_volume   654.84934232
_cell_formula_units_Z   4
loop_
 _symmetry_equiv_pos_site_id
 _symmetry_equiv_pos_as_xyz
  1  'x, y, z'
loop_
 _atom_site_type_symbol
 _atom_site_label
 _atom_site_symmetry_multiplicity
 _atom_site_fract_x
 _atom_site_fract_y
 _atom_site_fract_z
 _atom_site_occupancy
  Ni  Ni0  1  0.53263500  0.53263500  0.41612100  1
  Ni  Ni1  1  0.12618000  0.12618000  0.62406200  1
  Ni  Ni2  1  0.72251800  0.72251800  0.83382000  1
  Ni  Ni3  1  0.47571900  0.47571900  0.57251500  1
  Cu  Cu4  1  0.32276900  0.32276900  0.03157200  1
  Cu  Cu5  1  0.80365800  0.80365800  0.09647500  1
  Cu  Cu6  1  0.80470600  0.29254600  0.09602600  1
  Cu  Cu7  1  0.93125600  0.93125600  0.22335700  1
  Cu  Cu8  1  0.29254600  0.80470600  0.09602600  1
  Cu  Cu9  1  0.40301100  0.90005000  0.29724300  1
  Cu  Cu10  1  0.58797600  0.58797600  0.20237300  1
  Cu  Cu11  1  0.90005000  0.40301100  0.29724300  1
  Cu  Cu12  1  0.26802500  0.26802500  0.17568100  1
  Cu  Cu13  1  0.21077900  0.21077900  0.39563400  1
  Cu  Cu14  1  0.49837500  0.00339200  0.49722900  1
  Cu  Cu15  1  0.60274100  0.60274100  0.70138000  1
  Cu  Cu16  1  0.87089000  0.87089000  0.37111000  1
  Cu  Cu17  1  0.80101100  0.80101100  0.59807400  1
  Cu  Cu18  1  0.00339200  0.49837500  0.49722900  1
  Cu  Cu19  1  0.00384000  0.00384000  0.49711700  1
  Cu  Cu20  1  0.09343800  0.60296500  0.70137700  1
  Cu  Cu21  1  0.19667300  0.19667300  0.90695200  1
  Cu  Cu22  1  0.19688500  0.69840300  0.90678800  1
  Cu  Cu23  1  0.39768400  0.39768400  0.80667400  1
  Cu  Cu24  1  0.60296500  0.09343800  0.70137700  1
  Cu  Cu25  1  0.69840300  0.19688500  0.90678800  1
  Cu  Cu26  1  0.07346600  0.07346600  0.77876900  1
  Cu  Cu27  1  0.67487300  0.67487300  0.97279200  1
  C  C28  1  0.65169100  0.14529600  0.05605200  1
  C  C29  1  0.95123400  0.95123400  0.14271000  1
  C  C30  1  0.14529600  0.65169100  0.05605200  1
  C  C31  1  0.14539600  0.14539600  0.05600700  1
  C  C32  1  0.26546900  0.77061800  0.24328500  1
  C  C33  1  0.45861100  0.45861100  0.14709600  1
  C  C34  1  0.64753400  0.64753400  0.05171600  1
  C  C35  1  0.46457100  0.92349600  0.14525300  1
  C  C36  1  0.56741300  0.56741300  0.33482300  1
  C  C37  1  0.77061800  0.26546900  0.24328500  1
  C  C38  1  0.74733600  0.74733600  0.24529300  1
  C  C39  1  0.92349600  0.46457100  0.14525300  1
  C  C40  1  0.88209700  0.33250000  0.45335900  1
  C  C41  1  0.05796700  0.05796700  0.34809900  1
  C  C42  1  0.23885900  0.23885900  0.25163700  1
  C  C43  1  0.33250000  0.88209700  0.45335900  1
  C  C44  1  0.03576700  0.53222400  0.35221600  1
  C  C45  1  0.15472900  0.15472900  0.54218600  1
  C  C46  1  0.33649300  0.33649300  0.45248200  1
  C  C47  1  0.53222400  0.03576700  0.35221600  1
  C  C48  1  0.48340600  0.93090000  0.65496900  1
  C  C49  1  0.67048700  0.67048700  0.54738100  1
  C  C50  1  0.85058700  0.85058700  0.45283800  1
  C  C51  1  0.67106500  0.11265700  0.54749300  1
  C  C52  1  0.75139800  0.75139800  0.74616900  1
  C  C53  1  0.93090000  0.48340600  0.65496900  1
  C  C54  1  0.11265700  0.67106500  0.54749300  1
  C  C55  1  0.93151800  0.93151800  0.65496700  1
  C  C56  1  0.09079400  0.52622900  0.85549300  1
  C  C57  1  0.25818100  0.25818100  0.75148900  1
  C  C58  1  0.44592300  0.44592300  0.66237600  1
  C  C59  1  0.34927600  0.34927600  0.95131300  1
  C  C60  1  0.25826100  0.73189300  0.75151700  1
  C  C61  1  0.52622900  0.09079400  0.85549300  1
  C  C62  1  0.52697400  0.52697400  0.85546500  1
  C  C63  1  0.73189300  0.25826100  0.75151700  1
  C  C64  1  0.85149300  0.85149300  0.94296200  1
  C  C65  1  0.04771300  0.04771300  0.85575300  1
  C  C66  1  0.85166600  0.35239000  0.94308300  1
  C  C67  1  0.35239000  0.85166600  0.94308300  1
