# generated using pymatgen
data_CuNiC4
_symmetry_space_group_name_H-M   'P 1'
_cell_length_a   13.86563599
_cell_length_b   13.86563599
_cell_length_c   20.19726600
_cell_angle_alpha   90.00000000
_cell_angle_beta   90.00000000
_cell_angle_gamma   119.99999994
_symmetry_Int_Tables_number   1
_chemical_formula_structural   CuNiC4
_chemical_formula_sum   'Cu24 Ni24 C96'
_cell_volume   3362.81368579
_cell_formula_units_Z   24
loop_
 _symmetry_equiv_pos_site_id
 _symmetry_equiv_pos_as_xyz
  1  'x, y, z'
loop_
 _atom_site_type_symbol
 _atom_site_label
 _atom_site_symmetry_multiplicity
 _atom_site_fract_x
 _atom_site_fract_y
 _atom_site_fract_z
 _atom_site_occupancy
  Ni  Ni0  1  0.56307600  0.66817200  0.32682700  1
  Ni  Ni1  1  0.99656800  0.22750100  0.57606800  1
  Ni  Ni2  1  0.23093300  0.00343200  0.57606800  1
  Ni  Ni3  1  0.56307600  0.89490400  0.17317300  1
  Ni  Ni4  1  0.99656800  0.76906700  0.92393200  1
  Ni  Ni5  1  0.10509600  0.43692400  0.32682700  1
  Ni  Ni6  1  0.66817200  0.56307600  0.82682700  1
  Ni  Ni7  1  0.23093300  0.22750100  0.92393200  1
  Ni  Ni8  1  0.22750100  0.99656800  0.07606800  1
  Ni  Ni9  1  0.77249900  0.76906700  0.57606800  1
  Ni  Ni10  1  0.77249900  0.00343200  0.92393200  1
  Ni  Ni11  1  0.89490400  0.33182800  0.82682700  1
  Ni  Ni12  1  0.66817200  0.10509600  0.67317300  1
  Ni  Ni13  1  0.33182800  0.43692400  0.17317300  1
  Ni  Ni14  1  0.43692400  0.33182800  0.67317300  1
  Ni  Ni15  1  0.33182800  0.89490400  0.32682700  1
  Ni  Ni16  1  0.89490400  0.56307600  0.67317300  1
  Ni  Ni17  1  0.00343200  0.77249900  0.42393200  1
  Ni  Ni18  1  0.43692400  0.10509600  0.82682700  1
  Ni  Ni19  1  0.10509600  0.66817200  0.17317300  1
  Ni  Ni20  1  0.76906700  0.99656800  0.42393200  1
  Ni  Ni21  1  0.00343200  0.23093300  0.07606800  1
  Ni  Ni22  1  0.76906700  0.77249900  0.07606800  1
  Ni  Ni23  1  0.22750100  0.23093300  0.42393200  1
  Cu  Cu24  1  0.00374900  0.23083100  0.92055100  1
  Cu  Cu25  1  0.10417800  0.43950600  0.17010700  1
  Cu  Cu26  1  0.99625100  0.76916900  0.07944900  1
  Cu  Cu27  1  0.89582200  0.33532800  0.67010700  1
  Cu  Cu28  1  0.33532800  0.89582200  0.17010700  1
  Cu  Cu29  1  0.77291800  0.00374900  0.07944900  1
  Cu  Cu30  1  0.76916900  0.77291800  0.92055100  1
  Cu  Cu31  1  0.43950600  0.33532800  0.82989300  1
  Cu  Cu32  1  0.76916900  0.99625100  0.57944900  1
  Cu  Cu33  1  0.23083100  0.00374900  0.42055100  1
  Cu  Cu34  1  0.89582200  0.56049400  0.82989300  1
  Cu  Cu35  1  0.23083100  0.22708200  0.07944900  1
  Cu  Cu36  1  0.56049400  0.89582200  0.32989300  1
  Cu  Cu37  1  0.22708200  0.99625100  0.92055100  1
  Cu  Cu38  1  0.77291800  0.76916900  0.42055100  1
  Cu  Cu39  1  0.66467200  0.56049400  0.67010700  1
  Cu  Cu40  1  0.22708200  0.23083100  0.57944900  1
  Cu  Cu41  1  0.56049400  0.66467200  0.17010700  1
  Cu  Cu42  1  0.33532800  0.43950600  0.32989300  1
  Cu  Cu43  1  0.00374900  0.77291800  0.57944900  1
  Cu  Cu44  1  0.43950600  0.10417800  0.67010700  1
  Cu  Cu45  1  0.10417800  0.66467200  0.32989300  1
  Cu  Cu46  1  0.99625100  0.22708200  0.42055100  1
  Cu  Cu47  1  0.66467200  0.10417800  0.82989300  1
  C  C48  1  0.30875200  0.32236100  0.12549900  1
  C  C49  1  0.67763900  0.69124800  0.37450100  1
  C  C50  1  0.45902300  0.90650900  0.34835500  1
  C  C51  1  0.91071000  0.80173100  0.58929600  1
  C  C52  1  0.30875200  0.98639100  0.37450100  1
  C  C53  1  0.24001000  0.12439300  0.09686400  1
  C  C54  1  0.69124800  0.67763900  0.87450100  1
  C  C55  1  0.00423400  0.26720800  0.99272200  1
  C  C56  1  0.59376200  0.66518900  0.24291200  1
  C  C57  1  0.54097700  0.09349100  0.65164500  1
  C  C58  1  0.32236100  0.01360900  0.87450100  1
  C  C59  1  0.73702700  0.73279200  0.49272200  1
  C  C60  1  0.69124800  0.01360900  0.62549900  1
  C  C61  1  0.40623800  0.07142700  0.74291200  1
  C  C62  1  0.45902300  0.55251300  0.15164500  1
  C  C63  1  0.75747900  0.53190100  0.65853700  1
  C  C64  1  0.09349100  0.55251300  0.34835500  1
  C  C65  1  0.24001000  0.11561700  0.40313600  1
  C  C66  1  0.24252100  0.77442200  0.15853700  1
  C  C67  1  0.31792100  0.34221200  0.37404600  1
  C  C68  1  0.34221200  0.31792100  0.87404600  1
  C  C69  1  0.54097700  0.44748700  0.84835500  1
  C  C70  1  0.26297300  0.26720800  0.50727800  1
  C  C71  1  0.26720800  0.00423400  0.49272200  1
  C  C72  1  0.89102100  0.80173100  0.91070400  1
  C  C73  1  0.98639100  0.67763900  0.62549900  1
  C  C74  1  0.01360900  0.32236100  0.37450100  1
  C  C75  1  0.01360900  0.69124800  0.12549900  1
  C  C76  1  0.10897900  0.91071000  0.41070400  1
  C  C77  1  0.91071000  0.10897900  0.91070400  1
  C  C78  1  0.09349100  0.54097700  0.15164500  1
  C  C79  1  0.65778800  0.97571000  0.37404600  1
  C  C80  1  0.87560700  0.11561700  0.09686400  1
  C  C81  1  0.68207900  0.02429000  0.87404600  1
  C  C82  1  0.66518900  0.07142700  0.75708800  1
  C  C83  1  0.22557800  0.75747900  0.34146300  1
  C  C84  1  0.32236100  0.30875200  0.62549900  1
  C  C85  1  0.26720800  0.26297300  0.00727800  1
  C  C86  1  0.24252100  0.46809900  0.34146300  1
  C  C87  1  0.53190100  0.77442200  0.34146300  1
  C  C88  1  0.19827000  0.10897900  0.58929600  1
  C  C89  1  0.66518900  0.59376200  0.74291200  1
  C  C90  1  0.88438300  0.12439300  0.40313600  1
  C  C91  1  0.75999000  0.88438300  0.59686400  1
  C  C92  1  0.08929000  0.89102100  0.08929600  1
  C  C93  1  0.08929000  0.19827000  0.41070400  1
  C  C94  1  0.99576600  0.26297300  0.49272200  1
  C  C95  1  0.34221200  0.02429000  0.62595400  1
  C  C96  1  0.19827000  0.08929000  0.91070400  1
  C  C97  1  0.88438300  0.75999000  0.09686400  1
  C  C98  1  0.90650900  0.44748700  0.65164500  1
  C  C99  1  0.80173100  0.89102100  0.41070400  1
  C  C100  1  0.22557800  0.46809900  0.15853700  1
  C  C101  1  0.44748700  0.54097700  0.34835500  1
  C  C102  1  0.33481100  0.40623800  0.25708800  1
  C  C103  1  0.73279200  0.73702700  0.99272200  1
  C  C104  1  0.33481100  0.92857300  0.24291200  1
  C  C105  1  0.97571000  0.31792100  0.62595400  1
  C  C106  1  0.55251300  0.45902300  0.65164500  1
  C  C107  1  0.67763900  0.98639100  0.12549900  1
  C  C108  1  0.40623800  0.33481100  0.75708800  1
  C  C109  1  0.00423400  0.73702700  0.50727800  1
  C  C110  1  0.98639100  0.30875200  0.87450100  1
  C  C111  1  0.80173100  0.91071000  0.08929600  1
  C  C112  1  0.87560700  0.75999000  0.40313600  1
  C  C113  1  0.89102100  0.08929000  0.58929600  1
  C  C114  1  0.46809900  0.22557800  0.65853700  1
  C  C115  1  0.59376200  0.92857300  0.25708800  1
  C  C116  1  0.11561700  0.24001000  0.90313600  1
  C  C117  1  0.75747900  0.22557800  0.84146300  1
  C  C118  1  0.92857300  0.59376200  0.75708800  1
  C  C119  1  0.10897900  0.19827000  0.08929600  1
  C  C120  1  0.07142700  0.66518900  0.25708800  1
  C  C121  1  0.26297300  0.99576600  0.99272200  1
  C  C122  1  0.44748700  0.90650900  0.15164500  1
  C  C123  1  0.12439300  0.88438300  0.90313600  1
  C  C124  1  0.02429000  0.34221200  0.12595400  1
  C  C125  1  0.07142700  0.40623800  0.24291200  1
  C  C126  1  0.99576600  0.73279200  0.00727800  1
  C  C127  1  0.90650900  0.45902300  0.84835500  1
  C  C128  1  0.12439300  0.24001000  0.59686400  1
  C  C129  1  0.11561700  0.87560700  0.59686400  1
  C  C130  1  0.97571000  0.65778800  0.87404600  1
  C  C131  1  0.31792100  0.97571000  0.12595400  1
  C  C132  1  0.77442200  0.24252100  0.65853700  1
  C  C133  1  0.73279200  0.99576600  0.50727800  1
  C  C134  1  0.65778800  0.68207900  0.12595400  1
  C  C135  1  0.73702700  0.00423400  0.00727800  1
  C  C136  1  0.02429000  0.68207900  0.37404600  1
  C  C137  1  0.68207900  0.65778800  0.62595400  1
  C  C138  1  0.77442200  0.53190100  0.84146300  1
  C  C139  1  0.53190100  0.75747900  0.15853700  1
  C  C140  1  0.55251300  0.09349100  0.84835500  1
  C  C141  1  0.75999000  0.87560700  0.90313600  1
  C  C142  1  0.92857300  0.33481100  0.74291200  1
  C  C143  1  0.46809900  0.24252100  0.84146300  1
