# generated using pymatgen
data_Cu2Ni
_symmetry_space_group_name_H-M   'P 1'
_cell_length_a   4.65421112
_cell_length_b   4.65421112
_cell_length_c   15.18486971
_cell_angle_alpha   81.18459112
_cell_angle_beta   81.18459112
_cell_angle_gamma   59.99998407
_symmetry_Int_Tables_number   1
_chemical_formula_structural   Cu2Ni
_chemical_formula_sum   'Cu4 Ni2'
_cell_volume   280.36586623
_cell_formula_units_Z   2
loop_
 _symmetry_equiv_pos_site_id
 _symmetry_equiv_pos_as_xyz
  1  'x, y, z'
loop_
 _atom_site_type_symbol
 _atom_site_label
 _atom_site_symmetry_multiplicity
 _atom_site_fract_x
 _atom_site_fract_y
 _atom_site_fract_z
 _atom_site_occupancy
  Ni  Ni0  1  0.00000000  0.00000000  0.00000000  1
  Ni  Ni1  1  0.50000000  0.50000000  0.50000000  1
  Cu  Cu2  1  0.12469500  0.12469500  0.62591500  1
  Cu  Cu3  1  0.87530500  0.87530500  0.37408500  1
  Cu  Cu4  1  0.29145100  0.29145100  0.12564700  1
  Cu  Cu5  1  0.70854900  0.70854900  0.87435300  1
