# generated using pymatgen
data_Cu(NiC)2
_symmetry_space_group_name_H-M   'P 1'
_cell_length_a   3.92804200
_cell_length_b   3.92804200
_cell_length_c   6.79346002
_cell_angle_alpha   106.80436136
_cell_angle_beta   106.80436136
_cell_angle_gamma   90.00000000
_symmetry_Int_Tables_number   1
_chemical_formula_structural   Cu(NiC)2
_chemical_formula_sum   'Cu1 Ni2 C2'
_cell_volume   95.65843481
_cell_formula_units_Z   1
loop_
 _symmetry_equiv_pos_site_id
 _symmetry_equiv_pos_as_xyz
  1  'x, y, z'
loop_
 _atom_site_type_symbol
 _atom_site_label
 _atom_site_symmetry_multiplicity
 _atom_site_fract_x
 _atom_site_fract_y
 _atom_site_fract_z
 _atom_site_occupancy
  Ni  Ni0  1  0.35282700  0.35282700  0.70565400  1
  Ni  Ni1  1  0.64717300  0.64717300  0.29434600  1
  Cu  Cu2  1  0.00000000  0.00000000  0.00000000  1
  C  C3  1  0.75000000  0.25000000  0.50000000  1
  C  C4  1  0.25000000  0.75000000  0.50000000  1
