# generated using pymatgen
data_Cu3NiC
_symmetry_space_group_name_H-M   'P 1'
_cell_length_a   4.54339500
_cell_length_b   6.66148800
_cell_length_c   8.53194500
_cell_angle_alpha   90.00000000
_cell_angle_beta   90.00000000
_cell_angle_gamma   90.00000000
_symmetry_Int_Tables_number   1
_chemical_formula_structural   Cu3NiC
_chemical_formula_sum   'Cu12 Ni4 C4'
_cell_volume   258.22589587
_cell_formula_units_Z   4
loop_
 _symmetry_equiv_pos_site_id
 _symmetry_equiv_pos_as_xyz
  1  'x, y, z'
loop_
 _atom_site_type_symbol
 _atom_site_label
 _atom_site_symmetry_multiplicity
 _atom_site_fract_x
 _atom_site_fract_y
 _atom_site_fract_z
 _atom_site_occupancy
  C  C0  1  0.50000000  0.50000000  0.00000000  1
  C  C1  1  0.00000000  0.00000000  0.00000000  1
  C  C2  1  0.00000000  0.00000000  0.50000000  1
  C  C3  1  0.50000000  0.50000000  0.50000000  1
  Ni  Ni4  1  0.02748300  0.63556800  0.25000000  1
  Ni  Ni5  1  0.52748300  0.86443200  0.75000000  1
  Ni  Ni6  1  0.47251700  0.13556800  0.25000000  1
  Ni  Ni7  1  0.97251700  0.36443200  0.75000000  1
  Cu  Cu8  1  0.21899100  0.04745400  0.25000000  1
  Cu  Cu9  1  0.09733900  0.31984000  0.61706000  1
  Cu  Cu10  1  0.28100900  0.54745400  0.25000000  1
  Cu  Cu11  1  0.90266100  0.68016000  0.38294000  1
  Cu  Cu12  1  0.40266100  0.81984000  0.61706000  1
  Cu  Cu13  1  0.78100900  0.95254600  0.75000000  1
  Cu  Cu14  1  0.59733900  0.18016000  0.38294000  1
  Cu  Cu15  1  0.59733900  0.18016000  0.11706000  1
  Cu  Cu16  1  0.40266100  0.81984000  0.88294000  1
  Cu  Cu17  1  0.90266100  0.68016000  0.11706000  1
  Cu  Cu18  1  0.09733900  0.31984000  0.88294000  1
  Cu  Cu19  1  0.71899100  0.45254600  0.75000000  1
