# generated using pymatgen
data_Cu13Ni17C40
_symmetry_space_group_name_H-M   'P 1'
_cell_length_a   6.19928100
_cell_length_b   6.20997642
_cell_length_c   21.90088294
_cell_angle_alpha   97.82994869
_cell_angle_beta   98.13167855
_cell_angle_gamma   89.60254158
_symmetry_Int_Tables_number   1
_chemical_formula_structural   Cu13Ni17C40
_chemical_formula_sum   'Cu13 Ni17 C40'
_cell_volume   826.80265405
_cell_formula_units_Z   1
loop_
 _symmetry_equiv_pos_site_id
 _symmetry_equiv_pos_as_xyz
  1  'x, y, z'
loop_
 _atom_site_type_symbol
 _atom_site_label
 _atom_site_symmetry_multiplicity
 _atom_site_fract_x
 _atom_site_fract_y
 _atom_site_fract_z
 _atom_site_occupancy
  Ni  Ni0  1  0.70169200  0.70353300  0.89948300  1
  Ni  Ni1  1  0.47021300  0.22190600  0.94938800  1
  Ni  Ni2  1  0.08046800  0.82052200  0.14992700  1
  Ni  Ni3  1  0.91953200  0.17947800  0.85007300  1
  Ni  Ni4  1  0.67370400  0.42826400  0.35051300  1
  Ni  Ni5  1  0.60597000  0.60131400  0.19953300  1
  Ni  Ni6  1  0.52978700  0.77809400  0.05061200  1
  Ni  Ni7  1  0.29830800  0.29646700  0.10051700  1
  Ni  Ni8  1  0.27108100  0.02343200  0.54943800  1
  Ni  Ni9  1  0.20582800  0.19842600  0.40025700  1
  Ni  Ni10  1  0.12233100  0.37123700  0.24956300  1
  Ni  Ni11  1  0.00000000  0.50000000  0.50000000  1
  Ni  Ni12  1  0.87766900  0.62876300  0.75043700  1
  Ni  Ni13  1  0.79417200  0.80157400  0.59974300  1
  Ni  Ni14  1  0.72891900  0.97656800  0.45056200  1
  Ni  Ni15  1  0.39403000  0.39868600  0.80046700  1
  Ni  Ni16  1  0.32629600  0.57173600  0.64948700  1
  Cu  Cu17  1  0.20071600  0.70230500  0.90074200  1
  Cu  Cu18  1  0.00000000  0.00000000  0.00000000  1
  Cu  Cu19  1  0.00000000  0.50000000  0.00000000  1
  Cu  Cu20  1  0.90233400  0.90343100  0.29952600  1
  Cu  Cu21  1  0.79928400  0.29769500  0.09925800  1
  Cu  Cu22  1  0.60096900  0.10041000  0.20069200  1
  Cu  Cu23  1  0.50000000  0.50000000  0.50000000  1
  Cu  Cu24  1  0.40331500  0.89538300  0.30066900  1
  Cu  Cu25  1  0.19965100  0.70012900  0.39980600  1
  Cu  Cu26  1  0.09766600  0.09656900  0.70047400  1
  Cu  Cu27  1  0.80034900  0.29987100  0.60019400  1
  Cu  Cu28  1  0.59668500  0.10461700  0.69933100  1
  Cu  Cu29  1  0.39903100  0.89959000  0.79930800  1
  C  C30  1  0.63768600  0.67211000  0.80752600  1
  C  C31  1  0.42820700  0.46262700  0.89242900  1
  C  C32  1  0.45255800  0.91369600  0.89616000  1
  C  C33  1  0.18627800  0.64804900  0.80389100  1
  C  C34  1  0.22693900  0.25332700  0.00736000  1
  C  C35  1  0.22037700  0.74226500  0.99642500  1
  C  C36  1  0.02412700  0.06175600  0.09297800  1
  C  C37  1  0.05168000  0.51229800  0.09579200  1
  C  C38  1  0.97587300  0.93824400  0.90702200  1
  C  C39  1  0.94832000  0.48770200  0.90420800  1
  C  C40  1  0.77962300  0.25773500  0.00357500  1
  C  C41  1  0.77306100  0.74667300  0.99264000  1
  C  C42  1  0.84001600  0.87820800  0.20702000  1
  C  C43  1  0.81372200  0.35195100  0.19610900  1
  C  C44  1  0.65313600  0.67278600  0.29286500  1
  C  C45  1  0.64505900  0.11964400  0.29645100  1
  C  C46  1  0.57179300  0.53737300  0.10757100  1
  C  C47  1  0.54744200  0.08630400  0.10384000  1
  C  C48  1  0.38931800  0.84594300  0.20443000  1
  C  C49  1  0.36231400  0.32789000  0.19247400  1
  C  C50  1  0.41800700  0.44688700  0.40387900  1
  C  C51  1  0.43307200  0.92001200  0.39339800  1
  C  C52  1  0.26419400  0.26266300  0.49184600  1
  C  C53  1  0.24560600  0.71399000  0.49641800  1
  C  C54  1  0.15828000  0.12683500  0.30740400  1
  C  C55  1  0.15080700  0.67994200  0.30391200  1
  C  C56  1  0.96936800  0.47518300  0.40811300  1
  C  C57  1  0.98391200  0.95561400  0.39597000  1
  C  C58  1  0.01608800  0.04438600  0.60403000  1
  C  C59  1  0.03063200  0.52481700  0.59188700  1
  C  C60  1  0.84172000  0.87316500  0.69259600  1
  C  C61  1  0.84919300  0.32005800  0.69608800  1
  C  C62  1  0.73580600  0.73733700  0.50815400  1
  C  C63  1  0.75439400  0.28601000  0.50358200  1
  C  C64  1  0.56692800  0.07998800  0.60660200  1
  C  C65  1  0.58199300  0.55311300  0.59612100  1
  C  C66  1  0.61068200  0.15405700  0.79557000  1
  C  C67  1  0.34686400  0.32721400  0.70713500  1
  C  C68  1  0.35494100  0.88035600  0.70354900  1
  C  C69  1  0.15998400  0.12179200  0.79298000  1
