# generated using pymatgen
data_Cu6Ni4C3
_symmetry_space_group_name_H-M   'P 1'
_cell_length_a   4.19808093
_cell_length_b   4.19808093
_cell_length_c   18.04742200
_cell_angle_alpha   90.00000000
_cell_angle_beta   90.00000000
_cell_angle_gamma   120.00001464
_symmetry_Int_Tables_number   1
_chemical_formula_structural   Cu6Ni4C3
_chemical_formula_sum   'Cu6 Ni4 C3'
_cell_volume   275.45290322
_cell_formula_units_Z   1
loop_
 _symmetry_equiv_pos_site_id
 _symmetry_equiv_pos_as_xyz
  1  'x, y, z'
loop_
 _atom_site_type_symbol
 _atom_site_label
 _atom_site_symmetry_multiplicity
 _atom_site_fract_x
 _atom_site_fract_y
 _atom_site_fract_z
 _atom_site_occupancy
  C  C0  1  0.00000000  0.00000000  0.38834800  1
  C  C1  1  0.00000000  0.00000000  0.00000000  1
  C  C2  1  0.00000000  0.00000000  0.61165200  1
  Ni  Ni3  1  0.33333300  0.66666700  0.24616100  1
  Ni  Ni4  1  0.66666700  0.33333300  0.14089500  1
  Ni  Ni5  1  0.33333300  0.66666700  0.85910500  1
  Ni  Ni6  1  0.66666700  0.33333300  0.75383900  1
  Cu  Cu7  1  0.33333300  0.66666700  0.10447600  1
  Cu  Cu8  1  0.66666700  0.33333300  0.50261100  1
  Cu  Cu9  1  0.33333300  0.66666700  0.49738900  1
  Cu  Cu10  1  0.33333300  0.66666700  0.71860400  1
  Cu  Cu11  1  0.66666700  0.33333300  0.89552400  1
  Cu  Cu12  1  0.66666700  0.33333300  0.28139600  1
