# generated using pymatgen
data_Cu(NiC3)2
_symmetry_space_group_name_H-M   'P 1'
_cell_length_a   11.54482700
_cell_length_b   12.58842800
_cell_length_c   13.31928400
_cell_angle_alpha   90.00000000
_cell_angle_beta   90.00000000
_cell_angle_gamma   90.00000000
_symmetry_Int_Tables_number   1
_chemical_formula_structural   Cu(NiC3)2
_chemical_formula_sum   'Cu8 Ni16 C48'
_cell_volume   1935.70783936
_cell_formula_units_Z   8
loop_
 _symmetry_equiv_pos_site_id
 _symmetry_equiv_pos_as_xyz
  1  'x, y, z'
loop_
 _atom_site_type_symbol
 _atom_site_label
 _atom_site_symmetry_multiplicity
 _atom_site_fract_x
 _atom_site_fract_y
 _atom_site_fract_z
 _atom_site_occupancy
  Ni  Ni0  1  0.79427000  0.54097300  0.86453400  1
  Ni  Ni1  1  0.51467800  0.89519800  0.99754900  1
  Ni  Ni2  1  0.01467800  0.60480200  0.00245100  1
  Ni  Ni3  1  0.70573000  0.04097300  0.86453400  1
  Ni  Ni4  1  0.98532200  0.39519800  0.99754900  1
  Ni  Ni5  1  0.20573000  0.45902700  0.13546600  1
  Ni  Ni6  1  0.51467800  0.60480200  0.49754900  1
  Ni  Ni7  1  0.98532200  0.10480200  0.49754900  1
  Ni  Ni8  1  0.48532200  0.39519800  0.50245100  1
  Ni  Ni9  1  0.29427000  0.54097300  0.63546600  1
  Ni  Ni10  1  0.20573000  0.04097300  0.63546600  1
  Ni  Ni11  1  0.70573000  0.45902700  0.36453400  1
  Ni  Ni12  1  0.01467800  0.89519800  0.50245100  1
  Ni  Ni13  1  0.29427000  0.95902700  0.13546600  1
  Ni  Ni14  1  0.48532200  0.10480200  0.00245100  1
  Ni  Ni15  1  0.79427000  0.95902700  0.36453400  1
  Cu  Cu16  1  0.01793200  0.34876000  0.69170000  1
  Cu  Cu17  1  0.98206800  0.65124000  0.30830000  1
  Cu  Cu18  1  0.51793200  0.34876000  0.80830000  1
  Cu  Cu19  1  0.51793200  0.15124000  0.30830000  1
  Cu  Cu20  1  0.48206800  0.65124000  0.19170000  1
  Cu  Cu21  1  0.98206800  0.84876000  0.80830000  1
  Cu  Cu22  1  0.01793200  0.15124000  0.19170000  1
  Cu  Cu23  1  0.48206800  0.84876000  0.69170000  1
  C  C24  1  0.21235300  0.28848500  0.14318100  1
  C  C25  1  0.63250800  0.01666100  0.42574900  1
  C  C26  1  0.61385000  0.68996200  0.60651000  1
  C  C27  1  0.28764700  0.71151500  0.64318100  1
  C  C28  1  0.11385000  0.68996200  0.89349000  1
  C  C29  1  0.13250800  0.01666100  0.07425100  1
  C  C30  1  0.88615000  0.18996200  0.60651000  1
  C  C31  1  0.71235300  0.28848500  0.35681900  1
  C  C32  1  0.71235300  0.21151500  0.85681900  1
  C  C33  1  0.78764700  0.78848500  0.35681900  1
  C  C34  1  0.67539900  0.97047200  0.71936500  1
  C  C35  1  0.28764700  0.78848500  0.14318100  1
  C  C36  1  0.11385000  0.81003800  0.39349000  1
  C  C37  1  0.44581200  0.79319100  0.88392300  1
  C  C38  1  0.88615000  0.31003800  0.10651000  1
  C  C39  1  0.36749200  0.98333900  0.57425100  1
  C  C40  1  0.36749200  0.51666100  0.07425100  1
  C  C41  1  0.82460100  0.47047200  0.71936500  1
  C  C42  1  0.78764700  0.71151500  0.85681900  1
  C  C43  1  0.05418800  0.29319100  0.88392300  1
  C  C44  1  0.55418800  0.20680900  0.11607700  1
  C  C45  1  0.94581200  0.79319100  0.61607700  1
  C  C46  1  0.21235300  0.21151500  0.64318100  1
  C  C47  1  0.61385000  0.81003800  0.10651000  1
  C  C48  1  0.44581200  0.70680900  0.38392300  1
  C  C49  1  0.94581200  0.70680900  0.11607700  1
  C  C50  1  0.13250800  0.48333900  0.57425100  1
  C  C51  1  0.32460100  0.47047200  0.78063500  1
  C  C52  1  0.17539900  0.52952800  0.28063500  1
  C  C53  1  0.38615000  0.31003800  0.39349000  1
  C  C54  1  0.55418800  0.29319100  0.61607700  1
  C  C55  1  0.38615000  0.18996200  0.89349000  1
  C  C56  1  0.86749200  0.98333900  0.92574900  1
  C  C57  1  0.32460100  0.02952800  0.28063500  1
  C  C58  1  0.05418800  0.20680900  0.38392300  1
  C  C59  1  0.17539900  0.97047200  0.78063500  1
  C  C60  1  0.63250800  0.48333900  0.92574900  1
  C  C61  1  0.82460100  0.02952800  0.21936500  1
  C  C62  1  0.86749200  0.51666100  0.42574900  1
  C  C63  1  0.67539900  0.52952800  0.21936500  1
  C  C64  1  0.41200000  0.98864300  0.05266800  1
  C  C65  1  0.91200000  0.98864300  0.44733200  1
  C  C66  1  0.91200000  0.51135700  0.94733200  1
  C  C67  1  0.08800000  0.48864300  0.05266800  1
  C  C68  1  0.58800000  0.01135700  0.94733200  1
  C  C69  1  0.41200000  0.51135700  0.55266800  1
  C  C70  1  0.08800000  0.01135700  0.55266800  1
  C  C71  1  0.58800000  0.48864300  0.44733200  1
