# generated using pymatgen
data_Cu3(NiC4)2
_symmetry_space_group_name_H-M   'P 1'
_cell_length_a   8.03949000
_cell_length_b   6.29153100
_cell_length_c   6.65809536
_cell_angle_alpha   71.08460968
_cell_angle_beta   90.00000000
_cell_angle_gamma   90.00000000
_symmetry_Int_Tables_number   1
_chemical_formula_structural   Cu3(NiC4)2
_chemical_formula_sum   'Cu6 Ni4 C16'
_cell_volume   318.58491976
_cell_formula_units_Z   2
loop_
 _symmetry_equiv_pos_site_id
 _symmetry_equiv_pos_as_xyz
  1  'x, y, z'
loop_
 _atom_site_type_symbol
 _atom_site_label
 _atom_site_symmetry_multiplicity
 _atom_site_fract_x
 _atom_site_fract_y
 _atom_site_fract_z
 _atom_site_occupancy
  Ni  Ni0  1  0.38396700  0.25118300  0.85233200  1
  Ni  Ni1  1  0.11603300  0.25118300  0.35233200  1
  Ni  Ni2  1  0.88396700  0.74881700  0.64766800  1
  Ni  Ni3  1  0.61603300  0.74881700  0.14766800  1
  Cu  Cu4  1  0.24148000  0.73555100  0.39257000  1
  Cu  Cu5  1  0.00000000  0.00000000  0.00000000  1
  Cu  Cu6  1  0.25852000  0.73555100  0.89257000  1
  Cu  Cu7  1  0.74148000  0.26444900  0.10743000  1
  Cu  Cu8  1  0.75852000  0.26444900  0.60743000  1
  Cu  Cu9  1  0.50000000  0.00000000  0.50000000  1
  C  C10  1  0.98658300  0.22808500  0.14202400  1
  C  C11  1  0.49344100  0.75264200  0.93701800  1
  C  C12  1  0.72332700  0.49635400  0.23389400  1
  C  C13  1  0.48658300  0.77191500  0.35797600  1
  C  C14  1  0.23563300  0.02320800  0.94947300  1
  C  C15  1  0.99344100  0.24735800  0.56298200  1
  C  C16  1  0.27667300  0.50364600  0.76610600  1
  C  C17  1  0.00655900  0.75264200  0.43701800  1
  C  C18  1  0.01341700  0.77191500  0.85797600  1
  C  C19  1  0.22332700  0.50364600  0.26610600  1
  C  C20  1  0.51341700  0.22808500  0.64202400  1
  C  C21  1  0.50655900  0.24735800  0.06298200  1
  C  C22  1  0.77667300  0.49635400  0.73389400  1
  C  C23  1  0.26436700  0.02320800  0.44947300  1
  C  C24  1  0.73563300  0.97679200  0.55052700  1
  C  C25  1  0.76436700  0.97679200  0.05052700  1
