# generated using pymatgen
data_Cu3Ni3C14
_symmetry_space_group_name_H-M   'P 1'
_cell_length_a   10.94571413
_cell_length_b   10.94571413
_cell_length_c   10.94571413
_cell_angle_alpha   109.47122063
_cell_angle_beta   109.47122063
_cell_angle_gamma   109.47122063
_symmetry_Int_Tables_number   1
_chemical_formula_structural   Cu3Ni3C14
_chemical_formula_sum   'Cu12 Ni12 C56'
_cell_volume   1009.50950813
_cell_formula_units_Z   4
loop_
 _symmetry_equiv_pos_site_id
 _symmetry_equiv_pos_as_xyz
  1  'x, y, z'
loop_
 _atom_site_type_symbol
 _atom_site_label
 _atom_site_symmetry_multiplicity
 _atom_site_fract_x
 _atom_site_fract_y
 _atom_site_fract_z
 _atom_site_occupancy
  Ni  Ni0  1  0.25000000  0.12500000  0.87500000  1
  Ni  Ni1  1  0.37500000  0.62500000  0.75000000  1
  Ni  Ni2  1  0.25000000  0.62500000  0.37500000  1
  Ni  Ni3  1  0.87500000  0.12500000  0.75000000  1
  Ni  Ni4  1  0.62500000  0.75000000  0.37500000  1
  Ni  Ni5  1  0.12500000  0.87500000  0.25000000  1
  Ni  Ni6  1  0.12500000  0.75000000  0.87500000  1
  Ni  Ni7  1  0.75000000  0.37500000  0.62500000  1
  Ni  Ni8  1  0.75000000  0.87500000  0.12500000  1
  Ni  Ni9  1  0.62500000  0.37500000  0.25000000  1
  Ni  Ni10  1  0.37500000  0.25000000  0.62500000  1
  Ni  Ni11  1  0.87500000  0.25000000  0.12500000  1
  Cu  Cu12  1  0.37500000  0.12500000  0.25000000  1
  Cu  Cu13  1  0.87500000  0.62500000  0.25000000  1
  Cu  Cu14  1  0.62500000  0.25000000  0.87500000  1
  Cu  Cu15  1  0.25000000  0.37500000  0.12500000  1
  Cu  Cu16  1  0.12500000  0.37500000  0.75000000  1
  Cu  Cu17  1  0.37500000  0.75000000  0.12500000  1
  Cu  Cu18  1  0.87500000  0.75000000  0.62500000  1
  Cu  Cu19  1  0.75000000  0.12500000  0.37500000  1
  Cu  Cu20  1  0.62500000  0.87500000  0.75000000  1
  Cu  Cu21  1  0.12500000  0.25000000  0.37500000  1
  Cu  Cu22  1  0.75000000  0.62500000  0.87500000  1
  Cu  Cu23  1  0.25000000  0.87500000  0.62500000  1
  C  C24  1  0.00000000  0.50000000  0.50000000  1
  C  C25  1  0.50000000  0.50000000  0.50000000  1
  C  C26  1  0.50000000  0.00000000  0.50000000  1
  C  C27  1  0.50000000  0.00000000  0.00000000  1
  C  C28  1  0.50000000  0.50000000  0.00000000  1
  C  C29  1  0.00000000  0.00000000  0.00000000  1
  C  C30  1  0.00000000  0.00000000  0.50000000  1
  C  C31  1  0.00000000  0.50000000  0.00000000  1
  C  C32  1  0.57998800  0.90833800  0.38453600  1
  C  C33  1  0.59166200  0.17165000  0.47619900  1
  C  C34  1  0.11546400  0.02380100  0.19545200  1
  C  C35  1  0.97619900  0.80454800  0.88453600  1
  C  C36  1  0.32835000  0.92001200  0.30454800  1
  C  C37  1  0.38453600  0.57998800  0.90833800  1
  C  C38  1  0.82835000  0.80454800  0.42001200  1
  C  C39  1  0.92001200  0.11546400  0.59166200  1
  C  C40  1  0.09166200  0.97619900  0.67165000  1
  C  C41  1  0.80454800  0.42001200  0.82835000  1
  C  C42  1  0.40833800  0.82835000  0.52380100  1
  C  C43  1  0.32835000  0.90833800  0.02380100  1
  C  C44  1  0.88453600  0.40833800  0.07998800  1
  C  C45  1  0.47619900  0.59166200  0.17165000  1
  C  C46  1  0.19545200  0.11546400  0.02380100  1
  C  C47  1  0.30454800  0.32835000  0.92001200  1
  C  C48  1  0.90833800  0.38453600  0.57998800  1
  C  C49  1  0.59166200  0.92001200  0.11546400  1
  C  C50  1  0.47619900  0.38453600  0.30454800  1
  C  C51  1  0.42001200  0.82835000  0.80454800  1
  C  C52  1  0.19545200  0.57998800  0.17165000  1
  C  C53  1  0.80454800  0.88453600  0.97619900  1
  C  C54  1  0.69545200  0.52380100  0.61546400  1
  C  C55  1  0.52380100  0.40833800  0.82835000  1
  C  C56  1  0.30454800  0.47619900  0.38453600  1
  C  C57  1  0.38453600  0.30454800  0.47619900  1
  C  C58  1  0.17165000  0.47619900  0.59166200  1
  C  C59  1  0.02380100  0.32835000  0.90833800  1
  C  C60  1  0.40833800  0.07998800  0.88453600  1
  C  C61  1  0.97619900  0.67165000  0.09166200  1
  C  C62  1  0.07998800  0.69545200  0.67165000  1
  C  C63  1  0.61546400  0.42001200  0.09166200  1
  C  C64  1  0.42001200  0.09166200  0.61546400  1
  C  C65  1  0.57998800  0.17165000  0.19545200  1
  C  C66  1  0.52380100  0.61546400  0.69545200  1
  C  C67  1  0.11546400  0.59166200  0.92001200  1
  C  C68  1  0.88453600  0.97619900  0.80454800  1
  C  C69  1  0.02380100  0.19545200  0.11546400  1
  C  C70  1  0.67165000  0.07998800  0.69545200  1
  C  C71  1  0.90833800  0.02380100  0.32835000  1
  C  C72  1  0.69545200  0.67165000  0.07998800  1
  C  C73  1  0.07998800  0.88453600  0.40833800  1
  C  C74  1  0.82835000  0.52380100  0.40833800  1
  C  C75  1  0.67165000  0.09166200  0.97619900  1
  C  C76  1  0.92001200  0.30454800  0.32835000  1
  C  C77  1  0.17165000  0.19545200  0.57998800  1
  C  C78  1  0.09166200  0.61546400  0.42001200  1
  C  C79  1  0.61546400  0.69545200  0.52380100  1
