# generated using pymatgen
data_Cu3NiC
_symmetry_space_group_name_H-M   'P 1'
_cell_length_a   7.35138788
_cell_length_b   7.35138788
_cell_length_c   7.35138788
_cell_angle_alpha   120.68493187
_cell_angle_beta   112.29658964
_cell_angle_gamma   96.33158010
_symmetry_Int_Tables_number   1
_chemical_formula_structural   Cu3NiC
_chemical_formula_sum   'Cu6 Ni2 C2'
_cell_volume   292.15430283
_cell_formula_units_Z   2
loop_
 _symmetry_equiv_pos_site_id
 _symmetry_equiv_pos_as_xyz
  1  'x, y, z'
loop_
 _atom_site_type_symbol
 _atom_site_label
 _atom_site_symmetry_multiplicity
 _atom_site_fract_x
 _atom_site_fract_y
 _atom_site_fract_z
 _atom_site_occupancy
  C  C0  1  0.00000000  0.00000000  0.00000000  1
  Ni  Ni1  1  0.68272400  0.50000000  0.18272400  1
  Ni  Ni2  1  0.31727600  0.50000000  0.81727600  1
  C  C3  1  0.50000000  0.50000000  0.00000000  1
  Cu  Cu4  1  0.82684100  0.58993900  0.76309800  1
  Cu  Cu5  1  0.70644000  0.00000000  0.70644000  1
  Cu  Cu6  1  0.17315900  0.93625600  0.76309800  1
  Cu  Cu7  1  0.29356000  0.00000000  0.29356000  1
  Cu  Cu8  1  0.17315900  0.41006100  0.23690200  1
  Cu  Cu9  1  0.82684100  0.06374400  0.23690200  1
