# generated using pymatgen
data_Cu2Ni3C8
_symmetry_space_group_name_H-M   'P 1'
_cell_length_a   8.82922500
_cell_length_b   6.37168500
_cell_length_c   11.53406752
_cell_angle_alpha   87.65057120
_cell_angle_beta   90.00000000
_cell_angle_gamma   90.00000000
_symmetry_Int_Tables_number   1
_chemical_formula_structural   Cu2Ni3C8
_chemical_formula_sum   'Cu8 Ni12 C32'
_cell_volume   648.32706227
_cell_formula_units_Z   4
loop_
 _symmetry_equiv_pos_site_id
 _symmetry_equiv_pos_as_xyz
  1  'x, y, z'
loop_
 _atom_site_type_symbol
 _atom_site_label
 _atom_site_symmetry_multiplicity
 _atom_site_fract_x
 _atom_site_fract_y
 _atom_site_fract_z
 _atom_site_occupancy
  Ni  Ni0  1  0.83700800  0.75619000  0.63335400  1
  Ni  Ni1  1  0.33700800  0.24381000  0.86664600  1
  Ni  Ni2  1  0.16299200  0.24381000  0.36664600  1
  Ni  Ni3  1  0.66299200  0.75619000  0.13335400  1
  Ni  Ni4  1  0.96980000  0.38397900  0.87561400  1
  Ni  Ni5  1  0.46980000  0.61602100  0.62438600  1
  Ni  Ni6  1  0.03020000  0.61602100  0.12438600  1
  Ni  Ni7  1  0.53020000  0.38397900  0.37561400  1
  Ni  Ni8  1  0.81015900  0.09156400  0.43111300  1
  Ni  Ni9  1  0.31015900  0.90843600  0.06888700  1
  Ni  Ni10  1  0.18984100  0.90843600  0.56888700  1
  Ni  Ni11  1  0.68984100  0.09156400  0.93111300  1
  Cu  Cu12  1  0.88541600  0.58372200  0.36803100  1
  Cu  Cu13  1  0.38541600  0.41627800  0.13196900  1
  Cu  Cu14  1  0.11458400  0.41627800  0.63196900  1
  Cu  Cu15  1  0.61458400  0.58372200  0.86803100  1
  Cu  Cu16  1  0.93762200  0.10216400  0.15171100  1
  Cu  Cu17  1  0.43762200  0.89783600  0.34828900  1
  Cu  Cu18  1  0.06237800  0.89783600  0.84828900  1
  Cu  Cu19  1  0.56237800  0.10216400  0.65171100  1
  C  C20  1  0.75721000  0.39382800  0.41881200  1
  C  C21  1  0.25721000  0.60617200  0.08118800  1
  C  C22  1  0.24279000  0.60617200  0.58118800  1
  C  C23  1  0.74279000  0.39382800  0.91881200  1
  C  C24  1  0.75595000  0.03744500  0.10272100  1
  C  C25  1  0.25595000  0.96255500  0.39727900  1
  C  C26  1  0.24405000  0.96255500  0.89727900  1
  C  C27  1  0.74405000  0.03744500  0.60272100  1
  C  C28  1  0.86941700  0.79762300  0.45712900  1
  C  C29  1  0.36941700  0.20237700  0.04287100  1
  C  C30  1  0.13058300  0.20237700  0.54287100  1
  C  C31  1  0.63058300  0.79762300  0.95712900  1
  C  C32  1  0.07013500  0.91264500  0.12043600  1
  C  C33  1  0.57013500  0.08735500  0.37956400  1
  C  C34  1  0.92986500  0.08735500  0.87956400  1
  C  C35  1  0.42986500  0.91264500  0.62043600  1
  C  C36  1  0.84553400  0.65910900  0.22319600  1
  C  C37  1  0.34553400  0.34089100  0.27680400  1
  C  C38  1  0.15446600  0.34089100  0.77680400  1
  C  C39  1  0.65446600  0.65910900  0.72319600  1
  C  C40  1  0.00286600  0.32910500  0.08328800  1
  C  C41  1  0.50286600  0.67089500  0.41671200  1
  C  C42  1  0.99713400  0.67089500  0.91671200  1
  C  C43  1  0.49713400  0.32910500  0.58328800  1
  C  C44  1  0.07329200  0.51790500  0.36617000  1
  C  C45  1  0.57329200  0.48209500  0.13383000  1
  C  C46  1  0.92670800  0.48209500  0.63383000  1
  C  C47  1  0.42670800  0.51790500  0.86617000  1
  C  C48  1  0.94745100  0.13198900  0.30044100  1
  C  C49  1  0.44745100  0.86801100  0.19955900  1
  C  C50  1  0.05254900  0.86801100  0.69955900  1
  C  C51  1  0.55254900  0.13198900  0.80044100  1
