# generated using pymatgen
data_Cu2Ni4C65
_symmetry_space_group_name_H-M   'P 1'
_cell_length_a   10.79830100
_cell_length_b   10.89189000
_cell_length_c   16.60952831
_cell_angle_alpha   52.48123209
_cell_angle_beta   90.00000000
_cell_angle_gamma   90.00000000
_symmetry_Int_Tables_number   1
_chemical_formula_structural   Cu2Ni4C65
_chemical_formula_sum   'Cu4 Ni8 C130'
_cell_volume   1549.43525656
_cell_formula_units_Z   2
loop_
 _symmetry_equiv_pos_site_id
 _symmetry_equiv_pos_as_xyz
  1  'x, y, z'
loop_
 _atom_site_type_symbol
 _atom_site_label
 _atom_site_symmetry_multiplicity
 _atom_site_fract_x
 _atom_site_fract_y
 _atom_site_fract_z
 _atom_site_occupancy
  C  C0  1  0.00000000  0.00000000  0.00000000  1
  C  C1  1  0.50000000  0.00000000  0.50000000  1
  C  C2  1  0.55705900  0.49625600  0.36290100  1
  C  C3  1  0.56481600  0.97179800  0.91984700  1
  C  C4  1  0.94929000  0.46746000  0.30379300  1
  C  C5  1  0.44605500  0.38757200  0.59535300  1
  C  C6  1  0.85282400  0.41450500  0.06483900  1
  C  C7  1  0.94605500  0.61242800  0.90464700  1
  C  C8  1  0.98129100  0.87442500  0.37043600  1
  C  C9  1  0.87540500  0.91765000  0.70125900  1
  C  C10  1  0.35282400  0.58549500  0.43516100  1
  C  C11  1  0.06895100  0.21318100  0.80568100  1
  C  C12  1  0.36464900  0.56715600  0.29542100  1
  C  C13  1  0.44929000  0.53254000  0.19620700  1
  C  C14  1  0.52282200  0.86687400  0.30152500  1
  C  C15  1  0.67681400  0.21188400  0.64861400  1
  C  C16  1  0.52720100  0.17757900  0.90060000  1
  C  C17  1  0.06481600  0.02820200  0.58015300  1
  C  C18  1  0.34822300  0.00528700  0.17896200  1
  C  C19  1  0.48129100  0.12557500  0.12956400  1
  C  C20  1  0.32019800  0.76405400  0.20373600  1
  C  C21  1  0.51870900  0.87442500  0.87043600  1
  C  C22  1  0.40186600  0.79530300  0.68556000  1
  C  C23  1  0.05394500  0.38757200  0.09535300  1
  C  C24  1  0.02282200  0.13312600  0.19847500  1
  C  C25  1  0.55938100  0.62007800  0.09671400  1
  C  C26  1  0.94061900  0.62007800  0.59671400  1
  C  C27  1  0.24327400  0.35715100  0.73744400  1
  C  C28  1  0.43104900  0.21318100  0.30568100  1
  C  C29  1  0.97279900  0.17757900  0.40060000  1
  C  C30  1  0.61086400  0.50960200  0.22401400  1
  C  C31  1  0.65177700  0.99471300  0.82103800  1
  C  C32  1  0.25369800  0.26477700  0.17805500  1
  C  C33  1  0.23282300  0.46874900  0.60384600  1
  C  C34  1  0.13535100  0.56715600  0.79542100  1
  C  C35  1  0.94294100  0.49625600  0.86290100  1
  C  C36  1  0.48634500  0.94213600  0.68182500  1
  C  C37  1  0.78474800  0.34415100  0.63657500  1
  C  C38  1  0.26717700  0.46874900  0.10384600  1
  C  C39  1  0.75672600  0.64284900  0.26255600  1
  C  C40  1  0.55071000  0.46746000  0.80379300  1
  C  C41  1  0.84822300  0.99471300  0.32103800  1
  C  C42  1  0.17681400  0.78811600  0.85138600  1
  C  C43  1  0.98634500  0.05786400  0.81817500  1
  C  C44  1  0.05938100  0.37992200  0.40328600  1
  C  C45  1  0.86785100  0.79683700  0.63305900  1
  C  C46  1  0.09813400  0.79530300  0.18556000  1
  C  C47  1  0.47717800  0.13312600  0.69847500  1
  C  C48  1  0.56895100  0.78681900  0.69431900  1
  C  C49  1  0.93518400  0.97179800  0.41984700  1
  C  C50  1  0.74630200  0.73522300  0.82194500  1
  C  C51  1  0.71525200  0.34415100  0.13657500  1
  C  C52  1  0.44061900  0.37992200  0.90328600  1
  C  C53  1  0.73282300  0.53125100  0.89615400  1
  C  C54  1  0.21525200  0.65584900  0.36342500  1
  C  C55  1  0.38913600  0.49039800  0.77598600  1
  C  C56  1  0.36785100  0.20316300  0.86694100  1
  C  C57  1  0.93104900  0.78681900  0.19431900  1
  C  C58  1  0.28474800  0.65584900  0.86342500  1
  C  C59  1  0.88913600  0.50960200  0.72401400  1
  C  C60  1  0.76717700  0.53125100  0.39615400  1
  C  C61  1  0.17980200  0.76405400  0.70373600  1
  C  C62  1  0.51365500  0.05786400  0.31817500  1
  C  C63  1  0.37540500  0.08235000  0.79874100  1
  C  C64  1  0.90186600  0.20469700  0.81444000  1
  C  C65  1  0.86464900  0.43284400  0.20457900  1
  C  C66  1  0.05071000  0.53254000  0.69620700  1
  C  C67  1  0.59813400  0.20469700  0.31444000  1
  C  C68  1  0.47279900  0.82242100  0.09940000  1
  C  C69  1  0.82318600  0.21188400  0.14861400  1
  C  C70  1  0.01365500  0.94213600  0.18182500  1
  C  C71  1  0.32318600  0.78811600  0.35138600  1
  C  C72  1  0.15177700  0.00528700  0.67896200  1
  C  C73  1  0.13214900  0.20316300  0.36694100  1
  C  C74  1  0.14717600  0.58549500  0.93516100  1
  C  C75  1  0.24630200  0.26477700  0.67805500  1
  C  C76  1  0.67980200  0.23594600  0.79626400  1
  C  C77  1  0.63214900  0.79683700  0.13305900  1
  C  C78  1  0.01870900  0.12557500  0.62956400  1
  C  C79  1  0.02720100  0.82242100  0.59940000  1
  C  C80  1  0.62459500  0.91765000  0.20125900  1
  C  C81  1  0.44294100  0.50374400  0.63709900  1
  C  C82  1  0.12459500  0.08235000  0.29874100  1
  C  C83  1  0.05705900  0.50374400  0.13709900  1
  C  C84  1  0.43518400  0.02820200  0.08015300  1
  C  C85  1  0.97717800  0.86687400  0.80152500  1
  C  C86  1  0.63535100  0.43284400  0.70457900  1
  C  C87  1  0.25672600  0.35715100  0.23744400  1
  C  C88  1  0.82019800  0.23594600  0.29626400  1
  C  C89  1  0.11086400  0.49039800  0.27598600  1
  C  C90  1  0.64717600  0.41450500  0.56483900  1
  C  C91  1  0.55394500  0.61242800  0.40464700  1
  C  C92  1  0.74327400  0.64284900  0.76255600  1
  C  C93  1  0.75369800  0.73522300  0.32194500  1
  C  C94  1  0.77697500  0.63347400  0.82846400  1
  C  C95  1  0.13005500  0.68334100  0.77548600  1
  C  C96  1  0.36994500  0.68334100  0.27548600  1
  C  C97  1  0.86994500  0.31665900  0.22451400  1
  C  C98  1  0.01231600  0.86208100  0.16286300  1
  C  C99  1  0.72302500  0.63347400  0.32846400  1
  C  C100  1  0.63005500  0.31665900  0.72451400  1
  C  C101  1  0.22302500  0.36652600  0.17153600  1
  C  C102  1  0.04047200  0.25783300  0.34236300  1
  C  C103  1  0.95952800  0.74216700  0.65763700  1
  C  C104  1  0.05770200  0.01655600  0.65034600  1
  C  C105  1  0.27697500  0.36652600  0.67153600  1
  C  C106  1  0.02864100  0.11286900  0.27176300  1
  C  C107  1  0.98768400  0.13791900  0.83713700  1
  C  C108  1  0.54047200  0.74216700  0.15763700  1
  C  C109  1  0.31467300  0.67954600  0.36098400  1
  C  C110  1  0.52864100  0.88713100  0.22823700  1
  C  C111  1  0.51231600  0.13791900  0.33713700  1
  C  C112  1  0.41600800  0.39108500  0.65702300  1
  C  C113  1  0.03934500  0.40898700  0.32864200  1
  C  C114  1  0.91600800  0.60891500  0.84297700  1
  C  C115  1  0.55770200  0.98344400  0.84965400  1
  C  C116  1  0.08399200  0.39108500  0.15702300  1
  C  C117  1  0.53934500  0.59101300  0.17135800  1
  C  C118  1  0.58399200  0.60891500  0.34297700  1
  C  C119  1  0.68532700  0.32045400  0.63901600  1
  C  C120  1  0.18532700  0.67954600  0.86098400  1
  C  C121  1  0.94229800  0.98344400  0.34965400  1
  C  C122  1  0.96065500  0.59101300  0.67135800  1
  C  C123  1  0.45952800  0.25783300  0.84236300  1
  C  C124  1  0.97135900  0.88713100  0.72823700  1
  C  C125  1  0.44229800  0.01655600  0.15034600  1
  C  C126  1  0.81467300  0.32045400  0.13901600  1
  C  C127  1  0.48768400  0.86208100  0.66286300  1
  C  C128  1  0.47135900  0.11286900  0.77176300  1
  C  C129  1  0.46065500  0.40898700  0.82864200  1
  Ni  Ni130  1  0.22560600  0.87382200  0.99339000  1
  Ni  Ni131  1  0.13408500  0.23843300  0.98197100  1
  Ni  Ni132  1  0.63408500  0.76156700  0.51802900  1
  Ni  Ni133  1  0.72560600  0.12617800  0.50661000  1
  Ni  Ni134  1  0.27439400  0.87382200  0.49339000  1
  Ni  Ni135  1  0.86591500  0.76156700  0.01802900  1
  Ni  Ni136  1  0.77439400  0.12617800  0.00661000  1
  Ni  Ni137  1  0.36591500  0.23843300  0.48197100  1
  Cu  Cu138  1  0.00589700  0.26983800  0.24859300  1
  Cu  Cu139  1  0.49410300  0.26983800  0.74859300  1
  Cu  Cu140  1  0.50589700  0.73016200  0.25140700  1
  Cu  Cu141  1  0.99410300  0.73016200  0.75140700  1
