# generated using pymatgen
data_Cu5NiC2
_symmetry_space_group_name_H-M   'P 1'
_cell_length_a   3.99819300
_cell_length_b   7.91159000
_cell_length_c   11.35508600
_cell_angle_alpha   90.00000000
_cell_angle_beta   90.00000000
_cell_angle_gamma   90.00000000
_symmetry_Int_Tables_number   1
_chemical_formula_structural   Cu5NiC2
_chemical_formula_sum   'Cu10 Ni2 C4'
_cell_volume   359.18480432
_cell_formula_units_Z   2
loop_
 _symmetry_equiv_pos_site_id
 _symmetry_equiv_pos_as_xyz
  1  'x, y, z'
loop_
 _atom_site_type_symbol
 _atom_site_label
 _atom_site_symmetry_multiplicity
 _atom_site_fract_x
 _atom_site_fract_y
 _atom_site_fract_z
 _atom_site_occupancy
  C  C0  1  0.50000000  0.43361100  0.16964500  1
  C  C1  1  0.50000000  0.06638900  0.66964500  1
  C  C2  1  0.50000000  0.56638900  0.83035500  1
  C  C3  1  0.50000000  0.93361100  0.33035500  1
  Ni  Ni4  1  0.00000000  0.50000000  0.50000000  1
  Ni  Ni5  1  0.00000000  0.00000000  0.00000000  1
  Cu  Cu6  1  0.00000000  0.34974300  0.70157800  1
  Cu  Cu7  1  0.00000000  0.15025700  0.20157800  1
  Cu  Cu8  1  0.00000000  0.00000000  0.50000000  1
  Cu  Cu9  1  0.50000000  0.81352000  0.07461500  1
  Cu  Cu10  1  0.00000000  0.50000000  0.00000000  1
  Cu  Cu11  1  0.00000000  0.65025700  0.29842200  1
  Cu  Cu12  1  0.50000000  0.31352000  0.42538500  1
  Cu  Cu13  1  0.50000000  0.68648000  0.57461500  1
  Cu  Cu14  1  0.50000000  0.18648000  0.92538500  1
  Cu  Cu15  1  0.00000000  0.84974300  0.79842200  1
