# generated using pymatgen
data_Cu9Ni2C5
_symmetry_space_group_name_H-M   'P 1'
_cell_length_a   16.59680100
_cell_length_b   10.17736500
_cell_length_c   13.51399905
_cell_angle_alpha   58.34435154
_cell_angle_beta   90.00000000
_cell_angle_gamma   90.00000000
_symmetry_Int_Tables_number   1
_chemical_formula_structural   Cu9Ni2C5
_chemical_formula_sum   'Cu36 Ni8 C20'
_cell_volume   1943.05109835
_cell_formula_units_Z   4
loop_
 _symmetry_equiv_pos_site_id
 _symmetry_equiv_pos_as_xyz
  1  'x, y, z'
loop_
 _atom_site_type_symbol
 _atom_site_label
 _atom_site_symmetry_multiplicity
 _atom_site_fract_x
 _atom_site_fract_y
 _atom_site_fract_z
 _atom_site_occupancy
  C  C0  1  0.53979500  0.66074400  0.96571000  1
  C  C1  1  0.44217100  0.85730500  0.68813800  1
  C  C2  1  0.18523900  0.71403200  0.44421000  1
  C  C3  1  0.55505800  0.50770600  0.73769700  1
  C  C4  1  0.83831100  0.48685800  0.72088500  1
  C  C5  1  0.31476100  0.71403200  0.94421000  1
  C  C6  1  0.96020500  0.66074400  0.46571000  1
  C  C7  1  0.94494200  0.50770600  0.23769700  1
  C  C8  1  0.66168900  0.48685800  0.22088500  1
  C  C9  1  0.05782900  0.85730500  0.18813800  1
  C  C10  1  0.44494200  0.49229400  0.26230300  1
  C  C11  1  0.46020500  0.33925600  0.03429000  1
  C  C12  1  0.03979500  0.33925600  0.53429000  1
  C  C13  1  0.94217100  0.14269500  0.81186200  1
  C  C14  1  0.81476100  0.28596800  0.55579000  1
  C  C15  1  0.55782900  0.14269500  0.31186200  1
  C  C16  1  0.16168900  0.51314200  0.27911500  1
  C  C17  1  0.33831100  0.51314200  0.77911500  1
  C  C18  1  0.68523900  0.28596800  0.05579000  1
  C  C19  1  0.05505800  0.49229400  0.76230300  1
  Ni  Ni20  1  0.03041700  0.57296200  0.33096000  1
  Ni  Ni21  1  0.46958300  0.57296200  0.83096000  1
  Ni  Ni22  1  0.96958300  0.42703800  0.66904000  1
  Ni  Ni23  1  0.53041700  0.42703800  0.16904000  1
  Ni  Ni24  1  0.91214700  0.37156600  0.61975000  1
  Ni  Ni25  1  0.41214700  0.62843400  0.88025000  1
  Ni  Ni26  1  0.58785300  0.37156600  0.11975000  1
  Ni  Ni27  1  0.08785300  0.62843400  0.38025000  1
  Cu  Cu28  1  0.06795100  0.79799100  0.55813600  1
  Cu  Cu29  1  0.19386500  0.59882900  0.85807500  1
  Cu  Cu30  1  0.17813700  0.00454300  0.24752800  1
  Cu  Cu31  1  0.93185700  0.58951900  0.84519500  1
  Cu  Cu32  1  0.56814300  0.58951900  0.34519500  1
  Cu  Cu33  1  0.56795100  0.20200900  0.94186400  1
  Cu  Cu34  1  0.32759700  0.22029600  0.96787800  1
  Cu  Cu35  1  0.81773300  0.19757900  0.93696000  1
  Cu  Cu36  1  0.19880400  0.42214400  0.67027200  1
  Cu  Cu37  1  0.06315300  0.03657700  0.73518800  1
  Cu  Cu38  1  0.05717900  0.18202300  0.95824100  1
  Cu  Cu39  1  0.55717900  0.81797700  0.54175900  1
  Cu  Cu40  1  0.31773300  0.80242100  0.56304000  1
  Cu  Cu41  1  0.69880400  0.57785600  0.82972800  1
  Cu  Cu42  1  0.82186300  0.99545700  0.75247200  1
  Cu  Cu43  1  0.17240300  0.22029600  0.46787800  1
  Cu  Cu44  1  0.67813700  0.99545700  0.25247200  1
  Cu  Cu45  1  0.82759700  0.77970400  0.53212200  1
  Cu  Cu46  1  0.93204900  0.20200900  0.44186400  1
  Cu  Cu47  1  0.56315300  0.96342300  0.76481200  1
  Cu  Cu48  1  0.06814300  0.41048100  0.15480500  1
  Cu  Cu49  1  0.30613500  0.59882900  0.35807500  1
  Cu  Cu50  1  0.30119600  0.42214400  0.17027200  1
  Cu  Cu51  1  0.80119600  0.57785600  0.32972800  1
  Cu  Cu52  1  0.43204900  0.79799100  0.05813600  1
  Cu  Cu53  1  0.93684700  0.96342300  0.26481200  1
  Cu  Cu54  1  0.43684700  0.03657700  0.23518800  1
  Cu  Cu55  1  0.80613500  0.40117100  0.14192500  1
  Cu  Cu56  1  0.32186300  0.00454300  0.74752800  1
  Cu  Cu57  1  0.44282100  0.18202300  0.45824100  1
  Cu  Cu58  1  0.18226700  0.80242100  0.06304000  1
  Cu  Cu59  1  0.68226700  0.19757900  0.43696000  1
  Cu  Cu60  1  0.69386500  0.40117100  0.64192500  1
  Cu  Cu61  1  0.94282100  0.81797700  0.04175900  1
  Cu  Cu62  1  0.67240300  0.77970400  0.03212200  1
  Cu  Cu63  1  0.43185700  0.41048100  0.65480500  1
