# generated using pymatgen
data_Cu2Ni2C11
_symmetry_space_group_name_H-M   'P 1'
_cell_length_a   6.32778604
_cell_length_b   6.32778604
_cell_length_c   11.34068800
_cell_angle_alpha   90.00000000
_cell_angle_beta   90.00000000
_cell_angle_gamma   108.27167518
_symmetry_Int_Tables_number   1
_chemical_formula_structural   Cu2Ni2C11
_chemical_formula_sum   'Cu4 Ni4 C22'
_cell_volume   431.19607795
_cell_formula_units_Z   2
loop_
 _symmetry_equiv_pos_site_id
 _symmetry_equiv_pos_as_xyz
  1  'x, y, z'
loop_
 _atom_site_type_symbol
 _atom_site_label
 _atom_site_symmetry_multiplicity
 _atom_site_fract_x
 _atom_site_fract_y
 _atom_site_fract_z
 _atom_site_occupancy
  C  C0  1  0.41315400  0.41315400  0.50000000  1
  C  C1  1  0.31485300  0.68514700  0.25000000  1
  C  C2  1  0.68514700  0.31485300  0.75000000  1
  C  C3  1  0.58684600  0.58684600  0.00000000  1
  Ni  Ni4  1  0.39156100  0.20128700  0.27296000  1
  Ni  Ni5  1  0.20128700  0.39156100  0.72704000  1
  Ni  Ni6  1  0.79871300  0.60843900  0.22704000  1
  Ni  Ni7  1  0.60843900  0.79871300  0.77296000  1
  Cu  Cu8  1  0.93447100  0.27887700  0.02828300  1
  Cu  Cu9  1  0.72112300  0.06552900  0.47171700  1
  Cu  Cu10  1  0.06552900  0.72112300  0.52828300  1
  Cu  Cu11  1  0.27887700  0.93447100  0.97171700  1
  C  C12  1  0.65923600  0.34076400  0.25000000  1
  C  C13  1  0.87721100  0.62938400  0.08632900  1
  C  C14  1  0.75911200  0.63381200  0.75924300  1
  C  C15  1  0.41871500  0.70487900  0.46613800  1
  C  C16  1  0.62938400  0.87721100  0.91367100  1
  C  C17  1  0.01833000  0.67106100  0.31233600  1
  C  C18  1  0.12278900  0.37061600  0.58632900  1
  C  C19  1  0.67106100  0.01833000  0.68766400  1
  C  C20  1  0.34076400  0.65923600  0.75000000  1
  C  C21  1  0.37061600  0.12278900  0.41367100  1
  C  C22  1  0.58128500  0.29512100  0.96613800  1
  C  C23  1  0.29512100  0.58128500  0.03386200  1
  C  C24  1  0.36618800  0.24088800  0.74075700  1
  C  C25  1  0.98167000  0.32893900  0.81233600  1
  C  C26  1  0.70487900  0.41871500  0.53386200  1
  C  C27  1  0.24088800  0.36618800  0.25924300  1
  C  C28  1  0.63381200  0.75911200  0.24075700  1
  C  C29  1  0.32893900  0.98167000  0.18766400  1
