# generated using pymatgen
data_Cu2NiC4
_symmetry_space_group_name_H-M   'P 1'
_cell_length_a   5.88726968
_cell_length_b   5.78388828
_cell_length_c   35.16768936
_cell_angle_alpha   60.43584205
_cell_angle_beta   60.28755287
_cell_angle_gamma   60.57920881
_symmetry_Int_Tables_number   1
_chemical_formula_structural   Cu2NiC4
_chemical_formula_sum   'Cu24 Ni12 C48'
_cell_volume   855.06638513
_cell_formula_units_Z   12
loop_
 _symmetry_equiv_pos_site_id
 _symmetry_equiv_pos_as_xyz
  1  'x, y, z'
loop_
 _atom_site_type_symbol
 _atom_site_label
 _atom_site_symmetry_multiplicity
 _atom_site_fract_x
 _atom_site_fract_y
 _atom_site_fract_z
 _atom_site_occupancy
  Ni  Ni0  1  0.13511500  0.12161400  0.02027600  1
  Ni  Ni1  1  0.00463900  0.49785800  0.08327400  1
  Ni  Ni2  1  0.13617100  0.12107300  0.18694700  1
  Ni  Ni3  1  0.00238800  0.50236600  0.24881300  1
  Ni  Ni4  1  0.00115900  0.50066000  0.41625400  1
  Ni  Ni5  1  0.50199700  0.50327700  0.33190800  1
  Ni  Ni6  1  0.00015400  0.49999400  0.58330900  1
  Ni  Ni7  1  0.50042400  0.50060800  0.49972700  1
  Ni  Ni8  1  0.99931500  0.49940300  0.75031300  1
  Ni  Ni9  1  0.49996100  0.49944000  0.66686000  1
  Ni  Ni10  1  0.49930800  0.49709600  0.83441600  1
  Ni  Ni11  1  0.00116200  0.49645500  0.91765500  1
  Cu  Cu12  1  0.49653900  0.49678400  0.00164900  1
  Cu  Cu13  1  0.49744800  0.50177700  0.08359000  1
  Cu  Cu14  1  0.49794800  0.50246600  0.16618700  1
  Cu  Cu15  1  0.13377600  0.11721700  0.35529900  1
  Cu  Cu16  1  0.49744800  0.99923200  0.08359000  1
  Cu  Cu17  1  0.49932300  0.49988900  0.24857000  1
  Cu  Cu18  1  0.13348600  0.11643400  0.52227400  1
  Cu  Cu19  1  0.86011800  0.88156800  0.14612400  1
  Cu  Cu20  1  0.49932300  0.00936800  0.24857000  1
  Cu  Cu21  1  0.50079200  0.50027200  0.41618500  1
  Cu  Cu22  1  0.86696100  0.88404200  0.31082600  1
  Cu  Cu23  1  0.13310400  0.11567500  0.68925700  1
  Cu  Cu24  1  0.50079200  0.00183000  0.41618500  1
  Cu  Cu25  1  0.50013500  0.49999000  0.58330700  1
  Cu  Cu26  1  0.49974200  0.99843800  0.75042700  1
  Cu  Cu27  1  0.86742300  0.88414800  0.47738100  1
  Cu  Cu28  1  0.13157400  0.11661600  0.85586600  1
  Cu  Cu29  1  0.50013500  0.00003300  0.58330700  1
  Cu  Cu30  1  0.49974200  0.49925800  0.75042700  1
  Cu  Cu31  1  0.86674300  0.88354800  0.64436000  1
  Cu  Cu32  1  0.49855700  0.50107200  0.91808700  1
  Cu  Cu33  1  0.86664400  0.88198800  0.81156300  1
  Cu  Cu34  1  0.49855700  0.99185400  0.91808700  1
  Cu  Cu35  1  0.85945900  0.87966200  0.98020300  1
  C  C36  1  0.28051100  0.24931700  0.04313500  1
  C  C37  1  0.27940600  0.25403200  0.11875500  1
  C  C38  1  0.28051100  0.71135900  0.04313500  1
  C  C39  1  0.71134900  0.26137700  0.04431600  1
  C  C40  1  0.27637800  0.74065300  0.12371900  1
  C  C41  1  0.28331700  0.25790300  0.20796900  1
  C  C42  1  0.72705000  0.74599900  0.04682600  1
  C  C43  1  0.72374300  0.28305200  0.12390400  1
  C  C44  1  0.28331700  0.71096700  0.20796900  1
  C  C45  1  0.27211900  0.25382700  0.28670500  1
  C  C46  1  0.71507900  0.26795500  0.20816800  1
  C  C47  1  0.72374300  0.74977700  0.12390400  1
  C  C48  1  0.27132400  0.24205800  0.37734500  1
  C  C49  1  0.27837800  0.75527900  0.28517700  1
  C  C50  1  0.72320400  0.75144400  0.21231800  1
  C  C51  1  0.73406700  0.27948100  0.28652000  1
  C  C52  1  0.27497800  0.25142800  0.45369400  1
  C  C53  1  0.27132400  0.72254800  0.37734500  1
  C  C54  1  0.72516600  0.25305700  0.37812000  1
  C  C55  1  0.73406700  0.76733100  0.28652000  1
  C  C56  1  0.26951600  0.23998000  0.54476800  1
  C  C57  1  0.27695700  0.75016900  0.45378500  1
  C  C58  1  0.73152400  0.27874200  0.45472800  1
  C  C59  1  0.72614300  0.75009300  0.37894500  1
  C  C60  1  0.27469500  0.25045100  0.62073400  1
  C  C61  1  0.26951600  0.72189300  0.54476800  1
  C  C62  1  0.72413400  0.25112800  0.54560100  1
  C  C63  1  0.73152400  0.76136800  0.45472800  1
  C  C64  1  0.26905500  0.23862500  0.71187300  1
  C  C65  1  0.27613600  0.74891200  0.62100600  1
  C  C66  1  0.72555600  0.74954500  0.54589300  1
  C  C67  1  0.27376800  0.24997500  0.78771400  1
  C  C68  1  0.73080100  0.27808600  0.62183600  1
  C  C69  1  0.26905500  0.72108300  0.71187300  1
  C  C70  1  0.72361300  0.24990700  0.71276200  1
  C  C71  1  0.73080100  0.76009600  0.62183600  1
  C  C72  1  0.26750600  0.23300900  0.87955100  1
  C  C73  1  0.27549800  0.74716500  0.78836200  1
  C  C74  1  0.72973000  0.27682300  0.78920200  1
  C  C75  1  0.72519200  0.74858000  0.71294100  1
  C  C76  1  0.26750600  0.72218400  0.87955100  1
  C  C77  1  0.28114100  0.25230700  0.95237400  1
  C  C78  1  0.72171000  0.24609700  0.88101600  1
  C  C79  1  0.72973000  0.75823500  0.78920200  1
  C  C80  1  0.27569200  0.73463000  0.95917500  1
  C  C81  1  0.72851700  0.74398700  0.88058500  1
  C  C82  1  0.71919500  0.28182600  0.95928700  1
  C  C83  1  0.71919500  0.74325700  0.95928700  1
