# generated using pymatgen
data_CuNi2C19
_symmetry_space_group_name_H-M   'P 1'
_cell_length_a   10.13516300
_cell_length_b   6.57410600
_cell_length_c   16.76835577
_cell_angle_alpha   86.13969145
_cell_angle_beta   90.00000000
_cell_angle_gamma   90.00000000
_symmetry_Int_Tables_number   1
_chemical_formula_structural   CuNi2C19
_chemical_formula_sum   'Cu4 Ni8 C76'
_cell_volume   1114.73453024
_cell_formula_units_Z   4
loop_
 _symmetry_equiv_pos_site_id
 _symmetry_equiv_pos_as_xyz
  1  'x, y, z'
loop_
 _atom_site_type_symbol
 _atom_site_label
 _atom_site_symmetry_multiplicity
 _atom_site_fract_x
 _atom_site_fract_y
 _atom_site_fract_z
 _atom_site_occupancy
  C  C0  1  0.42971600  0.74487000  0.02888000  1
  C  C1  1  0.57028400  0.25513000  0.97112000  1
  C  C2  1  0.92971600  0.25513000  0.47112000  1
  C  C3  1  0.07028400  0.74487000  0.52888000  1
  C  C4  1  0.61301000  0.75516300  0.23099300  1
  C  C5  1  0.06100500  0.27936200  0.75773700  1
  C  C6  1  0.43739400  0.80459100  0.22429100  1
  C  C7  1  0.08323100  0.36473600  0.65464600  1
  C  C8  1  0.36428300  0.66228900  0.45964400  1
  C  C9  1  0.83942300  0.66038000  0.95526100  1
  C  C10  1  0.16449100  0.13413500  0.69324000  1
  C  C11  1  0.13571700  0.66228900  0.95964400  1
  C  C12  1  0.93739400  0.19540900  0.27570900  1
  C  C13  1  0.42543600  0.19073200  0.47325500  1
  C  C14  1  0.82252600  0.30721800  0.14582200  1
  C  C15  1  0.93899500  0.72063800  0.24226300  1
  C  C16  1  0.07456400  0.19073200  0.97325500  1
  C  C17  1  0.38699000  0.24483700  0.76900700  1
  C  C18  1  0.88699000  0.75516300  0.73099300  1
  C  C19  1  0.86428300  0.33771100  0.04035600  1
  C  C20  1  0.58323100  0.63526400  0.84535400  1
  C  C21  1  0.11301000  0.24483700  0.26900700  1
  C  C22  1  0.23108200  0.10506300  0.01338700  1
  C  C23  1  0.33550900  0.13413500  0.19324000  1
  C  C24  1  0.66057700  0.66038000  0.45526100  1
  C  C25  1  0.92543600  0.80926800  0.02674500  1
  C  C26  1  0.43899500  0.27936200  0.25773700  1
  C  C27  1  0.03851100  0.08122500  0.20041700  1
  C  C28  1  0.95755800  0.47216000  0.11313800  1
  C  C29  1  0.33942300  0.33962000  0.54473900  1
  C  C30  1  0.66449100  0.86586500  0.80676000  1
  C  C31  1  0.57456400  0.80926800  0.52674500  1
  C  C32  1  0.54244200  0.47216000  0.61313800  1
  C  C33  1  0.67747400  0.30721800  0.64582200  1
  C  C34  1  0.53851100  0.91877500  0.29958300  1
  C  C35  1  0.96148900  0.91877500  0.79958300  1
  C  C36  1  0.46148900  0.08122500  0.70041700  1
  C  C37  1  0.73108200  0.89493700  0.48661300  1
  C  C38  1  0.91676900  0.63526400  0.34535400  1
  C  C39  1  0.41676900  0.36473600  0.15464600  1
  C  C40  1  0.83550900  0.86586500  0.30676000  1
  C  C41  1  0.04244200  0.52784000  0.88686200  1
  C  C42  1  0.17747400  0.69278200  0.85417800  1
  C  C43  1  0.56100500  0.72063800  0.74226300  1
  C  C44  1  0.76891800  0.89493700  0.98661300  1
  C  C45  1  0.63571700  0.33771100  0.54035600  1
  C  C46  1  0.26891800  0.10506300  0.51338700  1
  C  C47  1  0.16057700  0.33962000  0.04473900  1
  C  C48  1  0.06260600  0.80459100  0.72429100  1
  C  C49  1  0.56260600  0.19540900  0.77570900  1
  C  C50  1  0.32252600  0.69278200  0.35417800  1
  C  C51  1  0.45755800  0.52784000  0.38686200  1
  C  C52  1  0.32888700  0.23911700  0.49529800  1
  C  C53  1  0.07666900  0.23081700  0.69705900  1
  C  C54  1  0.92333100  0.76918300  0.30294100  1
  C  C55  1  0.67111300  0.76088300  0.50470200  1
  C  C56  1  0.46539900  0.13295200  0.76132800  1
  C  C57  1  0.82888700  0.76088300  0.00470200  1
  C  C58  1  0.03460100  0.13295200  0.26132800  1
  C  C59  1  0.57666900  0.76918300  0.80294100  1
  C  C60  1  0.53460100  0.86704800  0.23867200  1
  C  C61  1  0.36038100  0.58863700  0.40266900  1
  C  C62  1  0.63961900  0.41136300  0.59733100  1
  C  C63  1  0.86038100  0.41136300  0.09733100  1
  C  C64  1  0.13961900  0.58863700  0.90266900  1
  C  C65  1  0.42333100  0.23081700  0.19705900  1
  C  C66  1  0.96539900  0.86704800  0.73867200  1
  C  C67  1  0.17111300  0.23911700  0.99529800  1
  Ni  Ni68  1  0.25287200  0.37815300  0.91349200  1
  Ni  Ni69  1  0.06658800  0.91305600  0.32878400  1
  Ni  Ni70  1  0.43341200  0.91305600  0.82878400  1
  Ni  Ni71  1  0.24712800  0.37815300  0.41349200  1
  Ni  Ni72  1  0.56658800  0.08694400  0.17121600  1
  Ni  Ni73  1  0.93341200  0.08694400  0.67121600  1
  Ni  Ni74  1  0.75287200  0.62184700  0.58650800  1
  Ni  Ni75  1  0.74712800  0.62184700  0.08650800  1
  Cu  Cu76  1  0.19415000  0.71965300  0.12889800  1
  Cu  Cu77  1  0.30585000  0.71965300  0.62889800  1
  Cu  Cu78  1  0.80585000  0.28034700  0.87110200  1
  Cu  Cu79  1  0.69415000  0.28034700  0.37110200  1
  C  C80  1  0.45755600  0.97914600  0.91325300  1
  C  C81  1  0.38025500  0.46368200  0.94649300  1
  C  C82  1  0.11974500  0.46368200  0.44649300  1
  C  C83  1  0.54244400  0.02085400  0.08674700  1
  C  C84  1  0.61974500  0.53631800  0.05350700  1
  C  C85  1  0.95755600  0.02085400  0.58674700  1
  C  C86  1  0.04244400  0.97914600  0.41325300  1
  C  C87  1  0.88025500  0.53631800  0.55350700  1
