# generated using pymatgen
data_Cu4NiC
_symmetry_space_group_name_H-M   'P 1'
_cell_length_a   10.73213900
_cell_length_b   7.55426600
_cell_length_c   11.98165372
_cell_angle_alpha   54.00889737
_cell_angle_beta   90.00000000
_cell_angle_gamma   90.00000000
_symmetry_Int_Tables_number   1
_chemical_formula_structural   Cu4NiC
_chemical_formula_sum   'Cu32 Ni8 C8'
_cell_volume   785.96274554
_cell_formula_units_Z   8
loop_
 _symmetry_equiv_pos_site_id
 _symmetry_equiv_pos_as_xyz
  1  'x, y, z'
loop_
 _atom_site_type_symbol
 _atom_site_label
 _atom_site_symmetry_multiplicity
 _atom_site_fract_x
 _atom_site_fract_y
 _atom_site_fract_z
 _atom_site_occupancy
  C  C0  1  0.67278700  0.53146900  0.83760600  1
  C  C1  1  0.17278700  0.46853100  0.66239400  1
  C  C2  1  0.32721300  0.46853100  0.16239400  1
  C  C3  1  0.82721300  0.53146900  0.33760600  1
  C  C4  1  0.02196200  0.09568900  0.18727500  1
  C  C5  1  0.52196200  0.90431100  0.31272500  1
  C  C6  1  0.47803800  0.09568900  0.68727500  1
  C  C7  1  0.97803800  0.90431100  0.81272500  1
  Ni  Ni8  1  0.53000100  0.47424900  0.80976000  1
  Ni  Ni9  1  0.46999900  0.52575100  0.19024000  1
  Ni  Ni10  1  0.25476000  0.71173700  0.07457500  1
  Ni  Ni11  1  0.96999900  0.47424900  0.30976000  1
  Ni  Ni12  1  0.24524000  0.71173700  0.57457500  1
  Ni  Ni13  1  0.03000100  0.52575100  0.69024000  1
  Ni  Ni14  1  0.75476000  0.28826300  0.42542500  1
  Ni  Ni15  1  0.74524000  0.28826300  0.92542500  1
  Cu  Cu16  1  0.01315500  0.21947700  0.99658500  1
  Cu  Cu17  1  0.63798800  0.55340000  0.98028200  1
  Cu  Cu18  1  0.24425400  0.33585600  0.83388400  1
  Cu  Cu19  1  0.96983100  0.02841700  0.62152300  1
  Cu  Cu20  1  0.48684500  0.21947700  0.49658500  1
  Cu  Cu21  1  0.36201200  0.44660000  0.01971800  1
  Cu  Cu22  1  0.53016900  0.02841700  0.12152300  1
  Cu  Cu23  1  0.34695200  0.30954800  0.64907700  1
  Cu  Cu24  1  0.88773400  0.88708400  0.22339900  1
  Cu  Cu25  1  0.25574600  0.33585600  0.33388400  1
  Cu  Cu26  1  0.46983100  0.97158300  0.87847700  1
  Cu  Cu27  1  0.75574600  0.66414400  0.16611600  1
  Cu  Cu28  1  0.60210600  0.29461400  0.66299000  1
  Cu  Cu29  1  0.51315500  0.78052300  0.50341500  1
  Cu  Cu30  1  0.38773400  0.11291600  0.27660100  1
  Cu  Cu31  1  0.61226600  0.88708400  0.72339900  1
  Cu  Cu32  1  0.35577800  0.89382300  0.71267100  1
  Cu  Cu33  1  0.03016900  0.97158300  0.37847700  1
  Cu  Cu34  1  0.85577800  0.10617700  0.78732900  1
  Cu  Cu35  1  0.39789400  0.70538600  0.33701000  1
  Cu  Cu36  1  0.98684500  0.78052300  0.00341500  1
  Cu  Cu37  1  0.15304800  0.30954800  0.14907700  1
  Cu  Cu38  1  0.13798800  0.44660000  0.51971800  1
  Cu  Cu39  1  0.10210600  0.70538600  0.83701000  1
  Cu  Cu40  1  0.64422200  0.10617700  0.28732900  1
  Cu  Cu41  1  0.11226600  0.11291600  0.77660100  1
  Cu  Cu42  1  0.84695200  0.69045200  0.85092300  1
  Cu  Cu43  1  0.74425400  0.66414400  0.66611600  1
  Cu  Cu44  1  0.14422200  0.89382300  0.21267100  1
  Cu  Cu45  1  0.86201200  0.55340000  0.48028200  1
  Cu  Cu46  1  0.89789400  0.29461400  0.16299000  1
  Cu  Cu47  1  0.65304800  0.69045200  0.35092300  1
