# generated using pymatgen
data_Cu5NiC3
_symmetry_space_group_name_H-M   'P 1'
_cell_length_a   9.05576626
_cell_length_b   9.05576626
_cell_length_c   14.68950144
_cell_angle_alpha   76.71661230
_cell_angle_beta   76.71661230
_cell_angle_gamma   74.69839922
_symmetry_Int_Tables_number   1
_chemical_formula_structural   Cu5NiC3
_chemical_formula_sum   'Cu20 Ni4 C12'
_cell_volume   1112.34364050
_cell_formula_units_Z   4
loop_
 _symmetry_equiv_pos_site_id
 _symmetry_equiv_pos_as_xyz
  1  'x, y, z'
loop_
 _atom_site_type_symbol
 _atom_site_label
 _atom_site_symmetry_multiplicity
 _atom_site_fract_x
 _atom_site_fract_y
 _atom_site_fract_z
 _atom_site_occupancy
  C  C0  1  0.62069400  0.66090500  0.59417100  1
  C  C1  1  0.98964900  0.71249600  0.67395700  1
  C  C2  1  0.32028500  0.98502200  0.08679200  1
  C  C3  1  0.01035100  0.28750400  0.32604300  1
  C  C4  1  0.67971500  0.01497800  0.91320800  1
  C  C5  1  0.01497800  0.67971500  0.41320800  1
  C  C6  1  0.98502200  0.32028500  0.58679200  1
  C  C7  1  0.71249600  0.98964900  0.17395700  1
  C  C8  1  0.37930600  0.33909500  0.40582900  1
  C  C9  1  0.66090500  0.62069400  0.09417100  1
  C  C10  1  0.33909500  0.37930600  0.90582900  1
  C  C11  1  0.28750400  0.01035100  0.82604300  1
  Ni  Ni12  1  0.11120600  0.39526900  0.42075500  1
  Ni  Ni13  1  0.88879400  0.60473100  0.57924500  1
  Ni  Ni14  1  0.39526900  0.11120600  0.92075500  1
  Ni  Ni15  1  0.60473100  0.88879400  0.07924500  1
  Cu  Cu16  1  0.97662400  0.02337600  0.75000000  1
  Cu  Cu17  1  0.88133100  0.63686500  0.22777600  1
  Cu  Cu18  1  0.63686500  0.88133100  0.72777600  1
  Cu  Cu19  1  0.36041000  0.63959000  0.25000000  1
  Cu  Cu20  1  0.66396500  0.87827000  0.40771700  1
  Cu  Cu21  1  0.38135900  0.70085000  0.98194300  1
  Cu  Cu22  1  0.69722500  0.30277500  0.25000000  1
  Cu  Cu23  1  0.29915000  0.61864100  0.51805700  1
  Cu  Cu24  1  0.63959000  0.36041000  0.75000000  1
  Cu  Cu25  1  0.12173000  0.33603500  0.09228300  1
  Cu  Cu26  1  0.30277500  0.69722500  0.75000000  1
  Cu  Cu27  1  0.87827000  0.66396500  0.90771700  1
  Cu  Cu28  1  0.36313500  0.11866900  0.27222400  1
  Cu  Cu29  1  0.00000000  0.00000000  0.00000000  1
  Cu  Cu30  1  0.02337600  0.97662400  0.25000000  1
  Cu  Cu31  1  0.61864100  0.29915000  0.01805700  1
  Cu  Cu32  1  0.33603500  0.12173000  0.59228300  1
  Cu  Cu33  1  0.70085000  0.38135900  0.48194300  1
  Cu  Cu34  1  0.11866900  0.36313500  0.77222400  1
  Cu  Cu35  1  0.00000000  0.00000000  0.50000000  1
