# generated using pymatgen
data_CuNiC8
_symmetry_space_group_name_H-M   'P 1'
_cell_length_a   5.62648434
_cell_length_b   8.02529321
_cell_length_c   5.70176531
_cell_angle_alpha   90.00988810
_cell_angle_beta   89.96312878
_cell_angle_gamma   89.95075989
_symmetry_Int_Tables_number   1
_chemical_formula_structural   CuNiC8
_chemical_formula_sum   'Cu2 Ni2 C16'
_cell_volume   257.45842228
_cell_formula_units_Z   2
loop_
 _symmetry_equiv_pos_site_id
 _symmetry_equiv_pos_as_xyz
  1  'x, y, z'
loop_
 _atom_site_type_symbol
 _atom_site_label
 _atom_site_symmetry_multiplicity
 _atom_site_fract_x
 _atom_site_fract_y
 _atom_site_fract_z
 _atom_site_occupancy
  C  C0  1  0.49069600  0.75150300  0.45284300  1
  C  C1  1  0.50930600  0.24848300  0.54713500  1
  C  C2  1  0.00941500  0.74842400  0.95273000  1
  C  C3  1  0.99058800  0.25156300  0.04732800  1
  Ni  Ni4  1  0.99998200  0.50010600  0.50000900  1
  Ni  Ni5  1  0.50000600  0.00000100  0.99999100  1
  Cu  Cu6  1  0.50001000  0.49998100  0.00000300  1
  Cu  Cu7  1  0.00000000  0.00003000  0.49998500  1
  C  C8  1  0.40680400  0.26035100  0.97286500  1
  C  C9  1  0.90684700  0.76036500  0.52717100  1
  C  C10  1  0.59321500  0.73962000  0.02713600  1
  C  C11  1  0.09312500  0.23966300  0.47282900  1
  C  C12  1  0.71512400  0.04679600  0.30739600  1
  C  C13  1  0.78477300  0.45327500  0.80755900  1
  C  C14  1  0.28486500  0.95314900  0.69258800  1
  C  C15  1  0.21522300  0.54673100  0.19244000  1
  C  C16  1  0.31024500  0.55205400  0.72220500  1
  C  C17  1  0.81042400  0.05199900  0.77765200  1
  C  C18  1  0.18959100  0.94794500  0.22233800  1
  C  C19  1  0.68976000  0.44796000  0.27779700  1
