# generated using pymatgen
data_Cu3(Ni4C)10
_symmetry_space_group_name_H-M   'P 1'
_cell_length_a   9.78710300
_cell_length_b   9.78710300
_cell_length_c   32.35331600
_cell_angle_alpha   90.00000000
_cell_angle_beta   90.00000000
_cell_angle_gamma   90.00000000
_symmetry_Int_Tables_number   1
_chemical_formula_structural   Cu3(Ni4C)10
_chemical_formula_sum   'Cu6 Ni80 C20'
_cell_volume   3099.03954001
_cell_formula_units_Z   2
loop_
 _symmetry_equiv_pos_site_id
 _symmetry_equiv_pos_as_xyz
  1  'x, y, z'
loop_
 _atom_site_type_symbol
 _atom_site_label
 _atom_site_symmetry_multiplicity
 _atom_site_fract_x
 _atom_site_fract_y
 _atom_site_fract_z
 _atom_site_occupancy
  C  C0  1  0.50000000  0.00000000  0.95103900  1
  C  C1  1  0.00000000  0.50000000  0.25000000  1
  C  C2  1  0.50000000  0.00000000  0.84911200  1
  C  C3  1  0.50000000  0.00000000  0.04896100  1
  C  C4  1  0.00000000  0.50000000  0.95103900  1
  C  C5  1  0.00000000  0.50000000  0.54896100  1
  C  C6  1  0.00000000  0.50000000  0.45103900  1
  C  C7  1  0.00000000  0.50000000  0.75000000  1
  C  C8  1  0.50000000  0.00000000  0.54896100  1
  C  C9  1  0.50000000  0.00000000  0.15088800  1
  C  C10  1  0.50000000  0.00000000  0.25000000  1
  C  C11  1  0.50000000  0.00000000  0.45103900  1
  C  C12  1  0.00000000  0.50000000  0.84911200  1
  C  C13  1  0.50000000  0.00000000  0.75000000  1
  C  C14  1  0.00000000  0.50000000  0.15088800  1
  C  C15  1  0.50000000  0.00000000  0.65088800  1
  C  C16  1  0.00000000  0.50000000  0.65088800  1
  C  C17  1  0.50000000  0.00000000  0.34911200  1
  C  C18  1  0.00000000  0.50000000  0.34911200  1
  C  C19  1  0.00000000  0.50000000  0.04896100  1
  Ni  Ni20  1  0.96377000  0.71504300  0.30255000  1
  Ni  Ni21  1  0.79000100  0.44945200  0.10317700  1
  Ni  Ni22  1  0.18706800  0.38061800  0.79624600  1
  Ni  Ni23  1  0.61938200  0.81293200  0.70375400  1
  Ni  Ni24  1  0.10409500  0.30490100  0.50000000  1
  Ni  Ni25  1  0.32012500  0.12528400  0.59690400  1
  Ni  Ni26  1  0.71504300  0.96377000  0.80255000  1
  Ni  Ni27  1  0.44945200  0.20999900  0.10317700  1
  Ni  Ni28  1  0.78142500  0.51748300  0.00000000  1
  Ni  Ni29  1  0.61938200  0.18706800  0.20375400  1
  Ni  Ni30  1  0.71504300  0.96377000  0.19745000  1
  Ni  Ni31  1  0.18706800  0.61938200  0.70375400  1
  Ni  Ni32  1  0.81293200  0.38061800  0.70375400  1
  Ni  Ni33  1  0.69509900  0.10409500  0.50000000  1
  Ni  Ni34  1  0.48251700  0.21857500  0.50000000  1
  Ni  Ni35  1  0.44945200  0.79000100  0.39682300  1
  Ni  Ni36  1  0.55054800  0.20999900  0.60317700  1
  Ni  Ni37  1  0.28495700  0.03623000  0.80255000  1
  Ni  Ni38  1  0.71504300  0.03623000  0.30255000  1
  Ni  Ni39  1  0.67987500  0.12528400  0.90309600  1
  Ni  Ni40  1  0.87471600  0.32012500  0.59690400  1
  Ni  Ni41  1  0.55054800  0.79000100  0.10317700  1
  Ni  Ni42  1  0.87471600  0.32012500  0.40309600  1
  Ni  Ni43  1  0.30490100  0.89590500  0.50000000  1
  Ni  Ni44  1  0.32012500  0.87471600  0.09690400  1
  Ni  Ni45  1  0.28495700  0.03623000  0.19745000  1
  Ni  Ni46  1  0.81293200  0.38061800  0.29624600  1
  Ni  Ni47  1  0.21857500  0.48251700  0.00000000  1
  Ni  Ni48  1  0.12528400  0.32012500  0.09690400  1
  Ni  Ni49  1  0.20999900  0.44945200  0.39682300  1
  Ni  Ni50  1  0.03623000  0.28495700  0.69745000  1
  Ni  Ni51  1  0.28495700  0.96377000  0.69745000  1
  Ni  Ni52  1  0.28495700  0.96377000  0.30255000  1
  Ni  Ni53  1  0.81293200  0.61938200  0.20375400  1
  Ni  Ni54  1  0.03623000  0.28495700  0.30255000  1
  Ni  Ni55  1  0.03623000  0.71504300  0.80255000  1
  Ni  Ni56  1  0.51748300  0.21857500  0.00000000  1
  Ni  Ni57  1  0.38061800  0.81293200  0.20375400  1
  Ni  Ni58  1  0.12528400  0.67987500  0.40309600  1
  Ni  Ni59  1  0.87471600  0.67987500  0.09690400  1
  Ni  Ni60  1  0.38061800  0.81293200  0.79624600  1
  Ni  Ni61  1  0.32012500  0.12528400  0.40309600  1
  Ni  Ni62  1  0.67987500  0.12528400  0.09690400  1
  Ni  Ni63  1  0.55054800  0.79000100  0.89682300  1
  Ni  Ni64  1  0.10409500  0.69509900  0.00000000  1
  Ni  Ni65  1  0.78142500  0.48251700  0.50000000  1
  Ni  Ni66  1  0.81293200  0.61938200  0.79624600  1
  Ni  Ni67  1  0.38061800  0.18706800  0.29624600  1
  Ni  Ni68  1  0.48251700  0.78142500  0.00000000  1
  Ni  Ni69  1  0.20999900  0.44945200  0.60317700  1
  Ni  Ni70  1  0.20999900  0.55054800  0.10317700  1
  Ni  Ni71  1  0.44945200  0.79000100  0.60317700  1
  Ni  Ni72  1  0.79000100  0.55054800  0.39682300  1
  Ni  Ni73  1  0.89590500  0.69509900  0.50000000  1
  Ni  Ni74  1  0.71504300  0.03623000  0.69745000  1
  Ni  Ni75  1  0.79000100  0.55054800  0.60317700  1
  Ni  Ni76  1  0.61938200  0.18706800  0.79624600  1
  Ni  Ni77  1  0.79000100  0.44945200  0.89682300  1
  Ni  Ni78  1  0.96377000  0.28495700  0.80255000  1
  Ni  Ni79  1  0.12528400  0.67987500  0.59690400  1
  Ni  Ni80  1  0.20999900  0.55054800  0.89682300  1
  Ni  Ni81  1  0.30490100  0.10409500  0.00000000  1
  Ni  Ni82  1  0.87471600  0.67987500  0.90309600  1
  Ni  Ni83  1  0.44945200  0.20999900  0.89682300  1
  Ni  Ni84  1  0.18706800  0.38061800  0.20375400  1
  Ni  Ni85  1  0.67987500  0.87471600  0.40309600  1
  Ni  Ni86  1  0.03623000  0.71504300  0.19745000  1
  Ni  Ni87  1  0.55054800  0.20999900  0.39682300  1
  Ni  Ni88  1  0.96377000  0.28495700  0.19745000  1
  Ni  Ni89  1  0.67987500  0.87471600  0.59690400  1
  Ni  Ni90  1  0.18706800  0.61938200  0.29624600  1
  Ni  Ni91  1  0.51748300  0.78142500  0.50000000  1
  Ni  Ni92  1  0.38061800  0.18706800  0.70375400  1
  Ni  Ni93  1  0.12528400  0.32012500  0.90309600  1
  Ni  Ni94  1  0.69509900  0.89590500  0.00000000  1
  Ni  Ni95  1  0.96377000  0.71504300  0.69745000  1
  Ni  Ni96  1  0.21857500  0.51748300  0.50000000  1
  Ni  Ni97  1  0.32012500  0.87471600  0.90309600  1
  Ni  Ni98  1  0.61938200  0.81293200  0.29624600  1
  Ni  Ni99  1  0.89590500  0.30490100  0.00000000  1
  Cu  Cu100  1  0.00000000  0.00000000  0.58036900  1
  Cu  Cu101  1  0.00000000  0.00000000  0.41963100  1
  Cu  Cu102  1  0.00000000  0.00000000  0.91963100  1
  Cu  Cu103  1  0.00000000  0.00000000  0.08036900  1
  Cu  Cu104  1  0.50000000  0.50000000  0.25000000  1
  Cu  Cu105  1  0.50000000  0.50000000  0.75000000  1
