# generated using pymatgen
data_CuNi2C17
_symmetry_space_group_name_H-M   'P 1'
_cell_length_a   14.12240590
_cell_length_b   14.12240590
_cell_length_c   15.04578255
_cell_angle_alpha   58.03765784
_cell_angle_beta   58.03765784
_cell_angle_gamma   30.22308391
_symmetry_Int_Tables_number   1
_chemical_formula_structural   CuNi2C17
_chemical_formula_sum   'Cu4 Ni8 C68'
_cell_volume   1263.17271768
_cell_formula_units_Z   4
loop_
 _symmetry_equiv_pos_site_id
 _symmetry_equiv_pos_as_xyz
  1  'x, y, z'
loop_
 _atom_site_type_symbol
 _atom_site_label
 _atom_site_symmetry_multiplicity
 _atom_site_fract_x
 _atom_site_fract_y
 _atom_site_fract_z
 _atom_site_occupancy
  Ni  Ni0  1  0.29806200  0.77078700  0.54853800  1
  Ni  Ni1  1  0.31317500  0.30420200  0.96577400  1
  Ni  Ni2  1  0.30420200  0.31317500  0.46577400  1
  Ni  Ni3  1  0.22921300  0.70193800  0.95146200  1
  Ni  Ni4  1  0.70193800  0.22921300  0.45146200  1
  Ni  Ni5  1  0.77078700  0.29806200  0.04853800  1
  Ni  Ni6  1  0.69579800  0.68682500  0.53422600  1
  Ni  Ni7  1  0.68682500  0.69579800  0.03422600  1
  Cu  Cu8  1  0.48617200  0.05094900  0.74990800  1
  Cu  Cu9  1  0.51382800  0.94905100  0.25009200  1
  Cu  Cu10  1  0.94905100  0.51382800  0.75009200  1
  Cu  Cu11  1  0.05094900  0.48617200  0.24990800  1
  C  C12  1  0.77115200  0.36830900  0.77430600  1
  C  C13  1  0.36830900  0.77115200  0.27430600  1
  C  C14  1  0.22884800  0.63169100  0.22569400  1
  C  C15  1  0.63169100  0.22884800  0.72569400  1
  C  C16  1  0.13943800  0.18687200  0.20329800  1
  C  C17  1  0.18687200  0.13943800  0.70329800  1
  C  C18  1  0.85912400  0.80356500  0.01066600  1
  C  C19  1  0.75922600  0.48028700  0.33876400  1
  C  C20  1  0.24077400  0.51971300  0.66123600  1
  C  C21  1  0.19643500  0.14087600  0.48933400  1
  C  C22  1  0.28984300  0.83495100  0.07744600  1
  C  C23  1  0.51971300  0.24077400  0.16123600  1
  C  C24  1  0.48028700  0.75922600  0.83876400  1
  C  C25  1  0.16504900  0.71015700  0.42255400  1
  C  C26  1  0.83495100  0.28984300  0.57744600  1
  C  C27  1  0.80356500  0.85912400  0.51066600  1
  C  C28  1  0.14087600  0.19643500  0.98933400  1
  C  C29  1  0.81312800  0.86056200  0.29670200  1
  C  C30  1  0.71015700  0.16504900  0.92255400  1
  C  C31  1  0.86056200  0.81312800  0.79670200  1
  C  C32  1  0.17621200  0.83442100  0.37892100  1
  C  C33  1  0.75848800  0.79608000  0.29686400  1
  C  C34  1  0.25321000  0.56357700  0.53257200  1
  C  C35  1  0.32999800  0.95240300  0.22872000  1
  C  C36  1  0.35069000  0.07472200  0.92306100  1
  C  C37  1  0.70672800  0.42873500  0.65810200  1
  C  C38  1  0.29327200  0.57126500  0.34189800  1
  C  C39  1  0.43714500  0.41763200  0.16516400  1
  C  C40  1  0.57126500  0.29327200  0.84189800  1
  C  C41  1  0.91509300  0.72935500  0.91310000  1
  C  C42  1  0.58236800  0.56285500  0.33483600  1
  C  C43  1  0.42873500  0.70672800  0.15810200  1
  C  C44  1  0.04487300  0.72810200  0.70331600  1
  C  C45  1  0.24151200  0.20392000  0.70313600  1
  C  C46  1  0.93853300  0.86515400  0.44353900  1
  C  C47  1  0.20392000  0.24151200  0.20313600  1
  C  C48  1  0.41763200  0.43714500  0.66516400  1
  C  C49  1  0.95512700  0.27189800  0.29668400  1
  C  C50  1  0.61949100  0.03227300  0.57786700  1
  C  C51  1  0.95240300  0.32999800  0.72872000  1
  C  C52  1  0.79608000  0.75848800  0.79686400  1
  C  C53  1  0.23881600  0.38617800  0.72580700  1
  C  C54  1  0.64931000  0.92527800  0.07693900  1
  C  C55  1  0.56357700  0.25321000  0.03257200  1
  C  C56  1  0.06146700  0.13484600  0.55646100  1
  C  C57  1  0.27064500  0.08490700  0.58690000  1
  C  C58  1  0.72810200  0.04487300  0.20331600  1
  C  C59  1  0.13484600  0.06146700  0.05646100  1
  C  C60  1  0.92527800  0.64931000  0.57693900  1
  C  C61  1  0.38050900  0.96772700  0.42213300  1
  C  C62  1  0.76118400  0.61382200  0.27419300  1
  C  C63  1  0.43642300  0.74679000  0.96742800  1
  C  C64  1  0.04759700  0.67000200  0.27128000  1
  C  C65  1  0.27189800  0.95512700  0.79668400  1
  C  C66  1  0.74679000  0.43642300  0.46742800  1
  C  C67  1  0.03227300  0.61949100  0.07786700  1
  C  C68  1  0.56285500  0.58236800  0.83483600  1
  C  C69  1  0.61382200  0.76118400  0.77419300  1
  C  C70  1  0.67000200  0.04759700  0.77128000  1
  C  C71  1  0.07472200  0.35069000  0.42306100  1
  C  C72  1  0.86515400  0.93853300  0.94353900  1
  C  C73  1  0.16557900  0.82378800  0.12107900  1
  C  C74  1  0.72935500  0.91509300  0.41310000  1
  C  C75  1  0.08490700  0.27064500  0.08690000  1
  C  C76  1  0.96772700  0.38050900  0.92213300  1
  C  C77  1  0.38617800  0.23881600  0.22580700  1
  C  C78  1  0.82378800  0.16557900  0.62107900  1
  C  C79  1  0.83442100  0.17621200  0.87892100  1
