# generated using pymatgen
data_CuNi12C11
_symmetry_space_group_name_H-M   'P 1'
_cell_length_a   6.20838129
_cell_length_b   6.20838129
_cell_length_c   24.60047940
_cell_angle_alpha   81.68853990
_cell_angle_beta   81.68853990
_cell_angle_gamma   71.03554524
_symmetry_Int_Tables_number   1
_chemical_formula_structural   CuNi12C11
_chemical_formula_sum   'Cu4 Ni48 C44'
_cell_volume   882.47742425
_cell_formula_units_Z   4
loop_
 _symmetry_equiv_pos_site_id
 _symmetry_equiv_pos_as_xyz
  1  'x, y, z'
loop_
 _atom_site_type_symbol
 _atom_site_label
 _atom_site_symmetry_multiplicity
 _atom_site_fract_x
 _atom_site_fract_y
 _atom_site_fract_z
 _atom_site_occupancy
  C  C0  1  0.00000000  0.00000000  0.50000000  1
  C  C1  1  0.00000000  0.00000000  0.00000000  1
  C  C2  1  0.05114700  0.94885300  0.75000000  1
  C  C3  1  0.94885300  0.05114700  0.25000000  1
  Ni  Ni4  1  0.06651400  0.34288900  0.55010600  1
  Ni  Ni5  1  0.65711100  0.93348600  0.94989400  1
  Ni  Ni6  1  0.93348600  0.65711100  0.44989400  1
  Ni  Ni7  1  0.34288900  0.06651400  0.05010600  1
  Ni  Ni8  1  0.25241600  0.30137600  0.49671200  1
  Ni  Ni9  1  0.69862400  0.74758400  0.00328800  1
  Ni  Ni10  1  0.74758400  0.69862400  0.50328800  1
  Ni  Ni11  1  0.30137600  0.25241600  0.99671200  1
  Ni  Ni12  1  0.63962200  0.29237200  0.55604100  1
  Ni  Ni13  1  0.70762800  0.36037800  0.94395900  1
  Ni  Ni14  1  0.36037800  0.70762800  0.44395900  1
  Ni  Ni15  1  0.29237200  0.63962200  0.05604100  1
  Ni  Ni16  1  0.64553800  0.03502100  0.57740400  1
  Ni  Ni17  1  0.96497900  0.35446200  0.92259600  1
  Ni  Ni18  1  0.35446200  0.96497900  0.42259600  1
  Ni  Ni19  1  0.03502100  0.64553800  0.07740400  1
  Ni  Ni20  1  0.93835300  0.31572500  0.40952800  1
  Ni  Ni21  1  0.68427500  0.06164700  0.09047200  1
  Ni  Ni22  1  0.06164700  0.68427500  0.59047200  1
  Ni  Ni23  1  0.31572500  0.93835300  0.90952800  1
  Ni  Ni24  1  0.70122700  0.27171900  0.43203300  1
  Ni  Ni25  1  0.72828100  0.29877300  0.06796700  1
  Ni  Ni26  1  0.29877300  0.72828100  0.56796700  1
  Ni  Ni27  1  0.27171900  0.70122700  0.93203300  1
  Ni  Ni28  1  0.09915900  0.22081300  0.65610500  1
  Ni  Ni29  1  0.77918700  0.90084100  0.84389500  1
  Ni  Ni30  1  0.90084100  0.77918700  0.34389500  1
  Ni  Ni31  1  0.22081300  0.09915900  0.15610500  1
  Ni  Ni32  1  0.32484900  0.99998000  0.65756000  1
  Ni  Ni33  1  0.00002000  0.67515100  0.84244000  1
  Ni  Ni34  1  0.67515100  0.00002000  0.34244000  1
  Ni  Ni35  1  0.99998000  0.32484900  0.15756000  1
  Ni  Ni36  1  0.28732800  0.56786600  0.70058300  1
  Ni  Ni37  1  0.43213400  0.71267200  0.79941700  1
  Ni  Ni38  1  0.71267200  0.43213400  0.29941700  1
  Ni  Ni39  1  0.56786600  0.28732800  0.20058300  1
  Ni  Ni40  1  0.07084300  0.51714700  0.73712600  1
  Ni  Ni41  1  0.48285300  0.92915700  0.76287400  1
  Ni  Ni42  1  0.92915700  0.48285300  0.26287400  1
  Ni  Ni43  1  0.51714700  0.07084300  0.23712600  1
  Ni  Ni44  1  0.66985000  0.19293100  0.70135200  1
  Ni  Ni45  1  0.80706900  0.33015000  0.79864800  1
  Ni  Ni46  1  0.33015000  0.80706900  0.29864800  1
  Ni  Ni47  1  0.19293100  0.66985000  0.20135200  1
  Ni  Ni48  1  0.73554400  0.93557600  0.68949900  1
  Ni  Ni49  1  0.06442400  0.26445600  0.81050100  1
  Ni  Ni50  1  0.26445600  0.06442400  0.31050100  1
  Ni  Ni51  1  0.93557600  0.73554400  0.18949900  1
  Cu  Cu52  1  0.67679800  0.58172300  0.62392500  1
  Cu  Cu53  1  0.41827700  0.32320200  0.87607500  1
  Cu  Cu54  1  0.32320200  0.41827700  0.37607500  1
  Cu  Cu55  1  0.58172300  0.67679800  0.12392500  1
  C  C56  1  0.56984400  0.45884500  0.67080500  1
  C  C57  1  0.54115500  0.43015600  0.82919500  1
  C  C58  1  0.43015600  0.54115500  0.32919500  1
  C  C59  1  0.45884500  0.56984400  0.17080500  1
  C  C60  1  0.62323200  0.82614300  0.63454800  1
  C  C61  1  0.17385700  0.37676800  0.86545200  1
  C  C62  1  0.37676800  0.17385700  0.36545200  1
  C  C63  1  0.82614300  0.62323200  0.13454800  1
  C  C64  1  0.93078900  0.46954600  0.61717200  1
  C  C65  1  0.53045400  0.06921100  0.88282800  1
  C  C66  1  0.06921100  0.53045400  0.38282800  1
  C  C67  1  0.46954600  0.93078900  0.11717200  1
  C  C68  1  0.58524500  0.57661300  0.57103200  1
  C  C69  1  0.42338700  0.41475500  0.92896800  1
  C  C70  1  0.41475500  0.42338700  0.42896800  1
  C  C71  1  0.57661300  0.58524500  0.07103200  1
  C  C72  1  0.13615400  0.24494300  0.52016000  1
  C  C73  1  0.75505700  0.86384600  0.97984000  1
  C  C74  1  0.86384600  0.75505700  0.47984000  1
  C  C75  1  0.24494300  0.13615400  0.02016000  1
  C  C76  1  0.67467700  0.13725700  0.54440400  1
  C  C77  1  0.86274300  0.32532300  0.95559600  1
  C  C78  1  0.32532300  0.86274300  0.45559600  1
  C  C79  1  0.13725700  0.67467700  0.04440400  1
  C  C80  1  0.86999300  0.20025100  0.42987800  1
  C  C81  1  0.79974900  0.13000700  0.07012200  1
  C  C82  1  0.13000700  0.79974900  0.57012200  1
  C  C83  1  0.20025100  0.86999300  0.92987800  1
  C  C84  1  0.19783500  0.09891600  0.68036900  1
  C  C85  1  0.90108400  0.80216500  0.81963100  1
  C  C86  1  0.80216500  0.90108400  0.31963100  1
  C  C87  1  0.09891600  0.19783500  0.18036900  1
  C  C88  1  0.12880200  0.63984600  0.71707100  1
  C  C89  1  0.36015400  0.87119800  0.78292900  1
  C  C90  1  0.87119800  0.36015400  0.28292900  1
  C  C91  1  0.63984600  0.12880200  0.21707100  1
  C  C92  1  0.72810800  0.03182900  0.71889600  1
  C  C93  1  0.96817100  0.27189200  0.78110400  1
  C  C94  1  0.27189200  0.96817100  0.28110400  1
  C  C95  1  0.03182900  0.72810800  0.21889600  1
