# generated using pymatgen
data_Cu(Ni3C2)4
_symmetry_space_group_name_H-M   'P 1'
_cell_length_a   7.04169900
_cell_length_b   9.78123932
_cell_length_c   9.83988384
_cell_angle_alpha   119.69218237
_cell_angle_beta   91.32335718
_cell_angle_gamma   89.35367455
_symmetry_Int_Tables_number   1
_chemical_formula_structural   Cu(Ni3C2)4
_chemical_formula_sum   'Cu2 Ni24 C16'
_cell_volume   588.59264475
_cell_formula_units_Z   2
loop_
 _symmetry_equiv_pos_site_id
 _symmetry_equiv_pos_as_xyz
  1  'x, y, z'
loop_
 _atom_site_type_symbol
 _atom_site_label
 _atom_site_symmetry_multiplicity
 _atom_site_fract_x
 _atom_site_fract_y
 _atom_site_fract_z
 _atom_site_occupancy
  C  C0  1  0.99701600  0.35178000  0.69111200  1
  C  C1  1  0.00298400  0.64822000  0.30888800  1
  C  C2  1  0.76012500  0.23650700  0.00144000  1
  C  C3  1  0.26118400  0.24502400  0.24598800  1
  C  C4  1  0.73881600  0.75497600  0.75401200  1
  C  C5  1  0.49744700  0.68502500  0.34651500  1
  C  C6  1  0.50255300  0.31497500  0.65348500  1
  C  C7  1  0.74825800  0.00066200  0.24196300  1
  C  C8  1  0.25174200  0.99933800  0.75803700  1
  C  C9  1  0.23987500  0.76349300  0.99856000  1
  C  C10  1  0.24159900  0.02596100  0.39668500  1
  C  C11  1  0.24029100  0.60638700  0.62879900  1
  C  C12  1  0.26743700  0.37130600  0.97345200  1
  C  C13  1  0.73256300  0.62869400  0.02654800  1
  C  C14  1  0.75840100  0.97403900  0.60331500  1
  C  C15  1  0.75970900  0.39361300  0.37120100  1
  Ni  Ni16  1  0.07056800  0.07758300  0.30361400  1
  Ni  Ni17  1  0.93992400  0.73580500  0.08812100  1
  Ni  Ni18  1  0.54875400  0.90267200  0.63181000  1
  Ni  Ni19  1  0.58441500  0.29568500  0.23292300  1
  Ni  Ni20  1  0.72573900  0.51349300  0.82673900  1
  Ni  Ni21  1  0.27426100  0.48650700  0.17326100  1
  Ni  Ni22  1  0.75390000  0.17403600  0.68302500  1
  Ni  Ni23  1  0.04087400  0.63636100  0.73942100  1
  Ni  Ni24  1  0.92943200  0.92241700  0.69638600  1
  Ni  Ni25  1  0.22813900  0.68261000  0.50530700  1
  Ni  Ni26  1  0.06007600  0.26419500  0.91187900  1
  Ni  Ni27  1  0.95912600  0.36363900  0.26057900  1
  Ni  Ni28  1  0.41558500  0.70431500  0.76707700  1
  Ni  Ni29  1  0.45124600  0.09732800  0.36819000  1
  Ni  Ni30  1  0.78539500  0.87307000  0.40259100  1
  Ni  Ni31  1  0.55278800  0.76561800  0.09720100  1
  Ni  Ni32  1  0.27624200  0.40537500  0.53026600  1
  Ni  Ni33  1  0.44721200  0.23438200  0.90279900  1
  Ni  Ni34  1  0.24610000  0.82596400  0.31697500  1
  Ni  Ni35  1  0.72375800  0.59462500  0.46973400  1
  Ni  Ni36  1  0.72622700  0.52406800  0.12574500  1
  Ni  Ni37  1  0.27377300  0.47593200  0.87425500  1
  Ni  Ni38  1  0.21460500  0.12693000  0.59740900  1
  Ni  Ni39  1  0.77186100  0.31739000  0.49469300  1
  Cu  Cu40  1  0.75377900  0.99068400  0.99734900  1
  Cu  Cu41  1  0.24622100  0.00931600  0.00265100  1
