# generated using pymatgen
data_Cu12Ni3C4
_symmetry_space_group_name_H-M   'P 1'
_cell_length_a   8.01328731
_cell_length_b   8.01328731
_cell_length_c   8.85351474
_cell_angle_alpha   68.34611274
_cell_angle_beta   68.34611274
_cell_angle_gamma   66.68716731
_symmetry_Int_Tables_number   1
_chemical_formula_structural   Cu12Ni3C4
_chemical_formula_sum   'Cu24 Ni6 C8'
_cell_volume   468.40144134
_cell_formula_units_Z   2
loop_
 _symmetry_equiv_pos_site_id
 _symmetry_equiv_pos_as_xyz
  1  'x, y, z'
loop_
 _atom_site_type_symbol
 _atom_site_label
 _atom_site_symmetry_multiplicity
 _atom_site_fract_x
 _atom_site_fract_y
 _atom_site_fract_z
 _atom_site_occupancy
  C  C0  1  0.13020600  0.32504500  0.45234500  1
  C  C1  1  0.32504500  0.13020600  0.95234500  1
  C  C2  1  0.67495500  0.86979400  0.04765500  1
  C  C3  1  0.86979400  0.67495500  0.54765500  1
  C  C4  1  0.62841500  0.12804100  0.51552500  1
  C  C5  1  0.12804100  0.62841400  0.01552500  1
  C  C6  1  0.37158600  0.87195900  0.48447500  1
  C  C7  1  0.87195900  0.37158500  0.98447500  1
  Ni  Ni8  1  0.06264900  0.93735100  0.25000000  1
  Ni  Ni9  1  0.24811300  0.45737800  0.67965000  1
  Ni  Ni10  1  0.75188700  0.54262200  0.32035000  1
  Ni  Ni11  1  0.45737800  0.24811300  0.17965000  1
  Ni  Ni12  1  0.54262200  0.75188700  0.82035000  1
  Ni  Ni13  1  0.93735100  0.06264900  0.75000000  1
  Cu  Cu14  1  0.12188100  0.05326600  0.61749400  1
  Cu  Cu15  1  0.50487300  0.87707200  0.92410800  1
  Cu  Cu16  1  0.78563600  0.10171400  0.67545400  1
  Cu  Cu17  1  0.65415100  0.40176800  0.38062900  1
  Cu  Cu18  1  0.87707200  0.50487300  0.42410800  1
  Cu  Cu19  1  0.61886600  0.73758200  0.30799000  1
  Cu  Cu20  1  0.10171400  0.78563600  0.17545400  1
  Cu  Cu21  1  0.54494600  0.86706300  0.63797700  1
  Cu  Cu22  1  0.49512700  0.12292800  0.07589200  1
  Cu  Cu23  1  0.26241800  0.38113400  0.19201000  1
  Cu  Cu24  1  0.87811900  0.94673400  0.38250600  1
  Cu  Cu25  1  0.86706300  0.54494600  0.13797700  1
  Cu  Cu26  1  0.12292800  0.49512700  0.57589200  1
  Cu  Cu27  1  0.21436400  0.89828600  0.32454600  1
  Cu  Cu28  1  0.45505400  0.13293700  0.36202300  1
  Cu  Cu29  1  0.34584900  0.59823200  0.61937100  1
  Cu  Cu30  1  0.73758200  0.61886600  0.80799000  1
  Cu  Cu31  1  0.59823200  0.34584900  0.11937100  1
  Cu  Cu32  1  0.13293700  0.45505400  0.86202300  1
  Cu  Cu33  1  0.38113400  0.26241800  0.69201000  1
  Cu  Cu34  1  0.89828600  0.21436400  0.82454600  1
  Cu  Cu35  1  0.94673400  0.87811900  0.88250600  1
  Cu  Cu36  1  0.05326600  0.12188100  0.11749400  1
  Cu  Cu37  1  0.40176800  0.65415100  0.88062900  1
