# generated using pymatgen
data_Cu4NiC12
_symmetry_space_group_name_H-M   'P 1'
_cell_length_a   6.68953268
_cell_length_b   6.68953268
_cell_length_c   10.72920800
_cell_angle_alpha   90.00000000
_cell_angle_beta   90.00000000
_cell_angle_gamma   121.19454762
_symmetry_Int_Tables_number   1
_chemical_formula_structural   Cu4NiC12
_chemical_formula_sum   'Cu8 Ni2 C24'
_cell_volume   410.71006935
_cell_formula_units_Z   2
loop_
 _symmetry_equiv_pos_site_id
 _symmetry_equiv_pos_as_xyz
  1  'x, y, z'
loop_
 _atom_site_type_symbol
 _atom_site_label
 _atom_site_symmetry_multiplicity
 _atom_site_fract_x
 _atom_site_fract_y
 _atom_site_fract_z
 _atom_site_occupancy
  Ni  Ni0  1  0.10601100  0.26660900  0.75000000  1
  Ni  Ni1  1  0.26660900  0.10601100  0.25000000  1
  Cu  Cu2  1  0.71894900  0.71894900  0.00000000  1
  Cu  Cu3  1  0.86557800  0.29189900  0.47048700  1
  Cu  Cu4  1  0.29583300  0.60073000  0.25000000  1
  Cu  Cu5  1  0.29189900  0.86557800  0.52951300  1
  Cu  Cu6  1  0.29189900  0.86557800  0.97048700  1
  Cu  Cu7  1  0.60073000  0.29583300  0.75000000  1
  Cu  Cu8  1  0.71894900  0.71894900  0.50000000  1
  Cu  Cu9  1  0.86557800  0.29189900  0.02951300  1
  C  C10  1  0.04440800  0.69468200  0.75000000  1
  C  C11  1  0.62205700  0.86595000  0.75000000  1
  C  C12  1  0.29121900  0.29121900  0.00000000  1
  C  C13  1  0.29121900  0.29121900  0.50000000  1
  C  C14  1  0.69468200  0.04440800  0.25000000  1
  C  C15  1  0.86595000  0.62205700  0.25000000  1
  C  C16  1  0.98973200  0.65662800  0.36222800  1
  C  C17  1  0.63898700  0.56968600  0.25000000  1
  C  C18  1  0.49720700  0.29614600  0.52828000  1
  C  C19  1  0.08133700  0.08133700  0.00000000  1
  C  C20  1  0.49720700  0.29614600  0.97172000  1
  C  C21  1  0.57136400  0.95693900  0.36179000  1
  C  C22  1  0.29614600  0.49720700  0.02828000  1
  C  C23  1  0.92493900  0.22250900  0.25000000  1
  C  C24  1  0.95693900  0.57136400  0.63821000  1
  C  C25  1  0.57136400  0.95693900  0.13821000  1
  C  C26  1  0.65662800  0.98973200  0.63777200  1
  C  C27  1  0.65662800  0.98973200  0.86222800  1
  C  C28  1  0.95693900  0.57136400  0.86179000  1
  C  C29  1  0.56968600  0.63898700  0.75000000  1
  C  C30  1  0.29614600  0.49720700  0.47172000  1
  C  C31  1  0.08133700  0.08133700  0.50000000  1
  C  C32  1  0.98973200  0.65662800  0.13777200  1
  C  C33  1  0.22250900  0.92493900  0.75000000  1
