# generated using pymatgen
data_Cu2(NiC8)3
_symmetry_space_group_name_H-M   'P 1'
_cell_length_a   21.02565000
_cell_length_b   5.54881100
_cell_length_c   9.19877266
_cell_angle_alpha   53.69763229
_cell_angle_beta   90.00000000
_cell_angle_gamma   90.00000000
_symmetry_Int_Tables_number   1
_chemical_formula_structural   Cu2(NiC8)3
_chemical_formula_sum   'Cu4 Ni6 C48'
_cell_volume   864.89315843
_cell_formula_units_Z   2
loop_
 _symmetry_equiv_pos_site_id
 _symmetry_equiv_pos_as_xyz
  1  'x, y, z'
loop_
 _atom_site_type_symbol
 _atom_site_label
 _atom_site_symmetry_multiplicity
 _atom_site_fract_x
 _atom_site_fract_y
 _atom_site_fract_z
 _atom_site_occupancy
  Ni  Ni0  1  0.22321700  0.03396300  0.99407400  1
  Ni  Ni1  1  0.27678300  0.03396300  0.49407400  1
  Ni  Ni2  1  0.72321700  0.96603700  0.50592600  1
  Ni  Ni3  1  0.50000000  0.00000000  0.50000000  1
  Ni  Ni4  1  0.77678300  0.96603700  0.00592600  1
  Ni  Ni5  1  0.00000000  0.00000000  0.00000000  1
  Cu  Cu6  1  0.59102100  0.79057100  0.22620900  1
  Cu  Cu7  1  0.90897900  0.79057100  0.72620900  1
  Cu  Cu8  1  0.40897900  0.20942900  0.77379100  1
  Cu  Cu9  1  0.09102100  0.20942900  0.27379100  1
  C  C10  1  0.89664200  0.30598200  0.21303400  1
  C  C11  1  0.36162400  0.50482400  0.96806800  1
  C  C12  1  0.60335800  0.30598200  0.71303400  1
  C  C13  1  0.13837600  0.50482400  0.46806800  1
  C  C14  1  0.63837600  0.49517600  0.03193200  1
  C  C15  1  0.39664200  0.69401800  0.28696600  1
  C  C16  1  0.10335800  0.69401800  0.78696600  1
  C  C17  1  0.86162400  0.49517600  0.53193200  1
  C  C18  1  0.17835000  0.88906000  0.35750100  1
  C  C19  1  0.67900800  0.53451200  0.20569500  1
  C  C20  1  0.82099200  0.53451200  0.70569500  1
  C  C21  1  0.09206500  0.53259700  0.64539500  1
  C  C22  1  0.88852400  0.16847500  0.06448700  1
  C  C23  1  0.19429800  0.67526300  0.77126900  1
  C  C24  1  0.21056400  0.30523800  0.62778200  1
  C  C25  1  0.61147600  0.16847500  0.56448700  1
  C  C26  1  0.01183100  0.68737300  0.81199600  1
  C  C27  1  0.60740300  0.71641400  0.49928900  1
  C  C28  1  0.32099200  0.46548800  0.79430500  1
  C  C29  1  0.67835000  0.11094000  0.14249900  1
  C  C30  1  0.69429800  0.32473700  0.72873100  1
  C  C31  1  0.90793500  0.46740300  0.35460500  1
  C  C32  1  0.82165000  0.11094000  0.64249900  1
  C  C33  1  0.11147600  0.83152500  0.93551300  1
  C  C34  1  0.28943600  0.30523800  0.12778200  1
  C  C35  1  0.80570200  0.32473700  0.22873100  1
  C  C36  1  0.30570200  0.67526300  0.27126900  1
  C  C37  1  0.90179200  0.89076800  0.43628500  1
  C  C38  1  0.98816900  0.31262700  0.18800400  1
  C  C39  1  0.59206500  0.46740300  0.85460500  1
  C  C40  1  0.56718600  0.30119600  0.19385500  1
  C  C41  1  0.48816900  0.68737300  0.31199600  1
  C  C42  1  0.71056400  0.69476200  0.87221800  1
  C  C43  1  0.38852400  0.83152500  0.43551300  1
  C  C44  1  0.40793500  0.53259700  0.14539500  1
  C  C45  1  0.39259700  0.28358600  0.50071100  1
  C  C46  1  0.89259700  0.71641400  0.99928900  1
  C  C47  1  0.43281400  0.69880400  0.80614500  1
  C  C48  1  0.78943600  0.69476200  0.37221800  1
  C  C49  1  0.51183100  0.31262700  0.68800400  1
  C  C50  1  0.59820800  0.89076800  0.93628500  1
  C  C51  1  0.06718600  0.69880400  0.30614500  1
  C  C52  1  0.17900800  0.46548800  0.29430500  1
  C  C53  1  0.09820800  0.10923200  0.56371500  1
  C  C54  1  0.10740300  0.28358600  0.00071100  1
  C  C55  1  0.32165000  0.88906000  0.85750100  1
  C  C56  1  0.40179200  0.10923200  0.06371500  1
  C  C57  1  0.93281400  0.30119600  0.69385500  1
