# generated using pymatgen
data_Cu3NiC
_symmetry_space_group_name_H-M   'P 1'
_cell_length_a   7.97773900
_cell_length_b   10.53645200
_cell_length_c   22.74659204
_cell_angle_alpha   66.41040127
_cell_angle_beta   90.00000000
_cell_angle_gamma   90.00000000
_symmetry_Int_Tables_number   1
_chemical_formula_structural   Cu3NiC
_chemical_formula_sum   'Cu36 Ni12 C12'
_cell_volume   1752.23523258
_cell_formula_units_Z   12
loop_
 _symmetry_equiv_pos_site_id
 _symmetry_equiv_pos_as_xyz
  1  'x, y, z'
loop_
 _atom_site_type_symbol
 _atom_site_label
 _atom_site_symmetry_multiplicity
 _atom_site_fract_x
 _atom_site_fract_y
 _atom_site_fract_z
 _atom_site_occupancy
  C  C0  1  0.08750600  0.75834800  0.50002700  1
  C  C1  1  0.60119800  0.55939600  0.67711600  1
  C  C2  1  0.91249400  0.24165200  0.49997300  1
  C  C3  1  0.41249400  0.75834800  0.00002700  1
  C  C4  1  0.39880200  0.44060400  0.32288400  1
  C  C5  1  0.58750600  0.24165200  0.99997300  1
  C  C6  1  0.89880200  0.55939600  0.17711600  1
  C  C7  1  0.10119800  0.44060400  0.82288400  1
  C  C8  1  0.09308500  0.10427300  0.14556000  1
  C  C9  1  0.90691500  0.89572700  0.85444000  1
  C  C10  1  0.59308500  0.89572700  0.35444000  1
  C  C11  1  0.40691500  0.10427300  0.64556000  1
  Ni  Ni12  1  0.62319000  0.62047100  0.84156100  1
  Ni  Ni13  1  0.37681000  0.37952900  0.15843900  1
  Ni  Ni14  1  0.38812200  0.06998900  0.48618200  1
  Ni  Ni15  1  0.88812200  0.93001100  0.01381800  1
  Ni  Ni16  1  0.58694400  0.22023500  0.19330800  1
  Ni  Ni17  1  0.41305600  0.77976500  0.80669200  1
  Ni  Ni18  1  0.12319000  0.37952900  0.65843900  1
  Ni  Ni19  1  0.08694400  0.77976500  0.30669200  1
  Ni  Ni20  1  0.61187800  0.93001100  0.51381800  1
  Ni  Ni21  1  0.87681000  0.62047100  0.34156100  1
  Ni  Ni22  1  0.91305600  0.22023500  0.69330800  1
  Ni  Ni23  1  0.11187800  0.06998900  0.98618200  1
  Cu  Cu24  1  0.32350300  0.79402100  0.71243700  1
  Cu  Cu25  1  0.45549800  0.01951200  0.20870400  1
  Cu  Cu26  1  0.21358000  0.36312900  0.56832700  1
  Cu  Cu27  1  0.17225400  0.27804700  0.22610300  1
  Cu  Cu28  1  0.46933700  0.57315100  0.15726900  1
  Cu  Cu29  1  0.28192000  0.70646300  0.38264600  1
  Cu  Cu30  1  0.80458700  0.92448800  0.10650300  1
  Cu  Cu31  1  0.69541300  0.92448800  0.60650300  1
  Cu  Cu32  1  0.82350300  0.20597900  0.78756300  1
  Cu  Cu33  1  0.19541300  0.07551200  0.89349700  1
  Cu  Cu34  1  0.67225400  0.72195300  0.27389700  1
  Cu  Cu35  1  0.96933700  0.42684900  0.34273100  1
  Cu  Cu36  1  0.79346100  0.01955200  0.43381200  1
  Cu  Cu37  1  0.97735600  0.73792300  0.00627400  1
  Cu  Cu38  1  0.52264400  0.73792300  0.50627400  1
  Cu  Cu39  1  0.20653900  0.98044800  0.56618800  1
  Cu  Cu40  1  0.17649700  0.79402100  0.21243700  1
  Cu  Cu41  1  0.03066300  0.57315100  0.65726900  1
  Cu  Cu42  1  0.28642000  0.36312900  0.06832700  1
  Cu  Cu43  1  0.04450200  0.01951200  0.70870400  1
  Cu  Cu44  1  0.02264400  0.26207700  0.99372600  1
  Cu  Cu45  1  0.70653900  0.01955200  0.93381200  1
  Cu  Cu46  1  0.30458700  0.07551200  0.39349700  1
  Cu  Cu47  1  0.71358000  0.63687100  0.93167300  1
  Cu  Cu48  1  0.32774600  0.27804700  0.72610300  1
  Cu  Cu49  1  0.95549800  0.98048800  0.29129600  1
  Cu  Cu50  1  0.82774600  0.72195300  0.77389700  1
  Cu  Cu51  1  0.78642000  0.63687100  0.43167300  1
  Cu  Cu52  1  0.54450200  0.98048800  0.79129600  1
  Cu  Cu53  1  0.53066300  0.42684900  0.84273100  1
  Cu  Cu54  1  0.67649700  0.20597900  0.28756300  1
  Cu  Cu55  1  0.21808000  0.70646300  0.88264600  1
  Cu  Cu56  1  0.29346100  0.98044800  0.06618800  1
  Cu  Cu57  1  0.71808000  0.29353700  0.61735400  1
  Cu  Cu58  1  0.47735600  0.26207700  0.49372600  1
  Cu  Cu59  1  0.78192000  0.29353700  0.11735400  1
