# generated using pymatgen
data_Cu2NiC4
_symmetry_space_group_name_H-M   'P 1'
_cell_length_a   9.16466300
_cell_length_b   8.26383100
_cell_length_c   8.41511016
_cell_angle_alpha   72.73629702
_cell_angle_beta   90.00000000
_cell_angle_gamma   90.00000000
_symmetry_Int_Tables_number   1
_chemical_formula_structural   Cu2NiC4
_chemical_formula_sum   'Cu8 Ni4 C16'
_cell_volume   608.60835351
_cell_formula_units_Z   4
loop_
 _symmetry_equiv_pos_site_id
 _symmetry_equiv_pos_as_xyz
  1  'x, y, z'
loop_
 _atom_site_type_symbol
 _atom_site_label
 _atom_site_symmetry_multiplicity
 _atom_site_fract_x
 _atom_site_fract_y
 _atom_site_fract_z
 _atom_site_occupancy
  C  C0  1  0.50000000  0.50000000  0.50000000  1
  C  C1  1  0.81939800  0.88160900  0.23154700  1
  C  C2  1  0.18060200  0.11839100  0.76845300  1
  C  C3  1  0.00000000  0.50000000  0.00000000  1
  C  C4  1  0.68060200  0.88160900  0.73154700  1
  C  C5  1  0.31939800  0.11839100  0.26845300  1
  C  C6  1  0.00000000  0.50000000  0.50000000  1
  C  C7  1  0.50000000  0.50000000  0.00000000  1
  Ni  Ni8  1  0.58877400  0.13235200  0.08442200  1
  Ni  Ni9  1  0.41122600  0.86764800  0.91557800  1
  Ni  Ni10  1  0.91122600  0.13235200  0.58442200  1
  Ni  Ni11  1  0.08877400  0.86764800  0.41557800  1
  Cu  Cu12  1  0.49247600  0.23296600  0.10489900  1
  Cu  Cu13  1  0.67264000  0.03027700  0.05808400  1
  Cu  Cu14  1  0.32736000  0.96972300  0.94191600  1
  Cu  Cu15  1  0.99247600  0.76703400  0.39510100  1
  Cu  Cu16  1  0.17264000  0.96972300  0.44191600  1
  Cu  Cu17  1  0.82736000  0.03027700  0.55808400  1
  Cu  Cu18  1  0.50752400  0.76703400  0.89510100  1
  Cu  Cu19  1  0.00752400  0.23296600  0.60489900  1
  C  C20  1  0.75371100  0.51978300  0.25777100  1
  C  C21  1  0.97858200  0.80041000  0.93208800  1
  C  C22  1  0.52141800  0.80041000  0.43208800  1
  C  C23  1  0.74628900  0.51978300  0.75777100  1
  C  C24  1  0.47858200  0.19959000  0.56791200  1
  C  C25  1  0.24628900  0.48021700  0.74222900  1
  C  C26  1  0.02141800  0.19959000  0.06791200  1
  C  C27  1  0.25371100  0.48021700  0.24222900  1
