# generated using pymatgen
data_CuNiC
_symmetry_space_group_name_H-M   'P 1'
_cell_length_a   6.12846200
_cell_length_b   8.51251400
_cell_length_c   8.56424800
_cell_angle_alpha   90.00000000
_cell_angle_beta   90.00000000
_cell_angle_gamma   90.00000000
_symmetry_Int_Tables_number   1
_chemical_formula_structural   CuNiC
_chemical_formula_sum   'Cu8 Ni8 C8'
_cell_volume   446.78498728
_cell_formula_units_Z   8
loop_
 _symmetry_equiv_pos_site_id
 _symmetry_equiv_pos_as_xyz
  1  'x, y, z'
loop_
 _atom_site_type_symbol
 _atom_site_label
 _atom_site_symmetry_multiplicity
 _atom_site_fract_x
 _atom_site_fract_y
 _atom_site_fract_z
 _atom_site_occupancy
  C  C0  1  0.53203700  0.78678600  0.71611200  1
  C  C1  1  0.46796300  0.28678600  0.71611200  1
  C  C2  1  0.46796300  0.21321400  0.21611200  1
  C  C3  1  0.53203700  0.71321400  0.21611200  1
  C  C4  1  0.06372600  0.49632900  0.99972100  1
  C  C5  1  0.93627400  0.99632900  0.99972100  1
  C  C6  1  0.06372600  0.00367100  0.49972100  1
  C  C7  1  0.93627400  0.50367100  0.49972100  1
  Ni  Ni8  1  0.84177600  0.70322700  0.47329300  1
  Ni  Ni9  1  0.15822400  0.29677300  0.97329300  1
  Ni  Ni10  1  0.85019200  0.46575300  0.69770800  1
  Ni  Ni11  1  0.15822400  0.20322700  0.47329300  1
  Ni  Ni12  1  0.84177600  0.79677300  0.97329300  1
  Ni  Ni13  1  0.14980800  0.53424700  0.19770800  1
  Ni  Ni14  1  0.85019200  0.03424700  0.19770800  1
  Ni  Ni15  1  0.14980800  0.96575300  0.69770800  1
  Cu  Cu16  1  0.63852600  0.07806600  0.92005800  1
  Cu  Cu17  1  0.36147400  0.92193400  0.42005800  1
  Cu  Cu18  1  0.63852600  0.42193400  0.42005800  1
  Cu  Cu19  1  0.76396100  0.07357600  0.57480900  1
  Cu  Cu20  1  0.23603900  0.57357600  0.57480900  1
  Cu  Cu21  1  0.76396100  0.42642400  0.07480900  1
  Cu  Cu22  1  0.36147400  0.57806600  0.92005800  1
  Cu  Cu23  1  0.23603900  0.92642400  0.07480900  1
