# generated using pymatgen
data_CuNi4C3
_symmetry_space_group_name_H-M   'P 1'
_cell_length_a   3.47323800
_cell_length_b   4.55500300
_cell_length_c   13.37820800
_cell_angle_alpha   90.00000000
_cell_angle_beta   90.00000000
_cell_angle_gamma   90.00000000
_symmetry_Int_Tables_number   1
_chemical_formula_structural   CuNi4C3
_chemical_formula_sum   'Cu2 Ni8 C6'
_cell_volume   211.65140471
_cell_formula_units_Z   2
loop_
 _symmetry_equiv_pos_site_id
 _symmetry_equiv_pos_as_xyz
  1  'x, y, z'
loop_
 _atom_site_type_symbol
 _atom_site_label
 _atom_site_symmetry_multiplicity
 _atom_site_fract_x
 _atom_site_fract_y
 _atom_site_fract_z
 _atom_site_occupancy
  C  C0  1  0.50000000  0.50000000  0.40422800  1
  C  C1  1  0.00000000  0.00000000  0.59577200  1
  C  C2  1  0.00000000  0.00000000  0.90403500  1
  C  C3  1  0.50000000  0.50000000  0.09596500  1
  C  C4  1  0.00000000  0.00000000  0.26001500  1
  C  C5  1  0.50000000  0.50000000  0.73998500  1
  Ni  Ni6  1  0.50000000  0.74482200  0.69382500  1
  Ni  Ni7  1  0.00000000  0.75517800  0.30617500  1
  Ni  Ni8  1  0.00000000  0.00000000  0.16087400  1
  Ni  Ni9  1  0.50000000  0.50000000  0.83912600  1
  Ni  Ni10  1  0.50000000  0.25517800  0.69382500  1
  Ni  Ni11  1  0.00000000  0.24482200  0.30617500  1
  Ni  Ni12  1  0.50000000  0.00000000  0.00625100  1
  Ni  Ni13  1  0.00000000  0.50000000  0.99374900  1
  Cu  Cu14  1  0.50000000  0.00000000  0.48164000  1
  Cu  Cu15  1  0.00000000  0.50000000  0.51836000  1
