# generated using pymatgen
data_CuNi2C7
_symmetry_space_group_name_H-M   'P 1'
_cell_length_a   6.03335800
_cell_length_b   4.82773300
_cell_length_c   22.74564615
_cell_angle_alpha   85.11708828
_cell_angle_beta   90.00000000
_cell_angle_gamma   90.00000000
_symmetry_Int_Tables_number   1
_chemical_formula_structural   CuNi2C7
_chemical_formula_sum   'Cu4 Ni8 C28'
_cell_volume   660.11800334
_cell_formula_units_Z   4
loop_
 _symmetry_equiv_pos_site_id
 _symmetry_equiv_pos_as_xyz
  1  'x, y, z'
loop_
 _atom_site_type_symbol
 _atom_site_label
 _atom_site_symmetry_multiplicity
 _atom_site_fract_x
 _atom_site_fract_y
 _atom_site_fract_z
 _atom_site_occupancy
  Ni  Ni0  1  0.15011100  0.75086500  0.68398900  1
  Ni  Ni1  1  0.12926400  0.23823100  0.93007700  1
  Ni  Ni2  1  0.87073600  0.76176900  0.06992300  1
  Ni  Ni3  1  0.65011100  0.24913500  0.81601100  1
  Ni  Ni4  1  0.84988900  0.24913500  0.31601100  1
  Ni  Ni5  1  0.34988900  0.75086500  0.18398900  1
  Ni  Ni6  1  0.62926400  0.76176900  0.56992300  1
  Ni  Ni7  1  0.37073600  0.23823100  0.43007700  1
  Cu  Cu8  1  0.73579900  0.22655600  0.17252800  1
  Cu  Cu9  1  0.23579900  0.77344400  0.32747200  1
  Cu  Cu10  1  0.26420100  0.77344400  0.82747200  1
  Cu  Cu11  1  0.76420100  0.22655600  0.67252800  1
  C  C12  1  0.91585900  0.43784200  0.47895700  1
  C  C13  1  0.08414100  0.56215800  0.52104300  1
  C  C14  1  0.41585900  0.56215800  0.02104300  1
  C  C15  1  0.58414100  0.43784200  0.97895700  1
  C  C16  1  0.19240500  0.08913700  0.33682100  1
  C  C17  1  0.59305900  0.25450100  0.72229300  1
  C  C18  1  0.01107200  0.72971500  0.55662600  1
  C  C19  1  0.48892800  0.72971500  0.05662600  1
  C  C20  1  0.99416100  0.34739700  0.68695000  1
  C  C21  1  0.40694100  0.74549900  0.27770700  1
  C  C22  1  0.71586000  0.51083600  0.48317500  1
  C  C23  1  0.09305900  0.74549900  0.77770700  1
  C  C24  1  0.98892800  0.27028500  0.44337400  1
  C  C25  1  0.66527700  0.35711900  0.61347900  1
  C  C26  1  0.83472300  0.35711900  0.11347900  1
  C  C27  1  0.28414000  0.48916400  0.51682500  1
  C  C28  1  0.80759500  0.91086300  0.66317900  1
  C  C29  1  0.30759500  0.08913700  0.83682100  1
  C  C30  1  0.50583900  0.34739700  0.18695000  1
  C  C31  1  0.49416100  0.65260300  0.81305000  1
  C  C32  1  0.00583900  0.65260300  0.31305000  1
  C  C33  1  0.90694100  0.25450100  0.22229300  1
  C  C34  1  0.51107200  0.27028500  0.94337400  1
  C  C35  1  0.69240500  0.91086300  0.16317900  1
  C  C36  1  0.78414000  0.51083600  0.98317500  1
  C  C37  1  0.16527700  0.64288100  0.88652100  1
  C  C38  1  0.33472300  0.64288100  0.38652100  1
  C  C39  1  0.21586000  0.48916400  0.01682500  1
