# generated using pymatgen
data_Cu6Ni8C9
_symmetry_space_group_name_H-M   'P 1'
_cell_length_a   7.36394437
_cell_length_b   7.36394437
_cell_length_c   6.11565800
_cell_angle_alpha   90.00000000
_cell_angle_beta   90.00000000
_cell_angle_gamma   120.00000330
_symmetry_Int_Tables_number   1
_chemical_formula_structural   Cu6Ni8C9
_chemical_formula_sum   'Cu6 Ni8 C9'
_cell_volume   287.20685791
_cell_formula_units_Z   1
loop_
 _symmetry_equiv_pos_site_id
 _symmetry_equiv_pos_as_xyz
  1  'x, y, z'
loop_
 _atom_site_type_symbol
 _atom_site_label
 _atom_site_symmetry_multiplicity
 _atom_site_fract_x
 _atom_site_fract_y
 _atom_site_fract_z
 _atom_site_occupancy
  C  C0  1  0.66666700  0.33333300  0.38307300  1
  C  C1  1  0.00000000  0.00000000  0.50000000  1
  C  C2  1  0.33333300  0.66666700  0.61692700  1
  C  C3  1  0.82391800  0.60184300  0.89018600  1
  C  C4  1  0.60184300  0.77792600  0.10981400  1
  C  C5  1  0.39815700  0.22207400  0.89018600  1
  C  C6  1  0.17608200  0.39815700  0.10981400  1
  C  C7  1  0.77792600  0.17608200  0.89018600  1
  C  C8  1  0.22207400  0.82391800  0.10981400  1
  Ni  Ni9  1  0.33078200  0.30349700  0.10427800  1
  Ni  Ni10  1  0.66921800  0.69650300  0.89572200  1
  Ni  Ni11  1  0.69650300  0.02728500  0.10427800  1
  Ni  Ni12  1  0.97271500  0.66921800  0.10427800  1
  Ni  Ni13  1  0.30349700  0.97271500  0.89572200  1
  Ni  Ni14  1  0.33333300  0.66666700  0.07988300  1
  Ni  Ni15  1  0.66666700  0.33333300  0.92011700  1
  Ni  Ni16  1  0.02728500  0.33078200  0.89572200  1
  Cu  Cu17  1  0.07475400  0.36313500  0.33778500  1
  Cu  Cu18  1  0.36313500  0.28838100  0.66221500  1
  Cu  Cu19  1  0.28838100  0.92524600  0.33778500  1
  Cu  Cu20  1  0.71161900  0.07475400  0.66221500  1
  Cu  Cu21  1  0.92524600  0.63686500  0.66221500  1
  Cu  Cu22  1  0.63686500  0.71161900  0.33778500  1
