# generated using pymatgen
data_Cu3NiC8
_symmetry_space_group_name_H-M   'P 1'
_cell_length_a   9.47903100
_cell_length_b   9.86352400
_cell_length_c   12.28748700
_cell_angle_alpha   90.00000000
_cell_angle_beta   90.00000000
_cell_angle_gamma   90.00000000
_symmetry_Int_Tables_number   1
_chemical_formula_structural   Cu3NiC8
_chemical_formula_sum   'Cu12 Ni4 C32'
_cell_volume   1148.83886853
_cell_formula_units_Z   4
loop_
 _symmetry_equiv_pos_site_id
 _symmetry_equiv_pos_as_xyz
  1  'x, y, z'
loop_
 _atom_site_type_symbol
 _atom_site_label
 _atom_site_symmetry_multiplicity
 _atom_site_fract_x
 _atom_site_fract_y
 _atom_site_fract_z
 _atom_site_occupancy
  C  C0  1  0.87627400  0.99531400  0.68311900  1
  C  C1  1  0.87627400  0.50468600  0.68311900  1
  C  C2  1  0.12372600  0.49531400  0.31688100  1
  C  C3  1  0.12372600  0.00468600  0.31688100  1
  C  C4  1  0.58092100  0.75000000  0.46149800  1
  C  C5  1  0.62372600  0.49531400  0.18311900  1
  C  C6  1  0.37627400  0.50468600  0.81688100  1
  C  C7  1  0.91907900  0.25000000  0.96149800  1
  C  C8  1  0.41907900  0.25000000  0.53850200  1
  C  C9  1  0.62372600  0.00468600  0.18311900  1
  C  C10  1  0.08092100  0.75000000  0.03850200  1
  C  C11  1  0.37627400  0.99531400  0.81688100  1
  C  C12  1  0.17945500  0.75000000  0.59224100  1
  C  C13  1  0.32054500  0.25000000  0.09224100  1
  C  C14  1  0.67945500  0.75000000  0.90775900  1
  C  C15  1  0.82054500  0.25000000  0.40775900  1
  Ni  Ni16  1  0.34295700  0.75000000  0.27110300  1
  Ni  Ni17  1  0.84295700  0.75000000  0.22889700  1
  Ni  Ni18  1  0.65704300  0.25000000  0.72889700  1
  Ni  Ni19  1  0.15704300  0.25000000  0.77110300  1
  C  C20  1  0.12777700  0.75000000  0.77565200  1
  C  C21  1  0.30709900  0.56112600  0.55056600  1
  C  C22  1  0.53173600  0.25000000  0.00209600  1
  C  C23  1  0.19290100  0.43887400  0.05056600  1
  C  C24  1  0.62777700  0.75000000  0.72434800  1
  C  C25  1  0.80709900  0.93887400  0.94943400  1
  C  C26  1  0.87222300  0.25000000  0.22434800  1
  C  C27  1  0.19290100  0.06112600  0.05056600  1
  C  C28  1  0.80709900  0.56112600  0.94943400  1
  C  C29  1  0.69290100  0.43887400  0.44943400  1
  C  C30  1  0.03173600  0.25000000  0.49790400  1
  C  C31  1  0.46826400  0.75000000  0.99790400  1
  C  C32  1  0.37222300  0.25000000  0.27565200  1
  C  C33  1  0.96826400  0.75000000  0.50209600  1
  C  C34  1  0.69290100  0.06112600  0.44943400  1
  C  C35  1  0.30709900  0.93887400  0.55056600  1
  Cu  Cu36  1  0.40533100  0.63834100  0.28757400  1
  Cu  Cu37  1  0.59466900  0.13834100  0.71242600  1
  Cu  Cu38  1  0.40533100  0.86165900  0.28757400  1
  Cu  Cu39  1  0.71423700  0.75000000  0.25856400  1
  Cu  Cu40  1  0.28576300  0.25000000  0.74143600  1
  Cu  Cu41  1  0.78576300  0.25000000  0.75856400  1
  Cu  Cu42  1  0.09466900  0.36165900  0.78757400  1
  Cu  Cu43  1  0.09466900  0.13834100  0.78757400  1
  Cu  Cu44  1  0.90533100  0.63834100  0.21242600  1
  Cu  Cu45  1  0.59466900  0.36165900  0.71242600  1
  Cu  Cu46  1  0.21423700  0.75000000  0.24143600  1
  Cu  Cu47  1  0.90533100  0.86165900  0.21242600  1
