# generated using pymatgen
data_CuNiC10
_symmetry_space_group_name_H-M   'P 1'
_cell_length_a   6.71381700
_cell_length_b   7.24292501
_cell_length_c   7.47785643
_cell_angle_alpha   99.17660050
_cell_angle_beta   96.94749073
_cell_angle_gamma   89.78079713
_symmetry_Int_Tables_number   1
_chemical_formula_structural   CuNiC10
_chemical_formula_sum   'Cu2 Ni2 C20'
_cell_volume   356.29663205
_cell_formula_units_Z   2
loop_
 _symmetry_equiv_pos_site_id
 _symmetry_equiv_pos_as_xyz
  1  'x, y, z'
loop_
 _atom_site_type_symbol
 _atom_site_label
 _atom_site_symmetry_multiplicity
 _atom_site_fract_x
 _atom_site_fract_y
 _atom_site_fract_z
 _atom_site_occupancy
  Ni  Ni0  1  0.06782200  0.68969500  0.27573500  1
  Ni  Ni1  1  0.93217800  0.31030500  0.72426500  1
  Cu  Cu2  1  0.64374100  0.80642600  0.80199700  1
  Cu  Cu3  1  0.35625900  0.19357400  0.19800300  1
  C  C4  1  0.13321500  0.81440300  0.78452300  1
  C  C5  1  0.43162400  0.28512500  0.71139200  1
  C  C6  1  0.56837600  0.71487500  0.28860800  1
  C  C7  1  0.86678500  0.18559700  0.21547700  1
  C  C8  1  0.43170400  0.90687400  0.31710700  1
  C  C9  1  0.74493300  0.25998600  0.39340700  1
  C  C10  1  0.96551700  0.98333700  0.76157300  1
  C  C11  1  0.40515000  0.53450000  0.24086000  1
  C  C12  1  0.67652900  0.11165700  0.04913600  1
  C  C13  1  0.03448300  0.01666300  0.23842700  1
  C  C14  1  0.00842400  0.35149400  0.15618800  1
  C  C15  1  0.59485000  0.46550000  0.75914000  1
  C  C16  1  0.32347100  0.88834300  0.95086400  1
  C  C17  1  0.99157600  0.64850600  0.84381200  1
  C  C18  1  0.56829600  0.09312600  0.68289300  1
  C  C19  1  0.28807100  0.28764000  0.87974400  1
  C  C20  1  0.27850400  0.29488300  0.51935600  1
  C  C21  1  0.25506700  0.74001400  0.60659300  1
  C  C22  1  0.71192900  0.71236000  0.12025600  1
  C  C23  1  0.72149600  0.70511700  0.48064400  1
