# generated using pymatgen
data_Cu6NiC7
_symmetry_space_group_name_H-M   'P 1'
_cell_length_a   5.67462100
_cell_length_b   9.60686300
_cell_length_c   9.92404600
_cell_angle_alpha   90.00000000
_cell_angle_beta   90.00000000
_cell_angle_gamma   90.00000000
_symmetry_Int_Tables_number   1
_chemical_formula_structural   Cu6NiC7
_chemical_formula_sum   'Cu24 Ni4 C28'
_cell_volume   541.01240965
_cell_formula_units_Z   4
loop_
 _symmetry_equiv_pos_site_id
 _symmetry_equiv_pos_as_xyz
  1  'x, y, z'
loop_
 _atom_site_type_symbol
 _atom_site_label
 _atom_site_symmetry_multiplicity
 _atom_site_fract_x
 _atom_site_fract_y
 _atom_site_fract_z
 _atom_site_occupancy
  C  C0  1  0.24612000  0.19050600  0.27504200  1
  C  C1  1  0.25388000  0.80949400  0.77504200  1
  C  C2  1  0.74612000  0.30949400  0.72495800  1
  C  C3  1  0.75388000  0.69050600  0.22495800  1
  C  C4  1  0.98730500  0.09867000  0.86968800  1
  C  C5  1  0.61806500  0.46792500  0.40578400  1
  C  C6  1  0.10364900  0.96715500  0.10130200  1
  C  C7  1  0.89635100  0.46715500  0.39869800  1
  C  C8  1  0.51917200  0.09924300  0.87297100  1
  C  C9  1  0.01269500  0.59867000  0.63031200  1
  C  C10  1  0.68369500  0.70977200  0.64871100  1
  C  C11  1  0.98082800  0.90075700  0.37297100  1
  C  C12  1  0.60364900  0.53284500  0.89869800  1
  C  C13  1  0.81630500  0.29022800  0.14871100  1
  C  C14  1  0.49736300  0.26370900  0.03957000  1
  C  C15  1  0.11806500  0.03207500  0.59421600  1
  C  C16  1  0.01917200  0.40075700  0.12702900  1
  C  C17  1  0.48082800  0.59924300  0.62702900  1
  C  C18  1  0.48730500  0.40133000  0.13031200  1
  C  C19  1  0.38193500  0.96792500  0.09421600  1
  C  C20  1  0.31630500  0.20977200  0.85128900  1
  C  C21  1  0.51269500  0.90133000  0.36968800  1
  C  C22  1  0.50263700  0.76370900  0.46043000  1
  C  C23  1  0.88193500  0.53207500  0.90578400  1
  C  C24  1  0.39635100  0.03284500  0.60130200  1
  C  C25  1  0.99736300  0.23629100  0.96043000  1
  C  C26  1  0.00263700  0.73629100  0.53957000  1
  C  C27  1  0.18369500  0.79022800  0.35128900  1
  Ni  Ni28  1  0.25476500  0.65794100  0.06509400  1
  Ni  Ni29  1  0.24523500  0.34205900  0.56509400  1
  Ni  Ni30  1  0.74523500  0.15794100  0.43490600  1
  Ni  Ni31  1  0.75476500  0.84205900  0.93490600  1
  Cu  Cu32  1  0.98951700  0.29741400  0.13128100  1
  Cu  Cu33  1  0.25445000  0.98597200  0.63516000  1
  Cu  Cu34  1  0.99046300  0.70280000  0.63469500  1
  Cu  Cu35  1  0.02940000  0.42399300  0.61980900  1
  Cu  Cu36  1  0.74555000  0.48597200  0.86484000  1
  Cu  Cu37  1  0.53641000  0.92377500  0.88270000  1
  Cu  Cu38  1  0.48951700  0.20258600  0.86871900  1
  Cu  Cu39  1  0.47060000  0.57600700  0.11980900  1
  Cu  Cu40  1  0.50953700  0.29720000  0.13469500  1
  Cu  Cu41  1  0.25764700  0.62917500  0.91133200  1
  Cu  Cu42  1  0.24555000  0.01402800  0.13516000  1
  Cu  Cu43  1  0.52940000  0.07600700  0.38019100  1
  Cu  Cu44  1  0.51048300  0.70258600  0.63128100  1
  Cu  Cu45  1  0.75445000  0.51402800  0.36484000  1
  Cu  Cu46  1  0.46359000  0.42377500  0.61730000  1
  Cu  Cu47  1  0.75764700  0.87082500  0.08866800  1
  Cu  Cu48  1  0.74235300  0.12917500  0.58866800  1
  Cu  Cu49  1  0.01048300  0.79741400  0.36871900  1
  Cu  Cu50  1  0.00953700  0.20280000  0.86530500  1
  Cu  Cu51  1  0.03641000  0.57622500  0.11730000  1
  Cu  Cu52  1  0.49046300  0.79720000  0.36530500  1
  Cu  Cu53  1  0.96359000  0.07622500  0.38270000  1
  Cu  Cu54  1  0.97060000  0.92399300  0.88019100  1
  Cu  Cu55  1  0.24235300  0.37082500  0.41133200  1
