# generated using pymatgen
data_Cu6Ni2C29
_symmetry_space_group_name_H-M   'P 1'
_cell_length_a   14.87211441
_cell_length_b   14.87211441
_cell_length_c   8.00532000
_cell_angle_alpha   90.00000000
_cell_angle_beta   90.00000000
_cell_angle_gamma   120.00000180
_symmetry_Int_Tables_number   1
_chemical_formula_structural   Cu6Ni2C29
_chemical_formula_sum   'Cu18 Ni6 C87'
_cell_volume   1533.39751782
_cell_formula_units_Z   3
loop_
 _symmetry_equiv_pos_site_id
 _symmetry_equiv_pos_as_xyz
  1  'x, y, z'
loop_
 _atom_site_type_symbol
 _atom_site_label
 _atom_site_symmetry_multiplicity
 _atom_site_fract_x
 _atom_site_fract_y
 _atom_site_fract_z
 _atom_site_occupancy
  Ni  Ni0  1  0.00000000  0.00000000  0.30033700  1
  Ni  Ni1  1  0.33333300  0.66666700  0.19768900  1
  Ni  Ni2  1  0.33333300  0.66666700  0.79861800  1
  Ni  Ni3  1  0.66666700  0.33333300  0.20138200  1
  Ni  Ni4  1  0.66666700  0.33333300  0.80231100  1
  Ni  Ni5  1  0.00000000  0.00000000  0.69966300  1
  C  C6  1  0.00056300  0.66185600  0.05045700  1
  C  C7  1  0.67251700  0.00249200  0.44448900  1
  C  C8  1  0.66185600  0.66129300  0.94954300  1
  C  C9  1  0.00249200  0.32997500  0.55551100  1
  C  C10  1  0.66129300  0.99943700  0.05045700  1
  C  C11  1  0.67002500  0.67251700  0.55551100  1
  C  C12  1  0.99943700  0.33814400  0.94954300  1
  C  C13  1  0.32997500  0.32748300  0.44448900  1
  C  C14  1  0.32748300  0.99750800  0.55551100  1
  C  C15  1  0.33870700  0.00056300  0.94954300  1
  C  C16  1  0.33814400  0.33870700  0.05045700  1
  C  C17  1  0.99750800  0.67002500  0.44448900  1
  Cu  Cu18  1  0.42734900  0.89795500  0.25368800  1
  Cu  Cu19  1  0.10204500  0.52939400  0.25368800  1
  Cu  Cu20  1  0.76789000  0.86210900  0.25006600  1
  Cu  Cu21  1  0.47060600  0.57265100  0.25368800  1
  Cu  Cu22  1  0.86210900  0.09421900  0.74993400  1
  Cu  Cu23  1  0.23211000  0.13789100  0.74993400  1
  Cu  Cu24  1  0.75968400  0.56515500  0.25166300  1
  Cu  Cu25  1  0.90578100  0.76789000  0.74993400  1
  Cu  Cu26  1  0.24031600  0.43484500  0.74833700  1
  Cu  Cu27  1  0.57265100  0.10204500  0.74631200  1
  Cu  Cu28  1  0.13789100  0.90578100  0.25006600  1
  Cu  Cu29  1  0.80547100  0.24031600  0.25166300  1
  Cu  Cu30  1  0.56515500  0.80547100  0.74833700  1
  Cu  Cu31  1  0.09421900  0.23211000  0.25006600  1
  Cu  Cu32  1  0.89795500  0.47060600  0.74631200  1
  Cu  Cu33  1  0.52939400  0.42734900  0.74631200  1
  Cu  Cu34  1  0.43484500  0.19452900  0.25166300  1
  Cu  Cu35  1  0.19452900  0.75968400  0.74833700  1
  C  C36  1  0.47726300  0.38582900  0.91447300  1
  C  C37  1  0.27869600  0.40974000  0.59034800  1
  C  C38  1  0.40793900  0.78309100  0.26989300  1
  C  C39  1  0.91552400  0.53714800  0.59382600  1
  C  C40  1  0.78309100  0.37515200  0.73010700  1
  C  C41  1  0.08447600  0.46285200  0.40617400  1
  C  C42  1  0.62484800  0.40793900  0.73010700  1
  C  C43  1  0.61417100  0.09143400  0.91447300  1
  C  C44  1  0.91734800  0.21580800  0.75590900  1
  C  C45  1  0.95532400  0.07197100  0.77306900  1
  C  C46  1  0.72130400  0.59026000  0.40965200  1
  C  C47  1  0.24071500  0.18662900  0.57929600  1
  C  C48  1  0.75023800  0.11879300  0.24247200  1
  C  C49  1  0.29050500  0.42942700  0.91064800  1
  C  C50  1  0.45002600  0.71166100  0.72562800  1
  C  C51  1  0.88335300  0.95532400  0.22693100  1
  C  C52  1  0.36855500  0.24976200  0.24247200  1
  C  C53  1  0.73836500  0.45002600  0.27437200  1
  C  C54  1  0.08265200  0.78419200  0.24409100  1
  C  C55  1  0.92802900  0.88335300  0.77306900  1
  C  C56  1  0.66666700  0.33333300  0.00186000  1
  C  C57  1  0.13892200  0.70949500  0.91064800  1
  C  C58  1  0.33333300  0.66666700  0.99814000  1
  C  C59  1  0.57057300  0.86107800  0.91064800  1
  C  C60  1  0.24976200  0.88120700  0.75752800  1
  C  C61  1  0.18662900  0.94591400  0.42070400  1
  C  C62  1  0.94591400  0.75928500  0.57929600  1
  C  C63  1  0.90856600  0.52273700  0.91447300  1
  C  C64  1  0.62162400  0.08447600  0.59382600  1
  C  C65  1  0.79155300  0.04563800  0.89841600  1
  C  C66  1  0.58253000  0.54883500  0.74381800  1
  C  C67  1  0.42942700  0.13892200  0.08935200  1
  C  C68  1  0.00000000  0.00000000  0.50000000  1
  C  C69  1  0.11879300  0.36855500  0.75752800  1
  C  C70  1  0.21580800  0.29846000  0.24409100  1
  C  C71  1  0.11664700  0.04467600  0.77306900  1
  C  C72  1  0.59026000  0.86895600  0.59034800  1
  C  C73  1  0.25408500  0.20844700  0.89841600  1
  C  C74  1  0.38582900  0.90856600  0.08552700  1
  C  C75  1  0.04467600  0.92802900  0.22693100  1
  C  C76  1  0.13104400  0.72130400  0.59034800  1
  C  C77  1  0.70154000  0.91734800  0.24409100  1
  C  C78  1  0.88120700  0.63144500  0.24247200  1
  C  C79  1  0.21690900  0.62484800  0.26989300  1
  C  C80  1  0.41747000  0.45116500  0.25618200  1
  C  C81  1  0.04563800  0.25408500  0.10158400  1
  C  C82  1  0.63144500  0.75023800  0.75752800  1
  C  C83  1  0.86895600  0.27869600  0.40965200  1
  C  C84  1  0.37837600  0.91552400  0.40617400  1
  C  C85  1  0.20844700  0.95436200  0.10158400  1
  C  C86  1  0.59206100  0.21690900  0.73010700  1
  C  C87  1  0.03369500  0.58253000  0.25618200  1
  C  C88  1  0.29846000  0.08265200  0.75590900  1
  C  C89  1  0.54997400  0.28833900  0.27437200  1
  C  C90  1  0.81337100  0.05408600  0.57929600  1
  C  C91  1  0.05408600  0.24071500  0.42070400  1
  C  C92  1  0.40974000  0.13104400  0.40965200  1
  C  C93  1  0.37515200  0.59206100  0.26989300  1
  C  C94  1  0.28833900  0.73836500  0.72562800  1
  C  C95  1  0.46285200  0.37837600  0.59382600  1
  C  C96  1  0.26163500  0.54997400  0.72562800  1
  C  C97  1  0.09143400  0.47726300  0.08552700  1
  C  C98  1  0.52273700  0.61417100  0.08552700  1
  C  C99  1  0.95436200  0.74591500  0.89841600  1
  C  C100  1  0.71166100  0.26163500  0.27437200  1
  C  C101  1  0.54883500  0.96630500  0.25618200  1
  C  C102  1  0.53714800  0.62162400  0.40617400  1
  C  C103  1  0.45116500  0.03369500  0.74381800  1
  C  C104  1  0.78419200  0.70154000  0.75590900  1
  C  C105  1  0.96630500  0.41747000  0.74381800  1
  C  C106  1  0.70949500  0.57057300  0.08935200  1
  C  C107  1  0.07197100  0.11664700  0.22693100  1
  C  C108  1  0.74591500  0.79155300  0.10158400  1
  C  C109  1  0.86107800  0.29050500  0.08935200  1
  C  C110  1  0.75928500  0.81337100  0.42070400  1
