# generated using pymatgen
data_Cu4Ni4C27
_symmetry_space_group_name_H-M   'P 1'
_cell_length_a   10.60571100
_cell_length_b   7.65981300
_cell_length_c   15.68691995
_cell_angle_alpha   65.35979267
_cell_angle_beta   90.00000000
_cell_angle_gamma   90.00000000
_symmetry_Int_Tables_number   1
_chemical_formula_structural   Cu4Ni4C27
_chemical_formula_sum   'Cu8 Ni8 C54'
_cell_volume   1158.33091828
_cell_formula_units_Z   2
loop_
 _symmetry_equiv_pos_site_id
 _symmetry_equiv_pos_as_xyz
  1  'x, y, z'
loop_
 _atom_site_type_symbol
 _atom_site_label
 _atom_site_symmetry_multiplicity
 _atom_site_fract_x
 _atom_site_fract_y
 _atom_site_fract_z
 _atom_site_occupancy
  C  C0  1  0.00000000  0.00000000  0.00000000  1
  C  C1  1  0.50000000  0.00000000  0.50000000  1
  C  C2  1  0.24271400  0.19634200  0.61351900  1
  C  C3  1  0.74271400  0.80365800  0.88648100  1
  C  C4  1  0.75728600  0.80365800  0.38648100  1
  C  C5  1  0.25728600  0.19634200  0.11351900  1
  Ni  Ni6  1  0.19941700  0.85408600  0.44926800  1
  Ni  Ni7  1  0.43592800  0.46076500  0.31573800  1
  Ni  Ni8  1  0.56407200  0.53923500  0.68426200  1
  Ni  Ni9  1  0.80058300  0.14591400  0.55073200  1
  Ni  Ni10  1  0.30058300  0.85408600  0.94926800  1
  Ni  Ni11  1  0.69941700  0.14591400  0.05073200  1
  Ni  Ni12  1  0.93592800  0.53923500  0.18426200  1
  Ni  Ni13  1  0.06407200  0.46076500  0.81573800  1
  Cu  Cu14  1  0.32589500  0.90143500  0.45875400  1
  Cu  Cu15  1  0.17410500  0.90143500  0.95875400  1
  Cu  Cu16  1  0.67410500  0.09856500  0.54124600  1
  Cu  Cu17  1  0.48021100  0.27797500  0.37825700  1
  Cu  Cu18  1  0.98021100  0.72202500  0.12174300  1
  Cu  Cu19  1  0.51978900  0.72202500  0.62174300  1
  Cu  Cu20  1  0.01978900  0.27797500  0.87825700  1
  Cu  Cu21  1  0.82589500  0.09856500  0.04124600  1
  C  C22  1  0.07564800  0.63183000  0.84507000  1
  C  C23  1  0.11718900  0.72775200  0.53596500  1
  C  C24  1  0.69424900  0.74614700  0.00314700  1
  C  C25  1  0.10631000  0.11121100  0.08711800  1
  C  C26  1  0.40075400  0.27920100  0.13951000  1
  C  C27  1  0.50781000  0.57687400  0.22184100  1
  C  C28  1  0.33229000  0.73849400  0.89022700  1
  C  C29  1  0.30156000  0.48884500  0.27012400  1
  C  C30  1  0.39369000  0.11121100  0.58711800  1
  C  C31  1  0.40359200  0.01190900  0.90410900  1
  C  C32  1  0.49219000  0.42312600  0.77815900  1
  C  C33  1  0.57564800  0.36817000  0.65493000  1
  C  C34  1  0.59924600  0.72079900  0.86049000  1
  C  C35  1  0.83229000  0.26150600  0.60977300  1
  C  C36  1  0.19844000  0.48884500  0.77012400  1
  C  C37  1  0.31159500  0.42710400  0.57570700  1
  C  C38  1  0.59640800  0.98809100  0.09589100  1
  C  C39  1  0.38281100  0.72775200  0.03596500  1
  C  C40  1  0.68277000  0.03857500  0.85146800  1
  C  C41  1  0.18840500  0.42710400  0.07570700  1
  C  C42  1  0.31723000  0.96142500  0.14853200  1
  C  C43  1  0.09924600  0.27920100  0.63951000  1
  C  C44  1  0.89369000  0.88878900  0.91288200  1
  C  C45  1  0.80156000  0.51115500  0.22987600  1
  C  C46  1  0.79971500  0.86310000  0.77218100  1
  C  C47  1  0.00781000  0.42312600  0.27815900  1
  C  C48  1  0.20028500  0.13690000  0.22781900  1
  C  C49  1  0.18277000  0.96142500  0.64853200  1
  C  C50  1  0.69844000  0.51115500  0.72987600  1
  C  C51  1  0.99219000  0.57687400  0.72184100  1
  C  C52  1  0.30575100  0.25385300  0.99685300  1
  C  C53  1  0.70028500  0.86310000  0.27218100  1
  C  C54  1  0.66771000  0.26150600  0.10977300  1
  C  C55  1  0.90359200  0.98809100  0.59589100  1
  C  C56  1  0.61718900  0.27224800  0.96403500  1
  C  C57  1  0.29971500  0.13690000  0.72781900  1
  C  C58  1  0.60631000  0.88878900  0.41288200  1
  C  C59  1  0.19424900  0.25385300  0.49685300  1
  C  C60  1  0.68840500  0.57289600  0.42429300  1
  C  C61  1  0.42435200  0.63183000  0.34507000  1
  C  C62  1  0.16771000  0.73849400  0.39022700  1
  C  C63  1  0.90075400  0.72079900  0.36049000  1
  C  C64  1  0.81723000  0.03857500  0.35146800  1
  C  C65  1  0.80575100  0.74614700  0.50314700  1
  C  C66  1  0.81159500  0.57289600  0.92429300  1
  C  C67  1  0.88281100  0.27224800  0.46403500  1
  C  C68  1  0.09640800  0.01190900  0.40410900  1
  C  C69  1  0.92435200  0.36817000  0.15493000  1
