# generated using pymatgen
data_Cu2Ni2C5
_symmetry_space_group_name_H-M   'P 1'
_cell_length_a   5.86399872
_cell_length_b   5.86399872
_cell_length_c   3.74863162
_cell_angle_alpha   81.95692911
_cell_angle_beta   81.95692911
_cell_angle_gamma   97.99273194
_symmetry_Int_Tables_number   1
_chemical_formula_structural   Cu2Ni2C5
_chemical_formula_sum   'Cu2 Ni2 C5'
_cell_volume   124.71369387
_cell_formula_units_Z   1
loop_
 _symmetry_equiv_pos_site_id
 _symmetry_equiv_pos_as_xyz
  1  'x, y, z'
loop_
 _atom_site_type_symbol
 _atom_site_label
 _atom_site_symmetry_multiplicity
 _atom_site_fract_x
 _atom_site_fract_y
 _atom_site_fract_z
 _atom_site_occupancy
  C  C0  1  0.00000000  0.00000000  0.00000000  1
  C  C1  1  0.59998600  0.22095300  0.14991000  1
  C  C2  1  0.77904700  0.40001400  0.85009000  1
  C  C3  1  0.40001400  0.77904700  0.85009000  1
  C  C4  1  0.22095300  0.59998600  0.14991000  1
  Ni  Ni5  1  0.76154500  0.76154500  0.59152800  1
  Ni  Ni6  1  0.23845500  0.23845500  0.40847200  1
  Cu  Cu7  1  0.75600900  0.24399100  0.00000000  1
  Cu  Cu8  1  0.24399100  0.75600900  0.00000000  1
