# generated using pymatgen
data_Cu3NiC
_symmetry_space_group_name_H-M   'P 1'
_cell_length_a   7.44771801
_cell_length_b   7.44771801
_cell_length_c   19.28676900
_cell_angle_alpha   90.00000000
_cell_angle_beta   90.00000000
_cell_angle_gamma   120.00000009
_symmetry_Int_Tables_number   1
_chemical_formula_structural   Cu3NiC
_chemical_formula_sum   'Cu18 Ni6 C6'
_cell_volume   926.48109046
_cell_formula_units_Z   6
loop_
 _symmetry_equiv_pos_site_id
 _symmetry_equiv_pos_as_xyz
  1  'x, y, z'
loop_
 _atom_site_type_symbol
 _atom_site_label
 _atom_site_symmetry_multiplicity
 _atom_site_fract_x
 _atom_site_fract_y
 _atom_site_fract_z
 _atom_site_occupancy
  C  C0  1  0.28546000  0.73392700  0.41257700  1
  C  C1  1  0.73392700  0.28546000  0.58742300  1
  C  C2  1  0.71454000  0.44846700  0.92075700  1
  C  C3  1  0.44846700  0.71454000  0.07924300  1
  C  C4  1  0.26607300  0.55153300  0.74591000  1
  C  C5  1  0.55153300  0.26607300  0.25409000  1
  Ni  Ni6  1  0.93763000  0.07087400  0.38729000  1
  Ni  Ni7  1  0.07087400  0.93763000  0.61271000  1
  Ni  Ni8  1  0.86675600  0.92912600  0.27937700  1
  Ni  Ni9  1  0.92912600  0.86675600  0.72062300  1
  Ni  Ni10  1  0.13324400  0.06237000  0.05395600  1
  Ni  Ni11  1  0.06237000  0.13324400  0.94604400  1
  Cu  Cu12  1  0.00083200  0.72990300  0.05899400  1
  Cu  Cu13  1  0.92448200  0.17725200  0.11059600  1
  Cu  Cu14  1  0.82274800  0.74723000  0.44392900  1
  Cu  Cu15  1  0.25277000  0.07551800  0.77726200  1
  Cu  Cu16  1  0.99916800  0.72907100  0.27433900  1
  Cu  Cu17  1  0.54305000  0.79752300  0.25310100  1
  Cu  Cu18  1  0.17725200  0.92448200  0.88940400  1
  Cu  Cu19  1  0.27092900  0.27009700  0.60767200  1
  Cu  Cu20  1  0.74723000  0.82274800  0.55607100  1
  Cu  Cu21  1  0.27009700  0.27092900  0.39232800  1
  Cu  Cu22  1  0.45695000  0.25447300  0.08023200  1
  Cu  Cu23  1  0.25447300  0.45695000  0.91976800  1
  Cu  Cu24  1  0.20247700  0.74552700  0.58643400  1
  Cu  Cu25  1  0.79752300  0.54305000  0.74689900  1
  Cu  Cu26  1  0.72990300  0.00083200  0.94100600  1
  Cu  Cu27  1  0.07551800  0.25277000  0.22273800  1
  Cu  Cu28  1  0.74552700  0.20247700  0.41356600  1
  Cu  Cu29  1  0.72907100  0.99916800  0.72566100  1
