# generated using pymatgen
data_CuNi3C11
_symmetry_space_group_name_H-M   'P 1'
_cell_length_a   5.36636576
_cell_length_b   5.36636576
_cell_length_c   14.53427600
_cell_angle_alpha   90.00000000
_cell_angle_beta   90.00000000
_cell_angle_gamma   119.99999699
_symmetry_Int_Tables_number   1
_chemical_formula_structural   CuNi3C11
_chemical_formula_sum   'Cu2 Ni6 C22'
_cell_volume   362.48044894
_cell_formula_units_Z   2
loop_
 _symmetry_equiv_pos_site_id
 _symmetry_equiv_pos_as_xyz
  1  'x, y, z'
loop_
 _atom_site_type_symbol
 _atom_site_label
 _atom_site_symmetry_multiplicity
 _atom_site_fract_x
 _atom_site_fract_y
 _atom_site_fract_z
 _atom_site_occupancy
  Ni  Ni0  1  0.66666700  0.33333300  0.69758900  1
  Ni  Ni1  1  0.66666700  0.33333300  0.98130700  1
  Ni  Ni2  1  0.66666700  0.33333300  0.48130700  1
  Ni  Ni3  1  0.33333300  0.66666700  0.51347400  1
  Ni  Ni4  1  0.33333300  0.66666700  0.01347400  1
  Ni  Ni5  1  0.66666700  0.33333300  0.19758900  1
  C  C6  1  0.00000000  0.00000000  0.85790700  1
  C  C7  1  0.00000000  0.00000000  0.14113500  1
  C  C8  1  0.00000000  0.00000000  0.64113500  1
  C  C9  1  0.00000000  0.00000000  0.35790700  1
  Cu  Cu10  1  0.33333300  0.66666700  0.79434600  1
  Cu  Cu11  1  0.33333300  0.66666700  0.29434600  1
  C  C12  1  0.33643100  0.30939100  0.08491600  1
  C  C13  1  0.66372200  0.68959000  0.91390000  1
  C  C14  1  0.01010800  0.28663600  0.24969700  1
  C  C15  1  0.27652800  0.98989200  0.24969700  1
  C  C16  1  0.97296000  0.66356900  0.08491600  1
  C  C17  1  0.69060900  0.66356900  0.58491600  1
  C  C18  1  0.71336400  0.98989200  0.74969700  1
  C  C19  1  0.02586800  0.33627800  0.91390000  1
  C  C20  1  0.02586800  0.68959000  0.41390000  1
  C  C21  1  0.33643100  0.02704000  0.58491600  1
  C  C22  1  0.27652800  0.28663600  0.74969700  1
  C  C23  1  0.97296000  0.30939100  0.58491600  1
  C  C24  1  0.71336400  0.72347200  0.24969700  1
  C  C25  1  0.31041000  0.97413200  0.91390000  1
  C  C26  1  0.69060900  0.02704000  0.08491600  1
  C  C27  1  0.66372200  0.97413200  0.41390000  1
  C  C28  1  0.31041000  0.33627800  0.41390000  1
  C  C29  1  0.01010800  0.72347200  0.74969700  1
