# generated using pymatgen
data_Cu6Ni3C4
_symmetry_space_group_name_H-M   'P 1'
_cell_length_a   9.42996007
_cell_length_b   9.42996007
_cell_length_c   5.44593200
_cell_angle_alpha   90.00000000
_cell_angle_beta   90.00000000
_cell_angle_gamma   120.00000051
_symmetry_Int_Tables_number   1
_chemical_formula_structural   Cu6Ni3C4
_chemical_formula_sum   'Cu12 Ni6 C8'
_cell_volume   419.39432688
_cell_formula_units_Z   2
loop_
 _symmetry_equiv_pos_site_id
 _symmetry_equiv_pos_as_xyz
  1  'x, y, z'
loop_
 _atom_site_type_symbol
 _atom_site_label
 _atom_site_symmetry_multiplicity
 _atom_site_fract_x
 _atom_site_fract_y
 _atom_site_fract_z
 _atom_site_occupancy
  C  C0  1  0.68588100  0.09038600  0.25000000  1
  C  C1  1  0.40450500  0.31411900  0.25000000  1
  C  C2  1  0.09038600  0.40450500  0.75000000  1
  C  C3  1  0.90961400  0.59549500  0.25000000  1
  C  C4  1  0.59549500  0.68588100  0.75000000  1
  C  C5  1  0.31411900  0.90961400  0.75000000  1
  C  C6  1  0.33333300  0.66666700  0.25000000  1
  C  C7  1  0.66666700  0.33333300  0.75000000  1
  Ni  Ni8  1  0.95185900  0.75948100  0.75000000  1
  Ni  Ni9  1  0.24051900  0.19237800  0.75000000  1
  Ni  Ni10  1  0.75948100  0.80762200  0.25000000  1
  Ni  Ni11  1  0.80762200  0.04814100  0.75000000  1
  Ni  Ni12  1  0.19237800  0.95185900  0.25000000  1
  Ni  Ni13  1  0.04814100  0.24051900  0.25000000  1
  Cu  Cu14  1  0.63595100  0.47573100  0.51867500  1
  Cu  Cu15  1  0.36404900  0.52426900  0.48132500  1
  Cu  Cu16  1  0.47573100  0.83978000  0.01867500  1
  Cu  Cu17  1  0.83978000  0.36404900  0.98132500  1
  Cu  Cu18  1  0.52426900  0.16022000  0.51867500  1
  Cu  Cu19  1  0.36404900  0.52426900  0.01867500  1
  Cu  Cu20  1  0.52426900  0.16022000  0.98132500  1
  Cu  Cu21  1  0.83978000  0.36404900  0.51867500  1
  Cu  Cu22  1  0.47573100  0.83978000  0.48132500  1
  Cu  Cu23  1  0.63595100  0.47573100  0.98132500  1
  Cu  Cu24  1  0.16022000  0.63595100  0.48132500  1
  Cu  Cu25  1  0.16022000  0.63595100  0.01867500  1
