# generated using pymatgen
data_Cu2Ni2C5
_symmetry_space_group_name_H-M   'P 1'
_cell_length_a   9.93228300
_cell_length_b   11.04930000
_cell_length_c   11.27316200
_cell_angle_alpha   90.00000000
_cell_angle_beta   90.00000000
_cell_angle_gamma   90.00000000
_symmetry_Int_Tables_number   1
_chemical_formula_structural   Cu2Ni2C5
_chemical_formula_sum   'Cu16 Ni16 C40'
_cell_volume   1237.17062218
_cell_formula_units_Z   8
loop_
 _symmetry_equiv_pos_site_id
 _symmetry_equiv_pos_as_xyz
  1  'x, y, z'
loop_
 _atom_site_type_symbol
 _atom_site_label
 _atom_site_symmetry_multiplicity
 _atom_site_fract_x
 _atom_site_fract_y
 _atom_site_fract_z
 _atom_site_occupancy
  Ni  Ni0  1  0.64018200  0.15049000  0.63649600  1
  Ni  Ni1  1  0.14018200  0.34951000  0.36350400  1
  Ni  Ni2  1  0.29838100  0.93718600  0.03553900  1
  Ni  Ni3  1  0.70161900  0.43718600  0.46446100  1
  Ni  Ni4  1  0.79838100  0.56281400  0.96446100  1
  Ni  Ni5  1  0.35981800  0.65049000  0.86350400  1
  Ni  Ni6  1  0.64018200  0.34951000  0.13649600  1
  Ni  Ni7  1  0.14018200  0.15049000  0.86350400  1
  Ni  Ni8  1  0.85981800  0.84951000  0.13649600  1
  Ni  Ni9  1  0.29838100  0.56281400  0.53553900  1
  Ni  Ni10  1  0.70161900  0.06281400  0.96446100  1
  Ni  Ni11  1  0.35981800  0.84951000  0.36350400  1
  Ni  Ni12  1  0.20161900  0.06281400  0.53553900  1
  Ni  Ni13  1  0.20161900  0.43718600  0.03553900  1
  Ni  Ni14  1  0.79838100  0.93718600  0.46446100  1
  Ni  Ni15  1  0.85981800  0.65049000  0.63649600  1
  Cu  Cu16  1  0.03313700  0.74928000  0.90641000  1
  Cu  Cu17  1  0.96686300  0.25072000  0.09359000  1
  Cu  Cu18  1  0.90815600  0.95130000  0.74650800  1
  Cu  Cu19  1  0.03313700  0.75072000  0.40641000  1
  Cu  Cu20  1  0.90815600  0.54870000  0.24650800  1
  Cu  Cu21  1  0.59184400  0.04870000  0.24650800  1
  Cu  Cu22  1  0.40815600  0.54870000  0.25349200  1
  Cu  Cu23  1  0.09184400  0.04870000  0.25349200  1
  Cu  Cu24  1  0.53313700  0.74928000  0.59359000  1
  Cu  Cu25  1  0.09184400  0.45130000  0.75349200  1
  Cu  Cu26  1  0.46686300  0.24928000  0.90641000  1
  Cu  Cu27  1  0.46686300  0.25072000  0.40641000  1
  Cu  Cu28  1  0.53313700  0.75072000  0.09359000  1
  Cu  Cu29  1  0.59184400  0.45130000  0.74650800  1
  Cu  Cu30  1  0.96686300  0.24928000  0.59359000  1
  Cu  Cu31  1  0.40815600  0.95130000  0.75349200  1
  C  C32  1  0.15764600  0.80443200  0.68217000  1
  C  C33  1  0.34235400  0.30443200  0.68217000  1
  C  C34  1  0.15764600  0.69556800  0.18217000  1
  C  C35  1  0.65764600  0.69556800  0.31783000  1
  C  C36  1  0.65764600  0.80443200  0.81783000  1
  C  C37  1  0.34235400  0.19556800  0.18217000  1
  C  C38  1  0.84235400  0.30443200  0.81783000  1
  C  C39  1  0.84235400  0.19556800  0.31783000  1
  C  C40  1  0.84186700  0.10596800  0.19784000  1
  C  C41  1  0.87813800  0.16320500  0.77391400  1
  C  C42  1  0.46079000  0.14804600  0.08835900  1
  C  C43  1  0.15813300  0.60596800  0.30216000  1
  C  C44  1  0.19065000  0.31043700  0.61929400  1
  C  C45  1  0.03921000  0.85195400  0.58835900  1
  C  C46  1  0.30935000  0.68956300  0.11929400  1
  C  C47  1  0.69065000  0.31043700  0.88070600  1
  C  C48  1  0.96079000  0.35195400  0.91164100  1
  C  C49  1  0.37813800  0.33679500  0.22608600  1
  C  C50  1  0.69065000  0.18956300  0.38070600  1
  C  C51  1  0.80935000  0.81043700  0.88070600  1
  C  C52  1  0.46079000  0.35195400  0.58835900  1
  C  C53  1  0.96079000  0.14804600  0.41164100  1
  C  C54  1  0.84186700  0.39403200  0.69784000  1
  C  C55  1  0.53921000  0.85195400  0.91164100  1
  C  C56  1  0.65813300  0.60596800  0.19784000  1
  C  C57  1  0.37813800  0.16320500  0.72608600  1
  C  C58  1  0.15813300  0.89403200  0.80216000  1
  C  C59  1  0.65813300  0.89403200  0.69784000  1
  C  C60  1  0.87813800  0.33679500  0.27391400  1
  C  C61  1  0.30935000  0.81043700  0.61929400  1
  C  C62  1  0.34186700  0.39403200  0.80216000  1
  C  C63  1  0.62186200  0.66320500  0.77391400  1
  C  C64  1  0.12186200  0.83679500  0.22608600  1
  C  C65  1  0.19065000  0.18956300  0.11929400  1
  C  C66  1  0.34186700  0.10596800  0.30216000  1
  C  C67  1  0.53921000  0.64804600  0.41164100  1
  C  C68  1  0.03921000  0.64804600  0.08835900  1
  C  C69  1  0.80935000  0.68956300  0.38070600  1
  C  C70  1  0.62186200  0.83679500  0.27391400  1
  C  C71  1  0.12186200  0.66320500  0.72608600  1
