# generated using pymatgen
data_Cu8Ni2C13
_symmetry_space_group_name_H-M   'P 1'
_cell_length_a   8.84924800
_cell_length_b   6.70229300
_cell_length_c   17.77354666
_cell_angle_alpha   89.94679357
_cell_angle_beta   90.00000000
_cell_angle_gamma   90.00000000
_symmetry_Int_Tables_number   1
_chemical_formula_structural   Cu8Ni2C13
_chemical_formula_sum   'Cu32 Ni8 C52'
_cell_volume   1054.15309347
_cell_formula_units_Z   4
loop_
 _symmetry_equiv_pos_site_id
 _symmetry_equiv_pos_as_xyz
  1  'x, y, z'
loop_
 _atom_site_type_symbol
 _atom_site_label
 _atom_site_symmetry_multiplicity
 _atom_site_fract_x
 _atom_site_fract_y
 _atom_site_fract_z
 _atom_site_occupancy
  Ni  Ni0  1  0.98583300  0.92603400  0.61733600  1
  Ni  Ni1  1  0.06069700  0.46949500  0.90542400  1
  Ni  Ni2  1  0.43930300  0.46949500  0.40542400  1
  Ni  Ni3  1  0.48583300  0.07396600  0.88266400  1
  Ni  Ni4  1  0.51416700  0.92603400  0.11733600  1
  Ni  Ni5  1  0.93930300  0.53050500  0.09457600  1
  Ni  Ni6  1  0.01416700  0.07396600  0.38266400  1
  Ni  Ni7  1  0.56069700  0.53050500  0.59457600  1
  Cu  Cu8  1  0.80828000  0.02637100  0.22994100  1
  Cu  Cu9  1  0.63157800  0.99691200  0.59223700  1
  Cu  Cu10  1  0.06756100  0.97884300  0.18999400  1
  Cu  Cu11  1  0.73140000  0.23178400  0.49607900  1
  Cu  Cu12  1  0.69172000  0.02637100  0.72994100  1
  Cu  Cu13  1  0.26860000  0.76821600  0.50392100  1
  Cu  Cu14  1  0.13157800  0.00308800  0.90776300  1
  Cu  Cu15  1  0.36842200  0.00308800  0.40776300  1
  Cu  Cu16  1  0.76195500  0.53415400  0.76999100  1
  Cu  Cu17  1  0.19826500  0.46557800  0.59243400  1
  Cu  Cu18  1  0.26195500  0.46584600  0.73000900  1
  Cu  Cu19  1  0.69826500  0.53442200  0.90756600  1
  Cu  Cu20  1  0.80173500  0.53442200  0.40756600  1
  Cu  Cu21  1  0.27162200  0.12746300  0.01966700  1
  Cu  Cu22  1  0.56756100  0.02115700  0.31000600  1
  Cu  Cu23  1  0.22837800  0.12746300  0.51966700  1
  Cu  Cu24  1  0.19172000  0.97362900  0.77005900  1
  Cu  Cu25  1  0.86842200  0.99691200  0.09223700  1
  Cu  Cu26  1  0.23140000  0.76821600  0.00392100  1
  Cu  Cu27  1  0.23804500  0.46584600  0.23000900  1
  Cu  Cu28  1  0.49582700  0.51514200  0.19074700  1
  Cu  Cu29  1  0.76860000  0.23178400  0.99607900  1
  Cu  Cu30  1  0.73804500  0.53415400  0.26999100  1
  Cu  Cu31  1  0.99582700  0.48485800  0.30925300  1
  Cu  Cu32  1  0.00417300  0.51514200  0.69074700  1
  Cu  Cu33  1  0.30173500  0.46557800  0.09243400  1
  Cu  Cu34  1  0.77162200  0.87253700  0.48033300  1
  Cu  Cu35  1  0.50417300  0.48485800  0.80925300  1
  Cu  Cu36  1  0.30828000  0.97362900  0.27005900  1
  Cu  Cu37  1  0.93243900  0.02115700  0.81000600  1
  Cu  Cu38  1  0.72837800  0.87253700  0.98033300  1
  Cu  Cu39  1  0.43243900  0.97884300  0.68999400  1
  C  C40  1  0.85284300  0.53582600  0.70707100  1
  C  C41  1  0.78277100  0.04879400  0.79178500  1
  C  C42  1  0.81986600  0.83537200  0.04141200  1
  C  C43  1  0.60703100  0.53324900  0.75248000  1
  C  C44  1  0.74061400  0.00056400  0.65828100  1
  C  C45  1  0.75938600  0.00056400  0.15828100  1
  C  C46  1  0.55131000  0.45378000  0.88121900  1
  C  C47  1  0.26585300  0.58063800  0.53175000  1
  C  C48  1  0.96340200  0.03102600  0.24592000  1
  C  C49  1  0.47820000  0.95230800  0.61814600  1
  C  C50  1  0.31986600  0.16462800  0.45858800  1
  C  C51  1  0.68958000  0.53506800  0.34245800  1
  C  C52  1  0.81863900  0.07376300  0.46812000  1
  C  C53  1  0.76585300  0.41936200  0.96825000  1
  C  C54  1  0.02180000  0.95230800  0.11814600  1
  C  C55  1  0.21722900  0.95120600  0.20821500  1
  C  C56  1  0.68136100  0.07376300  0.96812000  1
  C  C57  1  0.28277100  0.95120600  0.70821500  1
  C  C58  1  0.18958000  0.46493200  0.15754200  1
  C  C59  1  0.14715700  0.46417400  0.29292900  1
  C  C60  1  0.18013400  0.16462800  0.95858800  1
  C  C61  1  0.25938600  0.99943600  0.34171900  1
  C  C62  1  0.64715700  0.53582600  0.20707100  1
  C  C63  1  0.67251300  0.74102700  0.93057300  1
  C  C64  1  0.39296900  0.46675100  0.24752000  1
  C  C65  1  0.81042000  0.53506800  0.84245800  1
  C  C66  1  0.36273400  0.80613600  0.44389400  1
  C  C67  1  0.32748700  0.25897300  0.06942700  1
  C  C68  1  0.10703100  0.46675100  0.74752000  1
  C  C69  1  0.82748700  0.74102700  0.43057300  1
  C  C70  1  0.46340200  0.96897400  0.25408000  1
  C  C71  1  0.13726600  0.80613600  0.94389400  1
  C  C72  1  0.18136100  0.92623700  0.53188000  1
  C  C73  1  0.94869000  0.45378000  0.38121900  1
  C  C74  1  0.03659800  0.96897400  0.75408000  1
  C  C75  1  0.52180000  0.04769200  0.38185400  1
  C  C76  1  0.05131000  0.54622000  0.61878100  1
  C  C77  1  0.63726600  0.19386400  0.55610600  1
  C  C78  1  0.68013400  0.83537200  0.54141200  1
  C  C79  1  0.23414700  0.58063800  0.03175000  1
  C  C80  1  0.17251300  0.25897300  0.56942700  1
  C  C81  1  0.31042000  0.46493200  0.65754200  1
  C  C82  1  0.73414700  0.41936200  0.46825000  1
  C  C83  1  0.53659800  0.03102600  0.74592000  1
  C  C84  1  0.86273400  0.19386400  0.05610600  1
  C  C85  1  0.97820000  0.04769200  0.88185400  1
  C  C86  1  0.44869000  0.54622000  0.11878100  1
  C  C87  1  0.31863900  0.92623700  0.03188000  1
  C  C88  1  0.35284300  0.46417400  0.79292900  1
  C  C89  1  0.71722900  0.04879400  0.29178500  1
  C  C90  1  0.89296900  0.53324900  0.25248000  1
  C  C91  1  0.24061400  0.99943600  0.84171900  1
