# generated using pymatgen
data_Cu2Ni2C11
_symmetry_space_group_name_H-M   'P 1'
_cell_length_a   7.67611800
_cell_length_b   8.78683300
_cell_length_c   12.78211600
_cell_angle_alpha   90.00000000
_cell_angle_beta   90.00000000
_cell_angle_gamma   90.00000000
_symmetry_Int_Tables_number   1
_chemical_formula_structural   Cu2Ni2C11
_chemical_formula_sum   'Cu8 Ni8 C44'
_cell_volume   862.13796327
_cell_formula_units_Z   4
loop_
 _symmetry_equiv_pos_site_id
 _symmetry_equiv_pos_as_xyz
  1  'x, y, z'
loop_
 _atom_site_type_symbol
 _atom_site_label
 _atom_site_symmetry_multiplicity
 _atom_site_fract_x
 _atom_site_fract_y
 _atom_site_fract_z
 _atom_site_occupancy
  C  C0  1  0.75000000  0.02468900  0.99991600  1
  C  C1  1  0.25000000  0.97531100  0.00008400  1
  C  C2  1  0.75000000  0.52468900  0.50008400  1
  C  C3  1  0.25000000  0.47531100  0.49991600  1
  Ni  Ni4  1  0.75000000  0.82801600  0.29485800  1
  Ni  Ni5  1  0.75000000  0.18991600  0.69132300  1
  Ni  Ni6  1  0.25000000  0.31008400  0.19132300  1
  Ni  Ni7  1  0.25000000  0.81008400  0.30867700  1
  Ni  Ni8  1  0.75000000  0.68991600  0.80867700  1
  Ni  Ni9  1  0.75000000  0.32801600  0.20514200  1
  Ni  Ni10  1  0.25000000  0.17198400  0.70514200  1
  Ni  Ni11  1  0.25000000  0.67198400  0.79485800  1
  Cu  Cu12  1  0.00016200  0.85014400  0.57635400  1
  Cu  Cu13  1  0.99983800  0.64985600  0.07635400  1
  Cu  Cu14  1  0.00016200  0.35014400  0.92364600  1
  Cu  Cu15  1  0.50016200  0.64985600  0.07635400  1
  Cu  Cu16  1  0.99983800  0.14985600  0.42364600  1
  Cu  Cu17  1  0.49983800  0.35014400  0.92364600  1
  Cu  Cu18  1  0.49983800  0.85014400  0.57635400  1
  Cu  Cu19  1  0.50016200  0.14985600  0.42364600  1
  C  C20  1  0.25000000  0.99712300  0.14240600  1
  C  C21  1  0.25000000  0.36273100  0.92401000  1
  C  C22  1  0.75000000  0.04392700  0.14373900  1
  C  C23  1  0.25000000  0.49712300  0.35759400  1
  C  C24  1  0.75000000  0.00287700  0.85759400  1
  C  C25  1  0.01295000  0.70957800  0.21026500  1
  C  C26  1  0.75000000  0.54392700  0.35626100  1
  C  C27  1  0.98705000  0.29042200  0.78973500  1
  C  C28  1  0.51295000  0.29042200  0.78973500  1
  C  C29  1  0.97525500  0.85174400  0.00953900  1
  C  C30  1  0.25000000  0.45607300  0.64373900  1
  C  C31  1  0.01295000  0.20957800  0.28973500  1
  C  C32  1  0.47525500  0.14825600  0.99046100  1
  C  C33  1  0.48705000  0.70957800  0.21026500  1
  C  C34  1  0.47525500  0.64825600  0.50953900  1
  C  C35  1  0.02474500  0.64825600  0.50953900  1
  C  C36  1  0.48705000  0.20957800  0.28973500  1
  C  C37  1  0.02325300  0.43452000  0.08874100  1
  C  C38  1  0.75000000  0.13726900  0.42401000  1
  C  C39  1  0.25000000  0.86273100  0.57599000  1
  C  C40  1  0.47674700  0.93452000  0.41125900  1
  C  C41  1  0.47674700  0.43452000  0.08874100  1
  C  C42  1  0.75000000  0.31332000  0.95605400  1
  C  C43  1  0.52474500  0.85174400  0.00953900  1
  C  C44  1  0.52325300  0.56548000  0.91125900  1
  C  C45  1  0.75000000  0.81332000  0.54394600  1
  C  C46  1  0.25000000  0.18668000  0.45605400  1
  C  C47  1  0.97525500  0.35174400  0.49046100  1
  C  C48  1  0.25000000  0.95607300  0.85626100  1
  C  C49  1  0.75000000  0.63726900  0.07599000  1
  C  C50  1  0.97674700  0.06548000  0.58874100  1
  C  C51  1  0.75000000  0.50287700  0.64240600  1
  C  C52  1  0.97674700  0.56548000  0.91125900  1
  C  C53  1  0.52325300  0.06548000  0.58874100  1
  C  C54  1  0.51295000  0.79042200  0.71026500  1
  C  C55  1  0.98705000  0.79042200  0.71026500  1
  C  C56  1  0.02325300  0.93452000  0.41125900  1
  C  C57  1  0.52474500  0.35174400  0.49046100  1
  C  C58  1  0.02474500  0.14825600  0.99046100  1
  C  C59  1  0.25000000  0.68668000  0.04394600  1
