# generated using pymatgen
data_Cu3NiC
_symmetry_space_group_name_H-M   'P 1'
_cell_length_a   9.97705600
_cell_length_b   9.97705600
_cell_length_c   6.77233800
_cell_angle_alpha   90.00000000
_cell_angle_beta   90.00000000
_cell_angle_gamma   90.00000000
_symmetry_Int_Tables_number   1
_chemical_formula_structural   Cu3NiC
_chemical_formula_sum   'Cu24 Ni8 C8'
_cell_volume   674.12967468
_cell_formula_units_Z   8
loop_
 _symmetry_equiv_pos_site_id
 _symmetry_equiv_pos_as_xyz
  1  'x, y, z'
loop_
 _atom_site_type_symbol
 _atom_site_label
 _atom_site_symmetry_multiplicity
 _atom_site_fract_x
 _atom_site_fract_y
 _atom_site_fract_z
 _atom_site_occupancy
  C  C0  1  0.50000000  0.50000000  0.50000000  1
  C  C1  1  0.00000000  0.00000000  0.00000000  1
  C  C2  1  0.75000000  0.75000000  0.25000000  1
  C  C3  1  0.50000000  0.50000000  0.00000000  1
  C  C4  1  0.25000000  0.25000000  0.25000000  1
  C  C5  1  0.75000000  0.25000000  0.75000000  1
  C  C6  1  0.25000000  0.75000000  0.75000000  1
  C  C7  1  0.00000000  0.00000000  0.50000000  1
  Ni  Ni8  1  0.71596100  0.01140700  0.14590000  1
  Ni  Ni9  1  0.21596100  0.51140700  0.35410000  1
  Ni  Ni10  1  0.28403900  0.98859300  0.14590000  1
  Ni  Ni11  1  0.78403900  0.48859300  0.35410000  1
  Ni  Ni12  1  0.01140700  0.28403900  0.85410000  1
  Ni  Ni13  1  0.51140700  0.78403900  0.64590000  1
  Ni  Ni14  1  0.48859300  0.21596100  0.64590000  1
  Ni  Ni15  1  0.98859300  0.71596100  0.85410000  1
  Cu  Cu16  1  0.19232300  0.08014700  0.95248200  1
  Cu  Cu17  1  0.91985300  0.19232300  0.04751800  1
  Cu  Cu18  1  0.12093500  0.59601600  0.79352000  1
  Cu  Cu19  1  0.62093500  0.09601600  0.70648000  1
  Cu  Cu20  1  0.97112200  0.16780900  0.65583600  1
  Cu  Cu21  1  0.69232300  0.58014700  0.54751800  1
  Cu  Cu22  1  0.47112200  0.66780900  0.84416400  1
  Cu  Cu23  1  0.83219100  0.97112200  0.34416400  1
  Cu  Cu24  1  0.52887800  0.33219100  0.84416400  1
  Cu  Cu25  1  0.37906500  0.90398400  0.70648000  1
  Cu  Cu26  1  0.02887800  0.83219100  0.65583600  1
  Cu  Cu27  1  0.08014700  0.80767700  0.04751800  1
  Cu  Cu28  1  0.40398400  0.12093500  0.20648000  1
  Cu  Cu29  1  0.59601600  0.87906500  0.20648000  1
  Cu  Cu30  1  0.41985300  0.69232300  0.45248200  1
  Cu  Cu31  1  0.16780900  0.02887800  0.34416400  1
  Cu  Cu32  1  0.09601600  0.37906500  0.29352000  1
  Cu  Cu33  1  0.33219100  0.47112200  0.15583600  1
  Cu  Cu34  1  0.87906500  0.40398400  0.79352000  1
  Cu  Cu35  1  0.80767700  0.91985300  0.95248200  1
  Cu  Cu36  1  0.66780900  0.52887800  0.15583600  1
  Cu  Cu37  1  0.30767700  0.41985300  0.54751800  1
  Cu  Cu38  1  0.58014700  0.30767700  0.45248200  1
  Cu  Cu39  1  0.90398400  0.62093500  0.29352000  1
