# generated using pymatgen
data_CuNi15C41
_symmetry_space_group_name_H-M   'P 1'
_cell_length_a   11.50608291
_cell_length_b   11.50608291
_cell_length_c   20.62291798
_cell_angle_alpha   65.90639671
_cell_angle_beta   65.90639671
_cell_angle_gamma   19.58524834
_symmetry_Int_Tables_number   1
_chemical_formula_structural   CuNi15C41
_chemical_formula_sum   'Cu1 Ni15 C41'
_cell_volume   832.98446129
_cell_formula_units_Z   1
loop_
 _symmetry_equiv_pos_site_id
 _symmetry_equiv_pos_as_xyz
  1  'x, y, z'
loop_
 _atom_site_type_symbol
 _atom_site_label
 _atom_site_symmetry_multiplicity
 _atom_site_fract_x
 _atom_site_fract_y
 _atom_site_fract_z
 _atom_site_occupancy
  Ni  Ni0  1  0.23167900  0.22782700  0.88991900  1
  Ni  Ni1  1  0.77217300  0.76832100  0.11008100  1
  Ni  Ni2  1  0.63461800  0.63134200  0.57353300  1
  Ni  Ni3  1  0.63062000  0.64722500  0.03669900  1
  Ni  Ni4  1  0.59967700  0.66786300  0.30512900  1
  Ni  Ni5  1  0.50649000  0.49601300  0.23250800  1
  Ni  Ni6  1  0.76969600  0.76202800  0.37973700  1
  Ni  Ni7  1  0.36865800  0.36538200  0.42646700  1
  Ni  Ni8  1  0.50398700  0.49351000  0.76749200  1
  Ni  Ni9  1  0.35277500  0.36938000  0.96330100  1
  Ni  Ni10  1  0.10601400  0.09178800  0.81360800  1
  Ni  Ni11  1  0.90821200  0.89398600  0.18639200  1
  Ni  Ni12  1  0.23797200  0.23030400  0.62026300  1
  Ni  Ni13  1  0.50380200  0.49619800  0.50000000  1
  Ni  Ni14  1  0.33213700  0.40032300  0.69487100  1
  Cu  Cu15  1  0.75059700  0.24940300  0.00000000  1
  C  C16  1  0.70261500  0.70539700  0.47736800  1
  C  C17  1  0.29627300  0.28929300  0.79867000  1
  C  C18  1  0.43552100  0.43080100  0.59647300  1
  C  C19  1  0.42453900  0.43197200  0.87464200  1
  C  C20  1  0.84095700  0.84270600  0.28055000  1
  C  C21  1  0.42838300  0.42360000  0.18626800  1
  C  C22  1  0.98925600  0.98545000  0.21746600  1
  C  C23  1  0.43216800  0.43350800  0.32548800  1
  C  C24  1  0.28930500  0.28872500  0.08443800  1
  C  C25  1  0.43678600  0.42680400  0.73715700  1
  C  C26  1  0.71136500  0.70112800  0.34053000  1
  C  C27  1  0.70941700  0.70737400  0.06489600  1
  C  C28  1  0.15729400  0.15904300  0.71945000  1
  C  C29  1  0.71070700  0.70372700  0.20133000  1
  C  C30  1  0.28918000  0.28766400  0.38579000  1
  C  C31  1  0.57640000  0.57161700  0.81373200  1
  C  C32  1  0.56802800  0.57546100  0.12535800  1
  C  C33  1  0.84809700  0.85013800  0.99283200  1
  C  C34  1  0.13662500  0.13868600  0.30180300  1
  C  C35  1  0.98115900  0.97702700  0.07883700  1
  C  C36  1  0.14920800  0.14907900  0.58212200  1
  C  C37  1  0.02297300  0.01884100  0.92116300  1
  C  C38  1  0.56649200  0.56783200  0.67451200  1
  C  C39  1  0.43302300  0.43158700  0.46206200  1
  C  C40  1  0.57052700  0.56912000  0.98953200  1
  C  C41  1  0.29460300  0.29738500  0.52263200  1
  C  C42  1  0.56919900  0.56447900  0.40352700  1
  C  C43  1  0.56841300  0.56697700  0.53793800  1
  C  C44  1  0.15794600  0.15464100  0.85689300  1
  C  C45  1  0.14986200  0.15190300  0.00716800  1
  C  C46  1  0.86131400  0.86337500  0.69819700  1
  C  C47  1  0.29887200  0.28863500  0.65947000  1
  C  C48  1  0.84535900  0.84205400  0.14310700  1
  C  C49  1  0.57319600  0.56321400  0.26284300  1
  C  C50  1  0.01455000  0.01074400  0.78253400  1
  C  C51  1  0.85092100  0.85079200  0.41787800  1
  C  C52  1  0.43088000  0.42947300  0.01046800  1
  C  C53  1  0.71233600  0.71082000  0.61421000  1
  C  C54  1  0.29262600  0.29058300  0.93510400  1
  C  C55  1  0.71127500  0.71069500  0.91556200  1
  C  C56  1  0.00324200  0.99675800  0.50000000  1
