# generated using pymatgen
data_Cu6NiC4
_symmetry_space_group_name_H-M   'P 1'
_cell_length_a   15.30979577
_cell_length_b   15.30979577
_cell_length_c   14.74155400
_cell_angle_alpha   90.00000000
_cell_angle_beta   90.00000000
_cell_angle_gamma   119.99999902
_symmetry_Int_Tables_number   1
_chemical_formula_structural   Cu6NiC4
_chemical_formula_sum   'Cu36 Ni6 C24'
_cell_volume   2992.35212941
_cell_formula_units_Z   6
loop_
 _symmetry_equiv_pos_site_id
 _symmetry_equiv_pos_as_xyz
  1  'x, y, z'
loop_
 _atom_site_type_symbol
 _atom_site_label
 _atom_site_symmetry_multiplicity
 _atom_site_fract_x
 _atom_site_fract_y
 _atom_site_fract_z
 _atom_site_occupancy
  C  C0  1  0.33333300  0.66666700  0.50048100  1
  C  C1  1  0.66666700  0.33333300  0.49951900  1
  C  C2  1  0.38656800  0.35623500  0.54556400  1
  C  C3  1  0.64376500  0.03033300  0.54556400  1
  C  C4  1  0.96966700  0.61343200  0.54556400  1
  C  C5  1  0.61343200  0.64376500  0.45443600  1
  C  C6  1  0.35623500  0.96966700  0.45443600  1
  C  C7  1  0.03033300  0.38656800  0.45443600  1
  C  C8  1  0.32888400  0.23271600  0.85132500  1
  C  C9  1  0.76728400  0.09616700  0.85132500  1
  C  C10  1  0.90383300  0.67111600  0.85132500  1
  C  C11  1  0.67111600  0.76728400  0.14867500  1
  C  C12  1  0.23271600  0.90383300  0.14867500  1
  C  C13  1  0.09616700  0.32888400  0.14867500  1
  C  C14  1  0.29755000  0.48358100  0.88104000  1
  C  C15  1  0.51641900  0.81397000  0.88104000  1
  C  C16  1  0.18603000  0.70245000  0.88104000  1
  C  C17  1  0.70245000  0.51641900  0.11896000  1
  C  C18  1  0.48358100  0.18603000  0.11896000  1
  C  C19  1  0.81397000  0.29755000  0.11896000  1
  C  C20  1  0.00000000  0.00000000  0.00000000  1
  C  C21  1  0.00000000  0.00000000  0.50000000  1
  C  C22  1  0.33333300  0.66666700  0.20424100  1
  C  C23  1  0.66666700  0.33333300  0.79575900  1
  Ni  Ni24  1  0.45468800  0.48980900  0.22937800  1
  Ni  Ni25  1  0.51019100  0.96487900  0.22937800  1
  Ni  Ni26  1  0.03512100  0.54531200  0.22937800  1
  Ni  Ni27  1  0.54531200  0.51019100  0.77062200  1
  Ni  Ni28  1  0.48980900  0.03512100  0.77062200  1
  Ni  Ni29  1  0.96487900  0.45468800  0.77062200  1
  Cu  Cu30  1  0.52042200  0.36359300  0.31602000  1
  Cu  Cu31  1  0.63640700  0.15682900  0.31602000  1
  Cu  Cu32  1  0.84317100  0.47957800  0.31602000  1
  Cu  Cu33  1  0.47957800  0.63640700  0.68398000  1
  Cu  Cu34  1  0.36359300  0.84317100  0.68398000  1
  Cu  Cu35  1  0.15682900  0.52042200  0.68398000  1
  Cu  Cu36  1  0.28437100  0.44002700  0.34576800  1
  Cu  Cu37  1  0.55997300  0.84434400  0.34576800  1
  Cu  Cu38  1  0.15565600  0.71562900  0.34576800  1
  Cu  Cu39  1  0.71562900  0.55997300  0.65423200  1
  Cu  Cu40  1  0.44002700  0.15565600  0.65423200  1
  Cu  Cu41  1  0.84434400  0.28437100  0.65423200  1
  Cu  Cu42  1  0.35619700  0.35805000  0.07746500  1
  Cu  Cu43  1  0.64195000  0.99814700  0.07746500  1
  Cu  Cu44  1  0.00185300  0.64380300  0.07746500  1
  Cu  Cu45  1  0.64380300  0.64195000  0.92253500  1
  Cu  Cu46  1  0.35805000  0.00185300  0.92253500  1
  Cu  Cu47  1  0.99814700  0.35619700  0.92253500  1
  Cu  Cu48  1  0.22747900  0.17524800  0.16331400  1
  Cu  Cu49  1  0.82475200  0.05223100  0.16331400  1
  Cu  Cu50  1  0.94776900  0.77252100  0.16331400  1
  Cu  Cu51  1  0.77252100  0.82475200  0.83668600  1
  Cu  Cu52  1  0.17524800  0.94776900  0.83668600  1
  Cu  Cu53  1  0.05223100  0.22747900  0.83668600  1
  Cu  Cu54  1  0.34116300  0.17969700  0.32834600  1
  Cu  Cu55  1  0.82030300  0.16146600  0.32834600  1
  Cu  Cu56  1  0.83853400  0.65883700  0.32834600  1
  Cu  Cu57  1  0.65883700  0.82030300  0.67165400  1
  Cu  Cu58  1  0.17969700  0.83853400  0.67165400  1
  Cu  Cu59  1  0.16146600  0.34116300  0.67165400  1
  Cu  Cu60  1  0.18015800  0.22961600  0.34278100  1
  Cu  Cu61  1  0.77038400  0.95054200  0.34278100  1
  Cu  Cu62  1  0.04945800  0.81984200  0.34278100  1
  Cu  Cu63  1  0.81984200  0.77038400  0.65721900  1
  Cu  Cu64  1  0.22961600  0.04945800  0.65721900  1
  Cu  Cu65  1  0.95054200  0.18015800  0.65721900  1
