# generated using pymatgen
data_Cu14Ni5C
_symmetry_space_group_name_H-M   'P 1'
_cell_length_a   8.37948700
_cell_length_b   7.95031600
_cell_length_c   9.62892670
_cell_angle_alpha   62.53997151
_cell_angle_beta   90.00000000
_cell_angle_gamma   90.00000000
_symmetry_Int_Tables_number   1
_chemical_formula_structural   Cu14Ni5C
_chemical_formula_sum   'Cu28 Ni10 C2'
_cell_volume   569.20173280
_cell_formula_units_Z   2
loop_
 _symmetry_equiv_pos_site_id
 _symmetry_equiv_pos_as_xyz
  1  'x, y, z'
loop_
 _atom_site_type_symbol
 _atom_site_label
 _atom_site_symmetry_multiplicity
 _atom_site_fract_x
 _atom_site_fract_y
 _atom_site_fract_z
 _atom_site_occupancy
  C  C0  1  0.50000000  0.00000000  0.50000000  1
  C  C1  1  0.00000000  0.00000000  0.00000000  1
  Ni  Ni2  1  0.92841300  0.13754000  0.22505700  1
  Ni  Ni3  1  0.26589100  0.30532700  0.36208000  1
  Ni  Ni4  1  0.76589100  0.69467300  0.13792000  1
  Ni  Ni5  1  0.57158700  0.13754000  0.72505700  1
  Ni  Ni6  1  0.07158700  0.86246000  0.77494300  1
  Ni  Ni7  1  0.73410900  0.69467300  0.63792000  1
  Ni  Ni8  1  0.42841300  0.86246000  0.27494300  1
  Ni  Ni9  1  0.23410900  0.30532700  0.86208000  1
  Ni  Ni10  1  0.00000000  0.50000000  0.50000000  1
  Ni  Ni11  1  0.50000000  0.50000000  0.00000000  1
  Cu  Cu12  1  0.96203600  0.97245200  0.70661600  1
  Cu  Cu13  1  0.61347800  0.16834300  0.57762700  1
  Cu  Cu14  1  0.34783800  0.77016100  0.22716200  1
  Cu  Cu15  1  0.76551100  0.75386500  0.49789700  1
  Cu  Cu16  1  0.90616400  0.39068100  0.51017800  1
  Cu  Cu17  1  0.11347800  0.83165700  0.92237300  1
  Cu  Cu18  1  0.89332400  0.76817800  0.17940300  1
  Cu  Cu19  1  0.26551100  0.24613500  0.00210300  1
  Cu  Cu20  1  0.38652200  0.83165700  0.42237300  1
  Cu  Cu21  1  0.03796400  0.02754800  0.29338400  1
  Cu  Cu22  1  0.80677100  0.57069900  0.74918800  1
  Cu  Cu23  1  0.59383600  0.39068100  0.01017800  1
  Cu  Cu24  1  0.39332400  0.23182200  0.32059700  1
  Cu  Cu25  1  0.73448900  0.75386500  0.99789700  1
  Cu  Cu26  1  0.65216200  0.22983900  0.77283800  1
  Cu  Cu27  1  0.69322900  0.57069900  0.24918800  1
  Cu  Cu28  1  0.84783800  0.22983900  0.27283800  1
  Cu  Cu29  1  0.19322900  0.42930100  0.25081200  1
  Cu  Cu30  1  0.15216200  0.77016100  0.72716200  1
  Cu  Cu31  1  0.60667600  0.76817800  0.67940300  1
  Cu  Cu32  1  0.46203600  0.02754800  0.79338400  1
  Cu  Cu33  1  0.09383600  0.60931900  0.48982200  1
  Cu  Cu34  1  0.53796400  0.97245200  0.20661600  1
  Cu  Cu35  1  0.30677100  0.42930100  0.75081200  1
  Cu  Cu36  1  0.10667600  0.23182200  0.82059700  1
  Cu  Cu37  1  0.23448900  0.24613500  0.50210300  1
  Cu  Cu38  1  0.88652200  0.16834300  0.07762700  1
  Cu  Cu39  1  0.40616400  0.60931900  0.98982200  1
