# generated using pymatgen
data_Cu7Ni11C3
_symmetry_space_group_name_H-M   'P 1'
_cell_length_a   9.11531100
_cell_length_b   22.15874100
_cell_length_c   32.59372400
_cell_angle_alpha   90.00000000
_cell_angle_beta   90.00000000
_cell_angle_gamma   90.00000000
_symmetry_Int_Tables_number   1
_chemical_formula_structural   Cu7Ni11C3
_chemical_formula_sum   'Cu28 Ni44 C12'
_cell_volume   6583.40473759
_cell_formula_units_Z   4
loop_
 _symmetry_equiv_pos_site_id
 _symmetry_equiv_pos_as_xyz
  1  'x, y, z'
loop_
 _atom_site_type_symbol
 _atom_site_label
 _atom_site_symmetry_multiplicity
 _atom_site_fract_x
 _atom_site_fract_y
 _atom_site_fract_z
 _atom_site_occupancy
  Ni  Ni0  1  0.53747500  0.75584000  0.33306700  1
  Ni  Ni1  1  0.46072500  0.55219900  0.66223600  1
  Ni  Ni2  1  0.01965700  0.45518900  0.77085700  1
  Ni  Ni3  1  0.98381200  0.75849300  0.33266800  1
  Ni  Ni4  1  0.51618800  0.24150700  0.83266800  1
  Ni  Ni5  1  0.46252500  0.25584000  0.16693300  1
  Ni  Ni6  1  0.52179200  0.96279800  0.95227700  1
  Ni  Ni7  1  0.02179200  0.53720200  0.04772300  1
  Ni  Ni8  1  0.25295600  0.63132900  0.57643000  1
  Ni  Ni9  1  0.24887400  0.59687500  0.15840500  1
  Ni  Ni10  1  0.53927500  0.05219900  0.83776400  1
  Ni  Ni11  1  0.74704400  0.13132900  0.92357000  1
  Ni  Ni12  1  0.53172400  0.95276700  0.72847900  1
  Ni  Ni13  1  0.24590700  0.37597800  0.25231100  1
  Ni  Ni14  1  0.54455000  0.94631700  0.33743900  1
  Ni  Ni15  1  0.24704400  0.36867100  0.07643000  1
  Ni  Ni16  1  0.03747500  0.74416000  0.66693300  1
  Ni  Ni17  1  0.96072500  0.94780100  0.33776400  1
  Ni  Ni18  1  0.03927500  0.44780100  0.16223600  1
  Ni  Ni19  1  0.04455000  0.55368300  0.66256100  1
  Ni  Ni20  1  0.74590700  0.12402200  0.74768900  1
  Ni  Ni21  1  0.02766000  0.46160600  0.54938900  1
  Ni  Ni22  1  0.97820800  0.03720200  0.45227700  1
  Ni  Ni23  1  0.46827600  0.45276700  0.77152100  1
  Ni  Ni24  1  0.52766000  0.03839400  0.45061100  1
  Ni  Ni25  1  0.75112600  0.09687500  0.34159500  1
  Ni  Ni26  1  0.74887400  0.90312500  0.84159500  1
  Ni  Ni27  1  0.95545000  0.05368300  0.83743900  1
  Ni  Ni28  1  0.48034300  0.54481100  0.27085700  1
  Ni  Ni29  1  0.75295600  0.86867100  0.42357000  1
  Ni  Ni30  1  0.45545000  0.44631700  0.16256100  1
  Ni  Ni31  1  0.51965700  0.04481100  0.22914300  1
  Ni  Ni32  1  0.47234000  0.53839400  0.04938900  1
  Ni  Ni33  1  0.98034300  0.95518900  0.72914300  1
  Ni  Ni34  1  0.47820800  0.46279800  0.54772300  1
  Ni  Ni35  1  0.25112600  0.40312500  0.65840500  1
  Ni  Ni36  1  0.25409300  0.62402200  0.75231100  1
  Ni  Ni37  1  0.01618800  0.25849300  0.16733200  1
  Ni  Ni38  1  0.97234000  0.96160600  0.95061100  1
  Ni  Ni39  1  0.75409300  0.87597800  0.24768900  1
  Ni  Ni40  1  0.96827600  0.04723300  0.22847900  1
  Ni  Ni41  1  0.03172400  0.54723300  0.27152100  1
  Ni  Ni42  1  0.96252500  0.24416000  0.83306700  1
  Ni  Ni43  1  0.48381200  0.74150700  0.66733200  1
  Cu  Cu44  1  0.74902100  0.88598400  0.09049500  1
  Cu  Cu45  1  0.24776200  0.00971700  0.09291900  1
  Cu  Cu46  1  0.75026600  0.67986800  0.50867000  1
  Cu  Cu47  1  0.75539200  0.88977500  0.57595200  1
  Cu  Cu48  1  0.74973400  0.32013200  0.00867000  1
  Cu  Cu49  1  0.74460800  0.11022500  0.07595200  1
  Cu  Cu50  1  0.24731000  0.19166500  0.34712700  1
  Cu  Cu51  1  0.75579300  0.67754000  0.81320500  1
  Cu  Cu52  1  0.74886700  0.27726900  0.46612400  1
  Cu  Cu53  1  0.75269000  0.69166500  0.15287300  1
  Cu  Cu54  1  0.24886700  0.22273100  0.53387600  1
  Cu  Cu55  1  0.24902100  0.61401600  0.90950500  1
  Cu  Cu56  1  0.74420700  0.32246000  0.31320500  1
  Cu  Cu57  1  0.24973400  0.17986800  0.99133000  1
  Cu  Cu58  1  0.25539200  0.61022500  0.42404800  1
  Cu  Cu59  1  0.25097900  0.38598400  0.40950500  1
  Cu  Cu60  1  0.75113300  0.72273100  0.96612400  1
  Cu  Cu61  1  0.75223800  0.50971700  0.40708100  1
  Cu  Cu62  1  0.25223800  0.99028300  0.59291900  1
  Cu  Cu63  1  0.24420700  0.17754000  0.68679500  1
  Cu  Cu64  1  0.25026600  0.82013200  0.49133000  1
  Cu  Cu65  1  0.25269000  0.80833500  0.84712700  1
  Cu  Cu66  1  0.25579300  0.82246000  0.18679500  1
  Cu  Cu67  1  0.75097900  0.11401600  0.59049500  1
  Cu  Cu68  1  0.24460800  0.38977500  0.92404800  1
  Cu  Cu69  1  0.74731000  0.30833500  0.65287300  1
  Cu  Cu70  1  0.25113300  0.77726900  0.03387600  1
  Cu  Cu71  1  0.74776200  0.49028300  0.90708100  1
  C  C72  1  0.24675400  0.49695600  0.72267400  1
  C  C73  1  0.74575600  0.00344700  0.90149100  1
  C  C74  1  0.25740200  0.65912200  0.66569100  1
  C  C75  1  0.75424400  0.99655300  0.40149100  1
  C  C76  1  0.74259800  0.15912200  0.83430900  1
  C  C77  1  0.24259800  0.34087800  0.16569100  1
  C  C78  1  0.75740200  0.84087800  0.33430900  1
  C  C79  1  0.25324600  0.50304400  0.22267400  1
  C  C80  1  0.74675400  0.00304400  0.27732600  1
  C  C81  1  0.75324600  0.99695600  0.77732600  1
  C  C82  1  0.25424400  0.50344700  0.59850900  1
  C  C83  1  0.24575600  0.49655300  0.09850900  1
