# generated using pymatgen
data_Cu3Ni2C3
_symmetry_space_group_name_H-M   'P 1'
_cell_length_a   3.94102000
_cell_length_b   9.24304200
_cell_length_c   18.05014400
_cell_angle_alpha   90.00000000
_cell_angle_beta   90.00000000
_cell_angle_gamma   90.00000000
_symmetry_Int_Tables_number   1
_chemical_formula_structural   Cu3Ni2C3
_chemical_formula_sum   'Cu12 Ni8 C12'
_cell_volume   657.51283705
_cell_formula_units_Z   4
loop_
 _symmetry_equiv_pos_site_id
 _symmetry_equiv_pos_as_xyz
  1  'x, y, z'
loop_
 _atom_site_type_symbol
 _atom_site_label
 _atom_site_symmetry_multiplicity
 _atom_site_fract_x
 _atom_site_fract_y
 _atom_site_fract_z
 _atom_site_occupancy
  C  C0  1  0.75000000  0.39219700  0.93061500  1
  C  C1  1  0.25000000  0.60780300  0.06938500  1
  C  C2  1  0.75000000  0.89219700  0.56938500  1
  C  C3  1  0.25000000  0.10780300  0.43061500  1
  C  C4  1  0.75000000  0.35768900  0.56735500  1
  C  C5  1  0.25000000  0.64231100  0.43264500  1
  C  C6  1  0.75000000  0.85768900  0.93264500  1
  C  C7  1  0.25000000  0.14231100  0.06735500  1
  C  C8  1  0.75000000  0.37470800  0.31771900  1
  C  C9  1  0.25000000  0.62529200  0.68228100  1
  C  C10  1  0.75000000  0.87470800  0.18228100  1
  C  C11  1  0.25000000  0.12529200  0.81771900  1
  Ni  Ni12  1  0.75000000  0.37638300  0.74969300  1
  Ni  Ni13  1  0.25000000  0.62361700  0.25030700  1
  Ni  Ni14  1  0.75000000  0.87638300  0.75030700  1
  Ni  Ni15  1  0.25000000  0.12361700  0.24969300  1
  Ni  Ni16  1  0.75000000  0.87405800  0.39279200  1
  Ni  Ni17  1  0.25000000  0.12594200  0.60720800  1
  Ni  Ni18  1  0.75000000  0.37405800  0.10720800  1
  Ni  Ni19  1  0.25000000  0.62594200  0.89279200  1
  Cu  Cu20  1  0.75000000  0.05591600  0.30841900  1
  Cu  Cu21  1  0.25000000  0.94408400  0.69158100  1
  Cu  Cu22  1  0.75000000  0.55591600  0.19158100  1
  Cu  Cu23  1  0.25000000  0.44408400  0.80841900  1
  Cu  Cu24  1  0.75000000  0.19185800  0.19126700  1
  Cu  Cu25  1  0.25000000  0.80814200  0.80873300  1
  Cu  Cu26  1  0.75000000  0.69185800  0.30873300  1
  Cu  Cu27  1  0.25000000  0.30814200  0.69126700  1
  Cu  Cu28  1  0.75000000  0.62658100  0.81454500  1
  Cu  Cu29  1  0.25000000  0.37341900  0.18545500  1
  Cu  Cu30  1  0.75000000  0.12658100  0.68545500  1
  Cu  Cu31  1  0.25000000  0.87341900  0.31454500  1
