# generated using pymatgen
data_Cu(NiC)2
_symmetry_space_group_name_H-M   'P 1'
_cell_length_a   6.43635700
_cell_length_b   9.19845142
_cell_length_c   17.18914167
_cell_angle_alpha   95.95395651
_cell_angle_beta   92.65757313
_cell_angle_gamma   96.05122886
_symmetry_Int_Tables_number   1
_chemical_formula_structural   Cu(NiC)2
_chemical_formula_sum   'Cu8 Ni16 C16'
_cell_volume   1004.85455450
_cell_formula_units_Z   8
loop_
 _symmetry_equiv_pos_site_id
 _symmetry_equiv_pos_as_xyz
  1  'x, y, z'
loop_
 _atom_site_type_symbol
 _atom_site_label
 _atom_site_symmetry_multiplicity
 _atom_site_fract_x
 _atom_site_fract_y
 _atom_site_fract_z
 _atom_site_occupancy
  C  C0  1  0.53413400  0.49100900  0.84441900  1
  C  C1  1  0.04135500  0.98842200  0.33209900  1
  C  C2  1  0.95864500  0.01157800  0.66790100  1
  C  C3  1  0.46586600  0.50899100  0.15558100  1
  C  C4  1  0.22486800  0.47499400  0.46157100  1
  C  C5  1  0.42263000  0.40955000  0.58805000  1
  C  C6  1  0.72376300  0.92701000  0.00412800  1
  C  C7  1  0.07054200  0.89774200  0.08381900  1
  C  C8  1  0.92945800  0.10225800  0.91618100  1
  C  C9  1  0.54035000  0.31641000  0.44935300  1
  C  C10  1  0.77513200  0.52500600  0.53842900  1
  C  C11  1  0.27623700  0.07299000  0.99587200  1
  C  C12  1  0.45965000  0.68359000  0.55064700  1
  C  C13  1  0.04065900  0.83937500  0.92879800  1
  C  C14  1  0.95934100  0.16062500  0.07120200  1
  C  C15  1  0.57737000  0.59045000  0.41195000  1
  Ni  Ni16  1  0.22902100  0.01511200  0.85509200  1
  Ni  Ni17  1  0.15600900  0.30915000  0.98395400  1
  Ni  Ni18  1  0.77097900  0.98488800  0.14490800  1
  Ni  Ni19  1  0.64699000  0.18691600  0.99129700  1
  Ni  Ni20  1  0.35301000  0.81308400  0.00870300  1
  Ni  Ni21  1  0.14260700  0.56591100  0.59814000  1
  Ni  Ni22  1  0.28362600  0.12230400  0.13700800  1
  Ni  Ni23  1  0.27959300  0.72513000  0.42975500  1
  Ni  Ni24  1  0.85739300  0.43408900  0.40186000  1
  Ni  Ni25  1  0.71637400  0.87769600  0.86299200  1
  Ni  Ni26  1  0.64830100  0.60921400  0.66302200  1
  Ni  Ni27  1  0.35169900  0.39078600  0.33697800  1
  Ni  Ni28  1  0.84399100  0.69085000  0.01604600  1
  Ni  Ni29  1  0.21076500  0.22710900  0.49794500  1
  Ni  Ni30  1  0.72040700  0.27487000  0.57024500  1
  Ni  Ni31  1  0.78923500  0.77289100  0.50205500  1
  Cu  Cu32  1  0.83408200  0.23345500  0.80711200  1
  Cu  Cu33  1  0.58242700  0.07867000  0.38194400  1
  Cu  Cu34  1  0.08801400  0.63207900  0.83563000  1
  Cu  Cu35  1  0.41757300  0.92133000  0.61805600  1
  Cu  Cu36  1  0.68055800  0.70776900  0.29722600  1
  Cu  Cu37  1  0.91198600  0.36792100  0.16437000  1
  Cu  Cu38  1  0.31944200  0.29223100  0.70277400  1
  Cu  Cu39  1  0.16591800  0.76654500  0.19288800  1
