# generated using pymatgen
data_CuNiC3
_symmetry_space_group_name_H-M   'P 1'
_cell_length_a   3.98478700
_cell_length_b   9.42848200
_cell_length_c   15.38290700
_cell_angle_alpha   90.00000000
_cell_angle_beta   90.00000000
_cell_angle_gamma   90.00000000
_symmetry_Int_Tables_number   1
_chemical_formula_structural   CuNiC3
_chemical_formula_sum   'Cu4 Ni4 C12'
_cell_volume   577.94339212
_cell_formula_units_Z   4
loop_
 _symmetry_equiv_pos_site_id
 _symmetry_equiv_pos_as_xyz
  1  'x, y, z'
loop_
 _atom_site_type_symbol
 _atom_site_label
 _atom_site_symmetry_multiplicity
 _atom_site_fract_x
 _atom_site_fract_y
 _atom_site_fract_z
 _atom_site_occupancy
  Ni  Ni0  1  0.75000000  0.05724300  0.67253300  1
  Ni  Ni1  1  0.25000000  0.94275700  0.32746700  1
  Ni  Ni2  1  0.75000000  0.55724300  0.82746700  1
  Ni  Ni3  1  0.25000000  0.44275700  0.17253300  1
  Cu  Cu4  1  0.75000000  0.34307800  0.44643800  1
  Cu  Cu5  1  0.25000000  0.65692200  0.55356200  1
  Cu  Cu6  1  0.75000000  0.84307800  0.05356200  1
  Cu  Cu7  1  0.25000000  0.15692200  0.94643800  1
  C  C8  1  0.75000000  0.31971200  0.00219600  1
  C  C9  1  0.25000000  0.68028800  0.99780400  1
  C  C10  1  0.75000000  0.81971200  0.49780400  1
  C  C11  1  0.25000000  0.18028800  0.50219600  1
  C  C12  1  0.75000000  0.22772200  0.29689300  1
  C  C13  1  0.25000000  0.77227800  0.70310700  1
  C  C14  1  0.75000000  0.72772200  0.20310700  1
  C  C15  1  0.25000000  0.27227800  0.79689300  1
  C  C16  1  0.75000000  0.47848700  0.59813400  1
  C  C17  1  0.25000000  0.52151300  0.40186600  1
  C  C18  1  0.75000000  0.97848700  0.90186600  1
  C  C19  1  0.25000000  0.02151300  0.09813400  1
