# generated using pymatgen
data_Cu2Ni3C17
_symmetry_space_group_name_H-M   'P 1'
_cell_length_a   13.55405316
_cell_length_b   13.55405316
_cell_length_c   13.55405316
_cell_angle_alpha   148.10310399
_cell_angle_beta   148.10310399
_cell_angle_gamma   45.73318653
_symmetry_Int_Tables_number   1
_chemical_formula_structural   Cu2Ni3C17
_chemical_formula_sum   'Cu4 Ni6 C34'
_cell_volume   692.89514430
_cell_formula_units_Z   2
loop_
 _symmetry_equiv_pos_site_id
 _symmetry_equiv_pos_as_xyz
  1  'x, y, z'
loop_
 _atom_site_type_symbol
 _atom_site_label
 _atom_site_symmetry_multiplicity
 _atom_site_fract_x
 _atom_site_fract_y
 _atom_site_fract_z
 _atom_site_occupancy
  C  C0  1  0.34437100  0.34437100  0.00000000  1
  C  C1  1  0.40562900  0.90562900  0.50000000  1
  C  C2  1  0.09437100  0.59437100  0.50000000  1
  C  C3  1  0.65562900  0.65562900  0.00000000  1
  Ni  Ni4  1  0.91500400  0.91500400  0.00000000  1
  Ni  Ni5  1  0.83499600  0.33499600  0.50000000  1
  Ni  Ni6  1  0.08499600  0.08499600  0.00000000  1
  Ni  Ni7  1  0.66500400  0.16500400  0.50000000  1
  Ni  Ni8  1  0.50000000  0.50000000  0.00000000  1
  Ni  Ni9  1  0.25000000  0.75000000  0.50000000  1
  Cu  Cu10  1  0.78227300  0.78227300  0.00000000  1
  Cu  Cu11  1  0.96772700  0.46772700  0.50000000  1
  Cu  Cu12  1  0.53227300  0.03227300  0.50000000  1
  Cu  Cu13  1  0.21772700  0.21772700  0.00000000  1
  C  C14  1  0.92225800  0.59982800  0.67756900  1
  C  C15  1  0.08685000  0.84112200  0.75427200  1
  C  C16  1  0.17637200  0.67637200  0.50000000  1
  C  C17  1  0.59112200  0.33685000  0.25427200  1
  C  C18  1  0.49336800  0.79962400  0.30625600  1
  C  C19  1  0.99468900  0.17225800  0.82243100  1
  C  C20  1  0.66742300  0.91315000  0.75427200  1
  C  C21  1  0.15887800  0.91315000  0.24572800  1
  C  C22  1  0.32362800  0.82362800  0.50000000  1
  C  C23  1  0.92225800  0.24468900  0.32243100  1
  C  C24  1  0.82774200  0.00531100  0.17756900  1
  C  C25  1  0.40017200  0.07774200  0.32243100  1
  C  C26  1  0.66315000  0.91742300  0.25427200  1
  C  C27  1  0.54962400  0.74336800  0.80625600  1
  C  C28  1  0.66315000  0.40887800  0.74572800  1
  C  C29  1  0.08685000  0.33257700  0.24572800  1
  C  C30  1  0.20037600  0.50663200  0.69374400  1
  C  C31  1  0.57362800  0.57362800  0.00000000  1
  C  C32  1  0.08257700  0.33685000  0.74572800  1
  C  C33  1  0.75000000  0.25000000  0.50000000  1
  C  C34  1  0.81288800  0.50663200  0.30625600  1
  C  C35  1  0.34982800  0.17225800  0.17756900  1
  C  C36  1  0.75531100  0.07774200  0.67756900  1
  C  C37  1  0.25663200  0.06288800  0.80625600  1
  C  C38  1  0.93711200  0.74336800  0.19374400  1
  C  C39  1  0.49336800  0.18711200  0.69374400  1
  C  C40  1  0.82774200  0.65017200  0.82243100  1
  C  C41  1  0.25663200  0.45037600  0.19374400  1
  C  C42  1  0.00000000  0.00000000  0.00000000  1
  C  C43  1  0.42637200  0.42637200  0.00000000  1
