# generated using pymatgen
data_Cu2Ni2C9
_symmetry_space_group_name_H-M   'P 1'
_cell_length_a   9.66902014
_cell_length_b   9.66902014
_cell_length_c   8.91742371
_cell_angle_alpha   82.21908996
_cell_angle_beta   82.21908996
_cell_angle_gamma   88.95514869
_symmetry_Int_Tables_number   1
_chemical_formula_structural   Cu2Ni2C9
_chemical_formula_sum   'Cu8 Ni8 C36'
_cell_volume   818.40861535
_cell_formula_units_Z   4
loop_
 _symmetry_equiv_pos_site_id
 _symmetry_equiv_pos_as_xyz
  1  'x, y, z'
loop_
 _atom_site_type_symbol
 _atom_site_label
 _atom_site_symmetry_multiplicity
 _atom_site_fract_x
 _atom_site_fract_y
 _atom_site_fract_z
 _atom_site_occupancy
  C  C0  1  0.43357300  0.93422300  0.28946000  1
  C  C1  1  0.56642700  0.06577700  0.71054000  1
  C  C2  1  0.93422300  0.43357300  0.78946000  1
  C  C3  1  0.06577700  0.56642700  0.21054000  1
  Ni  Ni4  1  0.29428500  0.43227000  0.89128500  1
  Ni  Ni5  1  0.56773000  0.70571500  0.60871500  1
  Ni  Ni6  1  0.94575900  0.20722100  0.47365300  1
  Ni  Ni7  1  0.20722100  0.94575900  0.97365300  1
  Ni  Ni8  1  0.43227000  0.29428500  0.39128500  1
  Ni  Ni9  1  0.70571500  0.56773000  0.10871500  1
  Ni  Ni10  1  0.79277900  0.05424100  0.02634700  1
  Ni  Ni11  1  0.05424100  0.79277900  0.52634700  1
  Cu  Cu12  1  0.29116400  0.55564600  0.52334000  1
  Cu  Cu13  1  0.55564600  0.29116400  0.02334000  1
  Cu  Cu14  1  0.07027500  0.20785500  0.10542100  1
  Cu  Cu15  1  0.79214500  0.92972500  0.39457900  1
  Cu  Cu16  1  0.70883600  0.44435400  0.47666000  1
  Cu  Cu17  1  0.92972500  0.79214500  0.89457900  1
  Cu  Cu18  1  0.44435400  0.70883600  0.97666000  1
  Cu  Cu19  1  0.20785500  0.07027500  0.60542100  1
  C  C20  1  0.36841800  0.13393500  0.49848300  1
  C  C21  1  0.13393500  0.36841800  0.99848300  1
  C  C22  1  0.64685400  0.14437700  0.96033500  1
  C  C23  1  0.47584000  0.23813300  0.21099000  1
  C  C24  1  0.23813300  0.47584000  0.71099000  1
  C  C25  1  0.02387700  0.26158200  0.28572100  1
  C  C26  1  0.93301600  0.81409900  0.39270000  1
  C  C27  1  0.76186700  0.52416000  0.28901000  1
  C  C28  1  0.67783300  0.42639300  0.00896800  1
  C  C29  1  0.26158200  0.02387700  0.78572100  1
  C  C30  1  0.81409900  0.93301600  0.89270000  1
  C  C31  1  0.06698400  0.18590100  0.60730000  1
  C  C32  1  0.86606500  0.63158200  0.00151700  1
  C  C33  1  0.68193200  0.56283600  0.61112100  1
  C  C34  1  0.82339500  0.07143000  0.49153700  1
  C  C35  1  0.97612300  0.73841800  0.71427900  1
  C  C36  1  0.52416000  0.76186700  0.78901000  1
  C  C37  1  0.32216700  0.57360700  0.99103200  1
  C  C38  1  0.57360700  0.32216700  0.49103200  1
  C  C39  1  0.85562300  0.35314600  0.53966500  1
  C  C40  1  0.43716400  0.31806800  0.88887900  1
  C  C41  1  0.31806800  0.43716400  0.38887900  1
  C  C42  1  0.73841800  0.97612300  0.21427900  1
  C  C43  1  0.42639300  0.67783300  0.50896800  1
  C  C44  1  0.35314600  0.85562300  0.03966500  1
  C  C45  1  0.92857000  0.17660500  0.00846300  1
  C  C46  1  0.18590100  0.06698400  0.10730000  1
  C  C47  1  0.63158200  0.86606500  0.50151700  1
  C  C48  1  0.17660500  0.92857000  0.50846300  1
  C  C49  1  0.56283600  0.68193200  0.11112100  1
  C  C50  1  0.14437700  0.64685400  0.46033500  1
  C  C51  1  0.07143000  0.82339500  0.99153700  1
