# generated using pymatgen
data_CuNiC13
_symmetry_space_group_name_H-M   'P 1'
_cell_length_a   6.48636600
_cell_length_b   6.88852633
_cell_length_c   7.73931602
_cell_angle_alpha   111.90949226
_cell_angle_beta   96.31370848
_cell_angle_gamma   90.77202666
_symmetry_Int_Tables_number   1
_chemical_formula_structural   CuNiC13
_chemical_formula_sum   'Cu2 Ni2 C26'
_cell_volume   318.32484305
_cell_formula_units_Z   2
loop_
 _symmetry_equiv_pos_site_id
 _symmetry_equiv_pos_as_xyz
  1  'x, y, z'
loop_
 _atom_site_type_symbol
 _atom_site_label
 _atom_site_symmetry_multiplicity
 _atom_site_fract_x
 _atom_site_fract_y
 _atom_site_fract_z
 _atom_site_occupancy
  C  C0  1  0.12354300  0.22053600  0.93361500  1
  C  C1  1  0.87645700  0.77946400  0.06638500  1
  Ni  Ni2  1  0.67150100  0.25138700  0.02025900  1
  Ni  Ni3  1  0.32849900  0.74861300  0.97974100  1
  C  C4  1  0.48406900  0.88476500  0.59409600  1
  C  C5  1  0.72180100  0.67760700  0.65360800  1
  C  C6  1  0.52390500  0.73965400  0.39249900  1
  C  C7  1  0.51593100  0.11523500  0.40590400  1
  C  C8  1  0.27819900  0.32239300  0.34639200  1
  C  C9  1  0.47609500  0.26034600  0.60750100  1
  C  C10  1  0.62645500  0.29394600  0.20377300  1
  C  C11  1  0.16216000  0.52005400  0.31604000  1
  C  C12  1  0.83784000  0.47994600  0.68396000  1
  C  C13  1  0.37354500  0.70605400  0.79622700  1
  Cu  Cu14  1  0.05786600  0.90490600  0.50258700  1
  Cu  Cu15  1  0.94213400  0.09509400  0.49741300  1
  C  C16  1  0.14860600  0.91591800  0.65871300  1
  C  C17  1  0.78588200  0.62147900  0.74690800  1
  C  C18  1  0.80530000  0.05645900  0.96221200  1
  C  C19  1  0.58920700  0.80107300  0.52267900  1
  C  C20  1  0.46536800  0.22026100  0.89393300  1
  C  C21  1  0.94753800  0.24848500  0.65380500  1
  C  C22  1  0.81983000  0.43108300  0.02475400  1
  C  C23  1  0.18017000  0.56891700  0.97524600  1
  C  C24  1  0.53463200  0.77973900  0.10606700  1
  C  C25  1  0.19470000  0.94354100  0.03778800  1
  C  C26  1  0.85139400  0.08408200  0.34128700  1
  C  C27  1  0.05246200  0.75151500  0.34619500  1
  C  C28  1  0.21411800  0.37852100  0.25309200  1
  C  C29  1  0.41079300  0.19892700  0.47732100  1
