# generated using pymatgen
data_CuNiC9
_symmetry_space_group_name_H-M   'P 1'
_cell_length_a   5.41513900
_cell_length_b   9.07779300
_cell_length_c   13.96099879
_cell_angle_alpha   63.83876062
_cell_angle_beta   90.00000000
_cell_angle_gamma   90.00000000
_symmetry_Int_Tables_number   1
_chemical_formula_structural   CuNiC9
_chemical_formula_sum   'Cu4 Ni4 C36'
_cell_volume   615.98244611
_cell_formula_units_Z   4
loop_
 _symmetry_equiv_pos_site_id
 _symmetry_equiv_pos_as_xyz
  1  'x, y, z'
loop_
 _atom_site_type_symbol
 _atom_site_label
 _atom_site_symmetry_multiplicity
 _atom_site_fract_x
 _atom_site_fract_y
 _atom_site_fract_z
 _atom_site_occupancy
  Ni  Ni0  1  0.77187400  0.55499300  0.80806500  1
  Ni  Ni1  1  0.22812600  0.44500700  0.19193500  1
  Ni  Ni2  1  0.72812600  0.55499300  0.30806500  1
  Ni  Ni3  1  0.27187400  0.44500700  0.69193500  1
  Cu  Cu4  1  0.26261600  0.25557700  0.47449600  1
  Cu  Cu5  1  0.76261600  0.74442300  0.02550400  1
  Cu  Cu6  1  0.73738400  0.74442300  0.52550400  1
  Cu  Cu7  1  0.23738400  0.25557700  0.97449600  1
  C  C8  1  0.24998000  0.82127900  0.15240000  1
  C  C9  1  0.72191300  0.31376600  0.11697100  1
  C  C10  1  0.75002000  0.17872100  0.84760000  1
  C  C11  1  0.27808700  0.68623400  0.88302900  1
  C  C12  1  0.22191300  0.68623400  0.38302900  1
  C  C13  1  0.74998000  0.17872100  0.34760000  1
  C  C14  1  0.25002000  0.82127900  0.65240000  1
  C  C15  1  0.77808700  0.31376600  0.61697100  1
  C  C16  1  0.46607500  0.71562500  0.14496400  1
  C  C17  1  0.11172300  0.72352300  0.95706800  1
  C  C18  1  0.77651100  0.16726100  0.23522800  1
  C  C19  1  0.23782200  0.99709100  0.56730800  1
  C  C20  1  0.05350100  0.30941600  0.59202200  1
  C  C21  1  0.70956700  0.47306400  0.62383100  1
  C  C22  1  0.99742200  0.26500700  0.84253200  1
  C  C23  1  0.29043300  0.52693600  0.37616900  1
  C  C24  1  0.00257800  0.73499300  0.15746800  1
  C  C25  1  0.76217800  0.00290900  0.43269200  1
  C  C26  1  0.27651100  0.83273900  0.26477200  1
  C  C27  1  0.61172300  0.27647700  0.54293200  1
  C  C28  1  0.72348900  0.16726100  0.73522800  1
  C  C29  1  0.55350100  0.69058400  0.90797800  1
  C  C30  1  0.22348900  0.83273900  0.76477200  1
  C  C31  1  0.94649900  0.69058400  0.40797800  1
  C  C32  1  0.38827700  0.72352300  0.45706800  1
  C  C33  1  0.53392500  0.28437500  0.85503600  1
  C  C34  1  0.50257800  0.26500700  0.34253200  1
  C  C35  1  0.44649900  0.30941600  0.09202200  1
  C  C36  1  0.20956700  0.52693600  0.87616900  1
  C  C37  1  0.96607500  0.28437500  0.35503600  1
  C  C38  1  0.73782200  0.00290900  0.93269200  1
  C  C39  1  0.26217800  0.99709100  0.06730800  1
  C  C40  1  0.88827700  0.27647700  0.04293200  1
  C  C41  1  0.03392500  0.71562500  0.64496400  1
  C  C42  1  0.49742200  0.73499300  0.65746800  1
  C  C43  1  0.79043300  0.47306400  0.12383100  1
