# generated using pymatgen
data_Cu3NiC12
_symmetry_space_group_name_H-M   'P 1'
_cell_length_a   10.61177000
_cell_length_b   13.15525700
_cell_length_c   13.49024600
_cell_angle_alpha   90.00000000
_cell_angle_beta   90.00000000
_cell_angle_gamma   90.00000000
_symmetry_Int_Tables_number   1
_chemical_formula_structural   Cu3NiC12
_chemical_formula_sum   'Cu12 Ni4 C48'
_cell_volume   1883.24591738
_cell_formula_units_Z   4
loop_
 _symmetry_equiv_pos_site_id
 _symmetry_equiv_pos_as_xyz
  1  'x, y, z'
loop_
 _atom_site_type_symbol
 _atom_site_label
 _atom_site_symmetry_multiplicity
 _atom_site_fract_x
 _atom_site_fract_y
 _atom_site_fract_z
 _atom_site_occupancy
  C  C0  1  0.90250100  0.95390300  0.49013200  1
  C  C1  1  0.84717000  0.30774400  0.93881400  1
  C  C2  1  0.52345900  0.45192900  0.01487600  1
  C  C3  1  0.09749900  0.45390300  0.00986800  1
  C  C4  1  0.34717000  0.19225600  0.06118600  1
  C  C5  1  0.65839300  0.47180900  0.73710200  1
  C  C6  1  0.38459600  0.23583400  0.34762700  1
  C  C7  1  0.73164900  0.25205100  0.18127300  1
  C  C8  1  0.23164900  0.24794900  0.81872700  1
  C  C9  1  0.88459600  0.26416600  0.65237300  1
  C  C10  1  0.84160700  0.52819100  0.23710200  1
  C  C11  1  0.98642100  0.24795300  0.36163700  1
  C  C12  1  0.76835100  0.74794900  0.68127300  1
  C  C13  1  0.82157200  0.96027000  0.23304200  1
  C  C14  1  0.26835100  0.75205100  0.31872700  1
  C  C15  1  0.01357900  0.74795300  0.13836300  1
  C  C16  1  0.15283000  0.80774400  0.56118600  1
  C  C17  1  0.97654100  0.54807100  0.51487600  1
  C  C18  1  0.48642100  0.25204700  0.63836300  1
  C  C19  1  0.02345900  0.04807100  0.98512400  1
  C  C20  1  0.34160700  0.97180900  0.76289800  1
  C  C21  1  0.32157200  0.53973000  0.76695800  1
  C  C22  1  0.67842800  0.03973000  0.73304200  1
  C  C23  1  0.40250100  0.54609700  0.50986800  1
  C  C24  1  0.51357900  0.75204700  0.86163700  1
  C  C25  1  0.17842800  0.46027000  0.26695800  1
  C  C26  1  0.61540400  0.73583400  0.15237300  1
  C  C27  1  0.59749900  0.04609700  0.99013200  1
  C  C28  1  0.15839300  0.02819100  0.26289800  1
  C  C29  1  0.65283000  0.69225600  0.43881400  1
  C  C30  1  0.11540400  0.76416600  0.84762700  1
  C  C31  1  0.47654100  0.95192900  0.48512400  1
  Ni  Ni32  1  0.05464200  0.24546800  0.13799000  1
  Ni  Ni33  1  0.44535800  0.75453200  0.63799000  1
  Ni  Ni34  1  0.94535800  0.74546800  0.36201000  1
  Ni  Ni35  1  0.55464200  0.25453200  0.86201000  1
  Cu  Cu36  1  0.68931700  0.38745900  0.44627800  1
  Cu  Cu37  1  0.30534700  0.66144600  0.04773300  1
  Cu  Cu38  1  0.69465300  0.16144600  0.45226700  1
  Cu  Cu39  1  0.02483900  0.02478400  0.71531800  1
  Cu  Cu40  1  0.31068300  0.88745900  0.05372200  1
  Cu  Cu41  1  0.97516100  0.52478400  0.78468200  1
  Cu  Cu42  1  0.52483900  0.47521600  0.28468200  1
  Cu  Cu43  1  0.18931700  0.11254100  0.55372200  1
  Cu  Cu44  1  0.81068300  0.61254100  0.94627800  1
  Cu  Cu45  1  0.80534700  0.83855400  0.95226700  1
  Cu  Cu46  1  0.19465300  0.33855400  0.54773300  1
  Cu  Cu47  1  0.47516100  0.97521600  0.21531800  1
  C  C48  1  0.81034400  0.74372300  0.27896600  1
  C  C49  1  0.89644900  0.74484500  0.49127300  1
  C  C50  1  0.46687100  0.13946900  0.83538100  1
  C  C51  1  0.18965600  0.24372300  0.22103400  1
  C  C52  1  0.03312900  0.86053100  0.33538100  1
  C  C53  1  0.31034400  0.75627700  0.72103400  1
  C  C54  1  0.04375700  0.63558500  0.33375100  1
  C  C55  1  0.10355100  0.24484500  0.00872700  1
  C  C56  1  0.53312900  0.63946900  0.66461900  1
  C  C57  1  0.95624300  0.13558500  0.16624900  1
  C  C58  1  0.39644900  0.75515500  0.50872700  1
  C  C59  1  0.60355100  0.25515500  0.99127300  1
  C  C60  1  0.68965600  0.25627700  0.77896600  1
  C  C61  1  0.54375700  0.86441500  0.66624900  1
  C  C62  1  0.45624300  0.36441500  0.83375100  1
  C  C63  1  0.96687100  0.36053100  0.16461900  1
