# generated using pymatgen
data_Cu2Ni3C16
_symmetry_space_group_name_H-M   'P 1'
_cell_length_a   9.10055852
_cell_length_b   9.10055852
_cell_length_c   9.10055889
_cell_angle_alpha   60.44765022
_cell_angle_beta   60.44765022
_cell_angle_gamma   60.44765460
_symmetry_Int_Tables_number   1
_chemical_formula_structural   Cu2Ni3C16
_chemical_formula_sum   'Cu4 Ni6 C32'
_cell_volume   538.34696950
_cell_formula_units_Z   2
loop_
 _symmetry_equiv_pos_site_id
 _symmetry_equiv_pos_as_xyz
  1  'x, y, z'
loop_
 _atom_site_type_symbol
 _atom_site_label
 _atom_site_symmetry_multiplicity
 _atom_site_fract_x
 _atom_site_fract_y
 _atom_site_fract_z
 _atom_site_occupancy
  C  C0  1  0.00000000  0.00000000  0.00000000  1
  C  C1  1  0.75000000  0.38317600  0.11682400  1
  C  C2  1  0.38317600  0.11682400  0.75000000  1
  C  C3  1  0.11682400  0.75000000  0.38317600  1
  C  C4  1  0.88317600  0.25000000  0.61682400  1
  C  C5  1  0.50000000  0.50000000  0.50000000  1
  C  C6  1  0.61682400  0.88317600  0.25000000  1
  C  C7  1  0.25000000  0.61682400  0.88317600  1
  Ni  Ni8  1  0.45569100  0.75000000  0.04430900  1
  Ni  Ni9  1  0.25000000  0.95569100  0.54430900  1
  Ni  Ni10  1  0.54430900  0.25000000  0.95569100  1
  Ni  Ni11  1  0.04430900  0.45569100  0.75000000  1
  Ni  Ni12  1  0.95569100  0.54430900  0.25000000  1
  Ni  Ni13  1  0.75000000  0.04430900  0.45569100  1
  Cu  Cu14  1  0.64663500  0.64663500  0.64663500  1
  Cu  Cu15  1  0.14663500  0.14663500  0.14663500  1
  Cu  Cu16  1  0.85336500  0.85336500  0.85336500  1
  Cu  Cu17  1  0.35336500  0.35336500  0.35336500  1
  C  C18  1  0.28084300  0.13020700  0.51994000  1
  C  C19  1  0.73025200  0.07793900  0.93571200  1
  C  C20  1  0.92206100  0.06428800  0.26974800  1
  C  C21  1  0.98006000  0.36979300  0.21915700  1
  C  C22  1  0.63020700  0.78084300  0.01994000  1
  C  C23  1  0.78084300  0.01994000  0.63020700  1
  C  C24  1  0.36979300  0.21915700  0.98006000  1
  C  C25  1  0.21915700  0.98006000  0.36979300  1
  C  C26  1  0.42206100  0.76974800  0.56428800  1
  C  C27  1  0.56428800  0.42206100  0.76974800  1
  C  C28  1  0.07793900  0.93571200  0.73025200  1
  C  C29  1  0.71915700  0.86979300  0.48006000  1
  C  C30  1  0.23025200  0.43571200  0.57793900  1
  C  C31  1  0.93571200  0.73025200  0.07793900  1
  C  C32  1  0.57793900  0.23025200  0.43571200  1
  C  C33  1  0.51994000  0.28084300  0.13020700  1
  C  C34  1  0.13020700  0.51994000  0.28084300  1
  C  C35  1  0.26974800  0.92206100  0.06428800  1
  C  C36  1  0.43571200  0.57793900  0.23025200  1
  C  C37  1  0.76974800  0.56428800  0.42206100  1
  C  C38  1  0.06428800  0.26974800  0.92206100  1
  C  C39  1  0.86979300  0.48006000  0.71915700  1
  C  C40  1  0.48006000  0.71915700  0.86979300  1
  C  C41  1  0.01994000  0.63020700  0.78084300  1
