# generated using pymatgen
data_Cu(Ni2C13)2
_symmetry_space_group_name_H-M   'P 1'
_cell_length_a   7.32797200
_cell_length_b   7.44625000
_cell_length_c   12.91417414
_cell_angle_alpha   89.86444221
_cell_angle_beta   90.00000000
_cell_angle_gamma   90.00000000
_symmetry_Int_Tables_number   1
_chemical_formula_structural   Cu(Ni2C13)2
_chemical_formula_sum   'Cu2 Ni8 C52'
_cell_volume   704.67171127
_cell_formula_units_Z   2
loop_
 _symmetry_equiv_pos_site_id
 _symmetry_equiv_pos_as_xyz
  1  'x, y, z'
loop_
 _atom_site_type_symbol
 _atom_site_label
 _atom_site_symmetry_multiplicity
 _atom_site_fract_x
 _atom_site_fract_y
 _atom_site_fract_z
 _atom_site_occupancy
  C  C0  1  0.00764300  0.99164400  0.24650100  1
  C  C1  1  0.49235700  0.49164400  0.74650100  1
  C  C2  1  0.99235700  0.00835600  0.75349900  1
  C  C3  1  0.50764300  0.50835600  0.25349900  1
  Ni  Ni4  1  0.78784500  0.33464100  0.12654000  1
  Ni  Ni5  1  0.73303800  0.84114300  0.11828600  1
  Ni  Ni6  1  0.26696200  0.15885700  0.88171400  1
  Ni  Ni7  1  0.21215500  0.66535900  0.87346000  1
  Ni  Ni8  1  0.76696200  0.34114300  0.61828600  1
  Ni  Ni9  1  0.71215500  0.83464100  0.62654000  1
  Ni  Ni10  1  0.28784500  0.16535900  0.37346000  1
  Ni  Ni11  1  0.23303800  0.65885700  0.38171400  1
  Cu  Cu12  1  0.50000000  0.50000000  0.00000000  1
  Cu  Cu13  1  0.00000000  0.00000000  0.50000000  1
  C  C14  1  0.37600200  0.12559300  0.12453600  1
  C  C15  1  0.13131600  0.62589000  0.12856400  1
  C  C16  1  0.86868400  0.37411000  0.87143600  1
  C  C17  1  0.62399800  0.87440700  0.87546400  1
  C  C18  1  0.36868400  0.12589000  0.62856400  1
  C  C19  1  0.12399800  0.62559300  0.62453600  1
  C  C20  1  0.87600200  0.37440700  0.37546400  1
  C  C21  1  0.63131600  0.87411000  0.37143600  1
  C  C22  1  0.25398100  0.12341000  0.22223600  1
  C  C23  1  0.25740500  0.63148800  0.22330700  1
  C  C24  1  0.84157900  0.11185400  0.13226900  1
  C  C25  1  0.02185400  0.44781300  0.12495500  1
  C  C26  1  0.65263600  0.61391000  0.11576500  1
  C  C27  1  0.49676800  0.95700000  0.12486500  1
  C  C28  1  0.49857600  0.30039200  0.12266400  1
  C  C29  1  0.00110800  0.78860100  0.12989800  1
  C  C30  1  0.25096600  0.12702100  0.02949000  1
  C  C31  1  0.25498700  0.63246700  0.02969900  1
  C  C32  1  0.74501300  0.36753300  0.97030100  1
  C  C33  1  0.74903400  0.87297900  0.97051000  1
  C  C34  1  0.99889200  0.21139900  0.87010200  1
  C  C35  1  0.50142400  0.69960800  0.87733600  1
  C  C36  1  0.50323200  0.04300000  0.87513500  1
  C  C37  1  0.34736400  0.38609000  0.88423500  1
  C  C38  1  0.97814600  0.55218700  0.87504500  1
  C  C39  1  0.15842100  0.88814600  0.86773100  1
  C  C40  1  0.74259500  0.36851200  0.77669300  1
  C  C41  1  0.74601900  0.87659000  0.77776400  1
  C  C42  1  0.24259500  0.13148800  0.72330700  1
  C  C43  1  0.24601900  0.62341000  0.72223600  1
  C  C44  1  0.84736400  0.11391000  0.61576500  1
  C  C45  1  0.00323200  0.45700000  0.62486500  1
  C  C46  1  0.65842100  0.61185400  0.63226900  1
  C  C47  1  0.47814600  0.94781300  0.62495500  1
  C  C48  1  0.49889200  0.28860100  0.62989800  1
  C  C49  1  0.00142400  0.80039200  0.62266400  1
  C  C50  1  0.24501300  0.13246700  0.52969900  1
  C  C51  1  0.24903400  0.62702100  0.52949000  1
  C  C52  1  0.75096600  0.37297900  0.47051000  1
  C  C53  1  0.75498700  0.86753300  0.47030100  1
  C  C54  1  0.99857600  0.19960800  0.37733600  1
  C  C55  1  0.50110800  0.71139900  0.37010200  1
  C  C56  1  0.52185400  0.05218700  0.37504500  1
  C  C57  1  0.34157900  0.38814600  0.36773100  1
  C  C58  1  0.99676800  0.54300000  0.37513500  1
  C  C59  1  0.15263600  0.88609000  0.38423500  1
  C  C60  1  0.75398100  0.37659000  0.27776400  1
  C  C61  1  0.75740500  0.86851200  0.27669300  1
