# generated using pymatgen
data_Cu5(NiC2)2
_symmetry_space_group_name_H-M   'P 1'
_cell_length_a   11.06822100
_cell_length_b   9.59414700
_cell_length_c   14.88642782
_cell_angle_alpha   51.90727744
_cell_angle_beta   90.00000000
_cell_angle_gamma   90.00000000
_symmetry_Int_Tables_number   1
_chemical_formula_structural   Cu5(NiC2)2
_chemical_formula_sum   'Cu20 Ni8 C16'
_cell_volume   1244.10434546
_cell_formula_units_Z   4
loop_
 _symmetry_equiv_pos_site_id
 _symmetry_equiv_pos_as_xyz
  1  'x, y, z'
loop_
 _atom_site_type_symbol
 _atom_site_label
 _atom_site_symmetry_multiplicity
 _atom_site_fract_x
 _atom_site_fract_y
 _atom_site_fract_z
 _atom_site_occupancy
  C  C0  1  0.63984200  0.71657200  0.80869100  1
  C  C1  1  0.13984200  0.28342800  0.69130900  1
  C  C2  1  0.86015800  0.71657200  0.30869100  1
  C  C3  1  0.36015800  0.28342800  0.19130900  1
  C  C4  1  0.28242000  0.82584400  0.61112600  1
  C  C5  1  0.78242000  0.17415600  0.88887400  1
  C  C6  1  0.21758000  0.82584400  0.11112600  1
  C  C7  1  0.71758000  0.17415600  0.38887400  1
  C  C8  1  0.46171200  0.82147700  0.18680600  1
  C  C9  1  0.24843800  0.65196000  0.80909100  1
  C  C10  1  0.75156200  0.34804000  0.19090900  1
  C  C11  1  0.53828800  0.17852300  0.81319400  1
  C  C12  1  0.74843800  0.34804000  0.69090900  1
  C  C13  1  0.25156200  0.65196000  0.30909100  1
  C  C14  1  0.03828800  0.82147700  0.68680600  1
  C  C15  1  0.96171200  0.17852300  0.31319400  1
  Ni  Ni16  1  0.12575300  0.87593000  0.58464000  1
  Ni  Ni17  1  0.60923300  0.29851000  0.69772000  1
  Ni  Ni18  1  0.10923300  0.70149000  0.80228000  1
  Ni  Ni19  1  0.37424700  0.87593000  0.08464000  1
  Ni  Ni20  1  0.89076700  0.29851000  0.19772000  1
  Ni  Ni21  1  0.62575300  0.12407000  0.91536000  1
  Ni  Ni22  1  0.39076700  0.70149000  0.30228000  1
  Ni  Ni23  1  0.87424700  0.12407000  0.41536000  1
  Cu  Cu24  1  0.63366700  0.93035400  0.42457500  1
  Cu  Cu25  1  0.28692800  0.47027000  0.60269600  1
  Cu  Cu26  1  0.47842000  0.38372600  0.25772900  1
  Cu  Cu27  1  0.28747600  0.02989400  0.33169500  1
  Cu  Cu28  1  0.78747600  0.97010600  0.16830500  1
  Cu  Cu29  1  0.02158000  0.38372600  0.75772900  1
  Cu  Cu30  1  0.97842000  0.61627400  0.24227100  1
  Cu  Cu31  1  0.03911700  0.25467100  0.58066200  1
  Cu  Cu32  1  0.21307200  0.47027000  0.10269600  1
  Cu  Cu33  1  0.13366700  0.06964600  0.07542500  1
  Cu  Cu34  1  0.71252400  0.97010600  0.66830500  1
  Cu  Cu35  1  0.96088300  0.74532900  0.41933800  1
  Cu  Cu36  1  0.86633300  0.93035400  0.92457500  1
  Cu  Cu37  1  0.52158000  0.61627400  0.74227100  1
  Cu  Cu38  1  0.36633300  0.06964600  0.57542500  1
  Cu  Cu39  1  0.53911700  0.74532900  0.91933800  1
  Cu  Cu40  1  0.71307200  0.52973000  0.39730400  1
  Cu  Cu41  1  0.46088300  0.25467100  0.08066200  1
  Cu  Cu42  1  0.21252400  0.02989400  0.83169500  1
  Cu  Cu43  1  0.78692800  0.52973000  0.89730400  1
