# generated using pymatgen
data_Cu7Ni5C7
_symmetry_space_group_name_H-M   'P 1'
_cell_length_a   13.69674100
_cell_length_b   8.81212600
_cell_length_c   18.91516592
_cell_angle_alpha   66.99448841
_cell_angle_beta   90.00000000
_cell_angle_gamma   90.00000000
_symmetry_Int_Tables_number   1
_chemical_formula_structural   Cu7Ni5C7
_chemical_formula_sum   'Cu28 Ni20 C28'
_cell_volume   2101.43733590
_cell_formula_units_Z   4
loop_
 _symmetry_equiv_pos_site_id
 _symmetry_equiv_pos_as_xyz
  1  'x, y, z'
loop_
 _atom_site_type_symbol
 _atom_site_label
 _atom_site_symmetry_multiplicity
 _atom_site_fract_x
 _atom_site_fract_y
 _atom_site_fract_z
 _atom_site_occupancy
  C  C0  1  0.31614900  0.93931900  0.13868700  1
  C  C1  1  0.74593900  0.22592800  0.01799900  1
  C  C2  1  0.18385100  0.93931900  0.63868700  1
  C  C3  1  0.81614900  0.06068100  0.36131300  1
  C  C4  1  0.25406100  0.77407200  0.98200100  1
  C  C5  1  0.75406100  0.22592800  0.51799900  1
  C  C6  1  0.24593900  0.77407200  0.48200100  1
  C  C7  1  0.68385100  0.06068100  0.86131300  1
  Ni  Ni8  1  0.99522900  0.35635700  0.12959500  1
  Ni  Ni9  1  0.06202800  0.57379900  0.31720200  1
  Ni  Ni10  1  0.61339400  0.69145900  0.23275400  1
  Ni  Ni11  1  0.11339400  0.30854100  0.26724600  1
  Ni  Ni12  1  0.88660600  0.69145900  0.73275400  1
  Ni  Ni13  1  0.08378600  0.22193700  0.80020500  1
  Ni  Ni14  1  0.56202800  0.42620100  0.18279800  1
  Ni  Ni15  1  0.85583800  0.64845400  0.07698400  1
  Ni  Ni16  1  0.91621400  0.77806300  0.19979500  1
  Ni  Ni17  1  0.49522900  0.64364300  0.37040500  1
  Ni  Ni18  1  0.41621400  0.22193700  0.30020500  1
  Ni  Ni19  1  0.58378600  0.77806300  0.69979500  1
  Ni  Ni20  1  0.14416200  0.35154600  0.92301600  1
  Ni  Ni21  1  0.00477100  0.64364300  0.87040500  1
  Ni  Ni22  1  0.50477100  0.35635700  0.62959500  1
  Ni  Ni23  1  0.43797200  0.57379900  0.81720200  1
  Ni  Ni24  1  0.38660600  0.30854100  0.76724600  1
  Ni  Ni25  1  0.35583800  0.35154600  0.42301600  1
  Ni  Ni26  1  0.64416200  0.64845400  0.57698400  1
  Ni  Ni27  1  0.93797200  0.42620100  0.68279800  1
  C  C28  1  0.61460000  0.58877700  0.18021600  1
  C  C29  1  0.12919300  0.25612100  0.86904400  1
  C  C30  1  0.00778900  0.35384400  0.75302500  1
  C  C31  1  0.11460000  0.41122300  0.31978400  1
  C  C32  1  0.41498500  0.51196500  0.41302300  1
  C  C33  1  0.62919300  0.74387900  0.63095600  1
  C  C34  1  0.08501500  0.51196500  0.91302300  1
  C  C35  1  0.38540000  0.41122300  0.81978400  1
  C  C36  1  0.45927200  0.38791700  0.69853600  1
  C  C37  1  0.95927200  0.61208300  0.80146400  1
  C  C38  1  0.04072800  0.38791700  0.19853600  1
  C  C39  1  0.91498500  0.48803500  0.08697700  1
  C  C40  1  0.37080700  0.25612100  0.36904400  1
  C  C41  1  0.49221100  0.35384400  0.25302500  1
  C  C42  1  0.50778900  0.64615600  0.74697500  1
  C  C43  1  0.88540000  0.58877700  0.68021600  1
  C  C44  1  0.58501500  0.48803500  0.58697700  1
  C  C45  1  0.87080700  0.74387900  0.13095600  1
  C  C46  1  0.54072800  0.61208300  0.30146400  1
  C  C47  1  0.99221100  0.64615600  0.24697500  1
  Cu  Cu48  1  0.17507600  0.53664400  0.53426300  1
  Cu  Cu49  1  0.82492400  0.46335600  0.46573700  1
  Cu  Cu50  1  0.89139100  0.20890300  0.97576000  1
  Cu  Cu51  1  0.69436100  0.32421400  0.79449300  1
  Cu  Cu52  1  0.65251900  0.03330200  0.98763000  1
  Cu  Cu53  1  0.26301100  0.87829200  0.85717800  1
  Cu  Cu54  1  0.67507600  0.46335600  0.96573700  1
  Cu  Cu55  1  0.81785400  0.92745800  0.86293000  1
  Cu  Cu56  1  0.94754200  0.95017100  0.33661500  1
  Cu  Cu57  1  0.39139100  0.79109700  0.52424000  1
  Cu  Cu58  1  0.31785400  0.07254200  0.63707000  1
  Cu  Cu59  1  0.05245800  0.04982900  0.66338500  1
  Cu  Cu60  1  0.23698900  0.87829200  0.35717800  1
  Cu  Cu61  1  0.76301100  0.12170800  0.64282200  1
  Cu  Cu62  1  0.84748100  0.03330200  0.48763000  1
  Cu  Cu63  1  0.34748100  0.96669800  0.01237000  1
  Cu  Cu64  1  0.18214600  0.07254200  0.13707000  1
  Cu  Cu65  1  0.30563900  0.67578600  0.20550700  1
  Cu  Cu66  1  0.10860900  0.79109700  0.02424000  1
  Cu  Cu67  1  0.73698900  0.12170800  0.14282200  1
  Cu  Cu68  1  0.80563900  0.32421400  0.29449300  1
  Cu  Cu69  1  0.68214600  0.92745800  0.36293000  1
  Cu  Cu70  1  0.55245800  0.95017100  0.83661500  1
  Cu  Cu71  1  0.19436100  0.67578600  0.70550700  1
  Cu  Cu72  1  0.44754200  0.04982900  0.16338500  1
  Cu  Cu73  1  0.60860900  0.20890300  0.47576000  1
  Cu  Cu74  1  0.15251900  0.96669800  0.51237000  1
  Cu  Cu75  1  0.32492400  0.53664400  0.03426300  1
