# generated using pymatgen
data_CuNi3C14
_symmetry_space_group_name_H-M   'P 1'
_cell_length_a   6.62041900
_cell_length_b   9.89331500
_cell_length_c   11.79701685
_cell_angle_alpha   86.18101321
_cell_angle_beta   90.00000000
_cell_angle_gamma   90.00000000
_symmetry_Int_Tables_number   1
_chemical_formula_structural   CuNi3C14
_chemical_formula_sum   'Cu2 Ni6 C28'
_cell_volume   770.96394612
_cell_formula_units_Z   2
loop_
 _symmetry_equiv_pos_site_id
 _symmetry_equiv_pos_as_xyz
  1  'x, y, z'
loop_
 _atom_site_type_symbol
 _atom_site_label
 _atom_site_symmetry_multiplicity
 _atom_site_fract_x
 _atom_site_fract_y
 _atom_site_fract_z
 _atom_site_occupancy
  C  C0  1  0.25000000  0.33919900  0.06338700  1
  C  C1  1  0.75000000  0.95197500  0.61856600  1
  C  C2  1  0.25000000  0.22269800  0.68577300  1
  C  C3  1  0.25000000  0.04802500  0.38143400  1
  C  C4  1  0.25000000  0.72583300  0.14194200  1
  C  C5  1  0.25000000  0.46117200  0.39823200  1
  C  C6  1  0.75000000  0.66080100  0.93661300  1
  C  C7  1  0.75000000  0.53882800  0.60176800  1
  C  C8  1  0.75000000  0.27416700  0.85805800  1
  C  C9  1  0.75000000  0.77730200  0.31422700  1
  Ni  Ni10  1  0.25000000  0.86984900  0.79935300  1
  Ni  Ni11  1  0.75000000  0.13015100  0.20064700  1
  Ni  Ni12  1  0.25000000  0.55726300  0.79046200  1
  Ni  Ni13  1  0.75000000  0.25368000  0.43515300  1
  Ni  Ni14  1  0.25000000  0.74632000  0.56484700  1
  Ni  Ni15  1  0.75000000  0.44273700  0.20953800  1
  Cu  Cu16  1  0.00000000  0.00000000  0.00000000  1
  Cu  Cu17  1  0.50000000  0.00000000  0.00000000  1
  C  C18  1  0.45664600  0.75699200  0.49207800  1
  C  C19  1  0.95769600  0.05297200  0.16486700  1
  C  C20  1  0.45769600  0.94702800  0.83513300  1
  C  C21  1  0.45579900  0.47617300  0.82490700  1
  C  C22  1  0.95664600  0.24300800  0.50792200  1
  C  C23  1  0.04420100  0.47617300  0.82490700  1
  C  C24  1  0.25000000  0.70928300  0.85259300  1
  C  C25  1  0.75000000  0.12910000  0.34140200  1
  C  C26  1  0.75000000  0.39876600  0.35023900  1
  C  C27  1  0.04230400  0.94702800  0.83513300  1
  C  C28  1  0.25000000  0.60123400  0.64976100  1
  C  C29  1  0.54230400  0.05297200  0.16486700  1
  C  C30  1  0.75000000  0.29071700  0.14740700  1
  C  C31  1  0.54335400  0.24300800  0.50792200  1
  C  C32  1  0.54420100  0.52382700  0.17509300  1
  C  C33  1  0.04335400  0.75699200  0.49207800  1
  C  C34  1  0.95579900  0.52382700  0.17509300  1
  C  C35  1  0.25000000  0.87090000  0.65859800  1
