# generated using pymatgen
data_Cu2Ni2C3
_symmetry_space_group_name_H-M   'P 1'
_cell_length_a   11.18561734
_cell_length_b   11.18561734
_cell_length_c   11.26294890
_cell_angle_alpha   66.46574256
_cell_angle_beta   66.46574256
_cell_angle_gamma   52.99360112
_symmetry_Int_Tables_number   1
_chemical_formula_structural   Cu2Ni2C3
_chemical_formula_sum   'Cu8 Ni8 C12'
_cell_volume   1007.12600008
_cell_formula_units_Z   4
loop_
 _symmetry_equiv_pos_site_id
 _symmetry_equiv_pos_as_xyz
  1  'x, y, z'
loop_
 _atom_site_type_symbol
 _atom_site_label
 _atom_site_symmetry_multiplicity
 _atom_site_fract_x
 _atom_site_fract_y
 _atom_site_fract_z
 _atom_site_occupancy
  C  C0  1  0.66606400  0.17764100  0.29632100  1
  C  C1  1  0.06552600  0.06552600  0.27614800  1
  C  C2  1  0.14290000  0.60895300  0.99802600  1
  C  C3  1  0.77845200  0.77845200  0.26563400  1
  C  C4  1  0.60895300  0.14290000  0.99802600  1
  C  C5  1  0.33393600  0.82235900  0.70367900  1
  C  C6  1  0.39104700  0.85710000  0.00197400  1
  C  C7  1  0.17764100  0.66606400  0.29632100  1
  C  C8  1  0.22154800  0.22154800  0.73436600  1
  C  C9  1  0.93447400  0.93447400  0.72385200  1
  C  C10  1  0.85710000  0.39104700  0.00197400  1
  C  C11  1  0.82235900  0.33393600  0.70367900  1
  Ni  Ni12  1  0.93822300  0.45000200  0.74797900  1
  Ni  Ni13  1  0.54999800  0.06177700  0.25202100  1
  Ni  Ni14  1  0.06177700  0.54999800  0.25202100  1
  Ni  Ni15  1  0.31599600  0.80458300  0.25645400  1
  Ni  Ni16  1  0.45000200  0.93822300  0.74797900  1
  Ni  Ni17  1  0.80458300  0.31599600  0.25645400  1
  Ni  Ni18  1  0.68400400  0.19541700  0.74354600  1
  Ni  Ni19  1  0.19541700  0.68400400  0.74354600  1
  Cu  Cu20  1  0.12209000  0.12209000  0.50308200  1
  Cu  Cu21  1  0.62283500  0.62283500  0.50327600  1
  Cu  Cu22  1  0.25407800  0.25407800  0.99045000  1
  Cu  Cu23  1  0.74592200  0.74592200  0.00955000  1
  Cu  Cu24  1  0.37716500  0.37716500  0.49672400  1
  Cu  Cu25  1  0.50000000  0.50000000  0.00000000  1
  Cu  Cu26  1  0.00000000  0.00000000  0.00000000  1
  Cu  Cu27  1  0.87791000  0.87791000  0.49691800  1
