# generated using pymatgen
data_Cu2NiC4
_symmetry_space_group_name_H-M   'P 1'
_cell_length_a   6.04049688
_cell_length_b   6.04049684
_cell_length_c   24.16479908
_cell_angle_alpha   60.00385745
_cell_angle_beta   60.00385778
_cell_angle_gamma   59.99999665
_symmetry_Int_Tables_number   1
_chemical_formula_structural   Cu2NiC4
_chemical_formula_sum   'Cu16 Ni8 C32'
_cell_volume   623.50339902
_cell_formula_units_Z   8
loop_
 _symmetry_equiv_pos_site_id
 _symmetry_equiv_pos_as_xyz
  1  'x, y, z'
loop_
 _atom_site_type_symbol
 _atom_site_label
 _atom_site_symmetry_multiplicity
 _atom_site_fract_x
 _atom_site_fract_y
 _atom_site_fract_z
 _atom_site_occupancy
  Ni  Ni0  1  0.00458600  0.00458600  0.99656000  1
  Ni  Ni1  1  0.00317900  0.00317900  0.24761500  1
  Ni  Ni2  1  0.62654900  0.62654900  0.03008800  1
  Ni  Ni3  1  0.99948800  0.99948800  0.50038400  1
  Ni  Ni4  1  0.99945600  0.99945600  0.75040800  1
  Ni  Ni5  1  0.62733900  0.62733900  0.27949600  1
  Ni  Ni6  1  0.24983100  0.24983100  0.56262700  1
  Ni  Ni7  1  0.24687100  0.24687100  0.81484700  1
  Cu  Cu8  1  0.24709100  0.24709100  0.06468200  1
  Cu  Cu9  1  0.12076500  0.62641000  0.15660400  1
  Cu  Cu10  1  0.62641000  0.12076500  0.15660400  1
  Cu  Cu11  1  0.24748600  0.24748600  0.31438600  1
  Cu  Cu12  1  0.62641000  0.62641000  0.15660400  1
  Cu  Cu13  1  0.12215000  0.62613200  0.40639700  1
  Cu  Cu14  1  0.62613200  0.12215000  0.40639700  1
  Cu  Cu15  1  0.62613200  0.62613200  0.40639700  1
  Cu  Cu16  1  0.12360600  0.62425900  0.65696900  1
  Cu  Cu17  1  0.62425900  0.12360600  0.65696900  1
  Cu  Cu18  1  0.62350600  0.62350600  0.53237100  1
  Cu  Cu19  1  0.62425900  0.62425900  0.65696900  1
  Cu  Cu20  1  0.12083600  0.62584000  0.90687100  1
  Cu  Cu21  1  0.62353800  0.62353800  0.78234700  1
  Cu  Cu22  1  0.62584000  0.12083600  0.90687100  1
  Cu  Cu23  1  0.62584000  0.62584000  0.90687100  1
  C  C24  1  0.37698500  0.37698500  0.09782300  1
  C  C25  1  0.38276200  0.38276200  0.21292900  1
  C  C26  1  0.37698500  0.85473900  0.09782300  1
  C  C27  1  0.85473900  0.37698500  0.09782300  1
  C  C28  1  0.40389100  0.86983000  0.21411200  1
  C  C29  1  0.37194300  0.37194300  0.34883400  1
  C  C30  1  0.86983000  0.40389100  0.21411200  1
  C  C31  1  0.38838800  0.38838800  0.45870900  1
  C  C32  1  0.37194300  0.86077800  0.34883400  1
  C  C33  1  0.86624300  0.86624300  0.10031800  1
  C  C34  1  0.86983000  0.86983000  0.21411200  1
  C  C35  1  0.86077800  0.37194300  0.34883400  1
  C  C36  1  0.40739400  0.86430700  0.46599800  1
  C  C37  1  0.38596100  0.38596100  0.59570000  1
  C  C38  1  0.86430700  0.40739400  0.46599800  1
  C  C39  1  0.38503400  0.38503400  0.71122500  1
  C  C40  1  0.38596100  0.84527600  0.59570000  1
  C  C41  1  0.86538900  0.86538900  0.35095800  1
  C  C42  1  0.84527600  0.38596100  0.59570000  1
  C  C43  1  0.86430700  0.86430700  0.46599800  1
  C  C44  1  0.40601300  0.86527600  0.71585900  1
  C  C45  1  0.38670300  0.38670300  0.84624100  1
  C  C46  1  0.86527600  0.40601300  0.71585900  1
  C  C47  1  0.37961300  0.37961300  0.96529000  1
  C  C48  1  0.38670300  0.84163200  0.84624100  1
  C  C49  1  0.86500400  0.86500400  0.60124700  1
  C  C50  1  0.84163200  0.38670300  0.84624100  1
  C  C51  1  0.86527600  0.86527600  0.71585900  1
  C  C52  1  0.40480000  0.87199900  0.96280000  1
  C  C53  1  0.87199900  0.40480000  0.96280000  1
  C  C54  1  0.86548200  0.86548200  0.85088800  1
  C  C55  1  0.87199900  0.87199900  0.96280000  1
