# generated using pymatgen
data_Cu3Ni2C3
_symmetry_space_group_name_H-M   'P 1'
_cell_length_a   7.08253400
_cell_length_b   6.71676600
_cell_length_c   18.17809438
_cell_angle_alpha   76.80477412
_cell_angle_beta   90.00000000
_cell_angle_gamma   90.00000000
_symmetry_Int_Tables_number   1
_chemical_formula_structural   Cu3Ni2C3
_chemical_formula_sum   'Cu12 Ni8 C12'
_cell_volume   841.93173727
_cell_formula_units_Z   4
loop_
 _symmetry_equiv_pos_site_id
 _symmetry_equiv_pos_as_xyz
  1  'x, y, z'
loop_
 _atom_site_type_symbol
 _atom_site_label
 _atom_site_symmetry_multiplicity
 _atom_site_fract_x
 _atom_site_fract_y
 _atom_site_fract_z
 _atom_site_occupancy
  C  C0  1  0.20737500  0.75633200  0.05487600  1
  C  C1  1  0.29262500  0.75633200  0.55487600  1
  C  C2  1  0.70737500  0.24366800  0.44512400  1
  C  C3  1  0.79262500  0.24366800  0.94512400  1
  C  C4  1  0.32582600  0.14019200  0.74234100  1
  C  C5  1  0.67417400  0.85980800  0.25765900  1
  C  C6  1  0.82582600  0.85980800  0.75765900  1
  C  C7  1  0.17417400  0.14019200  0.24234100  1
  C  C8  1  0.82109500  0.36155200  0.70728000  1
  C  C9  1  0.17890500  0.63844800  0.29272000  1
  C  C10  1  0.67890500  0.36155200  0.20728000  1
  C  C11  1  0.32109500  0.63844800  0.79272000  1
  Ni  Ni12  1  0.18433100  0.12619100  0.38972700  1
  Ni  Ni13  1  0.15463700  0.23199100  0.09158100  1
  Ni  Ni14  1  0.68433100  0.87380900  0.11027300  1
  Ni  Ni15  1  0.65463700  0.76800900  0.40841900  1
  Ni  Ni16  1  0.31566900  0.12619100  0.88972700  1
  Ni  Ni17  1  0.84536300  0.76800900  0.90841900  1
  Ni  Ni18  1  0.34536300  0.23199100  0.59158100  1
  Ni  Ni19  1  0.81566900  0.87380900  0.61027300  1
  Cu  Cu20  1  0.84921500  0.17725900  0.24393400  1
  Cu  Cu21  1  0.50121500  0.81740900  0.76523600  1
  Cu  Cu22  1  0.99878500  0.81740900  0.26523600  1
  Cu  Cu23  1  0.00121500  0.18259100  0.73476400  1
  Cu  Cu24  1  0.15078500  0.82274100  0.75606600  1
  Cu  Cu25  1  0.49878500  0.18259100  0.23476400  1
  Cu  Cu26  1  0.82983300  0.50671500  0.77251400  1
  Cu  Cu27  1  0.67016700  0.50671500  0.27251400  1
  Cu  Cu28  1  0.32983300  0.49328500  0.72748600  1
  Cu  Cu29  1  0.65078500  0.17725900  0.74393400  1
  Cu  Cu30  1  0.34921500  0.82274100  0.25606600  1
  Cu  Cu31  1  0.17016700  0.49328500  0.22748600  1
