# generated using pymatgen
data_Cu3Ni4C21
_symmetry_space_group_name_H-M   'P 1'
_cell_length_a   18.61141700
_cell_length_b   8.37506200
_cell_length_c   8.88182290
_cell_angle_alpha   70.64309058
_cell_angle_beta   90.00000000
_cell_angle_gamma   90.00000000
_symmetry_Int_Tables_number   1
_chemical_formula_structural   Cu3Ni4C21
_chemical_formula_sum   'Cu12 Ni16 C84'
_cell_volume   1306.16694302
_cell_formula_units_Z   4
loop_
 _symmetry_equiv_pos_site_id
 _symmetry_equiv_pos_as_xyz
  1  'x, y, z'
loop_
 _atom_site_type_symbol
 _atom_site_label
 _atom_site_symmetry_multiplicity
 _atom_site_fract_x
 _atom_site_fract_y
 _atom_site_fract_z
 _atom_site_occupancy
  C  C0  1  0.59022800  0.36797300  0.18088800  1
  C  C1  1  0.09022800  0.13202700  0.81911200  1
  C  C2  1  0.40977200  0.63202700  0.81911200  1
  C  C3  1  0.90977200  0.86797300  0.18088800  1
  C  C4  1  0.40948300  0.46232300  0.44252400  1
  C  C5  1  0.68279300  0.07562600  0.62999200  1
  C  C6  1  0.93331900  0.60088200  0.52301600  1
  C  C7  1  0.62526600  0.74301400  0.44994400  1
  C  C8  1  0.43418400  0.93283400  0.04836600  1
  C  C9  1  0.68970500  0.30030100  0.54013100  1
  C  C10  1  0.09881000  0.80989000  0.10487900  1
  C  C11  1  0.56581600  0.06716600  0.95163400  1
  C  C12  1  0.40119000  0.30989000  0.10487900  1
  C  C13  1  0.95999500  0.17906800  0.39639000  1
  C  C14  1  0.69450600  0.75942300  0.75572500  1
  C  C15  1  0.94239200  0.41642400  0.14767400  1
  C  C16  1  0.55760800  0.91642400  0.14767400  1
  C  C17  1  0.63459000  0.91098800  0.02827000  1
  C  C18  1  0.19450600  0.74057700  0.24427500  1
  C  C19  1  0.56668100  0.10088200  0.52301600  1
  C  C20  1  0.20522100  0.96549900  0.18165200  1
  C  C21  1  0.82190200  0.55558500  0.16868100  1
  C  C22  1  0.67302100  0.63528500  0.28759400  1
  C  C23  1  0.90119000  0.19011000  0.89512100  1
  C  C24  1  0.82697900  0.13528500  0.28759400  1
  C  C25  1  0.09051700  0.96232300  0.44252400  1
  C  C26  1  0.32697900  0.36471500  0.71240600  1
  C  C27  1  0.81029500  0.80030100  0.54013100  1
  C  C28  1  0.36541000  0.08901200  0.97173000  1
  C  C29  1  0.86541000  0.41098800  0.02827000  1
  C  C30  1  0.93418400  0.56716600  0.95163400  1
  C  C31  1  0.62732300  0.21150600  0.70108000  1
  C  C32  1  0.31029500  0.69969900  0.45986900  1
  C  C33  1  0.87267700  0.71150600  0.70108000  1
  C  C34  1  0.31720700  0.92437400  0.37000800  1
  C  C35  1  0.37473400  0.25698600  0.55005600  1
  C  C36  1  0.44239200  0.08357600  0.85232600  1
  C  C37  1  0.80549400  0.25942300  0.75572500  1
  C  C38  1  0.05760800  0.58357600  0.85232600  1
  C  C39  1  0.30549400  0.24057700  0.24427500  1
  C  C40  1  0.17302100  0.86471500  0.71240600  1
  C  C41  1  0.59881000  0.69011000  0.89512100  1
  C  C42  1  0.70522100  0.53450100  0.81834800  1
  C  C43  1  0.12732300  0.28849400  0.29892000  1
  C  C44  1  0.79477900  0.03450100  0.81834800  1
  C  C45  1  0.54000500  0.67906800  0.39639000  1
  C  C46  1  0.43331900  0.89911800  0.47698400  1
  C  C47  1  0.06668100  0.39911800  0.47698400  1
  C  C48  1  0.37267700  0.78849400  0.29892000  1
  C  C49  1  0.25125800  0.34615000  0.07303300  1
  C  C50  1  0.90948300  0.03767700  0.55747600  1
  C  C51  1  0.74874200  0.65385000  0.92696700  1
  C  C52  1  0.17809800  0.44441500  0.83131900  1
  C  C53  1  0.18970500  0.19969900  0.45986900  1
  C  C54  1  0.81720700  0.57562600  0.62999200  1
  C  C55  1  0.45999500  0.32093200  0.60361000  1
  C  C56  1  0.04000500  0.82093200  0.60361000  1
  C  C57  1  0.29477900  0.46549900  0.18165200  1
  C  C58  1  0.75125800  0.15385000  0.92696700  1
  C  C59  1  0.12526600  0.75698600  0.55005600  1
  C  C60  1  0.67809800  0.05558500  0.16868100  1
  C  C61  1  0.18279300  0.42437400  0.37000800  1
  C  C62  1  0.24874200  0.84615000  0.07303300  1
  C  C63  1  0.32190200  0.94441500  0.83131900  1
  C  C64  1  0.13459000  0.58901200  0.97173000  1
  C  C65  1  0.06581600  0.43283400  0.04836600  1
  C  C66  1  0.59051700  0.53767700  0.55747600  1
  C  C67  1  0.87473400  0.24301400  0.44994400  1
  Ni  Ni68  1  0.59542700  0.99335800  0.05823800  1
  Ni  Ni69  1  0.29947900  0.35583200  0.14020000  1
  Ni  Ni70  1  0.20052100  0.85583200  0.14020000  1
  Ni  Ni71  1  0.15281900  0.30452100  0.40461400  1
  Ni  Ni72  1  0.09542700  0.50664200  0.94176200  1
  Ni  Ni73  1  0.84718100  0.69547900  0.59538600  1
  Ni  Ni74  1  0.90574400  0.13578600  0.43962200  1
  Ni  Ni75  1  0.59425600  0.63578600  0.43962200  1
  Ni  Ni76  1  0.40574400  0.36421400  0.56037800  1
  Ni  Ni77  1  0.40457300  0.00664200  0.94176200  1
  Ni  Ni78  1  0.34718100  0.80452100  0.40461400  1
  Ni  Ni79  1  0.79947900  0.14416800  0.85980000  1
  Ni  Ni80  1  0.09425600  0.86421400  0.56037800  1
  Ni  Ni81  1  0.90457300  0.49335800  0.05823800  1
  Ni  Ni82  1  0.70052100  0.64416800  0.85980000  1
  Ni  Ni83  1  0.65281900  0.19547900  0.59538600  1
  Cu  Cu84  1  0.97636300  0.88949700  0.87426400  1
  Cu  Cu85  1  0.75717300  0.83381300  0.22530300  1
  Cu  Cu86  1  0.52363700  0.38949700  0.87426400  1
  Cu  Cu87  1  0.47636300  0.61050300  0.12573600  1
  Cu  Cu88  1  0.25717300  0.66618700  0.77469700  1
  Cu  Cu89  1  0.02363700  0.11050300  0.12573600  1
  Cu  Cu90  1  0.53117900  0.84949100  0.71440900  1
  Cu  Cu91  1  0.03117900  0.65050900  0.28559100  1
  Cu  Cu92  1  0.24282700  0.16618700  0.77469700  1
  Cu  Cu93  1  0.96882100  0.34949100  0.71440900  1
  Cu  Cu94  1  0.46882100  0.15050900  0.28559100  1
  Cu  Cu95  1  0.74282700  0.33381300  0.22530300  1
  C  C96  1  0.09923700  0.30205400  0.52256300  1
  C  C97  1  0.40076300  0.80205400  0.52256300  1
  C  C98  1  0.13309900  0.38900100  0.88086700  1
  C  C99  1  0.13909200  0.87329500  0.03726200  1
  C  C100  1  0.12929200  0.93208600  0.67144000  1
  C  C101  1  0.36090800  0.37329500  0.03726200  1
  C  C102  1  0.63309900  0.11099900  0.11913300  1
  C  C103  1  0.86690100  0.61099900  0.11913300  1
  C  C104  1  0.37070800  0.43208600  0.67144000  1
  C  C105  1  0.90076300  0.69794600  0.47743700  1
  C  C106  1  0.86090800  0.12670500  0.96273800  1
  C  C107  1  0.59923700  0.19794600  0.47743700  1
  C  C108  1  0.87070800  0.06791400  0.32856000  1
  C  C109  1  0.36690100  0.88900100  0.88086700  1
  C  C110  1  0.63909200  0.62670500  0.96273800  1
  C  C111  1  0.62929200  0.56791400  0.32856000  1
