# generated using pymatgen
data_Cu2NiC9
_symmetry_space_group_name_H-M   'P 1'
_cell_length_a   7.11851500
_cell_length_b   6.97876700
_cell_length_c   13.31347900
_cell_angle_alpha   77.76524565
_cell_angle_beta   90.00000000
_cell_angle_gamma   90.00000000
_symmetry_Int_Tables_number   1
_chemical_formula_structural   Cu2NiC9
_chemical_formula_sum   'Cu8 Ni4 C36'
_cell_volume   646.37123027
_cell_formula_units_Z   4
loop_
 _symmetry_equiv_pos_site_id
 _symmetry_equiv_pos_as_xyz
  1  'x, y, z'
loop_
 _atom_site_type_symbol
 _atom_site_label
 _atom_site_symmetry_multiplicity
 _atom_site_fract_x
 _atom_site_fract_y
 _atom_site_fract_z
 _atom_site_occupancy
  C  C0  1  0.44777600  0.07067300  0.14700000  1
  C  C1  1  0.94777600  0.92932700  0.35300000  1
  C  C2  1  0.55222400  0.92932700  0.85300000  1
  C  C3  1  0.05222400  0.07067300  0.64700000  1
  C  C4  1  0.76932200  0.52563200  0.17858900  1
  C  C5  1  0.26932200  0.47436800  0.32141100  1
  C  C6  1  0.23067800  0.47436800  0.82141100  1
  C  C7  1  0.73067800  0.52563200  0.67858900  1
  Ni  Ni8  1  0.78350600  0.41755900  0.42261500  1
  Ni  Ni9  1  0.28350600  0.58244100  0.07738500  1
  Ni  Ni10  1  0.21649400  0.58244100  0.57738500  1
  Ni  Ni11  1  0.71649400  0.41755900  0.92261500  1
  Cu  Cu12  1  0.96212800  0.15415400  0.12457700  1
  Cu  Cu13  1  0.46212800  0.84584600  0.37542300  1
  Cu  Cu14  1  0.03787200  0.84584600  0.87542300  1
  Cu  Cu15  1  0.53787200  0.15415400  0.62457700  1
  Cu  Cu16  1  0.06646600  0.10677600  0.02971600  1
  Cu  Cu17  1  0.56646600  0.89322400  0.47028400  1
  Cu  Cu18  1  0.93353400  0.89322400  0.97028400  1
  Cu  Cu19  1  0.43353400  0.10677600  0.52971600  1
  C  C20  1  0.10422000  0.56903000  0.14660700  1
  C  C21  1  0.60422000  0.43097000  0.35339300  1
  C  C22  1  0.89578000  0.43097000  0.85339300  1
  C  C23  1  0.39578000  0.56903000  0.64660700  1
  C  C24  1  0.43550300  0.47673600  0.15891100  1
  C  C25  1  0.93550300  0.52326400  0.34108900  1
  C  C26  1  0.56449700  0.52326400  0.84108900  1
  C  C27  1  0.06449700  0.47673600  0.65891100  1
  C  C28  1  0.34453500  0.79235000  0.03100700  1
  C  C29  1  0.84453500  0.20765000  0.46899300  1
  C  C30  1  0.65546500  0.20765000  0.96899300  1
  C  C31  1  0.15546500  0.79235000  0.53100700  1
  C  C32  1  0.70406300  0.24908200  0.69553700  1
  C  C33  1  0.20406300  0.75091800  0.80446300  1
  C  C34  1  0.29593700  0.75091800  0.30446300  1
  C  C35  1  0.79593700  0.24908200  0.19553700  1
  C  C36  1  0.73970900  0.54769900  0.00236200  1
  C  C37  1  0.23970900  0.45230100  0.49763800  1
  C  C38  1  0.26029100  0.45230100  0.99763800  1
  C  C39  1  0.76029100  0.54769900  0.50236200  1
  C  C40  1  0.73226000  0.79422200  0.17183300  1
  C  C41  1  0.23226000  0.20577800  0.32816700  1
  C  C42  1  0.26774000  0.20577800  0.82816700  1
  C  C43  1  0.76774000  0.79422200  0.67183300  1
  C  C44  1  0.06666000  0.07523900  0.10464200  1
  C  C45  1  0.56666000  0.92476100  0.39535800  1
  C  C46  1  0.93334000  0.92476100  0.89535800  1
  C  C47  1  0.43334000  0.07523900  0.60464200  1
