# generated using pymatgen
data_Cu3(NiC4)2
_symmetry_space_group_name_H-M   'P 1'
_cell_length_a   11.62696670
_cell_length_b   11.62696670
_cell_length_c   11.62696670
_cell_angle_alpha   60.00000000
_cell_angle_beta   60.00000000
_cell_angle_gamma   60.00000000
_symmetry_Int_Tables_number   1
_chemical_formula_structural   Cu3(NiC4)2
_chemical_formula_sum   'Cu12 Ni8 C32'
_cell_volume   1111.43556149
_cell_formula_units_Z   4
loop_
 _symmetry_equiv_pos_site_id
 _symmetry_equiv_pos_as_xyz
  1  'x, y, z'
loop_
 _atom_site_type_symbol
 _atom_site_label
 _atom_site_symmetry_multiplicity
 _atom_site_fract_x
 _atom_site_fract_y
 _atom_site_fract_z
 _atom_site_occupancy
  Ni  Ni0  1  0.82694800  0.82694800  0.82694800  1
  Ni  Ni1  1  0.73084300  0.42305200  0.42305200  1
  Ni  Ni2  1  0.42305200  0.73084300  0.42305200  1
  Ni  Ni3  1  0.42305200  0.42305200  0.73084300  1
  Ni  Ni4  1  0.82694800  0.51915700  0.82694800  1
  Ni  Ni5  1  0.82694800  0.82694800  0.51915700  1
  Ni  Ni6  1  0.51915700  0.82694800  0.82694800  1
  Ni  Ni7  1  0.42305200  0.42305200  0.42305200  1
  C  C8  1  0.89913200  0.89913200  0.89913200  1
  C  C9  1  0.94739600  0.35086800  0.35086800  1
  C  C10  1  0.35086800  0.94739600  0.35086800  1
  C  C11  1  0.35086800  0.35086800  0.94739600  1
  C  C12  1  0.89913200  0.30260400  0.89913200  1
  C  C13  1  0.89913200  0.89913200  0.30260400  1
  C  C14  1  0.30260400  0.89913200  0.89913200  1
  C  C15  1  0.35086800  0.35086800  0.35086800  1
  Cu  Cu16  1  0.92265400  0.57734600  0.92265400  1
  Cu  Cu17  1  0.67265400  0.32734600  0.32734600  1
  Cu  Cu18  1  0.32734600  0.67265400  0.67265400  1
  Cu  Cu19  1  0.67265400  0.32734600  0.67265400  1
  Cu  Cu20  1  0.32734600  0.32734600  0.67265400  1
  Cu  Cu21  1  0.67265400  0.67265400  0.32734600  1
  Cu  Cu22  1  0.92265400  0.92265400  0.57734600  1
  Cu  Cu23  1  0.57734600  0.92265400  0.92265400  1
  Cu  Cu24  1  0.92265400  0.57734600  0.57734600  1
  Cu  Cu25  1  0.57734600  0.57734600  0.92265400  1
  Cu  Cu26  1  0.32734600  0.67265400  0.32734600  1
  Cu  Cu27  1  0.57734600  0.92265400  0.57734600  1
  C  C28  1  0.79046800  0.97962500  0.97962500  1
  C  C29  1  0.99971800  0.27037500  0.45953200  1
  C  C30  1  0.27037500  0.99971800  0.27037500  1
  C  C31  1  0.27037500  0.27037500  0.99971800  1
  C  C32  1  0.99971800  0.45953200  0.27037500  1
  C  C33  1  0.27037500  0.45953200  0.99971800  1
  C  C34  1  0.27037500  0.99971800  0.45953200  1
  C  C35  1  0.97962500  0.79046800  0.97962500  1
  C  C36  1  0.97962500  0.97962500  0.79046800  1
  C  C37  1  0.79046800  0.25028200  0.97962500  1
  C  C38  1  0.79046800  0.97962500  0.25028200  1
  C  C39  1  0.97962500  0.25028200  0.97962500  1
  C  C40  1  0.25028200  0.79046800  0.97962500  1
  C  C41  1  0.25028200  0.97962500  0.79046800  1
  C  C42  1  0.97962500  0.97962500  0.25028200  1
  C  C43  1  0.45953200  0.99971800  0.27037500  1
  C  C44  1  0.45953200  0.27037500  0.99971800  1
  C  C45  1  0.99971800  0.27037500  0.27037500  1
  C  C46  1  0.45953200  0.27037500  0.27037500  1
  C  C47  1  0.27037500  0.45953200  0.27037500  1
  C  C48  1  0.27037500  0.27037500  0.45953200  1
  C  C49  1  0.97962500  0.79046800  0.25028200  1
  C  C50  1  0.97962500  0.25028200  0.79046800  1
  C  C51  1  0.25028200  0.97962500  0.97962500  1
