# generated using pymatgen
data_Cu2(Ni12C7)3
_symmetry_space_group_name_H-M   'P 1'
_cell_length_a   15.30984469
_cell_length_b   15.30984469
_cell_length_c   15.30984469
_cell_angle_alpha   60.00000000
_cell_angle_beta   60.00000000
_cell_angle_gamma   60.00000000
_symmetry_Int_Tables_number   1
_chemical_formula_structural   Cu2(Ni12C7)3
_chemical_formula_sum   'Cu4 Ni72 C42'
_cell_volume   2537.44920583
_cell_formula_units_Z   2
loop_
 _symmetry_equiv_pos_site_id
 _symmetry_equiv_pos_as_xyz
  1  'x, y, z'
loop_
 _atom_site_type_symbol
 _atom_site_label
 _atom_site_symmetry_multiplicity
 _atom_site_fract_x
 _atom_site_fract_y
 _atom_site_fract_z
 _atom_site_occupancy
  C  C0  1  0.79598200  0.06800600  0.06800600  1
  C  C1  1  0.39075600  0.99686400  0.61551600  1
  C  C2  1  0.84354500  0.84354500  0.46936600  1
  C  C3  1  0.84354500  0.46936600  0.84354500  1
  C  C4  1  0.99686400  0.61551600  0.99686400  1
  C  C5  1  0.75000000  0.75000000  0.75000000  1
  C  C6  1  0.84354500  0.84354500  0.84354500  1
  C  C7  1  0.18199400  0.18199400  0.18199400  1
  C  C8  1  0.06800600  0.06800600  0.06800600  1
  C  C9  1  0.99686400  0.39075600  0.99686400  1
  C  C10  1  0.25313600  0.85924400  0.25313600  1
  C  C11  1  0.63448400  0.25313600  0.25313600  1
  C  C12  1  0.40645500  0.78063400  0.40645500  1
  C  C13  1  0.61551600  0.99686400  0.39075600  1
  C  C14  1  0.85924400  0.25313600  0.63448400  1
  C  C15  1  0.99686400  0.99686400  0.39075600  1
  C  C16  1  0.18199400  0.45401800  0.18199400  1
  C  C17  1  0.06800600  0.06800600  0.79598200  1
  C  C18  1  0.45401800  0.18199400  0.18199400  1
  C  C19  1  0.25313600  0.63448400  0.85924400  1
  C  C20  1  0.99686400  0.99686400  0.61551600  1
  C  C21  1  0.63448400  0.25313600  0.85924400  1
  C  C22  1  0.85924400  0.63448400  0.25313600  1
  C  C23  1  0.78063400  0.40645500  0.40645500  1
  C  C24  1  0.40645500  0.40645500  0.78063400  1
  C  C25  1  0.40645500  0.40645500  0.40645500  1
  C  C26  1  0.46936600  0.84354500  0.84354500  1
  C  C27  1  0.39075600  0.99686400  0.99686400  1
  C  C28  1  0.39075600  0.61551600  0.99686400  1
  C  C29  1  0.25313600  0.63448400  0.25313600  1
  C  C30  1  0.99686400  0.61551600  0.39075600  1
  C  C31  1  0.18199400  0.18199400  0.45401800  1
  C  C32  1  0.50000000  0.50000000  0.50000000  1
  C  C33  1  0.25313600  0.25313600  0.85924400  1
  C  C34  1  0.99686400  0.39075600  0.61551600  1
  C  C35  1  0.61551600  0.99686400  0.99686400  1
  C  C36  1  0.61551600  0.39075600  0.99686400  1
  C  C37  1  0.25313600  0.25313600  0.63448400  1
  C  C38  1  0.63448400  0.85924400  0.25313600  1
  C  C39  1  0.85924400  0.25313600  0.25313600  1
  C  C40  1  0.06800600  0.79598200  0.06800600  1
  C  C41  1  0.25313600  0.85924400  0.63448400  1
  Ni  Ni42  1  0.99433200  0.39859400  0.20847900  1
  Ni  Ni43  1  0.85140600  0.25566800  0.04152100  1
  Ni  Ni44  1  0.73582500  0.08710300  0.73582500  1
  Ni  Ni45  1  0.04152100  0.85140600  0.85140600  1
  Ni  Ni46  1  0.73582500  0.08710300  0.44124600  1
  Ni  Ni47  1  0.85140600  0.85140600  0.25566800  1
  Ni  Ni48  1  0.80875400  0.16289700  0.51417500  1
  Ni  Ni49  1  0.99433200  0.20847900  0.39859400  1
  Ni  Ni50  1  0.61732200  0.61732200  0.96651900  1
  Ni  Ni51  1  0.73582500  0.73582500  0.44124600  1
  Ni  Ni52  1  0.04152100  0.25566800  0.85140600  1
  Ni  Ni53  1  0.51417500  0.80875400  0.51417500  1
  Ni  Ni54  1  0.08710300  0.73582500  0.73582500  1
  Ni  Ni55  1  0.45116400  0.28348100  0.63267800  1
  Ni  Ni56  1  0.85140600  0.04152100  0.25566800  1
  Ni  Ni57  1  0.45116400  0.63267800  0.28348100  1
  Ni  Ni58  1  0.08710300  0.44124600  0.73582500  1
  Ni  Ni59  1  0.96651900  0.79883600  0.61732200  1
  Ni  Ni60  1  0.51417500  0.16289700  0.51417500  1
  Ni  Ni61  1  0.63267800  0.45116400  0.63267800  1
  Ni  Ni62  1  0.25566800  0.85140600  0.85140600  1
  Ni  Ni63  1  0.08710300  0.73582500  0.44124600  1
  Ni  Ni64  1  0.20847900  0.39859400  0.39859400  1
  Ni  Ni65  1  0.28348100  0.63267800  0.63267800  1
  Ni  Ni66  1  0.63267800  0.63267800  0.45116400  1
  Ni  Ni67  1  0.73582500  0.73582500  0.08710300  1
  Ni  Ni68  1  0.39859400  0.39859400  0.99433200  1
  Ni  Ni69  1  0.44124600  0.73582500  0.73582500  1
  Ni  Ni70  1  0.63267800  0.45116400  0.28348100  1
  Ni  Ni71  1  0.61732200  0.79883600  0.96651900  1
  Ni  Ni72  1  0.51417500  0.51417500  0.16289700  1
  Ni  Ni73  1  0.96651900  0.61732200  0.61732200  1
  Ni  Ni74  1  0.51417500  0.80875400  0.16289700  1
  Ni  Ni75  1  0.61732200  0.79883600  0.61732200  1
  Ni  Ni76  1  0.04152100  0.85140600  0.25566800  1
  Ni  Ni77  1  0.61732200  0.96651900  0.61732200  1
  Ni  Ni78  1  0.80875400  0.51417500  0.51417500  1
  Ni  Ni79  1  0.51417500  0.51417500  0.80875400  1
  Ni  Ni80  1  0.39859400  0.20847900  0.99433200  1
  Ni  Ni81  1  0.80875400  0.51417500  0.16289700  1
  Ni  Ni82  1  0.39859400  0.20847900  0.39859400  1
  Ni  Ni83  1  0.73582500  0.44124600  0.73582500  1
  Ni  Ni84  1  0.28348100  0.63267800  0.45116400  1
  Ni  Ni85  1  0.61732200  0.61732200  0.79883600  1
  Ni  Ni86  1  0.39859400  0.39859400  0.20847900  1
  Ni  Ni87  1  0.73582500  0.44124600  0.08710300  1
  Ni  Ni88  1  0.16289700  0.51417500  0.80875400  1
  Ni  Ni89  1  0.99433200  0.39859400  0.39859400  1
  Ni  Ni90  1  0.61732200  0.96651900  0.79883600  1
  Ni  Ni91  1  0.25566800  0.85140600  0.04152100  1
  Ni  Ni92  1  0.79883600  0.61732200  0.96651900  1
  Ni  Ni93  1  0.85140600  0.25566800  0.85140600  1
  Ni  Ni94  1  0.20847900  0.99433200  0.39859400  1
  Ni  Ni95  1  0.45116400  0.63267800  0.63267800  1
  Ni  Ni96  1  0.16289700  0.80875400  0.51417500  1
  Ni  Ni97  1  0.51417500  0.16289700  0.80875400  1
  Ni  Ni98  1  0.39859400  0.99433200  0.20847900  1
  Ni  Ni99  1  0.96651900  0.61732200  0.79883600  1
  Ni  Ni100  1  0.28348100  0.45116400  0.63267800  1
  Ni  Ni101  1  0.39859400  0.99433200  0.39859400  1
  Ni  Ni102  1  0.79883600  0.61732200  0.61732200  1
  Ni  Ni103  1  0.44124600  0.08710300  0.73582500  1
  Ni  Ni104  1  0.63267800  0.28348100  0.45116400  1
  Ni  Ni105  1  0.79883600  0.96651900  0.61732200  1
  Ni  Ni106  1  0.63267800  0.28348100  0.63267800  1
  Ni  Ni107  1  0.85140600  0.85140600  0.04152100  1
  Ni  Ni108  1  0.25566800  0.04152100  0.85140600  1
  Ni  Ni109  1  0.85140600  0.04152100  0.85140600  1
  Ni  Ni110  1  0.20847900  0.39859400  0.99433200  1
  Ni  Ni111  1  0.16289700  0.51417500  0.51417500  1
  Ni  Ni112  1  0.63267800  0.63267800  0.28348100  1
  Ni  Ni113  1  0.44124600  0.73582500  0.08710300  1
  Cu  Cu114  1  0.12500000  0.62500000  0.62500000  1
  Cu  Cu115  1  0.62500000  0.62500000  0.12500000  1
  Cu  Cu116  1  0.62500000  0.62500000  0.62500000  1
  Cu  Cu117  1  0.62500000  0.12500000  0.62500000  1
