# generated using pymatgen
data_Cu14Ni16C37
_symmetry_space_group_name_H-M   'P 1'
_cell_length_a   10.15370200
_cell_length_b   10.55483700
_cell_length_c   11.06621887
_cell_angle_alpha   88.11996230
_cell_angle_beta   90.00000000
_cell_angle_gamma   90.00000000
_symmetry_Int_Tables_number   1
_chemical_formula_structural   Cu14Ni16C37
_chemical_formula_sum   'Cu28 Ni32 C74'
_cell_volume   1185.33568401
_cell_formula_units_Z   2
loop_
 _symmetry_equiv_pos_site_id
 _symmetry_equiv_pos_as_xyz
  1  'x, y, z'
loop_
 _atom_site_type_symbol
 _atom_site_label
 _atom_site_symmetry_multiplicity
 _atom_site_fract_x
 _atom_site_fract_y
 _atom_site_fract_z
 _atom_site_occupancy
  C  C0  1  0.98637200  0.17560000  0.01883200  1
  C  C1  1  0.48637200  0.82440000  0.48116800  1
  C  C2  1  0.51362800  0.17560000  0.51883200  1
  C  C3  1  0.01362800  0.82440000  0.98116800  1
  C  C4  1  0.38207900  0.49060500  0.12100200  1
  C  C5  1  0.88207900  0.50939500  0.37899800  1
  C  C6  1  0.11792100  0.49060500  0.62100200  1
  C  C7  1  0.00000000  0.00000000  0.50000000  1
  C  C8  1  0.61792100  0.50939500  0.87899800  1
  C  C9  1  0.50000000  0.00000000  0.00000000  1
  C  C10  1  0.31210900  0.20495000  0.92514700  1
  C  C11  1  0.12349400  0.68898600  0.48820300  1
  C  C12  1  0.86278200  0.05405900  0.30578300  1
  C  C13  1  0.60803900  0.45354900  0.23780300  1
  C  C14  1  0.09752500  0.18239600  0.31102400  1
  C  C15  1  0.40247500  0.18239600  0.81102400  1
  C  C16  1  0.13721800  0.94594100  0.69421700  1
  C  C17  1  0.75234900  0.72553300  0.32420900  1
  C  C18  1  0.29111400  0.68393900  0.29282200  1
  C  C19  1  0.36278200  0.94594100  0.19421700  1
  C  C20  1  0.20888600  0.68393900  0.79282200  1
  C  C21  1  0.72277500  0.30517200  0.33423000  1
  C  C22  1  0.79691300  0.60264600  0.01658800  1
  C  C23  1  0.74765100  0.72553300  0.82420900  1
  C  C24  1  0.29691300  0.39735400  0.48341200  1
  C  C25  1  0.61272300  0.72252300  0.74744000  1
  C  C26  1  0.48939700  0.29864800  0.93979400  1
  C  C27  1  0.01288500  0.44886300  0.18866400  1
  C  C28  1  0.56255200  0.12265200  0.19495100  1
  C  C29  1  0.16776400  0.54596900  0.98998800  1
  C  C30  1  0.79111400  0.31606100  0.20717800  1
  C  C31  1  0.39196100  0.54645100  0.76219700  1
  C  C32  1  0.69746200  0.10604300  0.12254600  1
  C  C33  1  0.19746200  0.89395700  0.37745400  1
  C  C34  1  0.37650600  0.68898600  0.98820300  1
  C  C35  1  0.68789100  0.79505000  0.07485300  1
  C  C36  1  0.93744800  0.12265200  0.69495100  1
  C  C37  1  0.73361100  0.00199700  0.91179900  1
  C  C38  1  0.76638900  0.00199700  0.41179900  1
  C  C39  1  0.25234900  0.27446700  0.17579100  1
  C  C40  1  0.33223600  0.54596900  0.48998800  1
  C  C41  1  0.70888600  0.31606100  0.70717800  1
  C  C42  1  0.20308700  0.39735400  0.98341200  1
  C  C43  1  0.66776400  0.45403100  0.51001200  1
  C  C44  1  0.87650600  0.31101400  0.51179700  1
  C  C45  1  0.38727700  0.27747700  0.25256000  1
  C  C46  1  0.26638900  0.99800300  0.08820100  1
  C  C47  1  0.83223600  0.45403100  0.01001200  1
  C  C48  1  0.43744800  0.87734800  0.80504900  1
  C  C49  1  0.18789100  0.20495000  0.42514700  1
  C  C50  1  0.51288500  0.55113700  0.31133600  1
  C  C51  1  0.62349400  0.31101400  0.01179700  1
  C  C52  1  0.11272300  0.27747700  0.75256000  1
  C  C53  1  0.24765100  0.27446700  0.67579100  1
  C  C54  1  0.98939700  0.70135200  0.56020600  1
  C  C55  1  0.81210900  0.79505000  0.57485300  1
  C  C56  1  0.06255200  0.87734800  0.30504900  1
  C  C57  1  0.70308700  0.60264600  0.51658800  1
  C  C58  1  0.51060300  0.70135200  0.06020600  1
  C  C59  1  0.48711500  0.44886300  0.68866400  1
  C  C60  1  0.63721800  0.05405900  0.80578300  1
  C  C61  1  0.22277500  0.69482800  0.16577000  1
  C  C62  1  0.77722500  0.30517200  0.83423000  1
  C  C63  1  0.80253800  0.10604300  0.62254600  1
  C  C64  1  0.30253800  0.89395700  0.87745400  1
  C  C65  1  0.88727700  0.72252300  0.24744000  1
  C  C66  1  0.23361100  0.99800300  0.58820100  1
  C  C67  1  0.10803900  0.54645100  0.26219700  1
  C  C68  1  0.89196100  0.45354900  0.73780300  1
  C  C69  1  0.27722500  0.69482800  0.66577000  1
  C  C70  1  0.98711500  0.55113700  0.81133600  1
  C  C71  1  0.90247500  0.81760400  0.68897600  1
  C  C72  1  0.59752500  0.81760400  0.18897600  1
  C  C73  1  0.01060300  0.29864800  0.43979400  1
  Ni  Ni74  1  0.35656600  0.00398700  0.12159600  1
  Ni  Ni75  1  0.96906400  0.51316900  0.73220800  1
  Ni  Ni76  1  0.05094100  0.63663000  0.52113600  1
  Ni  Ni77  1  0.40421800  0.18606200  0.90130800  1
  Ni  Ni78  1  0.44905900  0.63663000  0.02113600  1
  Ni  Ni79  1  0.33667800  0.32073700  0.18733800  1
  Ni  Ni80  1  0.46906400  0.48683100  0.76779200  1
  Ni  Ni81  1  0.55094100  0.36337000  0.97886400  1
  Ni  Ni82  1  0.83667800  0.67926300  0.31266200  1
  Ni  Ni83  1  0.53093600  0.51316900  0.23220800  1
  Ni  Ni84  1  0.74232200  0.36607700  0.26534700  1
  Ni  Ni85  1  0.24232200  0.63392300  0.23465300  1
  Ni  Ni86  1  0.90421800  0.81393800  0.59869200  1
  Ni  Ni87  1  0.85656600  0.99601300  0.37840400  1
  Ni  Ni88  1  0.25980300  0.48333100  0.49954000  1
  Ni  Ni89  1  0.09578200  0.18606200  0.40130800  1
  Ni  Ni90  1  0.03093600  0.48683100  0.26779200  1
  Ni  Ni91  1  0.25767800  0.63392300  0.73465300  1
  Ni  Ni92  1  0.89917400  0.11180100  0.61282700  1
  Ni  Ni93  1  0.74019700  0.51666900  0.50046000  1
  Ni  Ni94  1  0.75767800  0.36607700  0.76534700  1
  Ni  Ni95  1  0.16332200  0.32073700  0.68733800  1
  Ni  Ni96  1  0.60082600  0.11180100  0.11282700  1
  Ni  Ni97  1  0.14343400  0.00398700  0.62159600  1
  Ni  Ni98  1  0.75980300  0.51666900  0.00046000  1
  Ni  Ni99  1  0.64343400  0.99601300  0.87840400  1
  Ni  Ni100  1  0.24019700  0.48333100  0.99954000  1
  Ni  Ni101  1  0.10082600  0.88819900  0.38717300  1
  Ni  Ni102  1  0.59578200  0.81393800  0.09869200  1
  Ni  Ni103  1  0.66332200  0.67926300  0.81266200  1
  Ni  Ni104  1  0.94905900  0.36337000  0.47886400  1
  Ni  Ni105  1  0.39917400  0.88819900  0.88717300  1
  Cu  Cu106  1  0.00928700  0.83372900  0.17094200  1
  Cu  Cu107  1  0.13599300  0.86056100  0.82547800  1
  Cu  Cu108  1  0.70364500  0.23234400  0.46234100  1
  Cu  Cu109  1  0.03585900  0.63206000  0.93443200  1
  Cu  Cu110  1  0.53585900  0.36794000  0.56556800  1
  Cu  Cu111  1  0.29635500  0.76765600  0.53765900  1
  Cu  Cu112  1  0.79635500  0.23234400  0.96234100  1
  Cu  Cu113  1  0.38267900  0.00841800  0.51185700  1
  Cu  Cu114  1  0.99071300  0.16627100  0.82905800  1
  Cu  Cu115  1  0.63599300  0.13943900  0.67452200  1
  Cu  Cu116  1  0.46414100  0.63206000  0.43443200  1
  Cu  Cu117  1  0.36400700  0.86056100  0.32547800  1
  Cu  Cu118  1  0.88433700  0.81368800  0.82987900  1
  Cu  Cu119  1  0.16419000  0.26175000  0.95388900  1
  Cu  Cu120  1  0.20364500  0.76765600  0.03765900  1
  Cu  Cu121  1  0.61732100  0.99158200  0.48814300  1
  Cu  Cu122  1  0.96414100  0.36794000  0.06556800  1
  Cu  Cu123  1  0.11566300  0.18631200  0.17012100  1
  Cu  Cu124  1  0.11732100  0.00841800  0.01185700  1
  Cu  Cu125  1  0.38433700  0.18631200  0.67012100  1
  Cu  Cu126  1  0.86400700  0.13943900  0.17452200  1
  Cu  Cu127  1  0.88267900  0.99158200  0.98814300  1
  Cu  Cu128  1  0.83581000  0.73825000  0.04611100  1
  Cu  Cu129  1  0.33581000  0.26175000  0.45388900  1
  Cu  Cu130  1  0.50928700  0.16627100  0.32905800  1
  Cu  Cu131  1  0.61566300  0.81368800  0.32987900  1
  Cu  Cu132  1  0.66419000  0.73825000  0.54611100  1
  Cu  Cu133  1  0.49071300  0.83372900  0.67094200  1
