# generated using pymatgen
data_Cu2Ni
_symmetry_space_group_name_H-M   'P 1'
_cell_length_a   4.75240349
_cell_length_b   4.75240349
_cell_length_c   15.47540000
_cell_angle_alpha   90.00000000
_cell_angle_beta   90.00000000
_cell_angle_gamma   119.99999285
_symmetry_Int_Tables_number   1
_chemical_formula_structural   Cu2Ni
_chemical_formula_sum   'Cu16 Ni8'
_cell_volume   302.69075586
_cell_formula_units_Z   8
loop_
 _symmetry_equiv_pos_site_id
 _symmetry_equiv_pos_as_xyz
  1  'x, y, z'
loop_
 _atom_site_type_symbol
 _atom_site_label
 _atom_site_symmetry_multiplicity
 _atom_site_fract_x
 _atom_site_fract_y
 _atom_site_fract_z
 _atom_site_occupancy
  Ni  Ni0  1  0.33333300  0.66666700  0.84417800  1
  Ni  Ni1  1  0.00000000  0.00000000  0.09236600  1
  Ni  Ni2  1  0.66666700  0.33333300  0.15582200  1
  Ni  Ni3  1  0.00000000  0.00000000  0.90763400  1
  Ni  Ni4  1  0.00000000  0.00000000  0.59236600  1
  Ni  Ni5  1  0.00000000  0.00000000  0.40763400  1
  Ni  Ni6  1  0.66666700  0.33333300  0.34417800  1
  Ni  Ni7  1  0.33333300  0.66666700  0.65582200  1
  Cu  Cu8  1  0.50000000  0.00000000  0.00000000  1
  Cu  Cu9  1  0.83485600  0.16514400  0.75000000  1
  Cu  Cu10  1  0.66666700  0.33333300  0.87412300  1
  Cu  Cu11  1  0.16514400  0.33028800  0.25000000  1
  Cu  Cu12  1  0.33028800  0.16514400  0.75000000  1
  Cu  Cu13  1  0.83485600  0.66971200  0.75000000  1
  Cu  Cu14  1  0.00000000  0.50000000  0.00000000  1
  Cu  Cu15  1  0.66971200  0.83485600  0.25000000  1
  Cu  Cu16  1  0.50000000  0.00000000  0.50000000  1
  Cu  Cu17  1  0.16514400  0.83485600  0.25000000  1
  Cu  Cu18  1  0.33333300  0.66666700  0.12587700  1
  Cu  Cu19  1  0.50000000  0.50000000  0.00000000  1
  Cu  Cu20  1  0.66666700  0.33333300  0.62587700  1
  Cu  Cu21  1  0.00000000  0.50000000  0.50000000  1
  Cu  Cu22  1  0.33333300  0.66666700  0.37412300  1
  Cu  Cu23  1  0.50000000  0.50000000  0.50000000  1
