# generated using pymatgen
data_Cu2NiC8
_symmetry_space_group_name_H-M   'P 1'
_cell_length_a   8.28355600
_cell_length_b   7.03349200
_cell_length_c   9.70021349
_cell_angle_alpha   72.27433943
_cell_angle_beta   90.00000000
_cell_angle_gamma   90.00000000
_symmetry_Int_Tables_number   1
_chemical_formula_structural   Cu2NiC8
_chemical_formula_sum   'Cu8 Ni4 C32'
_cell_volume   538.32628646
_cell_formula_units_Z   4
loop_
 _symmetry_equiv_pos_site_id
 _symmetry_equiv_pos_as_xyz
  1  'x, y, z'
loop_
 _atom_site_type_symbol
 _atom_site_label
 _atom_site_symmetry_multiplicity
 _atom_site_fract_x
 _atom_site_fract_y
 _atom_site_fract_z
 _atom_site_occupancy
  C  C0  1  0.13873700  0.80629500  0.52883700  1
  C  C1  1  0.36126300  0.80629500  0.02883700  1
  C  C2  1  0.86126300  0.19370500  0.47116300  1
  C  C3  1  0.63873700  0.19370500  0.97116300  1
  Ni  Ni4  1  0.27542400  0.27954900  0.50595900  1
  Ni  Ni5  1  0.72457600  0.72045100  0.49404100  1
  Ni  Ni6  1  0.77542400  0.72045100  0.99404100  1
  Ni  Ni7  1  0.22457600  0.27954900  0.00595900  1
  Cu  Cu8  1  0.03681000  0.05753300  0.79827300  1
  Cu  Cu9  1  0.46319000  0.05753300  0.29827300  1
  Cu  Cu10  1  0.96319000  0.94246700  0.20172700  1
  Cu  Cu11  1  0.41243800  0.51399800  0.70803000  1
  Cu  Cu12  1  0.91243800  0.48600200  0.79197000  1
  Cu  Cu13  1  0.53681000  0.94246700  0.70172700  1
  Cu  Cu14  1  0.58756200  0.48600200  0.29197000  1
  Cu  Cu15  1  0.08756200  0.51399800  0.20803000  1
  C  C16  1  0.90178500  0.53223500  0.13460800  1
  C  C17  1  0.89356800  0.90132800  0.37453500  1
  C  C18  1  0.37435200  0.76768800  0.71283000  1
  C  C19  1  0.59180900  0.62633900  0.11505800  1
  C  C20  1  0.75646400  0.52105000  0.89753700  1
  C  C21  1  0.25646400  0.47895000  0.60246300  1
  C  C22  1  0.87435200  0.23231200  0.78717000  1
  C  C23  1  0.31570800  0.07275300  0.41711200  1
  C  C24  1  0.09180900  0.37366100  0.38494200  1
  C  C25  1  0.39356800  0.09867200  0.12546500  1
  C  C26  1  0.24353600  0.47895000  0.10246300  1
  C  C27  1  0.62564800  0.23231200  0.28717000  1
  C  C28  1  0.68429200  0.92724700  0.58288800  1
  C  C29  1  0.81570800  0.92724700  0.08288800  1
  C  C30  1  0.55850400  0.83363800  0.35341900  1
  C  C31  1  0.18429200  0.07275300  0.91711200  1
  C  C32  1  0.60643200  0.90132800  0.87453500  1
  C  C33  1  0.12564800  0.76768800  0.21283000  1
  C  C34  1  0.44149600  0.16636200  0.64658100  1
  C  C35  1  0.90819100  0.62633900  0.61505800  1
  C  C36  1  0.09821500  0.46776500  0.86539200  1
  C  C37  1  0.94149600  0.83363800  0.85341900  1
  C  C38  1  0.05850400  0.16636200  0.14658100  1
  C  C39  1  0.10643200  0.09867200  0.62546500  1
  C  C40  1  0.59821500  0.53223500  0.63460800  1
  C  C41  1  0.40819100  0.37366100  0.88494200  1
  C  C42  1  0.74353600  0.52105000  0.39753700  1
  C  C43  1  0.40178500  0.46776500  0.36539200  1
