# generated using pymatgen
data_Cu3Ni3C2
_symmetry_space_group_name_H-M   'P 1'
_cell_length_a   6.48615028
_cell_length_b   6.48615028
_cell_length_c   5.59148700
_cell_angle_alpha   90.00000000
_cell_angle_beta   90.00000000
_cell_angle_gamma   120.00000289
_symmetry_Int_Tables_number   1
_chemical_formula_structural   Cu3Ni3C2
_chemical_formula_sum   'Cu6 Ni6 C4'
_cell_volume   203.71919556
_cell_formula_units_Z   2
loop_
 _symmetry_equiv_pos_site_id
 _symmetry_equiv_pos_as_xyz
  1  'x, y, z'
loop_
 _atom_site_type_symbol
 _atom_site_label
 _atom_site_symmetry_multiplicity
 _atom_site_fract_x
 _atom_site_fract_y
 _atom_site_fract_z
 _atom_site_occupancy
  C  C0  1  0.00000000  0.00000000  0.00000000  1
  C  C1  1  0.00000000  0.50000000  0.50000000  1
  C  C2  1  0.50000000  0.00000000  0.50000000  1
  C  C3  1  0.50000000  0.50000000  0.50000000  1
  Ni  Ni4  1  0.23511200  0.23511200  0.80488600  1
  Ni  Ni5  1  0.23511200  0.00000000  0.19511400  1
  Ni  Ni6  1  0.00000000  0.76488800  0.80488600  1
  Ni  Ni7  1  0.00000000  0.23511200  0.19511400  1
  Ni  Ni8  1  0.76488800  0.76488800  0.19511400  1
  Ni  Ni9  1  0.76488800  0.00000000  0.80488600  1
  Cu  Cu10  1  0.00000000  0.62295000  0.67699400  1
  Cu  Cu11  1  0.00000000  0.37705000  0.32300600  1
  Cu  Cu12  1  0.37705000  0.00000000  0.32300600  1
  Cu  Cu13  1  0.62295000  0.00000000  0.67699400  1
  Cu  Cu14  1  0.62295000  0.62295000  0.32300600  1
  Cu  Cu15  1  0.37705000  0.37705000  0.67699400  1
