# generated using pymatgen
data_CuNiC5
_symmetry_space_group_name_H-M   'P 1'
_cell_length_a   5.27739900
_cell_length_b   8.48916700
_cell_length_c   19.76541600
_cell_angle_alpha   90.00000000
_cell_angle_beta   90.00000000
_cell_angle_gamma   90.00000000
_symmetry_Int_Tables_number   1
_chemical_formula_structural   CuNiC5
_chemical_formula_sum   'Cu8 Ni8 C40'
_cell_volume   885.50489630
_cell_formula_units_Z   8
loop_
 _symmetry_equiv_pos_site_id
 _symmetry_equiv_pos_as_xyz
  1  'x, y, z'
loop_
 _atom_site_type_symbol
 _atom_site_label
 _atom_site_symmetry_multiplicity
 _atom_site_fract_x
 _atom_site_fract_y
 _atom_site_fract_z
 _atom_site_occupancy
  Ni  Ni0  1  0.79417600  0.48139600  0.23529500  1
  Ni  Ni1  1  0.76756000  0.17420200  0.05221100  1
  Ni  Ni2  1  0.26756000  0.32579800  0.55221100  1
  Ni  Ni3  1  0.26756000  0.82579800  0.94778900  1
  Ni  Ni4  1  0.76756000  0.67420200  0.44778900  1
  Ni  Ni5  1  0.79417600  0.98139600  0.26470500  1
  Ni  Ni6  1  0.29417600  0.01860400  0.73529500  1
  Ni  Ni7  1  0.29417600  0.51860400  0.76470500  1
  Cu  Cu8  1  0.24665900  0.49807200  0.05671000  1
  Cu  Cu9  1  0.24692600  0.30842400  0.34489500  1
  Cu  Cu10  1  0.74692600  0.19157600  0.84489500  1
  Cu  Cu11  1  0.74692600  0.69157600  0.65510500  1
  Cu  Cu12  1  0.24665900  0.99807200  0.44329000  1
  Cu  Cu13  1  0.74665900  0.00192800  0.55671000  1
  Cu  Cu14  1  0.74665900  0.50192800  0.94329000  1
  Cu  Cu15  1  0.24692600  0.80842400  0.15510500  1
  C  C16  1  0.74841100  0.79514400  0.82256100  1
  C  C17  1  0.24841100  0.20485600  0.17743900  1
  C  C18  1  0.25050400  0.78275700  0.57227200  1
  C  C19  1  0.24841100  0.70485600  0.32256100  1
  C  C20  1  0.75050400  0.71724300  0.07227200  1
  C  C21  1  0.25050400  0.28275700  0.92772800  1
  C  C22  1  0.74841100  0.29514400  0.67743900  1
  C  C23  1  0.75050400  0.21724300  0.42772800  1
  C  C24  1  0.61719100  0.55512800  0.03792500  1
  C  C25  1  0.20449000  0.13397000  0.97957500  1
  C  C26  1  0.63794500  0.76335300  0.74451000  1
  C  C27  1  0.06507100  0.19201500  0.41861000  1
  C  C28  1  0.11618100  0.24554500  0.85356200  1
  C  C29  1  0.14274700  0.34650800  0.12577800  1
  C  C30  1  0.11618100  0.74554500  0.64643800  1
  C  C31  1  0.13794500  0.23664700  0.25549000  1
  C  C32  1  0.61618100  0.25445500  0.35356200  1
  C  C33  1  0.64159100  0.96917700  0.84921100  1
  C  C34  1  0.64274700  0.15349200  0.62577800  1
  C  C35  1  0.56507100  0.30798500  0.91861000  1
  C  C36  1  0.13794500  0.73664700  0.24451000  1
  C  C37  1  0.06507100  0.69201500  0.08139000  1
  C  C38  1  0.14159100  0.53082300  0.34921100  1
  C  C39  1  0.63794500  0.26335300  0.75549000  1
  C  C40  1  0.61719100  0.05512800  0.46207500  1
  C  C41  1  0.14159100  0.03082300  0.15078900  1
  C  C42  1  0.56507100  0.80798500  0.58139000  1
  C  C43  1  0.64274700  0.65349200  0.87422200  1
  C  C44  1  0.06165000  0.29438500  0.67873400  1
  C  C45  1  0.14274700  0.84650800  0.37422200  1
  C  C46  1  0.70449000  0.86603000  0.02042500  1
  C  C47  1  0.70449000  0.36603000  0.47957500  1
  C  C48  1  0.11719100  0.44487200  0.96207500  1
  C  C49  1  0.11719100  0.94487200  0.53792500  1
  C  C50  1  0.61618100  0.75445500  0.14643800  1
  C  C51  1  0.06165000  0.79438500  0.82126600  1
  C  C52  1  0.56165000  0.70561500  0.32126600  1
  C  C53  1  0.64159100  0.46917700  0.65078900  1
  C  C54  1  0.20449000  0.63397000  0.52042500  1
  C  C55  1  0.56165000  0.20561500  0.17873400  1
