# generated using pymatgen
data_Cu5Ni3C2
_symmetry_space_group_name_H-M   'P 1'
_cell_length_a   10.27081400
_cell_length_b   10.27081400
_cell_length_c   5.38591700
_cell_angle_alpha   90.00000000
_cell_angle_beta   90.00000000
_cell_angle_gamma   90.00000000
_symmetry_Int_Tables_number   1
_chemical_formula_structural   Cu5Ni3C2
_chemical_formula_sum   'Cu20 Ni12 C8'
_cell_volume   568.15833888
_cell_formula_units_Z   4
loop_
 _symmetry_equiv_pos_site_id
 _symmetry_equiv_pos_as_xyz
  1  'x, y, z'
loop_
 _atom_site_type_symbol
 _atom_site_label
 _atom_site_symmetry_multiplicity
 _atom_site_fract_x
 _atom_site_fract_y
 _atom_site_fract_z
 _atom_site_occupancy
  C  C0  1  0.43097500  0.26300200  0.00000000  1
  C  C1  1  0.26300200  0.56902500  0.00000000  1
  C  C2  1  0.73699800  0.43097500  0.00000000  1
  C  C3  1  0.56902500  0.73699800  0.00000000  1
  C  C4  1  0.06902500  0.76300200  0.50000000  1
  C  C5  1  0.93097500  0.23699800  0.50000000  1
  C  C6  1  0.76300200  0.93097500  0.50000000  1
  C  C7  1  0.23699800  0.06902500  0.50000000  1
  Ni  Ni8  1  0.12336200  0.14356900  0.00000000  1
  Ni  Ni9  1  0.14356900  0.87663800  0.00000000  1
  Ni  Ni10  1  0.85643100  0.12336200  0.00000000  1
  Ni  Ni11  1  0.87663800  0.85643100  0.00000000  1
  Ni  Ni12  1  0.37663800  0.64356900  0.50000000  1
  Ni  Ni13  1  0.62336200  0.35643100  0.50000000  1
  Ni  Ni14  1  0.64356900  0.62336200  0.50000000  1
  Ni  Ni15  1  0.35643100  0.37663800  0.50000000  1
  Ni  Ni16  1  0.50000000  0.00000000  0.25000000  1
  Ni  Ni17  1  0.00000000  0.50000000  0.25000000  1
  Ni  Ni18  1  0.50000000  0.00000000  0.75000000  1
  Ni  Ni19  1  0.00000000  0.50000000  0.75000000  1
  Cu  Cu20  1  0.31912000  0.02333000  0.00000000  1
  Cu  Cu21  1  0.02333000  0.68088000  0.00000000  1
  Cu  Cu22  1  0.97667000  0.31912000  0.00000000  1
  Cu  Cu23  1  0.68088000  0.97667000  0.00000000  1
  Cu  Cu24  1  0.18088000  0.52333000  0.50000000  1
  Cu  Cu25  1  0.81912000  0.47667000  0.50000000  1
  Cu  Cu26  1  0.52333000  0.81912000  0.50000000  1
  Cu  Cu27  1  0.47667000  0.18088000  0.50000000  1
  Cu  Cu28  1  0.67841700  0.17841700  0.25000000  1
  Cu  Cu29  1  0.17841700  0.32158300  0.25000000  1
  Cu  Cu30  1  0.82158300  0.67841700  0.25000000  1
  Cu  Cu31  1  0.32158300  0.82158300  0.25000000  1
  Cu  Cu32  1  0.32158300  0.82158300  0.75000000  1
  Cu  Cu33  1  0.82158300  0.67841700  0.75000000  1
  Cu  Cu34  1  0.17841700  0.32158300  0.75000000  1
  Cu  Cu35  1  0.67841700  0.17841700  0.75000000  1
  Cu  Cu36  1  0.00000000  0.00000000  0.24120800  1
  Cu  Cu37  1  0.50000000  0.50000000  0.25879200  1
  Cu  Cu38  1  0.00000000  0.00000000  0.75879200  1
  Cu  Cu39  1  0.50000000  0.50000000  0.74120800  1
