# generated using pymatgen
data_Cu3NiC14
_symmetry_space_group_name_H-M   'P 1'
_cell_length_a   10.96486261
_cell_length_b   10.96486261
_cell_length_c   5.46564432
_cell_angle_alpha   77.67133927
_cell_angle_beta   77.67133927
_cell_angle_gamma   68.60768297
_symmetry_Int_Tables_number   1
_chemical_formula_structural   Cu3NiC14
_chemical_formula_sum   'Cu6 Ni2 C28'
_cell_volume   591.05926872
_cell_formula_units_Z   2
loop_
 _symmetry_equiv_pos_site_id
 _symmetry_equiv_pos_as_xyz
  1  'x, y, z'
loop_
 _atom_site_type_symbol
 _atom_site_label
 _atom_site_symmetry_multiplicity
 _atom_site_fract_x
 _atom_site_fract_y
 _atom_site_fract_z
 _atom_site_occupancy
  C  C0  1  0.70970100  0.95606900  0.41222000  1
  C  C1  1  0.29029900  0.04393100  0.58778000  1
  C  C2  1  0.95606900  0.70970100  0.91222000  1
  C  C3  1  0.04393100  0.29029900  0.08778000  1
  Ni  Ni4  1  0.62795800  0.37204200  0.25000000  1
  Ni  Ni5  1  0.37204200  0.62795800  0.75000000  1
  Cu  Cu6  1  0.76357600  0.54279100  0.61047800  1
  Cu  Cu7  1  0.54279100  0.76357600  0.11047800  1
  Cu  Cu8  1  0.23642400  0.45720900  0.38952200  1
  Cu  Cu9  1  0.45720900  0.23642400  0.88952200  1
  Cu  Cu10  1  0.14403600  0.85596400  0.25000000  1
  Cu  Cu11  1  0.85596400  0.14403600  0.75000000  1
  C  C12  1  0.13594800  0.01193900  0.07286200  1
  C  C13  1  0.81167900  0.26831100  0.96562900  1
  C  C14  1  0.38701000  0.46952600  0.14453500  1
  C  C15  1  0.18832100  0.73168900  0.03437100  1
  C  C16  1  0.69560000  0.74587700  0.91228300  1
  C  C17  1  0.57647000  0.20855000  0.10291000  1
  C  C18  1  0.01193900  0.13594800  0.57286200  1
  C  C19  1  0.09514300  0.50008600  0.24713800  1
  C  C20  1  0.98806100  0.86405200  0.42713800  1
  C  C21  1  0.26831100  0.81167900  0.46562900  1
  C  C22  1  0.25412300  0.30440000  0.58771700  1
  C  C23  1  0.46952600  0.38701000  0.64453500  1
  C  C24  1  0.79145000  0.42353000  0.39709000  1
  C  C25  1  0.90485700  0.49991400  0.75286200  1
  C  C26  1  0.20855000  0.57647000  0.60291000  1
  C  C27  1  0.50008600  0.09514300  0.74713800  1
  C  C28  1  0.49991400  0.90485700  0.25286200  1
  C  C29  1  0.74587700  0.69560000  0.41228300  1
  C  C30  1  0.30440000  0.25412300  0.08771700  1
  C  C31  1  0.86405200  0.98806100  0.92713800  1
  C  C32  1  0.42353000  0.79145000  0.89709000  1
  C  C33  1  0.73168900  0.18832100  0.53437100  1
  C  C34  1  0.53047400  0.61299000  0.35546500  1
  C  C35  1  0.61299000  0.53047400  0.85546500  1
