# generated using pymatgen
data_Cu6NiC32
_symmetry_space_group_name_H-M   'P 1'
_cell_length_a   11.70560400
_cell_length_b   9.91196900
_cell_length_c   12.02157506
_cell_angle_alpha   61.48606042
_cell_angle_beta   90.00000000
_cell_angle_gamma   90.00000000
_symmetry_Int_Tables_number   1
_chemical_formula_structural   Cu6NiC32
_chemical_formula_sum   'Cu12 Ni2 C64'
_cell_volume   1225.62117299
_cell_formula_units_Z   2
loop_
 _symmetry_equiv_pos_site_id
 _symmetry_equiv_pos_as_xyz
  1  'x, y, z'
loop_
 _atom_site_type_symbol
 _atom_site_label
 _atom_site_symmetry_multiplicity
 _atom_site_fract_x
 _atom_site_fract_y
 _atom_site_fract_z
 _atom_site_occupancy
  C  C0  1  0.43271800  0.83402000  0.28928900  1
  C  C1  1  0.78191000  0.41410800  0.89912000  1
  C  C2  1  0.21809000  0.58589200  0.10088000  1
  C  C3  1  0.93271800  0.16598000  0.21071100  1
  C  C4  1  0.03719500  0.33209200  0.37253000  1
  C  C5  1  0.71809000  0.41410800  0.39912000  1
  C  C6  1  0.46280500  0.33209200  0.87253000  1
  C  C7  1  0.68445000  0.77488200  0.81051000  1
  C  C8  1  0.96280500  0.66790800  0.62747000  1
  C  C9  1  0.28191000  0.58589200  0.60088000  1
  C  C10  1  0.31555000  0.22511800  0.18949000  1
  C  C11  1  0.56728200  0.16598000  0.71071100  1
  C  C12  1  0.53719500  0.66790800  0.12747000  1
  C  C13  1  0.06728200  0.83402000  0.78928900  1
  C  C14  1  0.81555000  0.77488200  0.31051000  1
  C  C15  1  0.18445000  0.22511800  0.68949000  1
  Ni  Ni16  1  0.50000000  0.00000000  0.50000000  1
  Ni  Ni17  1  0.00000000  0.00000000  0.00000000  1
  Cu  Cu18  1  0.39074700  0.72706100  0.82020300  1
  Cu  Cu19  1  0.18607000  0.98997400  0.49338500  1
  Cu  Cu20  1  0.68607000  0.01002600  0.00661500  1
  Cu  Cu21  1  0.31393000  0.98997400  0.99338500  1
  Cu  Cu22  1  0.10925300  0.72706100  0.32020300  1
  Cu  Cu23  1  0.60352500  0.60611600  0.58838600  1
  Cu  Cu24  1  0.39647500  0.39388400  0.41161400  1
  Cu  Cu25  1  0.81393000  0.01002600  0.50661500  1
  Cu  Cu26  1  0.10352500  0.39388400  0.91161400  1
  Cu  Cu27  1  0.89647500  0.60611600  0.08838600  1
  Cu  Cu28  1  0.60925300  0.27293900  0.17979700  1
  Cu  Cu29  1  0.89074700  0.27293900  0.67979700  1
  C  C30  1  0.43979300  0.90753900  0.68174900  1
  C  C31  1  0.61797400  0.41741200  0.22698200  1
  C  C32  1  0.84904100  0.20730300  0.41008700  1
  C  C33  1  0.52127500  0.43415900  0.65038400  1
  C  C34  1  0.34904100  0.79269700  0.08991300  1
  C  C35  1  0.70295400  0.60353600  0.47781900  1
  C  C36  1  0.47872500  0.56584100  0.34961600  1
  C  C37  1  0.11797400  0.58258800  0.27301800  1
  C  C38  1  0.74390700  0.24712000  0.12279400  1
  C  C39  1  0.17144300  0.07419600  0.59339200  1
  C  C40  1  0.32855700  0.07419600  0.09339200  1
  C  C41  1  0.01125700  0.21752300  0.99135900  1
  C  C42  1  0.66493800  0.97998300  0.57128400  1
  C  C43  1  0.65095900  0.20730300  0.91008700  1
  C  C44  1  0.25609300  0.75288000  0.87720600  1
  C  C45  1  0.75609300  0.24712000  0.62279400  1
  C  C46  1  0.83506200  0.97998300  0.07128400  1
  C  C47  1  0.90901200  0.91114800  0.63690900  1
  C  C48  1  0.88202600  0.41741200  0.72698200  1
  C  C49  1  0.98874300  0.78247700  0.00864100  1
  C  C50  1  0.00102300  0.67514200  0.43602300  1
  C  C51  1  0.50102300  0.32485800  0.06397700  1
  C  C52  1  0.99897700  0.32485800  0.56397700  1
  C  C53  1  0.93979300  0.09246100  0.81825100  1
  C  C54  1  0.56020700  0.09246100  0.31825100  1
  C  C55  1  0.40901200  0.08885200  0.86309100  1
  C  C56  1  0.38202600  0.58258800  0.77301800  1
  C  C57  1  0.59098800  0.91114800  0.13690900  1
  C  C58  1  0.24390700  0.75288000  0.37720600  1
  C  C59  1  0.49897700  0.67514200  0.93602300  1
  C  C60  1  0.48874300  0.21752300  0.49135900  1
  C  C61  1  0.16493800  0.02001700  0.92871600  1
  C  C62  1  0.15095900  0.79269700  0.58991300  1
  C  C63  1  0.02127500  0.56584100  0.84961600  1
  C  C64  1  0.97872500  0.43415900  0.15038400  1
  C  C65  1  0.17768800  0.38783800  0.78440500  1
  C  C66  1  0.29704600  0.39646400  0.52218100  1
  C  C67  1  0.67768800  0.61216200  0.71559500  1
  C  C68  1  0.09098800  0.08885200  0.36309100  1
  C  C69  1  0.06020700  0.90753900  0.18174900  1
  C  C70  1  0.82855700  0.92580400  0.40660800  1
  C  C71  1  0.33506200  0.02001700  0.42871600  1
  C  C72  1  0.79704600  0.60353600  0.97781900  1
  C  C73  1  0.32231200  0.38783800  0.28440500  1
  C  C74  1  0.51125700  0.78247700  0.50864100  1
  C  C75  1  0.20295400  0.39646400  0.02218100  1
  C  C76  1  0.67144300  0.92580400  0.90660800  1
  C  C77  1  0.82231200  0.61216200  0.21559500  1
