# generated using pymatgen
data_Cu10NiC9
_symmetry_space_group_name_H-M   'P 1'
_cell_length_a   7.18993100
_cell_length_b   11.26638800
_cell_length_c   17.50918000
_cell_angle_alpha   90.00000000
_cell_angle_beta   90.00000000
_cell_angle_gamma   90.00000000
_symmetry_Int_Tables_number   1
_chemical_formula_structural   Cu10NiC9
_chemical_formula_sum   'Cu40 Ni4 C36'
_cell_volume   1418.32328773
_cell_formula_units_Z   4
loop_
 _symmetry_equiv_pos_site_id
 _symmetry_equiv_pos_as_xyz
  1  'x, y, z'
loop_
 _atom_site_type_symbol
 _atom_site_label
 _atom_site_symmetry_multiplicity
 _atom_site_fract_x
 _atom_site_fract_y
 _atom_site_fract_z
 _atom_site_occupancy
  C  C0  1  0.27782200  0.49737200  0.99621400  1
  C  C1  1  0.72217800  0.50262800  0.00378600  1
  C  C2  1  0.72217800  0.49737200  0.49621400  1
  C  C3  1  0.29590100  0.25000000  0.72489000  1
  C  C4  1  0.72217800  0.99737200  0.00378600  1
  C  C5  1  0.27782200  0.99737200  0.50378600  1
  C  C6  1  0.72217800  0.00262800  0.49621400  1
  C  C7  1  0.70409900  0.75000000  0.27511000  1
  C  C8  1  0.29590100  0.75000000  0.77511000  1
  C  C9  1  0.27782200  0.50262800  0.50378600  1
  C  C10  1  0.70409900  0.25000000  0.22489000  1
  C  C11  1  0.27782200  0.00262800  0.99621400  1
  C  C12  1  0.97213200  0.91752900  0.16054900  1
  C  C13  1  0.02786800  0.91752900  0.66054900  1
  C  C14  1  0.97213200  0.08247100  0.33945100  1
  C  C15  1  0.52708800  0.56662500  0.84492800  1
  C  C16  1  0.97213200  0.58247100  0.16054900  1
  C  C17  1  0.47291200  0.06662500  0.15507200  1
  C  C18  1  0.92463700  0.25000000  0.02729700  1
  C  C19  1  0.59023000  0.25000000  0.43886500  1
  C  C20  1  0.07536300  0.25000000  0.52729700  1
  C  C21  1  0.59023000  0.75000000  0.06113500  1
  C  C22  1  0.02786800  0.41752900  0.83945100  1
  C  C23  1  0.92463700  0.75000000  0.47270300  1
  C  C24  1  0.52708800  0.43337500  0.65507200  1
  C  C25  1  0.40977000  0.75000000  0.56113500  1
  C  C26  1  0.97213200  0.41752900  0.33945100  1
  C  C27  1  0.47291200  0.43337500  0.15507200  1
  C  C28  1  0.52708800  0.06662500  0.65507200  1
  C  C29  1  0.40977000  0.25000000  0.93886500  1
  C  C30  1  0.02786800  0.58247100  0.66054900  1
  C  C31  1  0.07536300  0.75000000  0.97270300  1
  C  C32  1  0.47291200  0.56662500  0.34492800  1
  C  C33  1  0.47291200  0.93337500  0.34492800  1
  C  C34  1  0.52708800  0.93337500  0.84492800  1
  C  C35  1  0.02786800  0.08247100  0.83945100  1
  Ni  Ni36  1  0.80038900  0.75000000  0.76316800  1
  Ni  Ni37  1  0.19961100  0.25000000  0.23683200  1
  Ni  Ni38  1  0.19961100  0.75000000  0.26316800  1
  Ni  Ni39  1  0.80038900  0.25000000  0.73683200  1
  Cu  Cu40  1  0.66618900  0.39377600  0.53369300  1
  Cu  Cu41  1  0.91226000  0.75000000  0.09002600  1
  Cu  Cu42  1  0.27454300  0.50583300  0.58391000  1
  Cu  Cu43  1  0.08774000  0.25000000  0.90997400  1
  Cu  Cu44  1  0.26542900  0.35960600  0.75666000  1
  Cu  Cu45  1  0.26542900  0.14039400  0.75666000  1
  Cu  Cu46  1  0.66618900  0.89377600  0.96630700  1
  Cu  Cu47  1  0.77212200  0.90288000  0.53656600  1
  Cu  Cu48  1  0.27454300  0.00583300  0.91609000  1
  Cu  Cu49  1  0.61458000  0.25000000  0.15142400  1
  Cu  Cu50  1  0.26542900  0.85960600  0.74334000  1
  Cu  Cu51  1  0.38542000  0.25000000  0.65142400  1
  Cu  Cu52  1  0.22787800  0.09712000  0.46343400  1
  Cu  Cu53  1  0.33381100  0.39377600  0.03369300  1
  Cu  Cu54  1  0.22787800  0.90288000  0.03656600  1
  Cu  Cu55  1  0.22787800  0.40288000  0.46343400  1
  Cu  Cu56  1  0.27454300  0.49416700  0.91609000  1
  Cu  Cu57  1  0.66618900  0.60622400  0.96630700  1
  Cu  Cu58  1  0.27454300  0.99416700  0.58391000  1
  Cu  Cu59  1  0.08774000  0.75000000  0.59002600  1
  Cu  Cu60  1  0.73457100  0.14039400  0.25666000  1
  Cu  Cu61  1  0.77212200  0.59712000  0.53656600  1
  Cu  Cu62  1  0.77212200  0.40288000  0.96343400  1
  Cu  Cu63  1  0.38542000  0.75000000  0.84857600  1
  Cu  Cu64  1  0.33381100  0.89377600  0.46630700  1
  Cu  Cu65  1  0.77212200  0.09712000  0.96343400  1
  Cu  Cu66  1  0.72545700  0.99416700  0.08391000  1
  Cu  Cu67  1  0.73457100  0.85960600  0.24334000  1
  Cu  Cu68  1  0.72545700  0.00583300  0.41609000  1
  Cu  Cu69  1  0.91226000  0.25000000  0.40997400  1
  Cu  Cu70  1  0.72545700  0.49416700  0.41609000  1
  Cu  Cu71  1  0.61458000  0.75000000  0.34857600  1
  Cu  Cu72  1  0.72545700  0.50583300  0.08391000  1
  Cu  Cu73  1  0.33381100  0.60622400  0.46630700  1
  Cu  Cu74  1  0.33381100  0.10622400  0.03369300  1
  Cu  Cu75  1  0.73457100  0.64039400  0.24334000  1
  Cu  Cu76  1  0.26542900  0.64039400  0.74334000  1
  Cu  Cu77  1  0.73457100  0.35960600  0.25666000  1
  Cu  Cu78  1  0.22787800  0.59712000  0.03656600  1
  Cu  Cu79  1  0.66618900  0.10622400  0.53369300  1
