# generated using pymatgen
data_Cu2NiC
_symmetry_space_group_name_H-M   'P 1'
_cell_length_a   4.44121300
_cell_length_b   14.64726600
_cell_length_c   16.15592000
_cell_angle_alpha   90.00000000
_cell_angle_beta   90.00000000
_cell_angle_gamma   90.00000000
_symmetry_Int_Tables_number   1
_chemical_formula_structural   Cu2NiC
_chemical_formula_sum   'Cu24 Ni12 C12'
_cell_volume   1050.96890064
_cell_formula_units_Z   12
loop_
 _symmetry_equiv_pos_site_id
 _symmetry_equiv_pos_as_xyz
  1  'x, y, z'
loop_
 _atom_site_type_symbol
 _atom_site_label
 _atom_site_symmetry_multiplicity
 _atom_site_fract_x
 _atom_site_fract_y
 _atom_site_fract_z
 _atom_site_occupancy
  C  C0  1  0.75000000  0.47251200  0.15068500  1
  C  C1  1  0.25000000  0.52748800  0.84931500  1
  C  C2  1  0.75000000  0.77084200  0.62480900  1
  C  C3  1  0.75000000  0.89434100  0.85409100  1
  C  C4  1  0.75000000  0.72915800  0.12480900  1
  C  C5  1  0.75000000  0.60565900  0.35409100  1
  C  C6  1  0.25000000  0.22915800  0.37519100  1
  C  C7  1  0.25000000  0.10565900  0.14590900  1
  C  C8  1  0.75000000  0.02748800  0.65068500  1
  C  C9  1  0.25000000  0.39434100  0.64590900  1
  C  C10  1  0.25000000  0.27084200  0.87519100  1
  C  C11  1  0.25000000  0.97251200  0.34931500  1
  Ni  Ni12  1  0.25000000  0.75265400  0.80432800  1
  Ni  Ni13  1  0.75000000  0.95659000  0.20079500  1
  Ni  Ni14  1  0.75000000  0.25265400  0.69567200  1
  Ni  Ni15  1  0.75000000  0.39370400  0.94865200  1
  Ni  Ni16  1  0.75000000  0.24734600  0.19567200  1
  Ni  Ni17  1  0.25000000  0.04341000  0.79920500  1
  Ni  Ni18  1  0.75000000  0.54341000  0.70079500  1
  Ni  Ni19  1  0.25000000  0.45659000  0.29920500  1
  Ni  Ni20  1  0.25000000  0.89370400  0.55134800  1
  Ni  Ni21  1  0.25000000  0.60629600  0.05134800  1
  Ni  Ni22  1  0.25000000  0.74734600  0.30432800  1
  Ni  Ni23  1  0.75000000  0.10629600  0.44865200  1
  Cu  Cu24  1  0.25000000  0.32457600  0.18543000  1
  Cu  Cu25  1  0.25000000  0.44998300  0.45631600  1
  Cu  Cu26  1  0.25000000  0.42200000  0.02111500  1
  Cu  Cu27  1  0.25000000  0.07800000  0.52111500  1
  Cu  Cu28  1  0.75000000  0.57800000  0.97888500  1
  Cu  Cu29  1  0.75000000  0.10625300  0.28678100  1
  Cu  Cu30  1  0.25000000  0.73856900  0.46660400  1
  Cu  Cu31  1  0.75000000  0.37155400  0.32609400  1
  Cu  Cu32  1  0.75000000  0.26143100  0.53339600  1
  Cu  Cu33  1  0.25000000  0.60625300  0.21321900  1
  Cu  Cu34  1  0.75000000  0.94998300  0.04368400  1
  Cu  Cu35  1  0.75000000  0.23856900  0.03339600  1
  Cu  Cu36  1  0.25000000  0.05001700  0.95631600  1
  Cu  Cu37  1  0.75000000  0.39374700  0.78678100  1
  Cu  Cu38  1  0.75000000  0.12844600  0.82609400  1
  Cu  Cu39  1  0.75000000  0.82457600  0.31457000  1
  Cu  Cu40  1  0.25000000  0.76143100  0.96660400  1
  Cu  Cu41  1  0.25000000  0.87155400  0.17390600  1
  Cu  Cu42  1  0.25000000  0.89374700  0.71321900  1
  Cu  Cu43  1  0.75000000  0.67542400  0.81457000  1
  Cu  Cu44  1  0.25000000  0.62844600  0.67390600  1
  Cu  Cu45  1  0.25000000  0.17542400  0.68543000  1
  Cu  Cu46  1  0.75000000  0.92200000  0.47888500  1
  Cu  Cu47  1  0.75000000  0.55001700  0.54368400  1
