# generated using pymatgen
data_Cu10NiC13
_symmetry_space_group_name_H-M   'P 1'
_cell_length_a   9.10228968
_cell_length_b   9.10228968
_cell_length_c   11.65331000
_cell_angle_alpha   90.00000000
_cell_angle_beta   90.00000000
_cell_angle_gamma   119.99999765
_symmetry_Int_Tables_number   1
_chemical_formula_structural   Cu10NiC13
_chemical_formula_sum   'Cu30 Ni3 C39'
_cell_volume   836.14432585
_cell_formula_units_Z   3
loop_
 _symmetry_equiv_pos_site_id
 _symmetry_equiv_pos_as_xyz
  1  'x, y, z'
loop_
 _atom_site_type_symbol
 _atom_site_label
 _atom_site_symmetry_multiplicity
 _atom_site_fract_x
 _atom_site_fract_y
 _atom_site_fract_z
 _atom_site_occupancy
  C  C0  1  0.50000000  0.00000000  0.00000000  1
  C  C1  1  0.00000000  0.50000000  0.66666700  1
  C  C2  1  0.50000000  0.50000000  0.33333300  1
  C  C3  1  0.90085200  0.64315700  0.17839000  1
  C  C4  1  0.89718100  0.92245000  0.94813300  1
  C  C5  1  0.25769500  0.90085200  0.51172300  1
  C  C6  1  0.90085200  0.25769500  0.15494300  1
  C  C7  1  0.25769500  0.35684300  0.82161000  1
  C  C8  1  0.02526900  0.10281900  0.28146700  1
  C  C9  1  0.97473100  0.07755000  0.05186700  1
  C  C10  1  0.02526900  0.92245000  0.05186700  1
  C  C11  1  0.09914800  0.74230500  0.15494300  1
  C  C12  1  0.92245000  0.89718100  0.71853300  1
  C  C13  1  0.09914800  0.35684300  0.17839000  1
  C  C14  1  0.92245000  0.02526900  0.61480000  1
  C  C15  1  0.64315700  0.74230500  0.84505700  1
  C  C16  1  0.74230500  0.64315700  0.82161000  1
  C  C17  1  0.97473100  0.89718100  0.28146700  1
  C  C18  1  0.35684300  0.25769500  0.84505700  1
  C  C19  1  0.35684300  0.09914800  0.48827700  1
  C  C20  1  0.07755000  0.10281900  0.71853300  1
  C  C21  1  0.74230500  0.09914800  0.51172300  1
  C  C22  1  0.10281900  0.07755000  0.94813300  1
  C  C23  1  0.07755000  0.97473100  0.61480000  1
  C  C24  1  0.89718100  0.97473100  0.38520000  1
  C  C25  1  0.10281900  0.02526900  0.38520000  1
  C  C26  1  0.64315700  0.90085200  0.48827700  1
  C  C27  1  0.21326300  0.78673700  0.83333300  1
  C  C28  1  0.31152100  0.62304200  0.50000000  1
  C  C29  1  0.37695800  0.68847900  0.16666700  1
  C  C30  1  0.78673700  0.57347300  0.50000000  1
  C  C31  1  0.78673700  0.21326300  0.83333300  1
  C  C32  1  0.21326300  0.42652700  0.50000000  1
  C  C33  1  0.31152100  0.68847900  0.83333300  1
  C  C34  1  0.68847900  0.37695800  0.50000000  1
  C  C35  1  0.68847900  0.31152100  0.83333300  1
  C  C36  1  0.57347300  0.78673700  0.16666700  1
  C  C37  1  0.62304200  0.31152100  0.16666700  1
  C  C38  1  0.42652700  0.21326300  0.16666700  1
  Ni  Ni39  1  0.00000000  0.00000000  0.66666700  1
  Ni  Ni40  1  0.00000000  0.00000000  0.33333300  1
  Ni  Ni41  1  0.00000000  0.00000000  0.00000000  1
  Cu  Cu42  1  0.24484100  0.69488500  0.55501700  1
  Cu  Cu43  1  0.08164400  0.73113800  0.77175400  1
  Cu  Cu44  1  0.54995600  0.30511500  0.44498300  1
  Cu  Cu45  1  0.35050500  0.26886200  0.22824600  1
  Cu  Cu46  1  0.24308400  0.00000000  0.50000000  1
  Cu  Cu47  1  0.54995600  0.24484100  0.88835000  1
  Cu  Cu48  1  0.24484100  0.54995600  0.77831700  1
  Cu  Cu49  1  0.73113800  0.64949500  0.43842000  1
  Cu  Cu50  1  0.00000000  0.24308400  0.16666700  1
  Cu  Cu51  1  0.45004400  0.75515900  0.88835000  1
  Cu  Cu52  1  0.75691600  0.75691600  0.83333300  1
  Cu  Cu53  1  0.73113800  0.08164400  0.89491300  1
  Cu  Cu54  1  0.24308400  0.24308400  0.83333300  1
  Cu  Cu55  1  0.69488500  0.24484100  0.11165000  1
  Cu  Cu56  1  0.91835600  0.64949500  0.56158000  1
  Cu  Cu57  1  0.08164400  0.35050500  0.56158000  1
  Cu  Cu58  1  0.26886200  0.35050500  0.43842000  1
  Cu  Cu59  1  0.64949500  0.91835600  0.10508700  1
  Cu  Cu60  1  0.26886200  0.91835600  0.89491300  1
  Cu  Cu61  1  0.45004400  0.69488500  0.44498300  1
  Cu  Cu62  1  0.69488500  0.45004400  0.22168300  1
  Cu  Cu63  1  0.75691600  0.00000000  0.50000000  1
  Cu  Cu64  1  0.00000000  0.75691600  0.16666700  1
  Cu  Cu65  1  0.75515900  0.30511500  0.55501700  1
  Cu  Cu66  1  0.91835600  0.26886200  0.77175400  1
  Cu  Cu67  1  0.35050500  0.08164400  0.10508700  1
  Cu  Cu68  1  0.30511500  0.75515900  0.11165000  1
  Cu  Cu69  1  0.75515900  0.45004400  0.77831700  1
  Cu  Cu70  1  0.64949500  0.73113800  0.22824600  1
  Cu  Cu71  1  0.30511500  0.54995600  0.22168300  1
