# generated using pymatgen
data_Cu2NiC2
_symmetry_space_group_name_H-M   'P 1'
_cell_length_a   13.04565400
_cell_length_b   7.60158300
_cell_length_c   12.11938350
_cell_angle_alpha   66.10290226
_cell_angle_beta   90.00000000
_cell_angle_gamma   90.00000000
_symmetry_Int_Tables_number   1
_chemical_formula_structural   Cu2NiC2
_chemical_formula_sum   'Cu24 Ni12 C24'
_cell_volume   1098.82117936
_cell_formula_units_Z   12
loop_
 _symmetry_equiv_pos_site_id
 _symmetry_equiv_pos_as_xyz
  1  'x, y, z'
loop_
 _atom_site_type_symbol
 _atom_site_label
 _atom_site_symmetry_multiplicity
 _atom_site_fract_x
 _atom_site_fract_y
 _atom_site_fract_z
 _atom_site_occupancy
  C  C0  1  0.14014800  0.39905100  0.42994700  1
  C  C1  1  0.75043800  0.19253900  0.90430500  1
  C  C2  1  0.35985200  0.39905100  0.92994700  1
  C  C3  1  0.64014800  0.60094900  0.07005300  1
  C  C4  1  0.25043800  0.80746100  0.59569500  1
  C  C5  1  0.85985200  0.60094900  0.57005300  1
  C  C6  1  0.24956200  0.80746100  0.09569500  1
  C  C7  1  0.07766400  0.27919200  0.87003700  1
  C  C8  1  0.57766400  0.72080800  0.62996300  1
  C  C9  1  0.74956200  0.19253900  0.40430500  1
  C  C10  1  0.92233600  0.72080800  0.12996300  1
  C  C11  1  0.42233600  0.27919200  0.37003700  1
  C  C12  1  0.56123400  0.11493900  0.15657100  1
  C  C13  1  0.06123400  0.88506100  0.34342900  1
  C  C14  1  0.93627300  0.20799500  0.16610600  1
  C  C15  1  0.33396900  0.24690800  0.68309800  1
  C  C16  1  0.66603100  0.75309200  0.31690200  1
  C  C17  1  0.56372700  0.20799500  0.66610600  1
  C  C18  1  0.83396900  0.75309200  0.81690200  1
  C  C19  1  0.43627300  0.79200500  0.33389400  1
  C  C20  1  0.43876600  0.88506100  0.84342900  1
  C  C21  1  0.16603100  0.24690800  0.18309800  1
  C  C22  1  0.06372700  0.79200500  0.83389400  1
  C  C23  1  0.93876600  0.11493900  0.65657100  1
  Ni  Ni24  1  0.33426900  0.04915500  0.83055200  1
  Ni  Ni25  1  0.66573100  0.95084500  0.16944800  1
  Ni  Ni26  1  0.16573100  0.04915500  0.33055200  1
  Ni  Ni27  1  0.56290900  0.99999900  0.81037800  1
  Ni  Ni28  1  0.43709100  0.00000100  0.18962200  1
  Ni  Ni29  1  0.95607200  0.63178000  0.85012200  1
  Ni  Ni30  1  0.83426900  0.95084500  0.66944800  1
  Ni  Ni31  1  0.54392800  0.63178000  0.35012200  1
  Ni  Ni32  1  0.06290900  0.00000100  0.68962200  1
  Ni  Ni33  1  0.45607200  0.36822000  0.64987800  1
  Ni  Ni34  1  0.04392800  0.36822000  0.14987800  1
  Ni  Ni35  1  0.93709100  0.99999900  0.31037800  1
  Cu  Cu36  1  0.94139300  0.26297200  0.51158400  1
  Cu  Cu37  1  0.57176000  0.13680900  0.55309900  1
  Cu  Cu38  1  0.05860700  0.73702800  0.48841600  1
  Cu  Cu39  1  0.70279600  0.81725100  0.42757500  1
  Cu  Cu40  1  0.92824000  0.13680900  0.05309900  1
  Cu  Cu41  1  0.33697100  0.66048500  0.32829700  1
  Cu  Cu42  1  0.25339800  0.40227400  0.70075200  1
  Cu  Cu43  1  0.20279600  0.18274900  0.07242500  1
  Cu  Cu44  1  0.66302900  0.33951500  0.67170300  1
  Cu  Cu45  1  0.41713400  0.75887800  0.76019100  1
  Cu  Cu46  1  0.42824000  0.86319100  0.44690100  1
  Cu  Cu47  1  0.75339800  0.59772600  0.79924800  1
  Cu  Cu48  1  0.91713400  0.24112200  0.73980900  1
  Cu  Cu49  1  0.29720400  0.18274900  0.57242500  1
  Cu  Cu50  1  0.79720400  0.81725100  0.92757500  1
  Cu  Cu51  1  0.74660200  0.59772600  0.29924800  1
  Cu  Cu52  1  0.24660200  0.40227400  0.20075200  1
  Cu  Cu53  1  0.83697100  0.33951500  0.17170300  1
  Cu  Cu54  1  0.08286600  0.75887800  0.26019100  1
  Cu  Cu55  1  0.55860700  0.26297200  0.01158400  1
  Cu  Cu56  1  0.16302900  0.66048500  0.82829700  1
  Cu  Cu57  1  0.58286600  0.24112200  0.23980900  1
  Cu  Cu58  1  0.07176000  0.86319100  0.94690100  1
  Cu  Cu59  1  0.44139300  0.73702800  0.98841600  1
