# generated using pymatgen
data_Cu9Ni6C7
_symmetry_space_group_name_H-M   'P 1'
_cell_length_a   6.74277300
_cell_length_b   7.01849600
_cell_length_c   24.57485891
_cell_angle_alpha   82.24226473
_cell_angle_beta   90.00000000
_cell_angle_gamma   90.00000000
_symmetry_Int_Tables_number   1
_chemical_formula_structural   Cu9Ni6C7
_chemical_formula_sum   'Cu18 Ni12 C14'
_cell_volume   1152.33970697
_cell_formula_units_Z   2
loop_
 _symmetry_equiv_pos_site_id
 _symmetry_equiv_pos_as_xyz
  1  'x, y, z'
loop_
 _atom_site_type_symbol
 _atom_site_label
 _atom_site_symmetry_multiplicity
 _atom_site_fract_x
 _atom_site_fract_y
 _atom_site_fract_z
 _atom_site_occupancy
  C  C0  1  0.71121000  0.75000000  0.00000000  1
  C  C1  1  0.30430600  0.87632500  0.85730400  1
  C  C2  1  0.71723200  0.50670700  0.57911000  1
  C  C3  1  0.28879000  0.25000000  0.00000000  1
  C  C4  1  0.69569400  0.37632500  0.85730400  1
  C  C5  1  0.69546400  0.63679500  0.28356600  1
  C  C6  1  0.28276800  0.00670700  0.57911000  1
  C  C7  1  0.30453600  0.36320500  0.71643400  1
  C  C8  1  0.69546400  0.86320500  0.71643400  1
  C  C9  1  0.30453600  0.13679500  0.28356600  1
  C  C10  1  0.71723200  0.99329300  0.42089000  1
  C  C11  1  0.69569400  0.12367500  0.14269600  1
  C  C12  1  0.28276800  0.49329300  0.42089000  1
  C  C13  1  0.30430600  0.62367500  0.14269600  1
  Ni  Ni14  1  0.44806700  0.61756200  0.78347500  1
  Ni  Ni15  1  0.46485300  0.92615300  0.07141400  1
  Ni  Ni16  1  0.55193300  0.38243800  0.21652500  1
  Ni  Ni17  1  0.46485300  0.57384700  0.92858600  1
  Ni  Ni18  1  0.53514700  0.42615300  0.07141400  1
  Ni  Ni19  1  0.44770700  0.81166000  0.35940000  1
  Ni  Ni20  1  0.55229300  0.18834000  0.64060000  1
  Ni  Ni21  1  0.53514700  0.07384700  0.92858600  1
  Ni  Ni22  1  0.55229300  0.31166000  0.35940000  1
  Ni  Ni23  1  0.55193300  0.11756200  0.78347500  1
  Ni  Ni24  1  0.44770700  0.68834000  0.64060000  1
  Ni  Ni25  1  0.44806700  0.88243800  0.21652500  1
  Cu  Cu26  1  0.93226800  0.73221800  0.81107000  1
  Cu  Cu27  1  0.06773200  0.26778200  0.18893000  1
  Cu  Cu28  1  0.89459100  0.62251200  0.44222500  1
  Cu  Cu29  1  0.08374300  0.03144300  0.68078300  1
  Cu  Cu30  1  0.08374300  0.46855700  0.31921700  1
  Cu  Cu31  1  0.95628500  0.43726000  0.94041300  1
  Cu  Cu32  1  0.55159800  0.25000000  0.50000000  1
  Cu  Cu33  1  0.10540900  0.37748800  0.55777500  1
  Cu  Cu34  1  0.04371500  0.56274000  0.05958700  1
  Cu  Cu35  1  0.89459100  0.87748800  0.55777500  1
  Cu  Cu36  1  0.91625700  0.53144300  0.68078300  1
  Cu  Cu37  1  0.44840200  0.75000000  0.50000000  1
  Cu  Cu38  1  0.10540900  0.12251200  0.44222500  1
  Cu  Cu39  1  0.91625700  0.96855700  0.31921700  1
  Cu  Cu40  1  0.95628500  0.06274000  0.05958700  1
  Cu  Cu41  1  0.93226800  0.76778200  0.18893000  1
  Cu  Cu42  1  0.04371500  0.93726000  0.94041300  1
  Cu  Cu43  1  0.06773200  0.23221800  0.81107000  1
