# generated using pymatgen
data_Cu11Ni5C64
_symmetry_space_group_name_H-M   'P 1'
_cell_length_a   5.51963989
_cell_length_b   5.63584464
_cell_length_c   30.83712719
_cell_angle_alpha   90.45841031
_cell_angle_beta   90.24431858
_cell_angle_gamma   87.39804321
_symmetry_Int_Tables_number   1
_chemical_formula_structural   Cu11Ni5C64
_chemical_formula_sum   'Cu11 Ni5 C64'
_cell_volume   958.24922736
_cell_formula_units_Z   1
loop_
 _symmetry_equiv_pos_site_id
 _symmetry_equiv_pos_as_xyz
  1  'x, y, z'
loop_
 _atom_site_type_symbol
 _atom_site_label
 _atom_site_symmetry_multiplicity
 _atom_site_fract_x
 _atom_site_fract_y
 _atom_site_fract_z
 _atom_site_occupancy
  Ni  Ni0  1  0.49102900  0.49697400  0.93754300  1
  Ni  Ni1  1  0.99359400  0.02877500  0.18808100  1
  Ni  Ni2  1  0.99248400  0.02651600  0.43765700  1
  Ni  Ni3  1  0.99151400  0.02856600  0.68739000  1
  Ni  Ni4  1  0.99701600  0.99239400  0.93780700  1
  Cu  Cu5  1  0.01386200  0.95709500  0.06291600  1
  Cu  Cu6  1  0.01808100  0.95013600  0.31208200  1
  Cu  Cu7  1  0.01797300  0.94976900  0.56210100  1
  Cu  Cu8  1  0.01087300  0.95042700  0.81180200  1
  Cu  Cu9  1  0.49224000  0.45488200  0.06291800  1
  Cu  Cu10  1  0.49383600  0.45268900  0.31274900  1
  Cu  Cu11  1  0.49340100  0.44983400  0.81230200  1
  Cu  Cu12  1  0.49385200  0.45235500  0.56280400  1
  Cu  Cu13  1  0.50721400  0.55125800  0.43810100  1
  Cu  Cu14  1  0.50652100  0.55456100  0.18819200  1
  Cu  Cu15  1  0.50563700  0.55191400  0.68792100  1
  C  C16  1  0.50632500  0.00634800  0.12818300  1
  C  C17  1  0.50304800  0.97571400  0.99837100  1
  C  C18  1  0.50512900  0.00266900  0.62814000  1
  C  C19  1  0.50541000  0.00249200  0.37825200  1
  C  C20  1  0.49990500  0.97573700  0.87791000  1
  C  C21  1  0.98428800  0.47566000  0.99665800  1
  C  C22  1  0.99997200  0.49138100  0.24743300  1
  C  C23  1  0.99894800  0.49244900  0.74741100  1
  C  C24  1  0.98199200  0.47500500  0.87757100  1
  C  C25  1  0.00047400  0.49029100  0.49740400  1
  C  C26  1  0.50660300  0.00317900  0.24966600  1
  C  C27  1  0.50332500  0.00188000  0.74928600  1
  C  C28  1  0.50651900  0.00173800  0.49963800  1
  C  C29  1  0.99848200  0.49781600  0.12543200  1
  C  C30  1  0.99822900  0.49299400  0.37527600  1
  C  C31  1  0.99780800  0.49316200  0.62526000  1
  C  C32  1  0.08172000  0.47831200  0.18736900  1
  C  C33  1  0.08232600  0.47517800  0.43732800  1
  C  C34  1  0.08113600  0.47624800  0.68712000  1
  C  C35  1  0.06657700  0.48620400  0.93753800  1
  C  C36  1  0.21750100  0.21375800  0.51266100  1
  C  C37  1  0.21539900  0.21489200  0.76247600  1
  C  C38  1  0.22514300  0.22953900  0.01290300  1
  C  C39  1  0.21676400  0.21456800  0.26263700  1
  C  C40  1  0.21216000  0.22339600  0.11161800  1
  C  C41  1  0.21256500  0.21792800  0.36123300  1
  C  C42  1  0.21227700  0.21763400  0.61119700  1
  C  C43  1  0.22570500  0.22759000  0.86192000  1
  C  C44  1  0.29224600  0.73482000  0.01210400  1
  C  C45  1  0.27248200  0.69671500  0.26121600  1
  C  C46  1  0.30172300  0.73679500  0.11297900  1
  C  C47  1  0.29993300  0.73262200  0.36267900  1
  C  C48  1  0.29168100  0.73315900  0.86259900  1
  C  C49  1  0.27245000  0.69598500  0.51119300  1
  C  C50  1  0.27296700  0.69616900  0.76106300  1
  C  C51  1  0.29963500  0.73257000  0.61264000  1
  C  C52  1  0.42312800  0.97991300  0.43776900  1
  C  C53  1  0.42443600  0.98295300  0.18791900  1
  C  C54  1  0.42182900  0.98031700  0.68763600  1
  C  C55  1  0.43602700  0.99358600  0.93744700  1
  C  C56  1  0.58496000  0.02688300  0.06246500  1
  C  C57  1  0.59002200  0.02201200  0.31168400  1
  C  C58  1  0.58401100  0.01966800  0.81127400  1
  C  C59  1  0.59002000  0.02157700  0.56169500  1
  C  C60  1  0.71091700  0.32030200  0.24179700  1
  C  C61  1  0.67562600  0.29742200  0.13355500  1
  C  C62  1  0.71124500  0.31902200  0.49190600  1
  C  C63  1  0.70859600  0.32109900  0.74205900  1
  C  C64  1  0.67649800  0.29018300  0.38390500  1
  C  C65  1  0.72111600  0.29298400  0.99396900  1
  C  C66  1  0.67588800  0.29047200  0.63394600  1
  C  C67  1  0.71999500  0.29037500  0.88062800  1
  C  C68  1  0.78404500  0.78873100  0.13515800  1
  C  C69  1  0.78556700  0.78668700  0.24006700  1
  C  C70  1  0.78083800  0.78194400  0.38529100  1
  C  C71  1  0.78010000  0.78247100  0.63524500  1
  C  C72  1  0.79199900  0.79181900  0.88079900  1
  C  C73  1  0.78642000  0.78915500  0.73996300  1
  C  C74  1  0.78553800  0.78573300  0.49002500  1
  C  C75  1  0.79253600  0.79068700  0.99420000  1
  C  C76  1  0.92521200  0.52860400  0.06318800  1
  C  C77  1  0.92010700  0.52181900  0.31342100  1
  C  C78  1  0.92528400  0.52142000  0.81282200  1
  C  C79  1  0.92007100  0.52142800  0.56343500  1
