# generated using pymatgen
data_Cu2Ni7C6
_symmetry_space_group_name_H-M   'P 1'
_cell_length_a   14.99370300
_cell_length_b   14.99370300
_cell_length_c   18.52691000
_cell_angle_alpha   90.00000000
_cell_angle_beta   90.00000000
_cell_angle_gamma   90.00000000
_symmetry_Int_Tables_number   1
_chemical_formula_structural   Cu2Ni7C6
_chemical_formula_sum   'Cu16 Ni56 C48'
_cell_volume   4165.05556606
_cell_formula_units_Z   8
loop_
 _symmetry_equiv_pos_site_id
 _symmetry_equiv_pos_as_xyz
  1  'x, y, z'
loop_
 _atom_site_type_symbol
 _atom_site_label
 _atom_site_symmetry_multiplicity
 _atom_site_fract_x
 _atom_site_fract_y
 _atom_site_fract_z
 _atom_site_occupancy
  C  C0  1  0.14889200  0.38093700  0.50000000  1
  C  C1  1  0.00000000  0.50000000  0.13697500  1
  C  C2  1  0.50000000  0.00000000  0.36302500  1
  C  C3  1  0.50000000  0.00000000  0.13697500  1
  C  C4  1  0.88093700  0.64889200  0.00000000  1
  C  C5  1  0.00000000  0.50000000  0.63697500  1
  C  C6  1  0.61906300  0.14889200  0.50000000  1
  C  C7  1  0.38093700  0.85110800  0.50000000  1
  C  C8  1  0.50000000  0.00000000  0.86302500  1
  C  C9  1  0.35110800  0.88093700  0.00000000  1
  C  C10  1  0.00000000  0.50000000  0.86302500  1
  C  C11  1  0.50000000  0.00000000  0.63697500  1
  C  C12  1  0.11906300  0.35110800  0.00000000  1
  C  C13  1  0.00000000  0.50000000  0.36302500  1
  C  C14  1  0.85110800  0.61906300  0.50000000  1
  C  C15  1  0.64889200  0.11906300  0.00000000  1
  C  C16  1  0.90406300  0.88887400  0.33160800  1
  C  C17  1  0.00861300  0.85309400  0.81371400  1
  C  C18  1  0.38887400  0.40406300  0.83160800  1
  C  C19  1  0.11112600  0.90406300  0.33160800  1
  C  C20  1  0.00861300  0.85309400  0.18628600  1
  C  C21  1  0.49138700  0.35309400  0.31371400  1
  C  C22  1  0.64690600  0.49138700  0.31371400  1
  C  C23  1  0.11112600  0.90406300  0.66839200  1
  C  C24  1  0.99138700  0.14690600  0.18628600  1
  C  C25  1  0.85309400  0.99138700  0.18628600  1
  C  C26  1  0.50861300  0.64690600  0.31371400  1
  C  C27  1  0.09593700  0.11112600  0.66839200  1
  C  C28  1  0.90406300  0.88887400  0.66839200  1
  C  C29  1  0.85309400  0.99138700  0.81371400  1
  C  C30  1  0.38887400  0.40406300  0.16839200  1
  C  C31  1  0.40406300  0.61112600  0.16839200  1
  C  C32  1  0.14690600  0.00861300  0.81371400  1
  C  C33  1  0.88887400  0.09593700  0.33160800  1
  C  C34  1  0.64690600  0.49138700  0.68628600  1
  C  C35  1  0.14690600  0.00861300  0.18628600  1
  C  C36  1  0.40406300  0.61112600  0.83160800  1
  C  C37  1  0.61112600  0.59593700  0.16839200  1
  C  C38  1  0.59593700  0.38887400  0.83160800  1
  C  C39  1  0.61112600  0.59593700  0.83160800  1
  C  C40  1  0.59593700  0.38887400  0.16839200  1
  C  C41  1  0.50861300  0.64690600  0.68628600  1
  C  C42  1  0.35309400  0.50861300  0.31371400  1
  C  C43  1  0.09593700  0.11112600  0.33160800  1
  C  C44  1  0.49138700  0.35309400  0.68628600  1
  C  C45  1  0.99138700  0.14690600  0.81371400  1
  C  C46  1  0.88887400  0.09593700  0.66839200  1
  C  C47  1  0.35309400  0.50861300  0.68628600  1
  Ni  Ni48  1  0.61166000  0.87566700  0.85269700  1
  Ni  Ni49  1  0.87566700  0.38834000  0.14730300  1
  Ni  Ni50  1  0.24433700  0.95422600  0.50000000  1
  Ni  Ni51  1  0.58433900  0.08433900  0.75000000  1
  Ni  Ni52  1  0.37566700  0.11166000  0.35269700  1
  Ni  Ni53  1  0.01427400  0.75253400  0.00000000  1
  Ni  Ni54  1  0.45422600  0.74433700  0.00000000  1
  Ni  Ni55  1  0.62433300  0.88834000  0.64730300  1
  Ni  Ni56  1  0.41566100  0.91566100  0.75000000  1
  Ni  Ni57  1  0.25809800  0.80953900  0.10063100  1
  Ni  Ni58  1  0.74190200  0.19046100  0.10063100  1
  Ni  Ni59  1  0.25253400  0.51427400  0.50000000  1
  Ni  Ni60  1  0.54577400  0.25566300  0.00000000  1
  Ni  Ni61  1  0.04577400  0.24433700  0.50000000  1
  Ni  Ni62  1  0.61166000  0.87566700  0.14730300  1
  Ni  Ni63  1  0.69046100  0.24190200  0.60063100  1
  Ni  Ni64  1  0.75809800  0.69046100  0.39936900  1
  Ni  Ni65  1  0.24190200  0.30953900  0.60063100  1
  Ni  Ni66  1  0.74746600  0.48572600  0.50000000  1
  Ni  Ni67  1  0.11166000  0.62433300  0.64730300  1
  Ni  Ni68  1  0.88834000  0.37566700  0.35269700  1
  Ni  Ni69  1  0.30953900  0.75809800  0.39936900  1
  Ni  Ni70  1  0.11166000  0.62433300  0.35269700  1
  Ni  Ni71  1  0.25566300  0.45422600  0.00000000  1
  Ni  Ni72  1  0.74190200  0.19046100  0.89936900  1
  Ni  Ni73  1  0.91566100  0.58433900  0.75000000  1
  Ni  Ni74  1  0.88834000  0.37566700  0.64730300  1
  Ni  Ni75  1  0.80953900  0.74190200  0.89936900  1
  Ni  Ni76  1  0.98572600  0.24746600  0.00000000  1
  Ni  Ni77  1  0.19046100  0.25809800  0.89936900  1
  Ni  Ni78  1  0.41566100  0.91566100  0.25000000  1
  Ni  Ni79  1  0.75253400  0.98572600  0.00000000  1
  Ni  Ni80  1  0.58433900  0.08433900  0.25000000  1
  Ni  Ni81  1  0.91566100  0.58433900  0.25000000  1
  Ni  Ni82  1  0.24746600  0.01427400  0.00000000  1
  Ni  Ni83  1  0.25809800  0.80953900  0.89936900  1
  Ni  Ni84  1  0.37566700  0.11166000  0.64730300  1
  Ni  Ni85  1  0.08433900  0.41566100  0.25000000  1
  Ni  Ni86  1  0.62433300  0.88834000  0.35269700  1
  Ni  Ni87  1  0.74433700  0.54577400  0.00000000  1
  Ni  Ni88  1  0.19046100  0.25809800  0.10063100  1
  Ni  Ni89  1  0.75809800  0.69046100  0.60063100  1
  Ni  Ni90  1  0.87566700  0.38834000  0.85269700  1
  Ni  Ni91  1  0.48572600  0.25253400  0.50000000  1
  Ni  Ni92  1  0.12433300  0.61166000  0.14730300  1
  Ni  Ni93  1  0.69046100  0.24190200  0.39936900  1
  Ni  Ni94  1  0.95422600  0.75566300  0.50000000  1
  Ni  Ni95  1  0.80953900  0.74190200  0.10063100  1
  Ni  Ni96  1  0.38834000  0.12433300  0.14730300  1
  Ni  Ni97  1  0.30953900  0.75809800  0.60063100  1
  Ni  Ni98  1  0.08433900  0.41566100  0.75000000  1
  Ni  Ni99  1  0.24190200  0.30953900  0.39936900  1
  Ni  Ni100  1  0.38834000  0.12433300  0.85269700  1
  Ni  Ni101  1  0.12433300  0.61166000  0.85269700  1
  Ni  Ni102  1  0.51427400  0.74746600  0.50000000  1
  Ni  Ni103  1  0.75566300  0.04577400  0.50000000  1
  Cu  Cu104  1  0.06320800  0.42608000  0.92646800  1
  Cu  Cu105  1  0.93679200  0.57392000  0.92646800  1
  Cu  Cu106  1  0.43679200  0.92608000  0.42646800  1
  Cu  Cu107  1  0.93679200  0.57392000  0.07353200  1
  Cu  Cu108  1  0.92608000  0.56320800  0.57353200  1
  Cu  Cu109  1  0.07392000  0.43679200  0.42646800  1
  Cu  Cu110  1  0.56320800  0.07392000  0.57353200  1
  Cu  Cu111  1  0.43679200  0.92608000  0.57353200  1
  Cu  Cu112  1  0.92608000  0.56320800  0.42646800  1
  Cu  Cu113  1  0.56320800  0.07392000  0.42646800  1
  Cu  Cu114  1  0.42608000  0.93679200  0.92646800  1
  Cu  Cu115  1  0.42608000  0.93679200  0.07353200  1
  Cu  Cu116  1  0.07392000  0.43679200  0.57353200  1
  Cu  Cu117  1  0.57392000  0.06320800  0.07353200  1
  Cu  Cu118  1  0.57392000  0.06320800  0.92646800  1
  Cu  Cu119  1  0.06320800  0.42608000  0.07353200  1
