# generated using pymatgen
data_Cu4Ni2C
_symmetry_space_group_name_H-M   'P 1'
_cell_length_a   7.48657000
_cell_length_b   6.23667400
_cell_length_c   9.66805064
_cell_angle_alpha   89.11755665
_cell_angle_beta   90.00000000
_cell_angle_gamma   90.00000000
_symmetry_Int_Tables_number   1
_chemical_formula_structural   Cu4Ni2C
_chemical_formula_sum   'Cu16 Ni8 C4'
_cell_volume   451.36028059
_cell_formula_units_Z   4
loop_
 _symmetry_equiv_pos_site_id
 _symmetry_equiv_pos_as_xyz
  1  'x, y, z'
loop_
 _atom_site_type_symbol
 _atom_site_label
 _atom_site_symmetry_multiplicity
 _atom_site_fract_x
 _atom_site_fract_y
 _atom_site_fract_z
 _atom_site_occupancy
  C  C0  1  0.50000000  0.40482900  0.18081800  1
  C  C1  1  0.50000000  0.59517100  0.81918200  1
  C  C2  1  0.00000000  0.58628700  0.67954400  1
  C  C3  1  0.00000000  0.41371300  0.32045600  1
  Ni  Ni4  1  0.89536100  0.50000000  0.00000000  1
  Ni  Ni5  1  0.39549000  0.50000000  0.50000000  1
  Ni  Ni6  1  0.50000000  0.93111500  0.06842000  1
  Ni  Ni7  1  0.10463900  0.50000000  0.00000000  1
  Ni  Ni8  1  0.60451000  0.50000000  0.50000000  1
  Ni  Ni9  1  0.00000000  0.06473600  0.56869700  1
  Ni  Ni10  1  0.50000000  0.06888500  0.93158000  1
  Ni  Ni11  1  0.00000000  0.93526400  0.43130300  1
  Cu  Cu12  1  0.18040100  0.54815600  0.88647700  1
  Cu  Cu13  1  0.18040100  0.45184400  0.11352300  1
  Cu  Cu14  1  0.81959900  0.45184400  0.11352300  1
  Cu  Cu15  1  0.68023500  0.54841000  0.61254500  1
  Cu  Cu16  1  0.50000000  0.72857200  0.05211400  1
  Cu  Cu17  1  0.31976500  0.54841000  0.61254500  1
  Cu  Cu18  1  0.50000000  0.02669100  0.18190400  1
  Cu  Cu19  1  0.00000000  0.03741700  0.31829200  1
  Cu  Cu20  1  0.31976500  0.45159000  0.38745500  1
  Cu  Cu21  1  0.68023500  0.45159000  0.38745500  1
  Cu  Cu22  1  0.00000000  0.96258300  0.68170800  1
  Cu  Cu23  1  0.50000000  0.97330900  0.81809600  1
  Cu  Cu24  1  0.50000000  0.27142800  0.94788600  1
  Cu  Cu25  1  0.00000000  0.73183300  0.44666400  1
  Cu  Cu26  1  0.00000000  0.26816700  0.55333600  1
  Cu  Cu27  1  0.81959900  0.54815600  0.88647700  1
