# generated using pymatgen
data_CuNi4C3
_symmetry_space_group_name_H-M   'P 1'
_cell_length_a   10.51330211
_cell_length_b   10.51330211
_cell_length_c   12.13897642
_cell_angle_alpha   60.23162314
_cell_angle_beta   60.23162314
_cell_angle_gamma   21.44915061
_symmetry_Int_Tables_number   1
_chemical_formula_structural   CuNi4C3
_chemical_formula_sum   'Cu2 Ni8 C6'
_cell_volume   423.38184550
_cell_formula_units_Z   2
loop_
 _symmetry_equiv_pos_site_id
 _symmetry_equiv_pos_as_xyz
  1  'x, y, z'
loop_
 _atom_site_type_symbol
 _atom_site_label
 _atom_site_symmetry_multiplicity
 _atom_site_fract_x
 _atom_site_fract_y
 _atom_site_fract_z
 _atom_site_occupancy
  C  C0  1  0.33617900  0.33617900  0.43360200  1
  C  C1  1  0.66382100  0.66382100  0.56639800  1
  C  C2  1  0.70658900  0.70658900  0.90594500  1
  C  C3  1  0.04823400  0.04823400  0.21553600  1
  C  C4  1  0.95176600  0.95176600  0.78446400  1
  C  C5  1  0.29341100  0.29341100  0.09405500  1
  Ni  Ni6  1  0.31926500  0.31926500  0.86990200  1
  Ni  Ni7  1  0.89609400  0.89609400  0.02267900  1
  Ni  Ni8  1  0.78829700  0.78829700  0.35053200  1
  Ni  Ni9  1  0.46557000  0.46557000  0.21427300  1
  Ni  Ni10  1  0.21170300  0.21170300  0.64946800  1
  Ni  Ni11  1  0.53443000  0.53443000  0.78572700  1
  Ni  Ni12  1  0.68073500  0.68073500  0.13009800  1
  Ni  Ni13  1  0.10390600  0.10390600  0.97732100  1
  Cu  Cu14  1  0.10235700  0.10235700  0.47282600  1
  Cu  Cu15  1  0.89764300  0.89764300  0.52717400  1
