# generated using pymatgen
data_Cu3NiC
_symmetry_space_group_name_H-M   'P 1'
_cell_length_a   5.37774000
_cell_length_b   6.59571500
_cell_length_c   9.01356200
_cell_angle_alpha   90.00000000
_cell_angle_beta   90.00000000
_cell_angle_gamma   90.00000000
_symmetry_Int_Tables_number   1
_chemical_formula_structural   Cu3NiC
_chemical_formula_sum   'Cu12 Ni4 C4'
_cell_volume   319.71140814
_cell_formula_units_Z   4
loop_
 _symmetry_equiv_pos_site_id
 _symmetry_equiv_pos_as_xyz
  1  'x, y, z'
loop_
 _atom_site_type_symbol
 _atom_site_label
 _atom_site_symmetry_multiplicity
 _atom_site_fract_x
 _atom_site_fract_y
 _atom_site_fract_z
 _atom_site_occupancy
  C  C0  1  0.25000000  0.75416400  0.58371100  1
  C  C1  1  0.75000000  0.24583600  0.41628900  1
  C  C2  1  0.25000000  0.25416400  0.91628900  1
  C  C3  1  0.75000000  0.74583600  0.08371100  1
  Ni  Ni4  1  0.25000000  0.92164600  0.24390600  1
  Ni  Ni5  1  0.75000000  0.07835400  0.75609400  1
  Ni  Ni6  1  0.25000000  0.42164600  0.25609400  1
  Ni  Ni7  1  0.75000000  0.57835400  0.74390600  1
  Cu  Cu8  1  0.04019900  0.42107900  0.18373100  1
  Cu  Cu9  1  0.54019900  0.57892100  0.81626900  1
  Cu  Cu10  1  0.45980100  0.92107900  0.31626900  1
  Cu  Cu11  1  0.95980100  0.07892100  0.68373100  1
  Cu  Cu12  1  0.75000000  0.58524300  0.59951000  1
  Cu  Cu13  1  0.25000000  0.41475700  0.40049000  1
  Cu  Cu14  1  0.75000000  0.08524300  0.90049000  1
  Cu  Cu15  1  0.25000000  0.91475700  0.09951000  1
  Cu  Cu16  1  0.95980100  0.57892100  0.81626900  1
  Cu  Cu17  1  0.45980100  0.42107900  0.18373100  1
  Cu  Cu18  1  0.54019900  0.07892100  0.68373100  1
  Cu  Cu19  1  0.04019900  0.92107900  0.31626900  1
