# generated using pymatgen
data_Cu9Ni5C3
_symmetry_space_group_name_H-M   'P 1'
_cell_length_a   6.40957328
_cell_length_b   6.40957328
_cell_length_c   15.27785000
_cell_angle_alpha   90.00000000
_cell_angle_beta   90.00000000
_cell_angle_gamma   128.02850231
_symmetry_Int_Tables_number   1
_chemical_formula_structural   Cu9Ni5C3
_chemical_formula_sum   'Cu18 Ni10 C6'
_cell_volume   494.40601060
_cell_formula_units_Z   2
loop_
 _symmetry_equiv_pos_site_id
 _symmetry_equiv_pos_as_xyz
  1  'x, y, z'
loop_
 _atom_site_type_symbol
 _atom_site_label
 _atom_site_symmetry_multiplicity
 _atom_site_fract_x
 _atom_site_fract_y
 _atom_site_fract_z
 _atom_site_occupancy
  C  C0  1  0.31404800  0.68595200  0.75000000  1
  C  C1  1  0.68595200  0.31404800  0.25000000  1
  C  C2  1  0.55895400  0.44104600  0.08673000  1
  C  C3  1  0.44104600  0.55895400  0.91327000  1
  C  C4  1  0.44104600  0.55895400  0.58673000  1
  C  C5  1  0.55895400  0.44104600  0.41327000  1
  Ni  Ni6  1  0.94415700  0.05584300  0.14654300  1
  Ni  Ni7  1  0.05584300  0.94415700  0.85345700  1
  Ni  Ni8  1  0.05584300  0.94415700  0.64654300  1
  Ni  Ni9  1  0.94415700  0.05584300  0.35345700  1
  Ni  Ni10  1  0.18958100  0.81041900  0.02777900  1
  Ni  Ni11  1  0.81041900  0.18958100  0.97222100  1
  Ni  Ni12  1  0.81041900  0.18958100  0.52777900  1
  Ni  Ni13  1  0.18958100  0.81041900  0.47222100  1
  Ni  Ni14  1  0.72750200  0.27249800  0.75000000  1
  Ni  Ni15  1  0.27249800  0.72750200  0.25000000  1
  Cu  Cu16  1  0.00000000  0.00000000  0.00000000  1
  Cu  Cu17  1  0.00000000  0.00000000  0.50000000  1
  Cu  Cu18  1  0.65939900  0.83334600  0.25000000  1
  Cu  Cu19  1  0.83334600  0.65939900  0.75000000  1
  Cu  Cu20  1  0.34060100  0.16665400  0.75000000  1
  Cu  Cu21  1  0.16665400  0.34060100  0.25000000  1
  Cu  Cu22  1  0.12778600  0.87221400  0.15697700  1
  Cu  Cu23  1  0.87221400  0.12778600  0.84302300  1
  Cu  Cu24  1  0.87221400  0.12778600  0.65697700  1
  Cu  Cu25  1  0.12778600  0.87221400  0.34302300  1
  Cu  Cu26  1  0.56841300  0.93634500  0.07897100  1
  Cu  Cu27  1  0.93634500  0.56841300  0.92102900  1
  Cu  Cu28  1  0.43158700  0.06365500  0.57897100  1
  Cu  Cu29  1  0.06365500  0.43158700  0.42102900  1
  Cu  Cu30  1  0.43158700  0.06365500  0.92102900  1
  Cu  Cu31  1  0.06365500  0.43158700  0.07897100  1
  Cu  Cu32  1  0.56841300  0.93634500  0.42102900  1
  Cu  Cu33  1  0.93634500  0.56841300  0.57897100  1
