# generated using pymatgen
data_CuNi7C2
_symmetry_space_group_name_H-M   'P 1'
_cell_length_a   7.69484300
_cell_length_b   9.62364800
_cell_length_c   17.02002400
_cell_angle_alpha   90.00000000
_cell_angle_beta   90.00000000
_cell_angle_gamma   90.00000000
_symmetry_Int_Tables_number   1
_chemical_formula_structural   CuNi7C2
_chemical_formula_sum   'Cu4 Ni28 C8'
_cell_volume   1260.37465407
_cell_formula_units_Z   4
loop_
 _symmetry_equiv_pos_site_id
 _symmetry_equiv_pos_as_xyz
  1  'x, y, z'
loop_
 _atom_site_type_symbol
 _atom_site_label
 _atom_site_symmetry_multiplicity
 _atom_site_fract_x
 _atom_site_fract_y
 _atom_site_fract_z
 _atom_site_occupancy
  C  C0  1  0.49984400  0.75000000  0.36493900  1
  C  C1  1  0.50015600  0.25000000  0.63506100  1
  C  C2  1  0.00015600  0.75000000  0.86493900  1
  C  C3  1  0.99984400  0.25000000  0.13506100  1
  C  C4  1  0.66624700  0.25000000  0.83897300  1
  C  C5  1  0.33375300  0.75000000  0.16102700  1
  C  C6  1  0.83375300  0.25000000  0.33897300  1
  C  C7  1  0.16624700  0.75000000  0.66102700  1
  Ni  Ni8  1  0.51662800  0.41389400  0.87825400  1
  Ni  Ni9  1  0.48337200  0.58610600  0.12174600  1
  Ni  Ni10  1  0.47884700  0.99163000  0.35080600  1
  Ni  Ni11  1  0.24184300  0.25000000  0.21697500  1
  Ni  Ni12  1  0.51662800  0.08610600  0.87825400  1
  Ni  Ni13  1  0.71717100  0.25000000  0.08237000  1
  Ni  Ni14  1  0.97884700  0.49163000  0.14919400  1
  Ni  Ni15  1  0.02115300  0.50837000  0.85080600  1
  Ni  Ni16  1  0.48337200  0.91389400  0.12174600  1
  Ni  Ni17  1  0.85333400  0.75000000  0.98025000  1
  Ni  Ni18  1  0.14666600  0.25000000  0.01975000  1
  Ni  Ni19  1  0.52115300  0.00837000  0.64919400  1
  Ni  Ni20  1  0.02115300  0.99163000  0.85080600  1
  Ni  Ni21  1  0.01662800  0.58610600  0.62174600  1
  Ni  Ni22  1  0.52115300  0.49163000  0.64919400  1
  Ni  Ni23  1  0.28282900  0.75000000  0.91763000  1
  Ni  Ni24  1  0.74184300  0.75000000  0.28302500  1
  Ni  Ni25  1  0.01662800  0.91389400  0.62174600  1
  Ni  Ni26  1  0.98337200  0.41389400  0.37825400  1
  Ni  Ni27  1  0.21717100  0.75000000  0.41763000  1
  Ni  Ni28  1  0.35333400  0.25000000  0.51975000  1
  Ni  Ni29  1  0.64666600  0.75000000  0.48025000  1
  Ni  Ni30  1  0.25815700  0.25000000  0.71697500  1
  Ni  Ni31  1  0.97884700  0.00837000  0.14919400  1
  Ni  Ni32  1  0.75815700  0.75000000  0.78302500  1
  Ni  Ni33  1  0.47884700  0.50837000  0.35080600  1
  Ni  Ni34  1  0.98337200  0.08610600  0.37825400  1
  Ni  Ni35  1  0.78282900  0.25000000  0.58237000  1
  Cu  Cu36  1  0.15817100  0.75000000  0.74764400  1
  Cu  Cu37  1  0.84183000  0.25000000  0.25235600  1
  Cu  Cu38  1  0.65817000  0.25000000  0.75235600  1
  Cu  Cu39  1  0.34182900  0.75000000  0.24764400  1
