# generated using pymatgen
data_CuNi2C5
_symmetry_space_group_name_H-M   'P 1'
_cell_length_a   4.88383518
_cell_length_b   5.72521938
_cell_length_c   13.50396608
_cell_angle_alpha   89.99148516
_cell_angle_beta   89.99331108
_cell_angle_gamma   92.02698956
_symmetry_Int_Tables_number   1
_chemical_formula_structural   CuNi2C5
_chemical_formula_sum   'Cu4 Ni8 C20'
_cell_volume   377.34850090
_cell_formula_units_Z   4
loop_
 _symmetry_equiv_pos_site_id
 _symmetry_equiv_pos_as_xyz
  1  'x, y, z'
loop_
 _atom_site_type_symbol
 _atom_site_label
 _atom_site_symmetry_multiplicity
 _atom_site_fract_x
 _atom_site_fract_y
 _atom_site_fract_z
 _atom_site_occupancy
  C  C0  1  0.17996600  0.88364700  0.23347900  1
  C  C1  1  0.82004000  0.11635100  0.76651900  1
  C  C2  1  0.32010300  0.61642100  0.73346500  1
  C  C3  1  0.67989400  0.38357300  0.26653500  1
  Ni  Ni4  1  0.77186900  0.71287800  0.62948000  1
  Ni  Ni5  1  0.72814300  0.78718200  0.12959400  1
  Ni  Ni6  1  0.22814700  0.28710200  0.37053200  1
  Ni  Ni7  1  0.27187100  0.21282200  0.87041400  1
  Ni  Ni8  1  0.66731600  0.45137300  0.61085300  1
  Ni  Ni9  1  0.83292800  0.04856400  0.11079700  1
  Ni  Ni10  1  0.33266500  0.54862300  0.38914600  1
  Ni  Ni11  1  0.16711500  0.95143000  0.88919700  1
  Cu  Cu12  1  0.23663500  0.11329200  0.60550200  1
  Cu  Cu13  1  0.26349700  0.38686200  0.10550900  1
  Cu  Cu14  1  0.76333500  0.88669300  0.39449700  1
  Cu  Cu15  1  0.73651200  0.61314400  0.89449000  1
  C  C16  1  0.09590800  0.33322100  0.67961200  1
  C  C17  1  0.40434400  0.16685900  0.17954800  1
  C  C18  1  0.90404100  0.66679600  0.32036900  1
  C  C19  1  0.59567400  0.83315700  0.82045700  1
  C  C20  1  0.58931900  0.38192200  0.82362300  1
  C  C21  1  0.91079100  0.11804300  0.32371500  1
  C  C22  1  0.41066400  0.61809300  0.17637500  1
  C  C23  1  0.08921100  0.88197000  0.67629600  1
  C  C24  1  0.07584100  0.62592400  0.86638700  1
  C  C25  1  0.42401600  0.87421100  0.36638400  1
  C  C26  1  0.92416800  0.37405000  0.13361200  1
  C  C27  1  0.57595900  0.12580500  0.63360900  1
  C  C28  1  0.60691300  0.61419000  0.61376700  1
  C  C29  1  0.89317900  0.88571400  0.11378800  1
  C  C30  1  0.39309200  0.38581400  0.38623800  1
  C  C31  1  0.10684200  0.11427500  0.88621500  1
