# generated using pymatgen
data_Cu3NiC
_symmetry_space_group_name_H-M   'P 1'
_cell_length_a   11.14280681
_cell_length_b   11.14280681
_cell_length_c   7.91995200
_cell_angle_alpha   90.00000000
_cell_angle_beta   90.00000000
_cell_angle_gamma   120.00000481
_symmetry_Int_Tables_number   1
_chemical_formula_structural   Cu3NiC
_chemical_formula_sum   'Cu27 Ni9 C9'
_cell_volume   851.61315610
_cell_formula_units_Z   9
loop_
 _symmetry_equiv_pos_site_id
 _symmetry_equiv_pos_as_xyz
  1  'x, y, z'
loop_
 _atom_site_type_symbol
 _atom_site_label
 _atom_site_symmetry_multiplicity
 _atom_site_fract_x
 _atom_site_fract_y
 _atom_site_fract_z
 _atom_site_occupancy
  C  C0  1  0.77984700  0.22138300  0.65325600  1
  C  C1  1  0.11721600  0.89595100  0.63575800  1
  C  C2  1  0.77861700  0.55846400  0.98658900  1
  C  C3  1  0.77873500  0.88278400  0.30242400  1
  C  C4  1  0.43500900  0.54668400  0.66536000  1
  C  C5  1  0.11167500  0.56499100  0.33202700  1
  C  C6  1  0.10404900  0.22126500  0.96909100  1
  C  C7  1  0.45331600  0.88832500  0.99869400  1
  C  C8  1  0.44153600  0.22015300  0.31992200  1
  Ni  Ni9  1  0.13118100  0.57020900  0.86093700  1
  Ni  Ni10  1  0.79679900  0.89524300  0.77060600  1
  Ni  Ni11  1  0.09844400  0.20320100  0.43727200  1
  Ni  Ni12  1  0.10475700  0.90155600  0.10393900  1
  Ni  Ni13  1  0.42979100  0.56097200  0.19427100  1
  Ni  Ni14  1  0.43902800  0.86881900  0.52760400  1
  Ni  Ni15  1  0.46429800  0.20355800  0.82737200  1
  Ni  Ni16  1  0.79644200  0.26074000  0.16070600  1
  Ni  Ni17  1  0.73926000  0.53570200  0.49403900  1
  Cu  Cu18  1  0.33950800  0.43898800  0.23797200  1
  Cu  Cu19  1  0.01332900  0.23973700  0.38626600  1
  Cu  Cu20  1  0.11118100  0.11210800  0.35350600  1
  Cu  Cu21  1  0.55668800  0.22512800  0.93758100  1
  Cu  Cu22  1  0.22112200  0.55737100  0.94705000  1
  Cu  Cu23  1  0.56101200  0.90051900  0.57130600  1
  Cu  Cu24  1  0.67558800  0.55917600  0.37632900  1
  Cu  Cu25  1  0.86943800  0.60215400  0.50204000  1
  Cu  Cu26  1  0.00092600  0.88881900  0.02017300  1
  Cu  Cu27  1  0.77487200  0.33156100  0.27091500  1
  Cu  Cu28  1  0.22640900  0.98667100  0.05293300  1
  Cu  Cu29  1  0.07539400  0.49332700  0.73420800  1
  Cu  Cu30  1  0.50667300  0.58206600  0.06754200  1
  Cu  Cu31  1  0.09948100  0.66049200  0.90463900  1
  Cu  Cu32  1  0.08510000  0.83012900  0.23532400  1
  Cu  Cu33  1  0.66843900  0.44331200  0.60424800  1
  Cu  Cu34  1  0.88789200  0.99907400  0.68683900  1
  Cu  Cu35  1  0.44262900  0.66375100  0.28038300  1
  Cu  Cu36  1  0.74502900  0.91490000  0.90199100  1
  Cu  Cu37  1  0.73271600  0.13056200  0.16870700  1
  Cu  Cu38  1  0.33624900  0.77887800  0.61371600  1
  Cu  Cu39  1  0.41793400  0.92460600  0.40087500  1
  Cu  Cu40  1  0.39784600  0.26728400  0.83537300  1
  Cu  Cu41  1  0.76026300  0.77359100  0.71960000  1
  Cu  Cu42  1  0.44082400  0.11641200  0.70966200  1
  Cu  Cu43  1  0.88358800  0.32441200  0.04299500  1
  Cu  Cu44  1  0.16987100  0.25497100  0.56865800  1
