# generated using pymatgen
data_Cu7Ni3
_symmetry_space_group_name_H-M   'P 1'
_cell_length_a   7.38341487
_cell_length_b   7.38341487
_cell_length_c   7.38341502
_cell_angle_alpha   110.05484586
_cell_angle_beta   110.05484586
_cell_angle_gamma   110.05485606
_symmetry_Int_Tables_number   1
_chemical_formula_structural   Cu7Ni3
_chemical_formula_sum   'Cu14 Ni6'
_cell_volume   302.96878235
_cell_formula_units_Z   2
loop_
 _symmetry_equiv_pos_site_id
 _symmetry_equiv_pos_as_xyz
  1  'x, y, z'
loop_
 _atom_site_type_symbol
 _atom_site_label
 _atom_site_symmetry_multiplicity
 _atom_site_fract_x
 _atom_site_fract_y
 _atom_site_fract_z
 _atom_site_occupancy
  Ni  Ni0  1  0.49991500  0.87664000  0.69982600  1
  Ni  Ni1  1  0.69982600  0.49991500  0.87664000  1
  Ni  Ni2  1  0.87664000  0.69982600  0.49991500  1
  Ni  Ni3  1  0.07720100  0.24755400  0.45351100  1
  Ni  Ni4  1  0.45351100  0.07720100  0.24755400  1
  Ni  Ni5  1  0.24755400  0.45351100  0.07720100  1
  Cu  Cu6  1  0.89194200  0.81872200  0.25115400  1
  Cu  Cu7  1  0.25115400  0.89194200  0.81872200  1
  Cu  Cu8  1  0.81872200  0.25115400  0.89194200  1
  Cu  Cu9  1  0.70221700  0.05479500  0.12683200  1
  Cu  Cu10  1  0.12683200  0.70221700  0.05479500  1
  Cu  Cu11  1  0.05479500  0.12683200  0.70221700  1
  Cu  Cu12  1  0.38878800  0.56240900  0.83480900  1
  Cu  Cu13  1  0.83480900  0.38878800  0.56240900  1
  Cu  Cu14  1  0.56240900  0.83480900  0.38878800  1
  Cu  Cu15  1  0.12467300  0.55892200  0.38379800  1
  Cu  Cu16  1  0.38379800  0.12467300  0.55892200  1
  Cu  Cu17  1  0.55892200  0.38379800  0.12467300  1
  Cu  Cu18  1  0.77537400  0.77537400  0.77537400  1
  Cu  Cu19  1  0.17191900  0.17191900  0.17191900  1
