# generated using pymatgen
data_Cu3(NiC9)2
_symmetry_space_group_name_H-M   'P 1'
_cell_length_a   21.79863883
_cell_length_b   21.79863883
_cell_length_c   21.79863883
_cell_angle_alpha   169.78503058
_cell_angle_beta   169.78503058
_cell_angle_gamma   14.46541098
_symmetry_Int_Tables_number   1
_chemical_formula_structural   Cu3(NiC9)2
_chemical_formula_sum   'Cu3 Ni2 C18'
_cell_volume   325.75931306
_cell_formula_units_Z   1
loop_
 _symmetry_equiv_pos_site_id
 _symmetry_equiv_pos_as_xyz
  1  'x, y, z'
loop_
 _atom_site_type_symbol
 _atom_site_label
 _atom_site_symmetry_multiplicity
 _atom_site_fract_x
 _atom_site_fract_y
 _atom_site_fract_z
 _atom_site_occupancy
  Ni  Ni0  1  0.15698800  0.15698800  0.00000000  1
  Ni  Ni1  1  0.84301200  0.84301200  0.00000000  1
  Cu  Cu2  1  0.07503200  0.07503200  0.00000000  1
  Cu  Cu3  1  0.92496800  0.92496800  0.00000000  1
  Cu  Cu4  1  0.00000000  0.00000000  0.00000000  1
  C  C5  1  0.72349300  0.72349300  0.00000000  1
  C  C6  1  0.27650700  0.27650700  0.00000000  1
  C  C7  1  0.53754100  0.53754100  0.00000000  1
  C  C8  1  0.38991500  0.38991500  0.00000000  1
  C  C9  1  0.61008500  0.61008500  0.00000000  1
  C  C10  1  0.46245900  0.46245900  0.00000000  1
  C  C11  1  0.88903100  0.38903100  0.50000000  1
  C  C12  1  0.03716900  0.53716900  0.50000000  1
  C  C13  1  0.22828500  0.22828500  0.00000000  1
  C  C14  1  0.46283100  0.96283100  0.50000000  1
  C  C15  1  0.77171500  0.77171500  0.00000000  1
  C  C16  1  0.61096900  0.11096900  0.50000000  1
  C  C17  1  0.11096900  0.61096900  0.50000000  1
  C  C18  1  0.32349700  0.32349700  0.00000000  1
  C  C19  1  0.38903100  0.88903100  0.50000000  1
  C  C20  1  0.53716900  0.03716900  0.50000000  1
  C  C21  1  0.96283100  0.46283100  0.50000000  1
  C  C22  1  0.67650300  0.67650300  0.00000000  1
