# generated using pymatgen
data_Cu15Ni5C4
_symmetry_space_group_name_H-M   'P 1'
_cell_length_a   14.46184400
_cell_length_b   8.41317700
_cell_length_c   11.93978226
_cell_angle_alpha   89.66815644
_cell_angle_beta   90.00000000
_cell_angle_gamma   90.00000000
_symmetry_Int_Tables_number   1
_chemical_formula_structural   Cu15Ni5C4
_chemical_formula_sum   'Cu60 Ni20 C16'
_cell_volume   1452.68957854
_cell_formula_units_Z   4
loop_
 _symmetry_equiv_pos_site_id
 _symmetry_equiv_pos_as_xyz
  1  'x, y, z'
loop_
 _atom_site_type_symbol
 _atom_site_label
 _atom_site_symmetry_multiplicity
 _atom_site_fract_x
 _atom_site_fract_y
 _atom_site_fract_z
 _atom_site_occupancy
  C  C0  1  0.52776300  0.72592300  0.05085800  1
  C  C1  1  0.04038200  0.73836000  0.95636000  1
  C  C2  1  0.97223700  0.72592300  0.55085800  1
  C  C3  1  0.54038200  0.26164000  0.54364000  1
  C  C4  1  0.77139200  0.60981200  0.28673400  1
  C  C5  1  0.45961800  0.73836000  0.45636000  1
  C  C6  1  0.22860800  0.39018800  0.71326600  1
  C  C7  1  0.72860800  0.60981200  0.78673400  1
  C  C8  1  0.02776300  0.27407700  0.44914200  1
  C  C9  1  0.47223700  0.27407700  0.94914200  1
  C  C10  1  0.95961800  0.26164000  0.04364000  1
  C  C11  1  0.27139200  0.39018800  0.21326600  1
  C  C12  1  0.77337600  0.07928200  0.68003800  1
  C  C13  1  0.22662400  0.92071800  0.31996200  1
  C  C14  1  0.72662400  0.07928200  0.18003800  1
  C  C15  1  0.27337600  0.92071800  0.81996200  1
  Ni  Ni16  1  0.20649900  0.14242500  0.96972600  1
  Ni  Ni17  1  0.80484600  0.34768800  0.55196300  1
  Ni  Ni18  1  0.70649900  0.85757500  0.53027400  1
  Ni  Ni19  1  0.36806700  0.96316700  0.17005400  1
  Ni  Ni20  1  0.69515400  0.34768800  0.05196300  1
  Ni  Ni21  1  0.13193300  0.96316700  0.67005400  1
  Ni  Ni22  1  0.30484600  0.65231200  0.94803700  1
  Ni  Ni23  1  0.92344600  0.03777900  0.80241900  1
  Ni  Ni24  1  0.79350100  0.85757500  0.03027400  1
  Ni  Ni25  1  0.86806700  0.03683300  0.32994600  1
  Ni  Ni26  1  0.42344600  0.96222100  0.69758100  1
  Ni  Ni27  1  0.99551100  0.46123000  0.76071000  1
  Ni  Ni28  1  0.57655400  0.03777900  0.30241900  1
  Ni  Ni29  1  0.63193300  0.03683300  0.82994600  1
  Ni  Ni30  1  0.07655400  0.96222100  0.19758100  1
  Ni  Ni31  1  0.19515400  0.65231200  0.44803700  1
  Ni  Ni32  1  0.50448900  0.46123000  0.26071000  1
  Ni  Ni33  1  0.29350100  0.14242500  0.46972600  1
  Ni  Ni34  1  0.49551100  0.53877000  0.73929000  1
  Ni  Ni35  1  0.00448900  0.53877000  0.23929000  1
  Cu  Cu36  1  0.48947200  0.95122300  0.63113600  1
  Cu  Cu37  1  0.84573800  0.21246500  0.57260300  1
  Cu  Cu38  1  0.91957500  0.53662500  0.76135300  1
  Cu  Cu39  1  0.86017700  0.14883600  0.80252700  1
  Cu  Cu40  1  0.63982300  0.14883600  0.30252700  1
  Cu  Cu41  1  0.96131600  0.56509400  0.14814600  1
  Cu  Cu42  1  0.84337600  0.79584200  0.95762500  1
  Cu  Cu43  1  0.53868400  0.56509400  0.64814600  1
  Cu  Cu44  1  0.84367200  0.44099500  0.48539900  1
  Cu  Cu45  1  0.34573800  0.78753500  0.92739700  1
  Cu  Cu46  1  0.58615200  0.92499900  0.23531900  1
  Cu  Cu47  1  0.98947200  0.04877700  0.86886400  1
  Cu  Cu48  1  0.46967300  0.41579800  0.16879400  1
  Cu  Cu49  1  0.08042500  0.46337500  0.23864700  1
  Cu  Cu50  1  0.58042500  0.53662500  0.26135300  1
  Cu  Cu51  1  0.27073200  0.62302500  0.40062500  1
  Cu  Cu52  1  0.80045500  0.95048400  0.28964400  1
  Cu  Cu53  1  0.62406700  0.17755400  0.79593600  1
  Cu  Cu54  1  0.46131600  0.43490600  0.35185400  1
  Cu  Cu55  1  0.30826100  0.99339700  0.44398500  1
  Cu  Cu56  1  0.22926800  0.62302500  0.90062500  1
  Cu  Cu57  1  0.42057400  0.02480500  0.09976300  1
  Cu  Cu58  1  0.08615200  0.07500100  0.26468100  1
  Cu  Cu59  1  0.41957500  0.46337500  0.73864700  1
  Cu  Cu60  1  0.72926800  0.37697500  0.59937500  1
  Cu  Cu61  1  0.96967300  0.58420200  0.33120600  1
  Cu  Cu62  1  0.77063800  0.78474700  0.57919300  1
  Cu  Cu63  1  0.41384800  0.07500100  0.76468100  1
  Cu  Cu64  1  0.69173900  0.00660300  0.55601500  1
  Cu  Cu65  1  0.01052800  0.95122300  0.13113600  1
  Cu  Cu66  1  0.19954500  0.04951600  0.71035600  1
  Cu  Cu67  1  0.03868400  0.43490600  0.85185400  1
  Cu  Cu68  1  0.15426200  0.78753500  0.42739700  1
  Cu  Cu69  1  0.15662400  0.20415800  0.04237500  1
  Cu  Cu70  1  0.72936200  0.78474700  0.07919300  1
  Cu  Cu71  1  0.65632800  0.44099500  0.98539900  1
  Cu  Cu72  1  0.19173900  0.99339700  0.94398500  1
  Cu  Cu73  1  0.80826100  0.00660300  0.05601500  1
  Cu  Cu74  1  0.22936200  0.21525300  0.42080700  1
  Cu  Cu75  1  0.77073200  0.37697500  0.09937500  1
  Cu  Cu76  1  0.91384800  0.92499900  0.73531900  1
  Cu  Cu77  1  0.92057400  0.97519500  0.40023700  1
  Cu  Cu78  1  0.27063800  0.21525300  0.92080700  1
  Cu  Cu79  1  0.12406700  0.82244600  0.70406400  1
  Cu  Cu80  1  0.87593300  0.17755400  0.29593600  1
  Cu  Cu81  1  0.34337600  0.20415800  0.54237500  1
  Cu  Cu82  1  0.15632800  0.55900500  0.51460100  1
  Cu  Cu83  1  0.36017700  0.85116400  0.69747300  1
  Cu  Cu84  1  0.07942600  0.02480500  0.59976300  1
  Cu  Cu85  1  0.13982300  0.85116400  0.19747300  1
  Cu  Cu86  1  0.65662400  0.79584200  0.45762500  1
  Cu  Cu87  1  0.37593300  0.82244600  0.20406400  1
  Cu  Cu88  1  0.65426200  0.21246500  0.07260300  1
  Cu  Cu89  1  0.57942600  0.97519500  0.90023700  1
  Cu  Cu90  1  0.53032700  0.58420200  0.83120600  1
  Cu  Cu91  1  0.51052800  0.04877700  0.36886400  1
  Cu  Cu92  1  0.30045500  0.04951600  0.21035600  1
  Cu  Cu93  1  0.34367200  0.55900500  0.01460100  1
  Cu  Cu94  1  0.03032700  0.41579800  0.66879400  1
  Cu  Cu95  1  0.69954500  0.95048400  0.78964400  1
