# generated using pymatgen
data_Cu4Ni2C9
_symmetry_space_group_name_H-M   'P 1'
_cell_length_a   8.86432900
_cell_length_b   8.96006888
_cell_length_c   10.48865962
_cell_angle_alpha   87.60562906
_cell_angle_beta   87.50127897
_cell_angle_gamma   61.23275996
_symmetry_Int_Tables_number   1
_chemical_formula_structural   Cu4Ni2C9
_chemical_formula_sum   'Cu16 Ni8 C36'
_cell_volume   729.34689298
_cell_formula_units_Z   4
loop_
 _symmetry_equiv_pos_site_id
 _symmetry_equiv_pos_as_xyz
  1  'x, y, z'
loop_
 _atom_site_type_symbol
 _atom_site_label
 _atom_site_symmetry_multiplicity
 _atom_site_fract_x
 _atom_site_fract_y
 _atom_site_fract_z
 _atom_site_occupancy
  Ni  Ni0  1  0.00000000  0.00000000  0.00000000  1
  Ni  Ni1  1  0.69309300  0.99791400  0.75743600  1
  Ni  Ni2  1  0.00000000  0.00000000  0.50000000  1
  Ni  Ni3  1  0.66933000  0.64620500  0.69919900  1
  Ni  Ni4  1  0.67431300  0.64684400  0.20339800  1
  Ni  Ni5  1  0.32568700  0.35315600  0.79660200  1
  Ni  Ni6  1  0.33067000  0.35379500  0.30080100  1
  Ni  Ni7  1  0.30690700  0.00208600  0.24256400  1
  Cu  Cu8  1  0.65895900  0.94055000  0.42900000  1
  Cu  Cu9  1  0.99209800  0.74364400  0.26806200  1
  Cu  Cu10  1  0.96008300  0.65563100  0.93401100  1
  Cu  Cu11  1  0.42450300  0.90057100  0.95103800  1
  Cu  Cu12  1  0.22502800  0.79704100  0.75790200  1
  Cu  Cu13  1  0.90101400  0.43267400  0.44234800  1
  Cu  Cu14  1  0.36364300  0.67443400  0.46041100  1
  Cu  Cu15  1  0.32803200  0.59488800  0.04595900  1
  Cu  Cu16  1  0.67196800  0.40511200  0.95404100  1
  Cu  Cu17  1  0.63635700  0.32556600  0.53958900  1
  Cu  Cu18  1  0.09898600  0.56732600  0.55765200  1
  Cu  Cu19  1  0.77497200  0.20295900  0.24209800  1
  Cu  Cu20  1  0.57549700  0.09942900  0.04896200  1
  Cu  Cu21  1  0.03991700  0.34436900  0.06598900  1
  Cu  Cu22  1  0.00790200  0.25635600  0.73193800  1
  Cu  Cu23  1  0.34104100  0.05945000  0.57100000  1
  C  C24  1  0.89861600  0.94851400  0.66033800  1
  C  C25  1  0.91097600  0.95246600  0.16178000  1
  C  C26  1  0.59182000  0.91126200  0.62004300  1
  C  C27  1  0.76221500  0.76565700  0.82433700  1
  C  C28  1  0.53504000  0.90606700  0.12369300  1
  C  C29  1  0.77489600  0.74080400  0.32603500  1
  C  C30  1  0.22108500  0.95475000  0.08360300  1
  C  C31  1  0.22965600  0.91108400  0.57905600  1
  C  C32  1  0.87128500  0.59222600  0.09256800  1
  C  C33  1  0.87321900  0.58517200  0.59226500  1
  C  C34  1  0.45698900  0.75417000  0.81078700  1
  C  C35  1  0.44303300  0.76875200  0.31287400  1
  C  C36  1  0.56447200  0.57627400  0.57711800  1
  C  C37  1  0.54759500  0.59562000  0.07883200  1
  C  C38  1  0.11669000  0.75465800  0.94588100  1
  C  C39  1  0.78390000  0.43905900  0.79973200  1
  C  C40  1  0.09019600  0.76152900  0.44114900  1
  C  C41  1  0.76297800  0.43037300  0.29793600  1
  C  C42  1  0.23702200  0.56962700  0.70206400  1
  C  C43  1  0.90980400  0.23847100  0.55885100  1
  C  C44  1  0.21610000  0.56094100  0.20026800  1
  C  C45  1  0.88331000  0.24534200  0.05411900  1
  C  C46  1  0.45240500  0.40438000  0.92116800  1
  C  C47  1  0.43552800  0.42372600  0.42288200  1
  C  C48  1  0.55696700  0.23124800  0.68712600  1
  C  C49  1  0.54301100  0.24583000  0.18921300  1
  C  C50  1  0.12678100  0.41482800  0.40773500  1
  C  C51  1  0.12871500  0.40777400  0.90743200  1
  C  C52  1  0.77034400  0.08891600  0.42094400  1
  C  C53  1  0.77891500  0.04525000  0.91639700  1
  C  C54  1  0.22510400  0.25919600  0.67396500  1
  C  C55  1  0.46496000  0.09393300  0.87630700  1
  C  C56  1  0.23778500  0.23434300  0.17566300  1
  C  C57  1  0.40818000  0.08873800  0.37995700  1
  C  C58  1  0.08902400  0.04753400  0.83822000  1
  C  C59  1  0.10138400  0.05148600  0.33966200  1
