# generated using pymatgen
data_Cu2NiC5
_symmetry_space_group_name_H-M   'P 1'
_cell_length_a   7.01547300
_cell_length_b   6.60624600
_cell_length_c   17.58629121
_cell_angle_alpha   74.69996724
_cell_angle_beta   90.00000000
_cell_angle_gamma   90.00000000
_symmetry_Int_Tables_number   1
_chemical_formula_structural   Cu2NiC5
_chemical_formula_sum   'Cu8 Ni4 C20'
_cell_volume   786.16549257
_cell_formula_units_Z   4
loop_
 _symmetry_equiv_pos_site_id
 _symmetry_equiv_pos_as_xyz
  1  'x, y, z'
loop_
 _atom_site_type_symbol
 _atom_site_label
 _atom_site_symmetry_multiplicity
 _atom_site_fract_x
 _atom_site_fract_y
 _atom_site_fract_z
 _atom_site_occupancy
  C  C0  1  0.19954200  0.76447200  0.05714800  1
  C  C1  1  0.30045800  0.76447200  0.55714800  1
  C  C2  1  0.80045800  0.23552800  0.94285200  1
  C  C3  1  0.69954200  0.23552800  0.44285200  1
  C  C4  1  0.65508400  0.86135800  0.25922100  1
  C  C5  1  0.15508400  0.13864200  0.24077900  1
  C  C6  1  0.34491600  0.13864200  0.74077900  1
  C  C7  1  0.84491600  0.86135800  0.75922100  1
  Ni  Ni8  1  0.84083200  0.37015800  0.70587100  1
  Ni  Ni9  1  0.65916800  0.37015800  0.20587100  1
  Ni  Ni10  1  0.34083200  0.62984200  0.79412900  1
  Ni  Ni11  1  0.15916800  0.62984200  0.29412900  1
  Cu  Cu12  1  0.36085000  0.24249200  0.58499900  1
  Cu  Cu13  1  0.83987400  0.88783200  0.60713800  1
  Cu  Cu14  1  0.63915000  0.75750800  0.41500100  1
  Cu  Cu15  1  0.86085000  0.75750800  0.91500100  1
  Cu  Cu16  1  0.66012600  0.88783200  0.10713800  1
  Cu  Cu17  1  0.33987400  0.11216800  0.89286200  1
  Cu  Cu18  1  0.16012600  0.11216800  0.39286200  1
  Cu  Cu19  1  0.13915000  0.24249200  0.08499900  1
  C  C20  1  0.16838900  0.82144000  0.75724500  1
  C  C21  1  0.84734300  0.50572700  0.77576000  1
  C  C22  1  0.97847500  0.81581800  0.26503500  1
  C  C23  1  0.52152500  0.81581800  0.76503500  1
  C  C24  1  0.33161100  0.82144000  0.25724500  1
  C  C25  1  0.83161100  0.17856000  0.24275500  1
  C  C26  1  0.02152500  0.18418200  0.73496500  1
  C  C27  1  0.65265700  0.50572700  0.27576000  1
  C  C28  1  0.66838900  0.17856000  0.74275500  1
  C  C29  1  0.47847500  0.18418200  0.23496500  1
  C  C30  1  0.15265700  0.49427300  0.22424000  1
  C  C31  1  0.34734300  0.49427300  0.72424000  1
