# generated using pymatgen
data_Cu5(NiC3)2
_symmetry_space_group_name_H-M   'P 1'
_cell_length_a   6.63685184
_cell_length_b   7.55549490
_cell_length_c   7.55621979
_cell_angle_alpha   61.98880178
_cell_angle_beta   116.05738696
_cell_angle_gamma   116.04619358
_symmetry_Int_Tables_number   1
_chemical_formula_structural   Cu5(NiC3)2
_chemical_formula_sum   'Cu10 Ni4 C12'
_cell_volume   287.27901975
_cell_formula_units_Z   2
loop_
 _symmetry_equiv_pos_site_id
 _symmetry_equiv_pos_as_xyz
  1  'x, y, z'
loop_
 _atom_site_type_symbol
 _atom_site_label
 _atom_site_symmetry_multiplicity
 _atom_site_fract_x
 _atom_site_fract_y
 _atom_site_fract_z
 _atom_site_occupancy
  C  C0  1  0.99999500  0.99999800  0.00000300  1
  C  C1  1  0.49999100  0.49998800  0.49999600  1
  C  C2  1  0.00000000  0.50000100  0.00000000  1
  C  C3  1  0.00000100  0.00000100  0.50000000  1
  C  C4  1  0.47593500  0.19320700  0.99088600  1
  C  C5  1  0.79185000  0.30679200  0.50911700  1
  C  C6  1  0.52406100  0.00911800  0.80679200  1
  C  C7  1  0.20815800  0.49088700  0.69320600  1
  C  C8  1  0.52406600  0.80679500  0.00911400  1
  C  C9  1  0.20815100  0.69320900  0.49088300  1
  C  C10  1  0.47594000  0.99088300  0.19320800  1
  C  C11  1  0.79184300  0.50911400  0.30679400  1
  Ni  Ni12  1  0.37353100  0.07057200  0.07055600  1
  Ni  Ni13  1  0.73240800  0.42944300  0.42942700  1
  Ni  Ni14  1  0.62647000  0.92942900  0.92944400  1
  Ni  Ni15  1  0.26759300  0.57055800  0.57057200  1
  Cu  Cu16  1  0.92854200  0.24988700  0.25011200  1
  Cu  Cu17  1  0.07146000  0.75011400  0.74988800  1
  Cu  Cu18  1  0.07738100  0.91193600  0.33718500  1
  Cu  Cu19  1  0.32811700  0.58806800  0.16265200  1
  Cu  Cu20  1  0.92262500  0.66266600  0.08806200  1
  Cu  Cu21  1  0.67172600  0.83720100  0.41192800  1
  Cu  Cu22  1  0.92262100  0.08806500  0.66281600  1
  Cu  Cu23  1  0.67188400  0.41193300  0.83734800  1
  Cu  Cu24  1  0.07737600  0.33733500  0.91193800  1
  Cu  Cu25  1  0.32827500  0.16280100  0.58807200  1
