# generated using pymatgen
data_Cu2NiC7
_symmetry_space_group_name_H-M   'P 1'
_cell_length_a   8.53678500
_cell_length_b   5.19215900
_cell_length_c   9.18356279
_cell_angle_alpha   77.36872496
_cell_angle_beta   90.00000000
_cell_angle_gamma   90.00000000
_symmetry_Int_Tables_number   1
_chemical_formula_structural   Cu2NiC7
_chemical_formula_sum   'Cu8 Ni4 C28'
_cell_volume   397.20366482
_cell_formula_units_Z   4
loop_
 _symmetry_equiv_pos_site_id
 _symmetry_equiv_pos_as_xyz
  1  'x, y, z'
loop_
 _atom_site_type_symbol
 _atom_site_label
 _atom_site_symmetry_multiplicity
 _atom_site_fract_x
 _atom_site_fract_y
 _atom_site_fract_z
 _atom_site_occupancy
  C  C0  1  0.01494900  0.97243100  0.25491000  1
  C  C1  1  0.51494900  0.52756900  0.74509000  1
  C  C2  1  0.98505100  0.02756900  0.74509000  1
  C  C3  1  0.48505100  0.47243100  0.25491000  1
  Ni  Ni4  1  0.65231900  0.97252700  0.25032100  1
  Ni  Ni5  1  0.15231900  0.52747300  0.74967900  1
  Ni  Ni6  1  0.34768100  0.02747300  0.74967900  1
  Ni  Ni7  1  0.84768100  0.47252700  0.25032100  1
  Cu  Cu8  1  0.34255100  0.22912800  0.04595100  1
  Cu  Cu9  1  0.84255100  0.27087200  0.95404900  1
  Cu  Cu10  1  0.65744900  0.77087200  0.95404900  1
  Cu  Cu11  1  0.15744900  0.72912800  0.04595100  1
  Cu  Cu12  1  0.84086600  0.68095100  0.54969600  1
  Cu  Cu13  1  0.34086600  0.81904900  0.45030400  1
  Cu  Cu14  1  0.15913400  0.31904900  0.45030400  1
  Cu  Cu15  1  0.65913400  0.18095100  0.54969600  1
  C  C16  1  0.32973600  0.30192000  0.86094600  1
  C  C17  1  0.82973600  0.19808000  0.13905400  1
  C  C18  1  0.67026400  0.69808000  0.13905400  1
  C  C19  1  0.17026400  0.80192000  0.86094600  1
  C  C20  1  0.51296500  0.16958800  0.11861100  1
  C  C21  1  0.01296500  0.33041200  0.88138900  1
  C  C22  1  0.48703500  0.83041200  0.88138900  1
  C  C23  1  0.98703500  0.66958800  0.11861100  1
  C  C24  1  0.28259200  0.48841000  0.10723800  1
  C  C25  1  0.78259200  0.01159000  0.89276200  1
  C  C26  1  0.71740800  0.51159000  0.89276200  1
  C  C27  1  0.21740800  0.98841000  0.10723800  1
  C  C28  1  0.82885900  0.74692100  0.36418300  1
  C  C29  1  0.32885900  0.75307900  0.63581700  1
  C  C30  1  0.17114100  0.25307900  0.63581700  1
  C  C31  1  0.67114100  0.24692100  0.36418300  1
  C  C32  1  0.00587200  0.72787700  0.62438800  1
  C  C33  1  0.50587200  0.77212300  0.37561200  1
  C  C34  1  0.99412800  0.27212300  0.37561200  1
  C  C35  1  0.49412800  0.22787700  0.62438800  1
  C  C36  1  0.71064900  0.87002700  0.60801300  1
  C  C37  1  0.21064900  0.62997300  0.39198700  1
  C  C38  1  0.28935100  0.12997300  0.39198700  1
  C  C39  1  0.78935100  0.37002700  0.60801300  1
