# generated using pymatgen
data_Cu2NiC4
_symmetry_space_group_name_H-M   'P 1'
_cell_length_a   5.93022949
_cell_length_b   5.93022949
_cell_length_c   28.98331373
_cell_angle_alpha   89.87551805
_cell_angle_beta   89.87551805
_cell_angle_gamma   60.56344265
_symmetry_Int_Tables_number   1
_chemical_formula_structural   Cu2NiC4
_chemical_formula_sum   'Cu24 Ni12 C48'
_cell_volume   887.68352747
_cell_formula_units_Z   12
loop_
 _symmetry_equiv_pos_site_id
 _symmetry_equiv_pos_as_xyz
  1  'x, y, z'
loop_
 _atom_site_type_symbol
 _atom_site_label
 _atom_site_symmetry_multiplicity
 _atom_site_fract_x
 _atom_site_fract_y
 _atom_site_fract_z
 _atom_site_occupancy
  Ni  Ni0  1  0.99461900  0.99461900  0.99914000  1
  Ni  Ni1  1  0.66096300  0.66096300  0.16811600  1
  Ni  Ni2  1  0.16446100  0.16446100  0.10436400  1
  Ni  Ni3  1  0.83251200  0.83251200  0.27170600  1
  Ni  Ni4  1  0.50003800  0.50003800  0.43771700  1
  Ni  Ni5  1  0.66693800  0.66693800  0.35453500  1
  Ni  Ni6  1  0.16664300  0.16664300  0.60415600  1
  Ni  Ni7  1  0.33338400  0.33338400  0.52087800  1
  Ni  Ni8  1  0.83324500  0.83324500  0.77070400  1
  Ni  Ni9  1  0.00003200  0.00003200  0.68745400  1
  Ni  Ni10  1  0.49880500  0.49880500  0.93688000  1
  Ni  Ni11  1  0.66691300  0.66691300  0.85422000  1
  Cu  Cu12  1  0.67358800  0.67358800  0.04112900  1
  Cu  Cu13  1  0.34049800  0.34049800  0.20775700  1
  Cu  Cu14  1  0.33348000  0.33348000  0.01871500  1
  Cu  Cu15  1  0.32633700  0.32633700  0.33316200  1
  Cu  Cu16  1  0.16269200  0.67577200  0.10443900  1
  Cu  Cu17  1  0.67577200  0.16269200  0.10443900  1
  Cu  Cu18  1  0.83143100  0.33766600  0.27196700  1
  Cu  Cu19  1  0.00049800  0.00049800  0.18561300  1
  Cu  Cu20  1  0.00683000  0.00683000  0.37692900  1
  Cu  Cu21  1  0.99315400  0.99315400  0.49847000  1
  Cu  Cu22  1  0.33766600  0.83143100  0.27196700  1
  Cu  Cu23  1  0.67336600  0.67336600  0.54341600  1
  Cu  Cu24  1  0.65999800  0.65999800  0.66494100  1
  Cu  Cu25  1  0.49992300  0.99983800  0.43781000  1
  Cu  Cu26  1  0.99983800  0.49992300  0.43781000  1
  Cu  Cu27  1  0.32678100  0.32678100  0.83082100  1
  Cu  Cu28  1  0.34006900  0.34006900  0.70989500  1
  Cu  Cu29  1  0.16662100  0.66670800  0.60416000  1
  Cu  Cu30  1  0.66670800  0.16662100  0.60416000  1
  Cu  Cu31  1  0.83315600  0.33373300  0.77069400  1
  Cu  Cu32  1  0.00675300  0.00675300  0.87641200  1
  Cu  Cu33  1  0.33373300  0.83315600  0.77069400  1
  Cu  Cu34  1  0.49787600  0.00442700  0.93693900  1
  Cu  Cu35  1  0.00442700  0.49787600  0.93693900  1
  C  C36  1  0.02186400  0.49452600  0.06307300  1
  C  C37  1  0.33752600  0.33752600  0.14216800  1
  C  C38  1  0.49452600  0.02186400  0.06307300  1
  C  C39  1  0.49307700  0.49307700  0.06332200  1
  C  C40  1  0.84330300  0.84330300  0.14450500  1
  C  C41  1  0.68900900  0.16072900  0.22974600  1
  C  C42  1  0.99396000  0.99396000  0.06708300  1
  C  C43  1  0.00499600  0.00499600  0.30957900  1
  C  C44  1  0.83983300  0.30413200  0.14504800  1
  C  C45  1  0.16072900  0.68900900  0.22974600  1
  C  C46  1  0.15955000  0.15955000  0.22985300  1
  C  C47  1  0.30413200  0.83983300  0.14504800  1
  C  C48  1  0.35070000  0.83208500  0.39787800  1
  C  C49  1  0.50255600  0.50255600  0.31128000  1
  C  C50  1  0.65999500  0.65999500  0.23659600  1
  C  C51  1  0.67060000  0.67060000  0.47677800  1
  C  C52  1  0.50034500  0.98621300  0.31124400  1
  C  C53  1  0.83208500  0.35070000  0.39787800  1
  C  C54  1  0.98621300  0.50034500  0.31124400  1
  C  C55  1  0.82839700  0.82839700  0.39798700  1
  C  C56  1  0.01733400  0.49883400  0.56454200  1
  C  C57  1  0.17156400  0.17156400  0.47719600  1
  C  C58  1  0.32911600  0.32911600  0.39922000  1
  C  C59  1  0.33727900  0.33727900  0.64337200  1
  C  C60  1  0.16760800  0.64946100  0.47728200  1
  C  C61  1  0.49883400  0.01733400  0.56454200  1
  C  C62  1  0.64946100  0.16760800  0.47728200  1
  C  C63  1  0.49481900  0.49481900  0.56466000  1
  C  C64  1  0.83856200  0.83856200  0.64366300  1
  C  C65  1  0.68396200  0.16559900  0.73113300  1
  C  C66  1  0.99599300  0.99599300  0.56500200  1
  C  C67  1  0.00391600  0.00391600  0.80997200  1
  C  C68  1  0.83446400  0.31594800  0.64377800  1
  C  C69  1  0.16559900  0.68396200  0.73113300  1
  C  C70  1  0.31594800  0.83446400  0.64377800  1
  C  C71  1  0.16154300  0.16154300  0.73125800  1
  C  C72  1  0.50576300  0.50576300  0.81003700  1
  C  C73  1  0.34979300  0.83302900  0.89799100  1
  C  C74  1  0.66278000  0.66278000  0.73135600  1
  C  C75  1  0.66998100  0.66998100  0.97600500  1
  C  C76  1  0.50155000  0.98173900  0.81020000  1
  C  C77  1  0.83302900  0.34979300  0.89799100  1
  C  C78  1  0.98173900  0.50155000  0.81020000  1
  C  C79  1  0.82894700  0.82894700  0.89830400  1
  C  C80  1  0.17922100  0.17922100  0.97672500  1
  C  C81  1  0.17450200  0.63341000  0.97738800  1
  C  C82  1  0.33013600  0.33013600  0.89632600  1
  C  C83  1  0.63341000  0.17450200  0.97738800  1
