# generated using pymatgen
data_Cu3NiC9
_symmetry_space_group_name_H-M   'P 1'
_cell_length_a   7.66473979
_cell_length_b   7.66473979
_cell_length_c   9.83847721
_cell_angle_alpha   57.04573342
_cell_angle_beta   57.04573342
_cell_angle_gamma   51.72729869
_symmetry_Int_Tables_number   1
_chemical_formula_structural   Cu3NiC9
_chemical_formula_sum   'Cu6 Ni2 C18'
_cell_volume   361.46493955
_cell_formula_units_Z   2
loop_
 _symmetry_equiv_pos_site_id
 _symmetry_equiv_pos_as_xyz
  1  'x, y, z'
loop_
 _atom_site_type_symbol
 _atom_site_label
 _atom_site_symmetry_multiplicity
 _atom_site_fract_x
 _atom_site_fract_y
 _atom_site_fract_z
 _atom_site_occupancy
  Ni  Ni0  1  0.48909800  0.01537900  0.50072200  1
  Ni  Ni1  1  0.01537900  0.48909800  0.00072200  1
  Cu  Cu2  1  0.81245600  0.97936600  0.67206400  1
  Cu  Cu3  1  0.00612300  0.20558500  0.83187200  1
  Cu  Cu4  1  0.58060800  0.43666700  0.73014600  1
  Cu  Cu5  1  0.97936600  0.81245600  0.17206400  1
  Cu  Cu6  1  0.20558500  0.00612300  0.33187200  1
  Cu  Cu7  1  0.43666700  0.58060800  0.23014600  1
  C  C8  1  0.76682100  0.39499300  0.78755800  1
  C  C9  1  0.52060500  0.66982000  0.59557900  1
  C  C10  1  0.72582800  0.25003400  0.63087800  1
  C  C11  1  0.25003400  0.72582800  0.13087800  1
  C  C12  1  0.84005700  0.87322700  0.33460900  1
  C  C13  1  0.39082100  0.38871100  0.38794400  1
  C  C14  1  0.32999800  0.09378800  0.33713200  1
  C  C15  1  0.06291200  0.17089800  0.21207000  1
  C  C16  1  0.87322700  0.84005700  0.83460900  1
  C  C17  1  0.95617800  0.63979100  0.16184800  1
  C  C18  1  0.63979100  0.95617800  0.66184800  1
  C  C19  1  0.91274800  0.05008600  0.01887800  1
  C  C20  1  0.66982000  0.52060500  0.09557900  1
  C  C21  1  0.17089800  0.06291200  0.71207000  1
  C  C22  1  0.09378800  0.32999800  0.83713200  1
  C  C23  1  0.38871100  0.39082100  0.88794400  1
  C  C24  1  0.39499300  0.76682100  0.28755800  1
  C  C25  1  0.05008600  0.91274800  0.51887800  1
