# generated using pymatgen
data_Cu4NiC
_symmetry_space_group_name_H-M   'P 1'
_cell_length_a   4.84577800
_cell_length_b   6.83478800
_cell_length_c   8.69936100
_cell_angle_alpha   90.00000000
_cell_angle_beta   90.00000000
_cell_angle_gamma   90.00000000
_symmetry_Int_Tables_number   1
_chemical_formula_structural   Cu4NiC
_chemical_formula_sum   'Cu16 Ni4 C4'
_cell_volume   288.12166473
_cell_formula_units_Z   4
loop_
 _symmetry_equiv_pos_site_id
 _symmetry_equiv_pos_as_xyz
  1  'x, y, z'
loop_
 _atom_site_type_symbol
 _atom_site_label
 _atom_site_symmetry_multiplicity
 _atom_site_fract_x
 _atom_site_fract_y
 _atom_site_fract_z
 _atom_site_occupancy
  C  C0  1  0.50000000  0.50000000  0.50000000  1
  C  C1  1  0.00000000  0.50000000  0.00000000  1
  C  C2  1  0.50000000  0.00000000  0.50000000  1
  C  C3  1  0.00000000  0.00000000  0.00000000  1
  Ni  Ni4  1  0.96761900  0.75000000  0.67769200  1
  Ni  Ni5  1  0.46761900  0.25000000  0.82230800  1
  Ni  Ni6  1  0.03238100  0.25000000  0.32230800  1
  Ni  Ni7  1  0.53238100  0.75000000  0.17769200  1
  Cu  Cu8  1  0.16971100  0.43093900  0.37458200  1
  Cu  Cu9  1  0.66971100  0.56906100  0.12541800  1
  Cu  Cu10  1  0.83028900  0.93093900  0.62541800  1
  Cu  Cu11  1  0.33028900  0.06906100  0.87458200  1
  Cu  Cu12  1  0.83028900  0.56906100  0.62541800  1
  Cu  Cu13  1  0.33028900  0.43093900  0.87458200  1
  Cu  Cu14  1  0.16971100  0.06906100  0.37458200  1
  Cu  Cu15  1  0.66971100  0.93093900  0.12541800  1
  Cu  Cu16  1  0.23976400  0.75000000  0.12420700  1
  Cu  Cu17  1  0.73976400  0.25000000  0.37579300  1
  Cu  Cu18  1  0.76023600  0.25000000  0.87579300  1
  Cu  Cu19  1  0.26023600  0.75000000  0.62420700  1
  Cu  Cu20  1  0.54618000  0.75000000  0.35214500  1
  Cu  Cu21  1  0.04618000  0.25000000  0.14785500  1
  Cu  Cu22  1  0.45382000  0.25000000  0.64785500  1
  Cu  Cu23  1  0.95382000  0.75000000  0.85214500  1
