# generated using pymatgen
data_Cu6Ni2C3
_symmetry_space_group_name_H-M   'P 1'
_cell_length_a   13.22308366
_cell_length_b   13.22308366
_cell_length_c   13.22308287
_cell_angle_alpha   22.37447027
_cell_angle_beta   22.37447027
_cell_angle_gamma   22.37446885
_symmetry_Int_Tables_number   1
_chemical_formula_structural   Cu6Ni2C3
_chemical_formula_sum   'Cu12 Ni4 C6'
_cell_volume   293.82009668
_cell_formula_units_Z   2
loop_
 _symmetry_equiv_pos_site_id
 _symmetry_equiv_pos_as_xyz
  1  'x, y, z'
loop_
 _atom_site_type_symbol
 _atom_site_label
 _atom_site_symmetry_multiplicity
 _atom_site_fract_x
 _atom_site_fract_y
 _atom_site_fract_z
 _atom_site_occupancy
  C  C0  1  0.00000000  0.00000000  0.00000000  1
  C  C1  1  0.50000000  0.50000000  0.50000000  1
  C  C2  1  0.24485600  0.24485600  0.24485600  1
  C  C3  1  0.75514400  0.75514400  0.75514400  1
  Ni  Ni4  1  0.10748500  0.10748500  0.10748500  1
  Ni  Ni5  1  0.89251500  0.89251500  0.89251500  1
  Ni  Ni6  1  0.37372000  0.37372000  0.37372000  1
  Ni  Ni7  1  0.62628000  0.62628000  0.62628000  1
  Cu  Cu8  1  0.81525400  0.25230800  0.25230800  1
  Cu  Cu9  1  0.25230800  0.25230800  0.81525400  1
  Cu  Cu10  1  0.25230800  0.81525400  0.25230800  1
  Cu  Cu11  1  0.74769200  0.18474600  0.74769200  1
  Cu  Cu12  1  0.18474600  0.74769200  0.74769200  1
  Cu  Cu13  1  0.74769200  0.74769200  0.18474600  1
  Cu  Cu14  1  0.08100900  0.51890800  0.51890800  1
  Cu  Cu15  1  0.51890800  0.51890800  0.08100900  1
  Cu  Cu16  1  0.51890800  0.08100900  0.51890800  1
  Cu  Cu17  1  0.48109200  0.91899100  0.48109200  1
  Cu  Cu18  1  0.91899100  0.48109200  0.48109200  1
  Cu  Cu19  1  0.48109200  0.48109200  0.91899100  1
  C  C20  1  0.18459200  0.18459200  0.18459200  1
  C  C21  1  0.81540800  0.81540800  0.81540800  1
