# generated using pymatgen
data_Cu16Ni11C3
_symmetry_space_group_name_H-M   'P 1'
_cell_length_a   15.87074294
_cell_length_b   15.87074294
_cell_length_c   15.87074294
_cell_angle_alpha   154.59447555
_cell_angle_beta   103.17934950
_cell_angle_gamma   82.45563237
_symmetry_Int_Tables_number   1
_chemical_formula_structural   Cu16Ni11C3
_chemical_formula_sum   'Cu32 Ni22 C6'
_cell_volume   1642.97145482
_cell_formula_units_Z   2
loop_
 _symmetry_equiv_pos_site_id
 _symmetry_equiv_pos_as_xyz
  1  'x, y, z'
loop_
 _atom_site_type_symbol
 _atom_site_label
 _atom_site_symmetry_multiplicity
 _atom_site_fract_x
 _atom_site_fract_y
 _atom_site_fract_z
 _atom_site_occupancy
  C  C0  1  0.40224100  0.82294500  0.72518600  1
  C  C1  1  0.09775900  0.82294500  0.42070400  1
  C  C2  1  0.00000000  0.50000000  0.50000000  1
  C  C3  1  0.59775900  0.17705500  0.27481400  1
  C  C4  1  0.50000000  0.00000000  0.50000000  1
  C  C5  1  0.90224100  0.17705500  0.57929600  1
  Ni  Ni6  1  0.47638000  0.38598400  0.68391800  1
  Ni  Ni7  1  0.79793400  0.70753800  0.68391800  1
  Ni  Ni8  1  0.98743400  0.90447700  0.70620200  1
  Ni  Ni9  1  0.70206600  0.38598400  0.90960400  1
  Ni  Ni10  1  0.75000000  0.89881800  0.14881800  1
  Ni  Ni11  1  0.80172500  0.09552300  0.08295600  1
  Ni  Ni12  1  0.01256600  0.09552300  0.29379800  1
  Ni  Ni13  1  0.51256600  0.21876800  0.91704400  1
  Ni  Ni14  1  0.29793400  0.61401600  0.09039600  1
  Ni  Ni15  1  0.69827500  0.78123200  0.29379800  1
  Ni  Ni16  1  0.97638000  0.29246200  0.09039600  1
  Ni  Ni17  1  0.20206600  0.29246200  0.31608200  1
  Ni  Ni18  1  0.25000000  0.10118200  0.85118200  1
  Ni  Ni19  1  0.30172500  0.21876800  0.70620200  1
  Ni  Ni20  1  0.85629400  0.35629400  0.00000000  1
  Ni  Ni21  1  0.48743400  0.78123200  0.08295600  1
  Ni  Ni22  1  0.52362000  0.61401600  0.31608200  1
  Ni  Ni23  1  0.64370600  0.64370600  0.50000000  1
  Ni  Ni24  1  0.19827500  0.90447700  0.91704400  1
  Ni  Ni25  1  0.02362000  0.70753800  0.90960400  1
  Ni  Ni26  1  0.35629400  0.35629400  0.50000000  1
  Ni  Ni27  1  0.14370600  0.64370600  0.00000000  1
  Cu  Cu28  1  0.73566000  0.04526300  0.66160600  1
  Cu  Cu29  1  0.88365600  0.57405400  0.33839400  1
  Cu  Cu30  1  0.15167100  0.32118700  0.79486100  1
  Cu  Cu31  1  0.64169300  0.34980300  0.70811000  1
  Cu  Cu32  1  0.47367400  0.67881300  0.83048400  1
  Cu  Cu33  1  0.34764500  0.35345800  0.20110300  1
  Cu  Cu34  1  0.85830700  0.56641700  0.70811000  1
  Cu  Cu35  1  0.84832900  0.67881300  0.20513900  1
  Cu  Cu36  1  0.35830700  0.65019700  0.29189000  1
  Cu  Cu37  1  0.76434000  0.42594600  0.30960300  1
  Cu  Cu38  1  0.14169300  0.43358300  0.29189000  1
  Cu  Cu39  1  0.38365600  0.04526300  0.30960300  1
  Cu  Cu40  1  0.35029300  0.05426100  0.70396800  1
  Cu  Cu41  1  0.65167100  0.85681000  0.83048400  1
  Cu  Cu42  1  0.84764500  0.64654200  0.99418700  1
  Cu  Cu43  1  0.42568200  0.50000000  0.92568200  1
  Cu  Cu44  1  0.64970700  0.94573900  0.29603200  1
  Cu  Cu45  1  0.57431800  0.50000000  0.07431800  1
  Cu  Cu46  1  0.11634400  0.42594600  0.66160600  1
  Cu  Cu47  1  0.34832900  0.14319000  0.16951600  1
  Cu  Cu48  1  0.15235500  0.35345800  0.00581300  1
  Cu  Cu49  1  0.65235500  0.64654200  0.79889700  1
  Cu  Cu50  1  0.85029300  0.14632400  0.29603200  1
  Cu  Cu51  1  0.92568200  0.00000000  0.92568200  1
  Cu  Cu52  1  0.52632600  0.32118700  0.16951600  1
  Cu  Cu53  1  0.14970700  0.85367600  0.70396800  1
  Cu  Cu54  1  0.02632600  0.85681000  0.20513900  1
  Cu  Cu55  1  0.97367400  0.14319000  0.79486100  1
  Cu  Cu56  1  0.61634400  0.95473700  0.69039700  1
  Cu  Cu57  1  0.26434000  0.95473700  0.33839400  1
  Cu  Cu58  1  0.07431800  0.00000000  0.07431800  1
  Cu  Cu59  1  0.23566000  0.57405400  0.69039700  1
