# generated using pymatgen
data_Cu9Ni2C5
_symmetry_space_group_name_H-M   'P 1'
_cell_length_a   8.10768400
_cell_length_b   17.33485500
_cell_length_c   36.82546200
_cell_angle_alpha   90.00000000
_cell_angle_beta   90.00000000
_cell_angle_gamma   90.00000000
_symmetry_Int_Tables_number   1
_chemical_formula_structural   Cu9Ni2C5
_chemical_formula_sum   'Cu72 Ni16 C40'
_cell_volume   5175.65394635
_cell_formula_units_Z   8
loop_
 _symmetry_equiv_pos_site_id
 _symmetry_equiv_pos_as_xyz
  1  'x, y, z'
loop_
 _atom_site_type_symbol
 _atom_site_label
 _atom_site_symmetry_multiplicity
 _atom_site_fract_x
 _atom_site_fract_y
 _atom_site_fract_z
 _atom_site_occupancy
  C  C0  1  0.98428400  0.80351400  0.60431400  1
  C  C1  1  0.87434200  0.56800900  0.36182400  1
  C  C2  1  0.51571600  0.19648600  0.10431400  1
  C  C3  1  0.98428400  0.69648600  0.10431400  1
  C  C4  1  0.87434200  0.93199100  0.86182400  1
  C  C5  1  0.12565800  0.06800900  0.13817600  1
  C  C6  1  0.59502200  0.67221500  0.29173500  1
  C  C7  1  0.89590100  0.80571600  0.34902600  1
  C  C8  1  0.10409900  0.19428400  0.65097400  1
  C  C9  1  0.89783300  0.80085600  0.94445700  1
  C  C10  1  0.10409900  0.30571600  0.15097400  1
  C  C11  1  0.12565800  0.43199100  0.63817600  1
  C  C12  1  0.10216700  0.19914400  0.05554300  1
  C  C13  1  0.60216700  0.19914400  0.44445700  1
  C  C14  1  0.59502200  0.82778500  0.79173500  1
  C  C15  1  0.37434200  0.56800900  0.13817600  1
  C  C16  1  0.39783300  0.80085600  0.55554300  1
  C  C17  1  0.40497800  0.32778500  0.70826500  1
  C  C18  1  0.39590100  0.80571600  0.15097400  1
  C  C19  1  0.90497800  0.32778500  0.79173500  1
  C  C20  1  0.62565800  0.43199100  0.86182400  1
  C  C21  1  0.89590100  0.69428400  0.84902600  1
  C  C22  1  0.39590100  0.69428400  0.65097400  1
  C  C23  1  0.60216700  0.30085600  0.94445700  1
  C  C24  1  0.01571600  0.19648600  0.39568600  1
  C  C25  1  0.48428400  0.80351400  0.89568600  1
  C  C26  1  0.89783300  0.69914400  0.44445700  1
  C  C27  1  0.01571600  0.30351400  0.89568600  1
  C  C28  1  0.09502200  0.82778500  0.70826500  1
  C  C29  1  0.62565800  0.06800900  0.36182400  1
  C  C30  1  0.40497800  0.17221500  0.20826500  1
  C  C31  1  0.39783300  0.69914400  0.05554300  1
  C  C32  1  0.37434200  0.93199100  0.63817600  1
  C  C33  1  0.10216700  0.30085600  0.55554300  1
  C  C34  1  0.09502200  0.67221500  0.20826500  1
  C  C35  1  0.60409900  0.19428400  0.84902600  1
  C  C36  1  0.90497800  0.17221500  0.29173500  1
  C  C37  1  0.51571600  0.30351400  0.60431400  1
  C  C38  1  0.60409900  0.30571600  0.34902600  1
  C  C39  1  0.48428400  0.69648600  0.39568600  1
  Ni  Ni40  1  0.78877800  0.80164100  0.88541500  1
  Ni  Ni41  1  0.21460800  0.68823800  0.15063700  1
  Ni  Ni42  1  0.28877800  0.80164100  0.61458500  1
  Ni  Ni43  1  0.28877800  0.69835900  0.11458500  1
  Ni  Ni44  1  0.21122200  0.30164100  0.61458500  1
  Ni  Ni45  1  0.21122200  0.19835900  0.11458500  1
  Ni  Ni46  1  0.28539200  0.18823800  0.15063700  1
  Ni  Ni47  1  0.21460800  0.81176200  0.65063700  1
  Ni  Ni48  1  0.78539200  0.31176200  0.84936300  1
  Ni  Ni49  1  0.71460800  0.81176200  0.84936300  1
  Ni  Ni50  1  0.71460800  0.68823800  0.34936300  1
  Ni  Ni51  1  0.78877800  0.69835900  0.38541500  1
  Ni  Ni52  1  0.78539200  0.18823800  0.34936300  1
  Ni  Ni53  1  0.71122200  0.19835900  0.38541500  1
  Ni  Ni54  1  0.71122200  0.30164100  0.88541500  1
  Ni  Ni55  1  0.28539200  0.31176200  0.65063700  1
  Cu  Cu56  1  0.35576200  0.33002100  0.41914600  1
  Cu  Cu57  1  0.32536100  0.42774400  0.92511800  1
  Cu  Cu58  1  0.33549100  0.04710900  0.05691100  1
  Cu  Cu59  1  0.14423800  0.83002100  0.41914600  1
  Cu  Cu60  1  0.02717000  0.87763200  0.14491600  1
  Cu  Cu61  1  0.91909600  0.29712100  0.46989300  1
  Cu  Cu62  1  0.61429100  0.44641100  0.77051500  1
  Cu  Cu63  1  0.08090400  0.79712100  0.03010700  1
  Cu  Cu64  1  0.78988600  0.18359300  0.17191700  1
  Cu  Cu65  1  0.85576200  0.33002100  0.08085400  1
  Cu  Cu66  1  0.71011400  0.68359300  0.17191700  1
  Cu  Cu67  1  0.58090400  0.70287900  0.96989300  1
  Cu  Cu68  1  0.28988600  0.31640700  0.82808300  1
  Cu  Cu69  1  0.35540400  0.80064900  0.23879600  1
  Cu  Cu70  1  0.17463900  0.92774400  0.92511800  1
  Cu  Cu71  1  0.66450900  0.95289100  0.94308900  1
  Cu  Cu72  1  0.16450900  0.95289100  0.55691100  1
  Cu  Cu73  1  0.61429100  0.05358900  0.27051500  1
  Cu  Cu74  1  0.38570900  0.94641100  0.72948500  1
  Cu  Cu75  1  0.11429100  0.44641100  0.72948500  1
  Cu  Cu76  1  0.64423800  0.66997900  0.58085400  1
  Cu  Cu77  1  0.33549100  0.45289100  0.55691100  1
  Cu  Cu78  1  0.88570900  0.94641100  0.77051500  1
  Cu  Cu79  1  0.82536100  0.07225600  0.07488200  1
  Cu  Cu80  1  0.21011400  0.81640700  0.82808300  1
  Cu  Cu81  1  0.52717000  0.62236800  0.85508400  1
  Cu  Cu82  1  0.35576200  0.16997900  0.91914600  1
  Cu  Cu83  1  0.49017600  0.99784200  0.16166100  1
  Cu  Cu84  1  0.64459600  0.30064900  0.26120400  1
  Cu  Cu85  1  0.21011400  0.68359300  0.32808300  1
  Cu  Cu86  1  0.83549100  0.04710900  0.44308900  1
  Cu  Cu87  1  0.28988600  0.18359300  0.32808300  1
  Cu  Cu88  1  0.64459600  0.19935100  0.76120400  1
  Cu  Cu89  1  0.85576200  0.16997900  0.58085400  1
  Cu  Cu90  1  0.14423800  0.66997900  0.91914600  1
  Cu  Cu91  1  0.17463900  0.57225600  0.42511800  1
  Cu  Cu92  1  0.91909600  0.20287900  0.96989300  1
  Cu  Cu93  1  0.83549100  0.45289100  0.94308900  1
  Cu  Cu94  1  0.35540400  0.69935100  0.73879600  1
  Cu  Cu95  1  0.41909600  0.29712100  0.03010700  1
  Cu  Cu96  1  0.49017600  0.50215800  0.66166100  1
  Cu  Cu97  1  0.02717000  0.62236800  0.64491600  1
  Cu  Cu98  1  0.16450900  0.54710900  0.05691100  1
  Cu  Cu99  1  0.99017600  0.99784200  0.33833900  1
  Cu  Cu100  1  0.47283000  0.37763200  0.14491600  1
  Cu  Cu101  1  0.00982400  0.00215800  0.66166100  1
  Cu  Cu102  1  0.82536100  0.42774400  0.57488200  1
  Cu  Cu103  1  0.85540400  0.69935100  0.76120400  1
  Cu  Cu104  1  0.50982400  0.49784200  0.33833900  1
  Cu  Cu105  1  0.71011400  0.81640700  0.67191700  1
  Cu  Cu106  1  0.52717000  0.87763200  0.35508400  1
  Cu  Cu107  1  0.67463900  0.92774400  0.57488200  1
  Cu  Cu108  1  0.58090400  0.79712100  0.46989300  1
  Cu  Cu109  1  0.41909600  0.20287900  0.53010700  1
  Cu  Cu110  1  0.50982400  0.00215800  0.83833900  1
  Cu  Cu111  1  0.47283000  0.12236800  0.64491600  1
  Cu  Cu112  1  0.85540400  0.80064900  0.26120400  1
  Cu  Cu113  1  0.32536100  0.07225600  0.42511800  1
  Cu  Cu114  1  0.97283000  0.12236800  0.85508400  1
  Cu  Cu115  1  0.99017600  0.50215800  0.83833900  1
  Cu  Cu116  1  0.08090400  0.70287900  0.53010700  1
  Cu  Cu117  1  0.97283000  0.37763200  0.35508400  1
  Cu  Cu118  1  0.78988600  0.31640700  0.67191700  1
  Cu  Cu119  1  0.00982400  0.49784200  0.16166100  1
  Cu  Cu120  1  0.14459600  0.19935100  0.73879600  1
  Cu  Cu121  1  0.38570900  0.55358900  0.22948500  1
  Cu  Cu122  1  0.64423800  0.83002100  0.08085400  1
  Cu  Cu123  1  0.88570900  0.55358900  0.27051500  1
  Cu  Cu124  1  0.14459600  0.30064900  0.23879600  1
  Cu  Cu125  1  0.11429100  0.05358900  0.22948500  1
  Cu  Cu126  1  0.67463900  0.57225600  0.07488200  1
  Cu  Cu127  1  0.66450900  0.54710900  0.44308900  1
