# generated using pymatgen
data_Cu2Ni4C17
_symmetry_space_group_name_H-M   'P 1'
_cell_length_a   5.35548900
_cell_length_b   14.36599000
_cell_length_c   14.59153500
_cell_angle_alpha   90.00000000
_cell_angle_beta   90.00000000
_cell_angle_gamma   90.00000000
_symmetry_Int_Tables_number   1
_chemical_formula_structural   Cu2Ni4C17
_chemical_formula_sum   'Cu8 Ni16 C68'
_cell_volume   1122.62748985
_cell_formula_units_Z   4
loop_
 _symmetry_equiv_pos_site_id
 _symmetry_equiv_pos_as_xyz
  1  'x, y, z'
loop_
 _atom_site_type_symbol
 _atom_site_label
 _atom_site_symmetry_multiplicity
 _atom_site_fract_x
 _atom_site_fract_y
 _atom_site_fract_z
 _atom_site_occupancy
  Ni  Ni0  1  0.80722900  0.94885300  0.21154200  1
  Ni  Ni1  1  0.17619700  0.42234100  0.91497800  1
  Ni  Ni2  1  0.78010700  0.30170200  0.83524200  1
  Ni  Ni3  1  0.21989300  0.69829800  0.33524200  1
  Ni  Ni4  1  0.82605100  0.67048300  0.62217900  1
  Ni  Ni5  1  0.69277100  0.44885300  0.21154200  1
  Ni  Ni6  1  0.17394900  0.32951700  0.12217900  1
  Ni  Ni7  1  0.30722900  0.55114700  0.71154200  1
  Ni  Ni8  1  0.67619700  0.07765900  0.41497800  1
  Ni  Ni9  1  0.32380300  0.92234100  0.91497800  1
  Ni  Ni10  1  0.82380300  0.57765900  0.41497800  1
  Ni  Ni11  1  0.28010700  0.19829800  0.33524200  1
  Ni  Ni12  1  0.71989300  0.80170200  0.83524200  1
  Ni  Ni13  1  0.19277100  0.05114700  0.71154200  1
  Ni  Ni14  1  0.67394900  0.17048300  0.62217900  1
  Ni  Ni15  1  0.32605100  0.82951700  0.12217900  1
  Cu  Cu16  1  0.69001900  0.33023200  0.42057300  1
  Cu  Cu17  1  0.80998100  0.83023200  0.42057300  1
  Cu  Cu18  1  0.34987800  0.07925900  0.12714900  1
  Cu  Cu19  1  0.19001900  0.16976800  0.92057300  1
  Cu  Cu20  1  0.15012200  0.57925900  0.12714900  1
  Cu  Cu21  1  0.65012200  0.92074100  0.62714900  1
  Cu  Cu22  1  0.84987800  0.42074100  0.62714900  1
  Cu  Cu23  1  0.30998100  0.66976800  0.92057300  1
  C  C24  1  0.35067400  0.52251300  0.50005800  1
  C  C25  1  0.29891000  0.94153400  0.32002400  1
  C  C26  1  0.32725300  0.72685100  0.54586700  1
  C  C27  1  0.70109000  0.05846600  0.82002400  1
  C  C28  1  0.14932600  0.02251300  0.50005800  1
  C  C29  1  0.64932600  0.47748700  0.00005800  1
  C  C30  1  0.67274700  0.27314900  0.04586700  1
  C  C31  1  0.17274700  0.22685100  0.54586700  1
  C  C32  1  0.82537300  0.19360600  0.22778500  1
  C  C33  1  0.82725300  0.77314900  0.04586700  1
  C  C34  1  0.20109000  0.44153400  0.32002400  1
  C  C35  1  0.67462700  0.69360600  0.22778500  1
  C  C36  1  0.79891000  0.55846600  0.82002400  1
  C  C37  1  0.17462700  0.80639400  0.72778500  1
  C  C38  1  0.32537300  0.30639400  0.72778500  1
  C  C39  1  0.85067400  0.97748700  0.00005800  1
  C  C40  1  0.88706800  0.14486200  0.84114200  1
  C  C41  1  0.48144000  0.62657500  0.52418900  1
  C  C42  1  0.56755800  0.77101200  0.98907100  1
  C  C43  1  0.79245600  0.96749800  0.88731700  1
  C  C44  1  0.68317500  0.72437200  0.33609900  1
  C  C45  1  0.31682500  0.27562800  0.83609900  1
  C  C46  1  0.20754400  0.03250200  0.38731700  1
  C  C47  1  0.70754400  0.46749800  0.88731700  1
  C  C48  1  0.11086100  0.17348800  0.19392900  1
  C  C49  1  0.63358600  0.10697100  0.21653900  1
  C  C50  1  0.75527500  0.53136700  0.71194200  1
  C  C51  1  0.96257200  0.30810400  0.53073400  1
  C  C52  1  0.43244200  0.22898800  0.48907100  1
  C  C53  1  0.93244200  0.27101200  0.98907100  1
  C  C54  1  0.59133600  0.92538400  0.34705500  1
  C  C55  1  0.07451700  0.05350200  0.01555000  1
  C  C56  1  0.92548300  0.94649800  0.51555000  1
  C  C57  1  0.09133600  0.57461600  0.84705500  1
  C  C58  1  0.72920000  0.28257300  0.15900000  1
  C  C59  1  0.06755800  0.72898800  0.48907100  1
  C  C60  1  0.38913900  0.67348800  0.19392900  1
  C  C61  1  0.46257200  0.19189600  0.03073400  1
  C  C62  1  0.57451700  0.44649800  0.51555000  1
  C  C63  1  0.24472500  0.46863300  0.21194200  1
  C  C64  1  0.59617500  0.98524800  0.05813400  1
  C  C65  1  0.01856000  0.12657500  0.52418900  1
  C  C66  1  0.88913900  0.82651200  0.69392900  1
  C  C67  1  0.42548300  0.55350200  0.01555000  1
  C  C68  1  0.90382500  0.48524800  0.05813400  1
  C  C69  1  0.11293200  0.85513800  0.34114200  1
  C  C70  1  0.36641400  0.89302900  0.71653900  1
  C  C71  1  0.40866400  0.07461600  0.84705500  1
  C  C72  1  0.27080000  0.71742700  0.65900000  1
  C  C73  1  0.90866400  0.42538400  0.34705500  1
  C  C74  1  0.09617500  0.51475200  0.55813400  1
  C  C75  1  0.61086100  0.32651200  0.69392900  1
  C  C76  1  0.74472500  0.03136700  0.71194200  1
  C  C77  1  0.18317500  0.77562800  0.83609900  1
  C  C78  1  0.77080000  0.78257300  0.15900000  1
  C  C79  1  0.22920000  0.21742700  0.65900000  1
  C  C80  1  0.38706800  0.35513800  0.34114200  1
  C  C81  1  0.25527500  0.96863300  0.21194200  1
  C  C82  1  0.81682500  0.22437200  0.33609900  1
  C  C83  1  0.86641400  0.60697100  0.21653900  1
  C  C84  1  0.98144000  0.87342500  0.02418900  1
  C  C85  1  0.13358600  0.39302900  0.71653900  1
  C  C86  1  0.53742800  0.80810400  0.53073400  1
  C  C87  1  0.03742800  0.69189600  0.03073400  1
  C  C88  1  0.40382500  0.01475200  0.55813400  1
  C  C89  1  0.61293200  0.64486200  0.84114200  1
  C  C90  1  0.51856000  0.37342500  0.02418900  1
  C  C91  1  0.29245600  0.53250200  0.38731700  1
