# generated using pymatgen
data_Cu3Ni3C14
_symmetry_space_group_name_H-M   'P 1'
_cell_length_a   9.34036400
_cell_length_b   9.34036400
_cell_length_c   22.76693200
_cell_angle_alpha   90.00000000
_cell_angle_beta   90.00000000
_cell_angle_gamma   90.00000000
_symmetry_Int_Tables_number   1
_chemical_formula_structural   Cu3Ni3C14
_chemical_formula_sum   'Cu12 Ni12 C56'
_cell_volume   1986.24178041
_cell_formula_units_Z   4
loop_
 _symmetry_equiv_pos_site_id
 _symmetry_equiv_pos_as_xyz
  1  'x, y, z'
loop_
 _atom_site_type_symbol
 _atom_site_label
 _atom_site_symmetry_multiplicity
 _atom_site_fract_x
 _atom_site_fract_y
 _atom_site_fract_z
 _atom_site_occupancy
  C  C0  1  0.31640800  0.81641800  0.35486100  1
  C  C1  1  0.31641800  0.81640800  0.85486100  1
  C  C2  1  0.30975100  0.69024900  0.50000000  1
  C  C3  1  0.18359200  0.68358200  0.14513900  1
  C  C4  1  0.18358200  0.68359200  0.64513900  1
  C  C5  1  0.31641800  0.18359200  0.85486100  1
  C  C6  1  0.50000000  0.50000000  0.60448700  1
  C  C7  1  0.50000000  0.30883100  0.73411400  1
  C  C8  1  0.80975100  0.80975100  0.00000000  1
  C  C9  1  0.80975100  0.19024900  0.00000000  1
  C  C10  1  0.68358200  0.81640800  0.85486100  1
  C  C11  1  0.81641800  0.68359200  0.64513900  1
  C  C12  1  0.19116900  0.00000000  0.23411400  1
  C  C13  1  0.00000000  0.31142800  0.28073300  1
  C  C14  1  0.00000000  0.50000000  0.53655300  1
  C  C15  1  0.19024900  0.19024900  0.00000000  1
  C  C16  1  0.00000000  0.50000000  0.03655300  1
  C  C17  1  0.19024900  0.80975100  0.00000000  1
  C  C18  1  0.00000000  0.80883100  0.76588600  1
  C  C19  1  0.00000000  0.00000000  0.10448700  1
  C  C20  1  0.18359200  0.31641800  0.14513900  1
  C  C21  1  0.00000000  0.19116900  0.76588600  1
  C  C22  1  0.68359200  0.81641800  0.35486100  1
  C  C23  1  0.69861300  0.50000000  0.94711200  1
  C  C24  1  0.81640800  0.31641800  0.14513900  1
  C  C25  1  0.18358200  0.31640800  0.64513900  1
  C  C26  1  0.68358200  0.18359200  0.85486100  1
  C  C27  1  0.31640800  0.18358200  0.35486100  1
  C  C28  1  0.30975100  0.30975100  0.50000000  1
  C  C29  1  0.68857200  0.00000000  0.71926700  1
  C  C30  1  0.81641800  0.31640800  0.64513900  1
  C  C31  1  0.69116900  0.50000000  0.26588600  1
  C  C32  1  0.50000000  0.18857200  0.21926700  1
  C  C33  1  0.30138700  0.50000000  0.94711200  1
  C  C34  1  0.18857200  0.50000000  0.78073300  1
  C  C35  1  0.00000000  0.68857200  0.28073300  1
  C  C36  1  0.50000000  0.00000000  0.46344700  1
  C  C37  1  0.69024900  0.30975100  0.50000000  1
  C  C38  1  0.00000000  0.80138700  0.44711200  1
  C  C39  1  0.19861300  0.00000000  0.55288800  1
  C  C40  1  0.50000000  0.69861300  0.05288800  1
  C  C41  1  0.50000000  0.81142800  0.21926700  1
  C  C42  1  0.00000000  0.19861300  0.44711200  1
  C  C43  1  0.00000000  0.00000000  0.89551300  1
  C  C44  1  0.50000000  0.69116900  0.73411400  1
  C  C45  1  0.80138700  0.00000000  0.55288800  1
  C  C46  1  0.50000000  0.50000000  0.39551300  1
  C  C47  1  0.81142800  0.50000000  0.78073300  1
  C  C48  1  0.50000000  0.30138700  0.05288800  1
  C  C49  1  0.68359200  0.18358200  0.35486100  1
  C  C50  1  0.30883100  0.50000000  0.26588600  1
  C  C51  1  0.80883100  0.00000000  0.23411400  1
  C  C52  1  0.69024900  0.69024900  0.50000000  1
  C  C53  1  0.50000000  0.00000000  0.96344700  1
  C  C54  1  0.31142800  0.00000000  0.71926700  1
  C  C55  1  0.81640800  0.68358200  0.14513900  1
  Ni  Ni56  1  0.00000000  0.00000000  0.65653500  1
  Ni  Ni57  1  0.50000000  0.50000000  0.84346500  1
  Ni  Ni58  1  0.50000000  0.50000000  0.15653500  1
  Ni  Ni59  1  0.50000000  0.83980000  0.60468100  1
  Ni  Ni60  1  0.16020000  0.50000000  0.39531900  1
  Ni  Ni61  1  0.66020000  0.00000000  0.10468100  1
  Ni  Ni62  1  0.00000000  0.00000000  0.34346500  1
  Ni  Ni63  1  0.33980000  0.00000000  0.10468100  1
  Ni  Ni64  1  0.50000000  0.16020000  0.60468100  1
  Ni  Ni65  1  0.00000000  0.33980000  0.89531900  1
  Ni  Ni66  1  0.83980000  0.50000000  0.39531900  1
  Ni  Ni67  1  0.00000000  0.66020000  0.89531900  1
  Cu  Cu68  1  0.00000000  0.21875700  0.56194000  1
  Cu  Cu69  1  0.50000000  0.00000000  0.80122600  1
  Cu  Cu70  1  0.28124300  0.50000000  0.06194000  1
  Cu  Cu71  1  0.50000000  0.28124300  0.93806000  1
  Cu  Cu72  1  0.00000000  0.78124300  0.56194000  1
  Cu  Cu73  1  0.71875700  0.50000000  0.06194000  1
  Cu  Cu74  1  0.50000000  0.00000000  0.30122600  1
  Cu  Cu75  1  0.50000000  0.71875700  0.93806000  1
  Cu  Cu76  1  0.78124300  0.00000000  0.43806000  1
  Cu  Cu77  1  0.00000000  0.50000000  0.19877400  1
  Cu  Cu78  1  0.21875700  0.00000000  0.43806000  1
  Cu  Cu79  1  0.00000000  0.50000000  0.69877400  1
