# generated using pymatgen
data_Cu4Ni5
_symmetry_space_group_name_H-M   'P 1'
_cell_length_a   7.40912998
_cell_length_b   7.40912998
_cell_length_c   10.30908914
_cell_angle_alpha   89.71652606
_cell_angle_beta   89.71652606
_cell_angle_gamma   59.94268138
_symmetry_Int_Tables_number   1
_chemical_formula_structural   Cu4Ni5
_chemical_formula_sum   'Cu12 Ni15'
_cell_volume   489.80942857
_cell_formula_units_Z   3
loop_
 _symmetry_equiv_pos_site_id
 _symmetry_equiv_pos_as_xyz
  1  'x, y, z'
loop_
 _atom_site_type_symbol
 _atom_site_label
 _atom_site_symmetry_multiplicity
 _atom_site_fract_x
 _atom_site_fract_y
 _atom_site_fract_z
 _atom_site_occupancy
  Ni  Ni0  1  0.67847700  0.32152300  0.00000000  1
  Ni  Ni1  1  0.02067700  0.99634300  0.37685000  1
  Ni  Ni2  1  0.00365700  0.97932300  0.62315000  1
  Ni  Ni3  1  0.00384900  0.01140500  0.12576600  1
  Ni  Ni4  1  0.98859500  0.99615100  0.87423400  1
  Ni  Ni5  1  0.02761400  0.31430200  0.25021800  1
  Ni  Ni6  1  0.68569800  0.97238600  0.74978200  1
  Ni  Ni7  1  0.33904900  0.31324900  0.37721600  1
  Ni  Ni8  1  0.68675100  0.66095100  0.62278400  1
  Ni  Ni9  1  0.35382100  0.31400500  0.12579100  1
  Ni  Ni10  1  0.68599500  0.64617900  0.87420900  1
  Ni  Ni11  1  0.70216500  0.61910700  0.12578300  1
  Ni  Ni12  1  0.38089300  0.29783500  0.87421700  1
  Ni  Ni13  1  0.70477200  0.63238600  0.37652400  1
  Ni  Ni14  1  0.36761400  0.29522800  0.62347600  1
  Cu  Cu15  1  0.32180400  0.67819600  0.00000000  1
  Cu  Cu16  1  0.34801100  0.65198900  0.50000000  1
  Cu  Cu17  1  0.37718400  0.94927500  0.24925400  1
  Cu  Cu18  1  0.05072500  0.62281600  0.75074600  1
  Cu  Cu19  1  0.68608300  0.95611600  0.01884000  1
  Cu  Cu20  1  0.04388400  0.31391700  0.98116000  1
  Cu  Cu21  1  0.68712500  0.97545300  0.48051900  1
  Cu  Cu22  1  0.02454700  0.31287500  0.51948100  1
  Cu  Cu23  1  0.66139100  0.32096400  0.26844000  1
  Cu  Cu24  1  0.67903600  0.33860900  0.73156000  1
  Cu  Cu25  1  0.02941400  0.67113100  0.24936700  1
  Cu  Cu26  1  0.32886900  0.97058600  0.75063300  1
