# generated using pymatgen
data_Cu2NiC5
_symmetry_space_group_name_H-M   'P 1'
_cell_length_a   9.54454082
_cell_length_b   9.54454082
_cell_length_c   9.54454082
_cell_angle_alpha   127.41212058
_cell_angle_beta   127.41212058
_cell_angle_gamma   77.57932398
_symmetry_Int_Tables_number   1
_chemical_formula_structural   Cu2NiC5
_chemical_formula_sum   'Cu4 Ni2 C10'
_cell_volume   531.95518468
_cell_formula_units_Z   2
loop_
 _symmetry_equiv_pos_site_id
 _symmetry_equiv_pos_as_xyz
  1  'x, y, z'
loop_
 _atom_site_type_symbol
 _atom_site_label
 _atom_site_symmetry_multiplicity
 _atom_site_fract_x
 _atom_site_fract_y
 _atom_site_fract_z
 _atom_site_occupancy
  Ni  Ni0  1  0.25000000  0.25000000  0.00000000  1
  Ni  Ni1  1  0.75000000  0.75000000  0.00000000  1
  Cu  Cu2  1  0.82439600  0.67560400  0.50000000  1
  Cu  Cu3  1  0.32439600  0.82439500  0.14879100  1
  Cu  Cu4  1  0.67560400  0.17560400  0.85120900  1
  Cu  Cu5  1  0.17560400  0.32439600  0.50000000  1
  C  C6  1  0.20378400  0.02693300  0.50000000  1
  C  C7  1  0.70378400  0.20378400  0.17685100  1
  C  C8  1  0.50000000  0.50000000  0.00000000  1
  C  C9  1  0.02693300  0.52693300  0.82314900  1
  C  C10  1  0.79621600  0.97306700  0.50000000  1
  C  C11  1  0.52693300  0.70378400  0.50000000  1
  C  C12  1  0.29621600  0.79621600  0.82314900  1
  C  C13  1  0.97306700  0.47306700  0.17685100  1
  C  C14  1  0.00000000  0.00000000  0.00000000  1
  C  C15  1  0.47306700  0.29621600  0.50000000  1
