# generated using pymatgen
data_CuNiC6
_symmetry_space_group_name_H-M   'P 1'
_cell_length_a   16.50851100
_cell_length_b   8.58904800
_cell_length_c   15.97295438
_cell_angle_alpha   79.42075859
_cell_angle_beta   90.00000000
_cell_angle_gamma   90.00000000
_symmetry_Int_Tables_number   1
_chemical_formula_structural   CuNiC6
_chemical_formula_sum   'Cu16 Ni16 C96'
_cell_volume   2226.34546619
_cell_formula_units_Z   16
loop_
 _symmetry_equiv_pos_site_id
 _symmetry_equiv_pos_as_xyz
  1  'x, y, z'
loop_
 _atom_site_type_symbol
 _atom_site_label
 _atom_site_symmetry_multiplicity
 _atom_site_fract_x
 _atom_site_fract_y
 _atom_site_fract_z
 _atom_site_occupancy
  C  C0  1  0.75503900  0.05866100  0.74442700  1
  C  C1  1  0.74496100  0.05866100  0.24442700  1
  C  C2  1  0.02239500  0.39016600  0.29497400  1
  C  C3  1  0.24496100  0.94133900  0.25557300  1
  C  C4  1  0.16808100  0.37260800  0.97012000  1
  C  C5  1  0.21523500  0.47561300  0.67906100  1
  C  C6  1  0.83191900  0.62739200  0.02988000  1
  C  C7  1  0.28476500  0.47561300  0.17906100  1
  C  C8  1  0.66808100  0.62739200  0.52988000  1
  C  C9  1  0.33191900  0.37260800  0.47012000  1
  C  C10  1  0.97760500  0.60983400  0.70502600  1
  C  C11  1  0.47760500  0.39016600  0.79497400  1
  C  C12  1  0.52239500  0.60983400  0.20502600  1
  C  C13  1  0.25503900  0.94133900  0.75557300  1
  C  C14  1  0.78476500  0.52438700  0.32093900  1
  C  C15  1  0.71523500  0.52438700  0.82093900  1
  Ni  Ni16  1  0.99364900  0.95475600  0.13635300  1
  Ni  Ni17  1  0.89078500  0.13651700  0.99326000  1
  Ni  Ni18  1  0.10921500  0.86348300  0.00674000  1
  Ni  Ni19  1  0.60921500  0.13651700  0.49326000  1
  Ni  Ni20  1  0.87129900  0.04193900  0.49342300  1
  Ni  Ni21  1  0.12870100  0.95806100  0.50657700  1
  Ni  Ni22  1  0.37129900  0.95806100  0.00657700  1
  Ni  Ni23  1  0.01398400  0.19033000  0.56838600  1
  Ni  Ni24  1  0.62870100  0.04193900  0.99342300  1
  Ni  Ni25  1  0.51398400  0.80967000  0.93161400  1
  Ni  Ni26  1  0.98601600  0.80967000  0.43161400  1
  Ni  Ni27  1  0.50635100  0.95475600  0.63635300  1
  Ni  Ni28  1  0.39078500  0.86348300  0.50674000  1
  Ni  Ni29  1  0.49364900  0.04524400  0.36364700  1
  Ni  Ni30  1  0.00635100  0.04524400  0.86364700  1
  Ni  Ni31  1  0.48601600  0.19033000  0.06838600  1
  Cu  Cu32  1  0.41242000  0.09102100  0.04631600  1
  Cu  Cu33  1  0.43523500  0.88351200  0.59064000  1
  Cu  Cu34  1  0.58758000  0.90897900  0.95368400  1
  Cu  Cu35  1  0.07247600  0.85311800  0.46058000  1
  Cu  Cu36  1  0.57247600  0.14688200  0.03942000  1
  Cu  Cu37  1  0.42898700  0.94377600  0.42032900  1
  Cu  Cu38  1  0.07101300  0.94377600  0.92032900  1
  Cu  Cu39  1  0.06476500  0.88351200  0.09064000  1
  Cu  Cu40  1  0.91242000  0.90897900  0.45368400  1
  Cu  Cu41  1  0.57101300  0.05622400  0.57967100  1
  Cu  Cu42  1  0.93523500  0.11648800  0.90936000  1
  Cu  Cu43  1  0.92898700  0.05622400  0.07967100  1
  Cu  Cu44  1  0.92752400  0.14688200  0.53942000  1
  Cu  Cu45  1  0.56476500  0.11648800  0.40936000  1
  Cu  Cu46  1  0.08758000  0.09102100  0.54631600  1
  Cu  Cu47  1  0.42752400  0.85311800  0.96058000  1
  C  C48  1  0.47817300  0.60357200  0.73437100  1
  C  C49  1  0.86165800  0.63934100  0.14475200  1
  C  C50  1  0.52182700  0.39642800  0.26562900  1
  C  C51  1  0.02182700  0.60357200  0.23437100  1
  C  C52  1  0.75448700  0.83439700  0.24643500  1
  C  C53  1  0.74335800  0.49147700  0.06523200  1
  C  C54  1  0.23583500  0.19062000  0.97645200  1
  C  C55  1  0.13834200  0.36065900  0.85524800  1
  C  C56  1  0.25448700  0.16560300  0.25356500  1
  C  C57  1  0.69311200  0.62222500  0.40781700  1
  C  C58  1  0.13954400  0.93348500  0.74351900  1
  C  C59  1  0.24335800  0.50852300  0.43476800  1
  C  C60  1  0.36045600  0.93348500  0.24351900  1
  C  C61  1  0.01451500  0.17974300  0.36239300  1
  C  C62  1  0.80688800  0.62222500  0.90781700  1
  C  C63  1  0.52271800  0.53595200  0.09895900  1
  C  C64  1  0.36103300  0.36352600  0.11961900  1
  C  C65  1  0.26416500  0.19062000  0.47645200  1
  C  C66  1  0.63766200  0.61804200  0.20812500  1
  C  C67  1  0.74551300  0.83439700  0.74643500  1
  C  C68  1  0.40140200  0.60245100  0.20384800  1
  C  C69  1  0.23339000  0.97964200  0.13410300  1
  C  C70  1  0.36233800  0.38195800  0.79187500  1
  C  C71  1  0.48640600  0.30522900  0.69354100  1
  C  C72  1  0.26661000  0.97964200  0.63410300  1
  C  C73  1  0.98640600  0.69477100  0.80645900  1
  C  C74  1  0.23774400  0.71638600  0.25646300  1
  C  C75  1  0.72101100  0.34442600  0.91406400  1
  C  C76  1  0.13766200  0.38195800  0.29187500  1
  C  C77  1  0.97728200  0.53595200  0.59895900  1
  C  C78  1  0.62936400  0.04735700  0.23272200  1
  C  C79  1  0.86103300  0.63647400  0.38038100  1
  C  C80  1  0.37063600  0.95264300  0.76727800  1
  C  C81  1  0.12936400  0.95264300  0.26727800  1
  C  C82  1  0.36165800  0.36065900  0.35524800  1
  C  C83  1  0.24572000  0.90094200  0.87753200  1
  C  C84  1  0.09779000  0.54862500  0.97201700  1
  C  C85  1  0.90140200  0.39754900  0.29615200  1
  C  C86  1  0.22101100  0.65557400  0.58593600  1
  C  C87  1  0.01359400  0.30522900  0.19354100  1
  C  C88  1  0.77898900  0.34442600  0.41406400  1
  C  C89  1  0.87063600  0.04735700  0.73272200  1
  C  C90  1  0.08006500  0.23078100  0.01047000  1
  C  C91  1  0.51451500  0.82025700  0.13760700  1
  C  C92  1  0.98548500  0.82025700  0.63760700  1
  C  C93  1  0.41993500  0.23078100  0.51047000  1
  C  C94  1  0.26225600  0.71638600  0.75646300  1
  C  C95  1  0.76416500  0.80938000  0.02354800  1
  C  C96  1  0.75428000  0.09905800  0.12246800  1
  C  C97  1  0.63954400  0.06651500  0.75648100  1
  C  C98  1  0.76661000  0.02035800  0.86589700  1
  C  C99  1  0.86233800  0.61804200  0.70812500  1
  C  C100  1  0.02271800  0.46404800  0.40104100  1
  C  C101  1  0.19311200  0.37777500  0.09218300  1
  C  C102  1  0.25428000  0.90094200  0.37753200  1
  C  C103  1  0.25664200  0.50852300  0.93476800  1
  C  C104  1  0.59779000  0.45137500  0.52798300  1
  C  C105  1  0.91993500  0.76921900  0.98953000  1
  C  C106  1  0.63834200  0.63934100  0.64475200  1
  C  C107  1  0.90221000  0.45137500  0.02798300  1
  C  C108  1  0.24551300  0.16560300  0.75356500  1
  C  C109  1  0.27898900  0.65557400  0.08593600  1
  C  C110  1  0.13896700  0.36352600  0.61961900  1
  C  C111  1  0.40221000  0.54862500  0.47201700  1
  C  C112  1  0.30688800  0.37777500  0.59218300  1
  C  C113  1  0.48548500  0.17974300  0.86239300  1
  C  C114  1  0.47728200  0.46404800  0.90104100  1
  C  C115  1  0.76225600  0.28361400  0.74353700  1
  C  C116  1  0.59859800  0.39754900  0.79615200  1
  C  C117  1  0.63896700  0.63647400  0.88038100  1
  C  C118  1  0.75664200  0.49147700  0.56523200  1
  C  C119  1  0.73774400  0.28361400  0.24353700  1
  C  C120  1  0.09859800  0.60245100  0.70384800  1
  C  C121  1  0.51359400  0.69477100  0.30645900  1
  C  C122  1  0.73583500  0.80938000  0.52354800  1
  C  C123  1  0.97817300  0.39642800  0.76562900  1
  C  C124  1  0.58006500  0.76921900  0.48953000  1
  C  C125  1  0.73339000  0.02035800  0.36589700  1
  C  C126  1  0.74572000  0.09905800  0.62246800  1
  C  C127  1  0.86045600  0.06651500  0.25648100  1
