# generated using pymatgen
data_Cu(Ni3C5)2
_symmetry_space_group_name_H-M   'P 1'
_cell_length_a   10.71303800
_cell_length_b   17.64165200
_cell_length_c   27.59123800
_cell_angle_alpha   90.00000000
_cell_angle_beta   90.00000000
_cell_angle_gamma   90.00000000
_symmetry_Int_Tables_number   1
_chemical_formula_structural   Cu(Ni3C5)2
_chemical_formula_sum   'Cu8 Ni48 C80'
_cell_volume   5214.62501572
_cell_formula_units_Z   8
loop_
 _symmetry_equiv_pos_site_id
 _symmetry_equiv_pos_as_xyz
  1  'x, y, z'
loop_
 _atom_site_type_symbol
 _atom_site_label
 _atom_site_symmetry_multiplicity
 _atom_site_fract_x
 _atom_site_fract_y
 _atom_site_fract_z
 _atom_site_occupancy
  Ni  Ni0  1  0.32598600  0.44090800  0.43724600  1
  Ni  Ni1  1  0.11020500  0.33530800  0.75000000  1
  Ni  Ni2  1  0.79987200  0.08520200  0.75000000  1
  Ni  Ni3  1  0.67401400  0.55909200  0.56275400  1
  Ni  Ni4  1  0.61386000  0.35461400  0.18097300  1
  Ni  Ni5  1  0.38614000  0.64538600  0.81902700  1
  Ni  Ni6  1  0.12606900  0.92883600  0.92514700  1
  Ni  Ni7  1  0.20012800  0.91479800  0.25000000  1
  Ni  Ni8  1  0.15357800  0.12498000  0.50985300  1
  Ni  Ni9  1  0.70012800  0.58520200  0.75000000  1
  Ni  Ni10  1  0.17401400  0.94090800  0.06275400  1
  Ni  Ni11  1  0.32598600  0.44090800  0.06275400  1
  Ni  Ni12  1  0.18759700  0.72441200  0.31942400  1
  Ni  Ni13  1  0.18759700  0.72441200  0.18057600  1
  Ni  Ni14  1  0.82598600  0.05909200  0.93724600  1
  Ni  Ni15  1  0.15357800  0.12498000  0.99014700  1
  Ni  Ni16  1  0.12606900  0.92883600  0.57485300  1
  Ni  Ni17  1  0.38614000  0.64538600  0.68097300  1
  Ni  Ni18  1  0.67401400  0.55909200  0.93724600  1
  Ni  Ni19  1  0.82598600  0.05909200  0.56275400  1
  Ni  Ni20  1  0.65357800  0.37502000  0.49014700  1
  Ni  Ni21  1  0.84642200  0.87502000  0.00985300  1
  Ni  Ni22  1  0.88614000  0.85461400  0.18097300  1
  Ni  Ni23  1  0.88979500  0.66469200  0.25000000  1
  Ni  Ni24  1  0.87393100  0.07116400  0.07485300  1
  Ni  Ni25  1  0.38979500  0.83530800  0.75000000  1
  Ni  Ni26  1  0.68759700  0.77558800  0.81942400  1
  Ni  Ni27  1  0.37393100  0.42883600  0.57485300  1
  Ni  Ni28  1  0.81240300  0.27558800  0.68057600  1
  Ni  Ni29  1  0.17401400  0.94090800  0.43724600  1
  Ni  Ni30  1  0.31240300  0.22441200  0.31942400  1
  Ni  Ni31  1  0.11386000  0.14538600  0.68097300  1
  Ni  Ni32  1  0.65357800  0.37502000  0.00985300  1
  Ni  Ni33  1  0.87393100  0.07116400  0.42514700  1
  Ni  Ni34  1  0.84642200  0.87502000  0.49014700  1
  Ni  Ni35  1  0.34642200  0.62498000  0.99014700  1
  Ni  Ni36  1  0.88614000  0.85461400  0.31902700  1
  Ni  Ni37  1  0.61386000  0.35461400  0.31902700  1
  Ni  Ni38  1  0.34642200  0.62498000  0.50985300  1
  Ni  Ni39  1  0.61020500  0.16469200  0.25000000  1
  Ni  Ni40  1  0.31240300  0.22441200  0.18057600  1
  Ni  Ni41  1  0.29987200  0.41479800  0.25000000  1
  Ni  Ni42  1  0.62606900  0.57116400  0.07485300  1
  Ni  Ni43  1  0.11386000  0.14538600  0.81902700  1
  Ni  Ni44  1  0.62606900  0.57116400  0.42514700  1
  Ni  Ni45  1  0.81240300  0.27558800  0.81942400  1
  Ni  Ni46  1  0.37393100  0.42883600  0.92514700  1
  Ni  Ni47  1  0.68759700  0.77558800  0.68057600  1
  Cu  Cu48  1  0.45801600  0.29247900  0.25000000  1
  Cu  Cu49  1  0.04198400  0.79247900  0.25000000  1
  Cu  Cu50  1  0.50000000  0.50000000  0.50000000  1
  Cu  Cu51  1  0.50000000  0.50000000  0.00000000  1
  Cu  Cu52  1  0.00000000  0.00000000  0.00000000  1
  Cu  Cu53  1  0.95801600  0.20752100  0.75000000  1
  Cu  Cu54  1  0.54198400  0.70752100  0.75000000  1
  Cu  Cu55  1  0.00000000  0.00000000  0.50000000  1
  C  C56  1  0.77893800  0.22904500  0.17444800  1
  C  C57  1  0.96453000  0.79542500  0.92911000  1
  C  C58  1  0.46915000  0.29518000  0.09051500  1
  C  C59  1  0.35812500  0.86062000  0.17670600  1
  C  C60  1  0.46453000  0.70457500  0.42911000  1
  C  C61  1  0.30059100  0.05562500  0.58825900  1
  C  C62  1  0.96067800  0.41169900  0.82279800  1
  C  C63  1  0.46067800  0.08830100  0.32279800  1
  C  C64  1  0.22106200  0.77095500  0.82555200  1
  C  C65  1  0.30317000  0.85603500  0.51200600  1
  C  C66  1  0.84007900  0.42943400  0.55414500  1
  C  C67  1  0.65992100  0.92943400  0.55414500  1
  C  C68  1  0.34007900  0.07056600  0.05414500  1
  C  C69  1  0.45222300  0.49885900  0.15670900  1
  C  C70  1  0.85812500  0.63938000  0.82329400  1
  C  C71  1  0.96915000  0.20482000  0.90948500  1
  C  C72  1  0.45222300  0.49885900  0.34329100  1
  C  C73  1  0.19940900  0.55562500  0.58825900  1
  C  C74  1  0.03085000  0.79518000  0.09051500  1
  C  C75  1  0.46067800  0.08830100  0.17720200  1
  C  C76  1  0.19683000  0.35603500  0.51200600  1
  C  C77  1  0.19683000  0.35603500  0.98799400  1
  C  C78  1  0.19940900  0.55562500  0.91174100  1
  C  C79  1  0.96915000  0.20482000  0.59051500  1
  C  C80  1  0.85812500  0.63938000  0.67670600  1
  C  C81  1  0.80059100  0.44437500  0.41174100  1
  C  C82  1  0.35812500  0.86062000  0.32329400  1
  C  C83  1  0.73711300  0.93946400  0.25000000  1
  C  C84  1  0.72106200  0.72904500  0.17444800  1
  C  C85  1  0.65992100  0.92943400  0.94585500  1
  C  C86  1  0.53932200  0.91169900  0.82279800  1
  C  C87  1  0.80317000  0.64396500  0.01200600  1
  C  C88  1  0.84007900  0.42943400  0.94585500  1
  C  C89  1  0.03932200  0.58830100  0.32279800  1
  C  C90  1  0.30317000  0.85603500  0.98799400  1
  C  C91  1  0.22106200  0.77095500  0.67444800  1
  C  C92  1  0.04777700  0.99885900  0.15670900  1
  C  C93  1  0.14187500  0.36062000  0.32329400  1
  C  C94  1  0.53932200  0.91169900  0.67720200  1
  C  C95  1  0.96067800  0.41169900  0.67720200  1
  C  C96  1  0.69940900  0.94437500  0.08825900  1
  C  C97  1  0.96453000  0.79542500  0.57089000  1
  C  C98  1  0.76288700  0.43946400  0.25000000  1
  C  C99  1  0.14187500  0.36062000  0.17670600  1
  C  C100  1  0.15992100  0.57056600  0.05414500  1
  C  C101  1  0.64339200  0.34179600  0.75000000  1
  C  C102  1  0.03932200  0.58830100  0.17720200  1
  C  C103  1  0.54777700  0.50114100  0.84329100  1
  C  C104  1  0.85660800  0.84179600  0.75000000  1
  C  C105  1  0.77893800  0.22904500  0.32555200  1
  C  C106  1  0.14339200  0.15820400  0.25000000  1
  C  C107  1  0.72106200  0.72904500  0.32555200  1
  C  C108  1  0.80059100  0.44437500  0.08825900  1
  C  C109  1  0.46915000  0.29518000  0.40948500  1
  C  C110  1  0.80317000  0.64396500  0.48799400  1
  C  C111  1  0.53547000  0.29542500  0.92911000  1
  C  C112  1  0.53085000  0.70482000  0.59051500  1
  C  C113  1  0.95222300  0.00114100  0.84329100  1
  C  C114  1  0.64187500  0.13938000  0.82329400  1
  C  C115  1  0.69683000  0.14396500  0.48799400  1
  C  C116  1  0.64187500  0.13938000  0.67670600  1
  C  C117  1  0.27893800  0.27095500  0.67444800  1
  C  C118  1  0.04777700  0.99885900  0.34329100  1
  C  C119  1  0.27893800  0.27095500  0.82555200  1
  C  C120  1  0.26288700  0.06053600  0.75000000  1
  C  C121  1  0.95222300  0.00114100  0.65670900  1
  C  C122  1  0.30059100  0.05562500  0.91174100  1
  C  C123  1  0.53085000  0.70482000  0.90948500  1
  C  C124  1  0.03547000  0.20457500  0.42911000  1
  C  C125  1  0.03085000  0.79518000  0.40948500  1
  C  C126  1  0.53547000  0.29542500  0.57089000  1
  C  C127  1  0.34007900  0.07056600  0.44585500  1
  C  C128  1  0.15992100  0.57056600  0.44585500  1
  C  C129  1  0.69683000  0.14396500  0.01200600  1
  C  C130  1  0.69940900  0.94437500  0.41174100  1
  C  C131  1  0.46453000  0.70457500  0.07089000  1
  C  C132  1  0.54777700  0.50114100  0.65670900  1
  C  C133  1  0.35660800  0.65820400  0.25000000  1
  C  C134  1  0.03547000  0.20457500  0.07089000  1
  C  C135  1  0.23711300  0.56053600  0.75000000  1
