# generated using pymatgen
data_Cu3Ni2C3
_symmetry_space_group_name_H-M   'P 1'
_cell_length_a   9.33677768
_cell_length_b   9.33677768
_cell_length_c   9.33677768
_cell_angle_alpha   105.55989501
_cell_angle_beta   105.55989501
_cell_angle_gamma   117.61375992
_symmetry_Int_Tables_number   1
_chemical_formula_structural   Cu3Ni2C3
_chemical_formula_sum   'Cu12 Ni8 C12'
_cell_volume   616.95386610
_cell_formula_units_Z   4
loop_
 _symmetry_equiv_pos_site_id
 _symmetry_equiv_pos_as_xyz
  1  'x, y, z'
loop_
 _atom_site_type_symbol
 _atom_site_label
 _atom_site_symmetry_multiplicity
 _atom_site_fract_x
 _atom_site_fract_y
 _atom_site_fract_z
 _atom_site_occupancy
  C  C0  1  0.51907900  0.68866700  0.66755700  1
  C  C1  1  0.31133300  0.97889000  0.83041200  1
  C  C2  1  0.68866700  0.02111000  0.16958800  1
  C  C3  1  0.02111000  0.85152200  0.33244300  1
  C  C4  1  0.85152200  0.51907900  0.83041200  1
  C  C5  1  0.14847800  0.48092100  0.16958800  1
  C  C6  1  0.48092100  0.31133300  0.33244300  1
  C  C7  1  0.97889000  0.14847800  0.66755700  1
  C  C8  1  0.31794900  0.59654300  0.91449200  1
  C  C9  1  0.40345700  0.31794900  0.72140600  1
  C  C10  1  0.59654300  0.68205100  0.27859400  1
  C  C11  1  0.68205100  0.40345700  0.08550800  1
  Ni  Ni12  1  0.74489900  0.09639300  0.84129200  1
  Ni  Ni13  1  0.20101900  0.20101900  0.00000000  1
  Ni  Ni14  1  0.90360700  0.74489900  0.64850600  1
  Ni  Ni15  1  0.79898100  0.79898100  0.00000000  1
  Ni  Ni16  1  0.09639300  0.25510100  0.35149400  1
  Ni  Ni17  1  0.25000000  0.75000000  0.50000000  1
  Ni  Ni18  1  0.25510100  0.90360700  0.15870800  1
  Ni  Ni19  1  0.75000000  0.25000000  0.50000000  1
  Cu  Cu20  1  0.33589200  0.44968600  0.78557800  1
  Cu  Cu21  1  0.89064700  0.51645100  0.11565700  1
  Cu  Cu22  1  0.40079400  0.77499100  0.88434300  1
  Cu  Cu23  1  0.66410800  0.55031400  0.21442200  1
  Cu  Cu24  1  0.22500900  0.10935300  0.62580400  1
  Cu  Cu25  1  0.10935300  0.48354900  0.88434300  1
  Cu  Cu26  1  0.77499100  0.89064700  0.37419600  1
  Cu  Cu27  1  0.48354900  0.59920600  0.37419600  1
  Cu  Cu28  1  0.51645100  0.40079400  0.62580400  1
  Cu  Cu29  1  0.55031400  0.33589200  0.88620500  1
  Cu  Cu30  1  0.44968600  0.66410800  0.11379500  1
  Cu  Cu31  1  0.59920600  0.22500900  0.11565700  1
