# generated using pymatgen
data_Cu24Ni2C51
_symmetry_space_group_name_H-M   'P 1'
_cell_length_a   3.64465700
_cell_length_b   3.65864800
_cell_length_c   69.04576900
_cell_angle_alpha   90.00000000
_cell_angle_beta   90.00000000
_cell_angle_gamma   90.00000000
_symmetry_Int_Tables_number   1
_chemical_formula_structural   Cu24Ni2C51
_chemical_formula_sum   'Cu24 Ni2 C51'
_cell_volume   920.69198353
_cell_formula_units_Z   1
loop_
 _symmetry_equiv_pos_site_id
 _symmetry_equiv_pos_as_xyz
  1  'x, y, z'
loop_
 _atom_site_type_symbol
 _atom_site_label
 _atom_site_symmetry_multiplicity
 _atom_site_fract_x
 _atom_site_fract_y
 _atom_site_fract_z
 _atom_site_occupancy
  Ni  Ni0  1  0.50000000  0.00000000  0.01496500  1
  Ni  Ni1  1  0.00000000  0.50000000  0.05994100  1
  Cu  Cu2  1  0.50000000  0.00000000  0.94126800  1
  Cu  Cu3  1  0.50000000  0.00000000  0.86569700  1
  Cu  Cu4  1  0.50000000  0.00000000  0.78896600  1
  Cu  Cu5  1  0.50000000  0.00000000  0.71185100  1
  Cu  Cu6  1  0.50000000  0.00000000  0.63474200  1
  Cu  Cu7  1  0.50000000  0.00000000  0.55772400  1
  Cu  Cu8  1  0.50000000  0.00000000  0.48076500  1
  Cu  Cu9  1  0.50000000  0.00000000  0.40384000  1
  Cu  Cu10  1  0.50000000  0.00000000  0.32695600  1
  Cu  Cu11  1  0.50000000  0.00000000  0.25016400  1
  Cu  Cu12  1  0.50000000  0.00000000  0.17351000  1
  Cu  Cu13  1  0.50000000  0.00000000  0.09710700  1
  Cu  Cu14  1  0.00000000  0.50000000  0.97856800  1
  Cu  Cu15  1  0.00000000  0.50000000  0.90370200  1
  Cu  Cu16  1  0.00000000  0.50000000  0.82746900  1
  Cu  Cu17  1  0.00000000  0.50000000  0.75047800  1
  Cu  Cu18  1  0.00000000  0.50000000  0.67334100  1
  Cu  Cu19  1  0.00000000  0.50000000  0.59627700  1
  Cu  Cu20  1  0.00000000  0.50000000  0.51929300  1
  Cu  Cu21  1  0.00000000  0.50000000  0.36544500  1
  Cu  Cu22  1  0.00000000  0.50000000  0.44235200  1
  Cu  Cu23  1  0.00000000  0.50000000  0.21186900  1
  Cu  Cu24  1  0.00000000  0.50000000  0.28859500  1
  Cu  Cu25  1  0.00000000  0.50000000  0.13530500  1
  C  C26  1  0.00000000  0.00000000  0.99812200  1
  C  C27  1  0.00000000  0.00000000  0.95937300  1
  C  C28  1  0.00000000  0.00000000  0.92030900  1
  C  C29  1  0.00000000  0.00000000  0.84271700  1
  C  C30  1  0.00000000  0.00000000  0.88146400  1
  C  C31  1  0.00000000  0.00000000  0.80408000  1
  C  C32  1  0.00000000  0.00000000  0.76543200  1
  C  C33  1  0.00000000  0.00000000  0.72683200  1
  C  C34  1  0.00000000  0.00000000  0.68821900  1
  C  C35  1  0.00000000  0.00000000  0.64966500  1
  C  C36  1  0.00000000  0.00000000  0.61110500  1
  C  C37  1  0.00000000  0.00000000  0.57260700  1
  C  C38  1  0.00000000  0.00000000  0.53409400  1
  C  C39  1  0.00000000  0.00000000  0.45714900  1
  C  C40  1  0.00000000  0.00000000  0.49563300  1
  C  C41  1  0.00000000  0.00000000  0.41871300  1
  C  C42  1  0.00000000  0.00000000  0.38025700  1
  C  C43  1  0.00000000  0.00000000  0.34185700  1
  C  C44  1  0.00000000  0.00000000  0.30345200  1
  C  C45  1  0.00000000  0.00000000  0.26512700  1
  C  C46  1  0.00000000  0.00000000  0.22680100  1
  C  C47  1  0.00000000  0.00000000  0.18855900  1
  C  C48  1  0.00000000  0.00000000  0.15034300  1
  C  C49  1  0.00000000  0.00000000  0.11231200  1
  C  C50  1  0.00000000  0.00000000  0.07460400  1
  C  C51  1  0.50000000  0.50000000  0.92446700  1
  C  C52  1  0.50000000  0.50000000  0.77415300  1
  C  C53  1  0.50000000  0.50000000  0.85041700  1
  C  C54  1  0.50000000  0.50000000  0.61999200  1
  C  C55  1  0.50000000  0.50000000  0.69712800  1
  C  C56  1  0.50000000  0.50000000  0.46595700  1
  C  C57  1  0.50000000  0.50000000  0.54293600  1
  C  C58  1  0.50000000  0.50000000  0.31215900  1
  C  C59  1  0.50000000  0.50000000  0.96041700  1
  C  C60  1  0.50000000  0.50000000  0.38903000  1
  C  C61  1  0.50000000  0.50000000  0.15868700  1
  C  C62  1  0.50000000  0.50000000  0.23538400  1
  C  C63  1  0.50000000  0.50000000  0.88778700  1
  C  C64  1  0.50000000  0.50000000  0.81243000  1
  C  C65  1  0.50000000  0.50000000  0.08198200  1
  C  C66  1  0.50000000  0.50000000  0.99631800  1
  C  C67  1  0.50000000  0.50000000  0.73566300  1
  C  C68  1  0.50000000  0.50000000  0.65853800  1
  C  C69  1  0.50000000  0.50000000  0.50442100  1
  C  C70  1  0.50000000  0.50000000  0.58143400  1
  C  C71  1  0.50000000  0.50000000  0.35056800  1
  C  C72  1  0.50000000  0.50000000  0.42746900  1
  C  C73  1  0.50000000  0.50000000  0.19701200  1
  C  C74  1  0.50000000  0.50000000  0.27373800  1
  C  C75  1  0.50000000  0.50000000  0.03792000  1
  C  C76  1  0.50000000  0.50000000  0.12031400  1
