# generated using pymatgen
data_Cu3Ni7C23
_symmetry_space_group_name_H-M   'P 1'
_cell_length_a   9.72788414
_cell_length_b   9.93456882
_cell_length_c   9.99201000
_cell_angle_alpha   118.22663679
_cell_angle_beta   107.20204610
_cell_angle_gamma   101.67965418
_symmetry_Int_Tables_number   1
_chemical_formula_structural   Cu3Ni7C23
_chemical_formula_sum   'Cu6 Ni14 C46'
_cell_volume   742.50414237
_cell_formula_units_Z   2
loop_
 _symmetry_equiv_pos_site_id
 _symmetry_equiv_pos_as_xyz
  1  'x, y, z'
loop_
 _atom_site_type_symbol
 _atom_site_label
 _atom_site_symmetry_multiplicity
 _atom_site_fract_x
 _atom_site_fract_y
 _atom_site_fract_z
 _atom_site_occupancy
  C  C0  1  0.64520100  0.56987900  0.46236100  1
  C  C1  1  0.35479900  0.43012100  0.53763900  1
  C  C2  1  0.76421200  0.88369800  0.88111400  1
  C  C3  1  0.93771700  0.14039000  0.47528600  1
  C  C4  1  0.35294900  0.85597900  0.73807900  1
  C  C5  1  0.84312400  0.04072400  0.55472300  1
  C  C6  1  0.43247700  0.15215800  0.61854000  1
  C  C7  1  0.23704300  0.22904100  0.70059200  1
  C  C8  1  0.71203200  0.62935100  0.86854500  1
  C  C9  1  0.14082300  0.12679600  0.77799500  1
  C  C10  1  0.30655100  0.03498400  0.23666300  1
  C  C11  1  0.28796800  0.37064900  0.13145500  1
  C  C12  1  0.23578800  0.11630200  0.11888600  1
  C  C13  1  0.79267500  0.08394900  0.20085500  1
  C  C14  1  0.51954300  0.00892500  0.36807600  1
  C  C15  1  0.10816700  0.92776600  0.07202600  1
  C  C16  1  0.89227600  0.39780200  0.31443500  1
  C  C17  1  0.86093100  0.56733800  0.82211100  1
  C  C18  1  0.56752300  0.84784200  0.38146000  1
  C  C19  1  0.48045700  0.99107500  0.63192400  1
  C  C20  1  0.76295700  0.77095900  0.29940800  1
  C  C21  1  0.84895300  0.37178900  0.11576100  1
  C  C22  1  0.58730400  0.94018800  0.07250500  1
  C  C23  1  0.72601500  0.44745900  0.85407200  1
  C  C24  1  0.27398500  0.55254100  0.14592800  1
  C  C25  1  0.10772400  0.60219800  0.68556500  1
  C  C26  1  0.06228300  0.85961000  0.52471400  1
  C  C27  1  0.20747500  0.79923700  0.46123100  1
  C  C28  1  0.13906900  0.43266200  0.17788900  1
  C  C29  1  0.08201900  0.42565300  0.69612800  1
  C  C30  1  0.20732400  0.91605100  0.79914500  1
  C  C31  1  0.85917700  0.87320400  0.22200500  1
  C  C32  1  0.41269600  0.05981200  0.92749500  1
  C  C33  1  0.79252500  0.20076300  0.53876900  1
  C  C34  1  0.89183300  0.07223400  0.92797400  1
  C  C35  1  0.53930800  0.19278100  0.82409300  1
  C  C36  1  0.91798100  0.57434700  0.30387200  1
  C  C37  1  0.64705100  0.14402100  0.26192100  1
  C  C38  1  0.69344900  0.96501600  0.76333700  1
  C  C39  1  0.65336200  0.72844700  0.09487300  1
  C  C40  1  0.34663800  0.27155300  0.90512700  1
  C  C41  1  0.46069200  0.80721900  0.17590700  1
  C  C42  1  0.15687600  0.95927600  0.44527700  1
  C  C43  1  0.15104700  0.62821100  0.88423900  1
  Ni  Ni44  1  0.25131100  0.17631200  0.77604900  1
  Ni  Ni45  1  0.26100500  0.47817500  0.19851500  1
  Ni  Ni46  1  0.31959000  0.96048000  0.79794900  1
  Ni  Ni47  1  0.55065400  0.90272500  0.30803600  1
  Ni  Ni48  1  0.20336900  0.05136400  0.17555300  1
  Ni  Ni49  1  0.17113500  0.90219800  0.51695100  1
  Ni  Ni50  1  0.44934600  0.09727500  0.69196400  1
  Ni  Ni51  1  0.82886500  0.09780200  0.48304900  1
  Ni  Ni52  1  0.74868900  0.82368800  0.22395100  1
  Ni  Ni53  1  0.84310900  0.44161900  0.23672000  1
  Ni  Ni54  1  0.15689100  0.55838100  0.76328000  1
  Ni  Ni55  1  0.79663200  0.94863600  0.82444700  1
  Ni  Ni56  1  0.68041000  0.03952000  0.20205100  1
  Ni  Ni57  1  0.73899500  0.52182500  0.80148500  1
  Cu  Cu58  1  0.13694900  0.16899200  0.32997500  1
  Cu  Cu59  1  0.36141300  0.59057300  0.80705300  1
  Cu  Cu60  1  0.86305100  0.83100800  0.67002500  1
  Cu  Cu61  1  0.39463000  0.60681400  0.42735400  1
  Cu  Cu62  1  0.63858700  0.40942700  0.19294700  1
  Cu  Cu63  1  0.60537000  0.39318600  0.57264600  1
  C  C64  1  0.29779000  0.03376300  0.69548900  1
  C  C65  1  0.70221000  0.96623700  0.30451100  1
