# generated using pymatgen
data_Cu3Ni8C3
_symmetry_space_group_name_H-M   'P 1'
_cell_length_a   16.01733300
_cell_length_b   9.03420700
_cell_length_c   12.94640946
_cell_angle_alpha   54.55673413
_cell_angle_beta   90.00000000
_cell_angle_gamma   90.00000000
_symmetry_Int_Tables_number   1
_chemical_formula_structural   Cu3Ni8C3
_chemical_formula_sum   'Cu12 Ni32 C12'
_cell_volume   1526.23720106
_cell_formula_units_Z   4
loop_
 _symmetry_equiv_pos_site_id
 _symmetry_equiv_pos_as_xyz
  1  'x, y, z'
loop_
 _atom_site_type_symbol
 _atom_site_label
 _atom_site_symmetry_multiplicity
 _atom_site_fract_x
 _atom_site_fract_y
 _atom_site_fract_z
 _atom_site_occupancy
  C  C0  1  0.63308800  0.21051400  0.36421500  1
  C  C1  1  0.86691200  0.21051400  0.86421500  1
  C  C2  1  0.36691200  0.78948600  0.63578500  1
  C  C3  1  0.13308800  0.78948600  0.13578500  1
  C  C4  1  0.42981200  0.01227200  0.78379300  1
  C  C5  1  0.41737700  0.22142300  0.37949600  1
  C  C6  1  0.57018800  0.98772800  0.21620700  1
  C  C7  1  0.08262300  0.22142300  0.87949600  1
  C  C8  1  0.91737700  0.77857700  0.12050400  1
  C  C9  1  0.07018800  0.01227200  0.28379300  1
  C  C10  1  0.92981200  0.98772800  0.71620700  1
  C  C11  1  0.58262300  0.77857700  0.62050400  1
  Ni  Ni12  1  0.88516900  0.67585300  0.30040000  1
  Ni  Ni13  1  0.14385000  0.37992200  0.91643900  1
  Ni  Ni14  1  0.25846200  0.88415200  0.15483900  1
  Ni  Ni15  1  0.82464500  0.88887300  0.69863500  1
  Ni  Ni16  1  0.87380300  0.45763600  0.66079600  1
  Ni  Ni17  1  0.37380300  0.54236400  0.83920400  1
  Ni  Ni18  1  0.03414500  0.81856600  0.45975300  1
  Ni  Ni19  1  0.38516900  0.32414700  0.19960000  1
  Ni  Ni20  1  0.61483100  0.67585300  0.80040000  1
  Ni  Ni21  1  0.46585500  0.81856600  0.95975300  1
  Ni  Ni22  1  0.82223900  0.34985400  0.95004700  1
  Ni  Ni23  1  0.32464500  0.11112700  0.80136500  1
  Ni  Ni24  1  0.12619700  0.54236400  0.33920400  1
  Ni  Ni25  1  0.48598900  0.79077400  0.28237100  1
  Ni  Ni26  1  0.01401100  0.79077400  0.78237100  1
  Ni  Ni27  1  0.11483100  0.32414700  0.69960000  1
  Ni  Ni28  1  0.17776100  0.65014600  0.04995300  1
  Ni  Ni29  1  0.67535500  0.88887300  0.19863500  1
  Ni  Ni30  1  0.98598900  0.20922600  0.21762900  1
  Ni  Ni31  1  0.74153800  0.11584800  0.84516100  1
  Ni  Ni32  1  0.64385000  0.62007800  0.58356100  1
  Ni  Ni33  1  0.75846200  0.11584800  0.34516100  1
  Ni  Ni34  1  0.51401100  0.20922600  0.71762900  1
  Ni  Ni35  1  0.24153800  0.88415200  0.65483900  1
  Ni  Ni36  1  0.67776100  0.34985400  0.45004700  1
  Ni  Ni37  1  0.17535500  0.11112700  0.30136500  1
  Ni  Ni38  1  0.53414500  0.18143400  0.04024700  1
  Ni  Ni39  1  0.96585500  0.18143400  0.54024700  1
  Ni  Ni40  1  0.32223900  0.65014600  0.54995300  1
  Ni  Ni41  1  0.85615000  0.62007800  0.08356100  1
  Ni  Ni42  1  0.62619700  0.45763600  0.16079600  1
  Ni  Ni43  1  0.35615000  0.37992200  0.41643900  1
  Cu  Cu44  1  0.07687000  0.94835300  0.20122100  1
  Cu  Cu45  1  0.38272300  0.03123400  0.46215600  1
  Cu  Cu46  1  0.00956900  0.75228200  0.11394200  1
  Cu  Cu47  1  0.11727700  0.03123400  0.96215600  1
  Cu  Cu48  1  0.61727700  0.96876600  0.53784400  1
  Cu  Cu49  1  0.57687000  0.05164700  0.29877900  1
  Cu  Cu50  1  0.88272300  0.96876600  0.03784400  1
  Cu  Cu51  1  0.92313000  0.05164700  0.79877900  1
  Cu  Cu52  1  0.42313000  0.94835300  0.70122100  1
  Cu  Cu53  1  0.49043100  0.75228200  0.61394200  1
  Cu  Cu54  1  0.99043100  0.24771800  0.88605800  1
  Cu  Cu55  1  0.50956900  0.24771800  0.38605800  1
