# generated using pymatgen
data_Cu2NiC2
_symmetry_space_group_name_H-M   'P 1'
_cell_length_a   5.84918100
_cell_length_b   10.29540000
_cell_length_c   13.76407000
_cell_angle_alpha   90.00000000
_cell_angle_beta   90.00000000
_cell_angle_gamma   90.00000000
_symmetry_Int_Tables_number   1
_chemical_formula_structural   Cu2NiC2
_chemical_formula_sum   'Cu16 Ni8 C16'
_cell_volume   828.86758902
_cell_formula_units_Z   8
loop_
 _symmetry_equiv_pos_site_id
 _symmetry_equiv_pos_as_xyz
  1  'x, y, z'
loop_
 _atom_site_type_symbol
 _atom_site_label
 _atom_site_symmetry_multiplicity
 _atom_site_fract_x
 _atom_site_fract_y
 _atom_site_fract_z
 _atom_site_occupancy
  C  C0  1  0.75000000  0.27904500  0.57110300  1
  C  C1  1  0.75000000  0.22095500  0.07110300  1
  C  C2  1  0.25000000  0.34941700  0.25566000  1
  C  C3  1  0.75000000  0.65058300  0.74434000  1
  C  C4  1  0.75000000  0.84941700  0.24434000  1
  C  C5  1  0.25000000  0.72095500  0.42889700  1
  C  C6  1  0.25000000  0.77904500  0.92889700  1
  C  C7  1  0.25000000  0.15058300  0.75566000  1
  C  C8  1  0.25000000  0.61646600  0.00509400  1
  C  C9  1  0.75000000  0.66890300  0.19584000  1
  C  C10  1  0.75000000  0.11646600  0.49490600  1
  C  C11  1  0.25000000  0.33109700  0.80416000  1
  C  C12  1  0.75000000  0.83109700  0.69584000  1
  C  C13  1  0.25000000  0.88353400  0.50509400  1
  C  C14  1  0.25000000  0.16890300  0.30416000  1
  C  C15  1  0.75000000  0.38353400  0.99490600  1
  Ni  Ni16  1  0.75000000  0.63000800  0.84931800  1
  Ni  Ni17  1  0.75000000  0.23008000  0.17694000  1
  Ni  Ni18  1  0.25000000  0.13000800  0.65068200  1
  Ni  Ni19  1  0.75000000  0.86999200  0.34931800  1
  Ni  Ni20  1  0.25000000  0.73008000  0.32306000  1
  Ni  Ni21  1  0.25000000  0.76992000  0.82306000  1
  Ni  Ni22  1  0.75000000  0.26992000  0.67694000  1
  Ni  Ni23  1  0.25000000  0.36999200  0.15068200  1
  Cu  Cu24  1  0.04595000  0.64300600  0.47307100  1
  Cu  Cu25  1  0.95405000  0.14300600  0.02692900  1
  Cu  Cu26  1  0.04636100  0.41312900  0.31138400  1
  Cu  Cu27  1  0.95363900  0.91312900  0.18861600  1
  Cu  Cu28  1  0.54595000  0.35699400  0.52692900  1
  Cu  Cu29  1  0.45405000  0.64300600  0.47307100  1
  Cu  Cu30  1  0.45405000  0.85699400  0.97307100  1
  Cu  Cu31  1  0.54636100  0.58687100  0.68861600  1
  Cu  Cu32  1  0.54636100  0.91312900  0.18861600  1
  Cu  Cu33  1  0.95363900  0.58687100  0.68861600  1
  Cu  Cu34  1  0.04636100  0.08687100  0.81138400  1
  Cu  Cu35  1  0.45363900  0.41312900  0.31138400  1
  Cu  Cu36  1  0.04595000  0.85699400  0.97307100  1
  Cu  Cu37  1  0.54595000  0.14300600  0.02692900  1
  Cu  Cu38  1  0.95405000  0.35699400  0.52692900  1
  Cu  Cu39  1  0.45363900  0.08687100  0.81138400  1
