# generated using pymatgen
data_CuNi7C9
_symmetry_space_group_name_H-M   'P 1'
_cell_length_a   7.28747501
_cell_length_b   7.28747501
_cell_length_c   7.28747501
_cell_angle_alpha   60.00000000
_cell_angle_beta   60.00000000
_cell_angle_gamma   60.00000000
_symmetry_Int_Tables_number   1
_chemical_formula_structural   CuNi7C9
_chemical_formula_sum   'Cu1 Ni7 C9'
_cell_volume   273.66309754
_cell_formula_units_Z   1
loop_
 _symmetry_equiv_pos_site_id
 _symmetry_equiv_pos_as_xyz
  1  'x, y, z'
loop_
 _atom_site_type_symbol
 _atom_site_label
 _atom_site_symmetry_multiplicity
 _atom_site_fract_x
 _atom_site_fract_y
 _atom_site_fract_z
 _atom_site_occupancy
  Ni  Ni0  1  0.25003400  0.74996600  0.74996600  1
  Ni  Ni1  1  0.74996600  0.25003400  0.25003400  1
  Ni  Ni2  1  0.25003400  0.25003400  0.74996600  1
  Ni  Ni3  1  0.25003400  0.74996600  0.25003400  1
  Ni  Ni4  1  0.74996600  0.74996600  0.25003400  1
  Ni  Ni5  1  0.74996600  0.25003400  0.74996600  1
  Ni  Ni6  1  0.75000000  0.75000000  0.75000000  1
  Cu  Cu7  1  0.25000000  0.25000000  0.25000000  1
  C  C8  1  0.00000000  0.00000000  0.00000000  1
  C  C9  1  0.35102500  0.94692500  0.35102500  1
  C  C10  1  0.62970100  0.62970100  0.62970100  1
  C  C11  1  0.94692500  0.35102500  0.35102500  1
  C  C12  1  0.62970100  0.11089800  0.62970100  1
  C  C13  1  0.35102500  0.35102500  0.35102500  1
  C  C14  1  0.11089800  0.62970100  0.62970100  1
  C  C15  1  0.35102500  0.35102500  0.94692500  1
  C  C16  1  0.62970100  0.62970100  0.11089800  1
