# generated using pymatgen
data_CuNi9C7
_symmetry_space_group_name_H-M   'P 1'
_cell_length_a   8.87128121
_cell_length_b   8.87128121
_cell_length_c   6.60520791
_cell_angle_alpha   77.16019081
_cell_angle_beta   77.16019081
_cell_angle_gamma   105.93828855
_symmetry_Int_Tables_number   1
_chemical_formula_structural   CuNi9C7
_chemical_formula_sum   'Cu2 Ni18 C14'
_cell_volume   464.57071750
_cell_formula_units_Z   2
loop_
 _symmetry_equiv_pos_site_id
 _symmetry_equiv_pos_as_xyz
  1  'x, y, z'
loop_
 _atom_site_type_symbol
 _atom_site_label
 _atom_site_symmetry_multiplicity
 _atom_site_fract_x
 _atom_site_fract_y
 _atom_site_fract_z
 _atom_site_occupancy
  C  C0  1  0.51048900  0.51048900  0.73729600  1
  C  C1  1  0.12280200  0.39378700  0.08181600  1
  C  C2  1  0.39378700  0.12280200  0.08181600  1
  C  C3  1  0.48951100  0.48951100  0.26270400  1
  C  C4  1  0.87719800  0.60621300  0.91818400  1
  C  C5  1  0.60621300  0.87719800  0.91818400  1
  C  C6  1  0.68725900  0.90826200  0.39653000  1
  C  C7  1  0.09173800  0.31274100  0.60347000  1
  C  C8  1  0.31274100  0.09173800  0.60347000  1
  C  C9  1  0.78623600  0.21376400  0.00000000  1
  C  C10  1  0.21376400  0.78623600  0.00000000  1
  C  C11  1  0.90826200  0.68725900  0.39653000  1
  C  C12  1  0.72454600  0.27545400  0.50000000  1
  C  C13  1  0.27545400  0.72454600  0.50000000  1
  Ni  Ni14  1  0.32741800  0.77351900  0.16095500  1
  Ni  Ni15  1  0.27454800  0.98298300  0.86099100  1
  Ni  Ni16  1  0.98298300  0.27454800  0.86099100  1
  Ni  Ni17  1  0.72545200  0.01701700  0.13900900  1
  Ni  Ni18  1  0.67604800  0.02498400  0.55371200  1
  Ni  Ni19  1  0.22648100  0.67258200  0.83904500  1
  Ni  Ni20  1  0.47928200  0.25083600  0.53825900  1
  Ni  Ni21  1  0.25083600  0.47928200  0.53825900  1
  Ni  Ni22  1  0.74916400  0.52071800  0.46174100  1
  Ni  Ni23  1  0.77351900  0.32741800  0.16095500  1
  Ni  Ni24  1  0.32395200  0.97501600  0.44628800  1
  Ni  Ni25  1  0.15919400  0.15919400  0.59351100  1
  Ni  Ni26  1  0.97501600  0.32395200  0.44628800  1
  Ni  Ni27  1  0.52071800  0.74916400  0.46174100  1
  Ni  Ni28  1  0.02498400  0.67604800  0.55371200  1
  Ni  Ni29  1  0.67258200  0.22648100  0.83904500  1
  Ni  Ni30  1  0.01701700  0.72545200  0.13900900  1
  Ni  Ni31  1  0.84080600  0.84080600  0.40648900  1
  Cu  Cu32  1  0.35092600  0.35092600  0.06884400  1
  Cu  Cu33  1  0.64907400  0.64907400  0.93115600  1
