# generated using pymatgen
data_CuNiC5
_symmetry_space_group_name_H-M   'P 1'
_cell_length_a   5.36266600
_cell_length_b   6.65650200
_cell_length_c   11.72811900
_cell_angle_alpha   90.00000000
_cell_angle_beta   90.00000000
_cell_angle_gamma   90.00000000
_symmetry_Int_Tables_number   1
_chemical_formula_structural   CuNiC5
_chemical_formula_sum   'Cu4 Ni4 C20'
_cell_volume   418.65393698
_cell_formula_units_Z   4
loop_
 _symmetry_equiv_pos_site_id
 _symmetry_equiv_pos_as_xyz
  1  'x, y, z'
loop_
 _atom_site_type_symbol
 _atom_site_label
 _atom_site_symmetry_multiplicity
 _atom_site_fract_x
 _atom_site_fract_y
 _atom_site_fract_z
 _atom_site_occupancy
  Ni  Ni0  1  0.50000000  0.50000000  0.00000000  1
  Ni  Ni1  1  0.00000000  0.00000000  0.50000000  1
  Ni  Ni2  1  0.50000000  0.00000000  0.00000000  1
  Ni  Ni3  1  0.00000000  0.50000000  0.50000000  1
  Cu  Cu4  1  0.50010800  0.75000000  0.27881100  1
  Cu  Cu5  1  0.99989200  0.75000000  0.77881100  1
  Cu  Cu6  1  0.49989200  0.25000000  0.72118900  1
  Cu  Cu7  1  0.00010800  0.25000000  0.22118900  1
  C  C8  1  0.44073700  0.75000000  0.59547400  1
  C  C9  1  0.05926300  0.75000000  0.09547400  1
  C  C10  1  0.55926300  0.25000000  0.40452600  1
  C  C11  1  0.94073700  0.25000000  0.90452600  1
  C  C12  1  0.31910300  0.75000000  0.45577200  1
  C  C13  1  0.18089700  0.75000000  0.95577200  1
  C  C14  1  0.68089700  0.25000000  0.54422800  1
  C  C15  1  0.81910300  0.25000000  0.04422800  1
  C  C16  1  0.70909300  0.04563100  0.32919900  1
  C  C17  1  0.79090700  0.45436900  0.82919900  1
  C  C18  1  0.29090700  0.54563100  0.67080100  1
  C  C19  1  0.20909300  0.95436900  0.17080100  1
  C  C20  1  0.29090700  0.95436900  0.67080100  1
  C  C21  1  0.20909300  0.54563100  0.17080100  1
  C  C22  1  0.70909300  0.45436900  0.32919900  1
  C  C23  1  0.79090700  0.04563100  0.82919900  1
  C  C24  1  0.73467400  0.75000000  0.10874800  1
  C  C25  1  0.76532600  0.75000000  0.60874800  1
  C  C26  1  0.26532600  0.25000000  0.89125200  1
  C  C27  1  0.23467400  0.25000000  0.39125200  1
