# generated using pymatgen
data_Cu12NiC12
_symmetry_space_group_name_H-M   'P 1'
_cell_length_a   6.25825100
_cell_length_b   7.08025900
_cell_length_c   11.52188400
_cell_angle_alpha   90.00000000
_cell_angle_beta   90.00000000
_cell_angle_gamma   90.00000000
_symmetry_Int_Tables_number   1
_chemical_formula_structural   Cu12NiC12
_chemical_formula_sum   'Cu24 Ni2 C24'
_cell_volume   510.53511749
_cell_formula_units_Z   2
loop_
 _symmetry_equiv_pos_site_id
 _symmetry_equiv_pos_as_xyz
  1  'x, y, z'
loop_
 _atom_site_type_symbol
 _atom_site_label
 _atom_site_symmetry_multiplicity
 _atom_site_fract_x
 _atom_site_fract_y
 _atom_site_fract_z
 _atom_site_occupancy
  C  C0  1  0.64354700  0.00000000  0.73807000  1
  C  C1  1  0.35645300  0.50000000  0.23807000  1
  C  C2  1  0.61297200  0.00000000  0.38769300  1
  C  C3  1  0.38702800  0.50000000  0.88769300  1
  Ni  Ni4  1  0.97728600  0.50000000  0.51865300  1
  Ni  Ni5  1  0.02271400  0.00000000  0.01865300  1
  Cu  Cu6  1  0.64515400  0.25894000  0.01920000  1
  Cu  Cu7  1  0.80931300  0.31958800  0.31571600  1
  Cu  Cu8  1  0.72011000  0.50000000  0.72426300  1
  Cu  Cu9  1  0.40730000  0.82023000  0.03322900  1
  Cu  Cu10  1  0.19068700  0.81958800  0.81571600  1
  Cu  Cu11  1  0.35484600  0.24106000  0.51920000  1
  Cu  Cu12  1  0.83334600  0.50000000  0.85139500  1
  Cu  Cu13  1  0.64515400  0.74106000  0.01920000  1
  Cu  Cu14  1  0.40730000  0.17977000  0.03322900  1
  Cu  Cu15  1  0.98937500  0.11435500  0.50664400  1
  Cu  Cu16  1  0.21263500  0.69989500  0.69891600  1
  Cu  Cu17  1  0.19068700  0.18041200  0.81571600  1
  Cu  Cu18  1  0.21263500  0.30010500  0.69891600  1
  Cu  Cu19  1  0.59270000  0.67977000  0.53322900  1
  Cu  Cu20  1  0.80931300  0.68041200  0.31571600  1
  Cu  Cu21  1  0.01062500  0.38564500  0.00664400  1
  Cu  Cu22  1  0.98937500  0.88564500  0.50664400  1
  Cu  Cu23  1  0.35484600  0.75894000  0.51920000  1
  Cu  Cu24  1  0.27989000  0.00000000  0.22426300  1
  Cu  Cu25  1  0.78736500  0.80010500  0.19891600  1
  Cu  Cu26  1  0.16665400  0.00000000  0.35139500  1
  Cu  Cu27  1  0.59270000  0.32023000  0.53322900  1
  Cu  Cu28  1  0.01062500  0.61435500  0.00664400  1
  Cu  Cu29  1  0.78736500  0.19989500  0.19891600  1
  C  C30  1  0.94952100  0.50000000  0.37029600  1
  C  C31  1  0.72682400  0.50000000  0.58320900  1
  C  C32  1  0.49164400  0.29223300  0.00480200  1
  C  C33  1  0.27317600  0.00000000  0.08320900  1
  C  C34  1  0.50835600  0.79223300  0.50480200  1
  C  C35  1  0.28039000  0.28082900  0.77703400  1
  C  C36  1  0.89082000  0.79890000  0.06395900  1
  C  C37  1  0.89082000  0.20110000  0.06395900  1
  C  C38  1  0.10918000  0.29890000  0.56395900  1
  C  C39  1  0.05047900  0.00000000  0.87029600  1
  C  C40  1  0.28039000  0.71917100  0.77703400  1
  C  C41  1  0.92681100  0.00000000  0.46647100  1
  C  C42  1  0.69476200  0.50000000  0.81102900  1
  C  C43  1  0.49164400  0.70776700  0.00480200  1
  C  C44  1  0.07318900  0.50000000  0.96647100  1
  C  C45  1  0.10918000  0.70110000  0.56395900  1
  C  C46  1  0.71961000  0.21917100  0.27703400  1
  C  C47  1  0.50835600  0.20776700  0.50480200  1
  C  C48  1  0.30523800  0.00000000  0.31102900  1
  C  C49  1  0.71961000  0.78082900  0.27703400  1
