# generated using pymatgen
data_CuNi
_symmetry_space_group_name_H-M   'P 1'
_cell_length_a   4.46974556
_cell_length_b   4.46974556
_cell_length_c   15.11222500
_cell_angle_alpha   90.00000000
_cell_angle_beta   90.00000000
_cell_angle_gamma   106.17084383
_symmetry_Int_Tables_number   1
_chemical_formula_structural   CuNi
_chemical_formula_sum   'Cu4 Ni4'
_cell_volume   289.97611883
_cell_formula_units_Z   4
loop_
 _symmetry_equiv_pos_site_id
 _symmetry_equiv_pos_as_xyz
  1  'x, y, z'
loop_
 _atom_site_type_symbol
 _atom_site_label
 _atom_site_symmetry_multiplicity
 _atom_site_fract_x
 _atom_site_fract_y
 _atom_site_fract_z
 _atom_site_occupancy
  Ni  Ni0  1  0.92638100  0.68525900  0.54873000  1
  Ni  Ni1  1  0.18525900  0.42638100  0.04873000  1
  Ni  Ni2  1  0.42638100  0.18525900  0.95127000  1
  Ni  Ni3  1  0.68525900  0.92638100  0.45127000  1
  Cu  Cu4  1  0.06623300  0.94732700  0.83516200  1
  Cu  Cu5  1  0.56623300  0.44732700  0.66483800  1
  Cu  Cu6  1  0.94732700  0.06623300  0.16483800  1
  Cu  Cu7  1  0.44732700  0.56623300  0.33516200  1
