# generated using pymatgen
data_Cu6Ni2C5
_symmetry_space_group_name_H-M   'P 1'
_cell_length_a   7.57540800
_cell_length_b   7.52783800
_cell_length_c   8.37710851
_cell_angle_alpha   82.64020559
_cell_angle_beta   90.00000000
_cell_angle_gamma   90.00000000
_symmetry_Int_Tables_number   1
_chemical_formula_structural   Cu6Ni2C5
_chemical_formula_sum   'Cu12 Ni4 C10'
_cell_volume   473.78094491
_cell_formula_units_Z   2
loop_
 _symmetry_equiv_pos_site_id
 _symmetry_equiv_pos_as_xyz
  1  'x, y, z'
loop_
 _atom_site_type_symbol
 _atom_site_label
 _atom_site_symmetry_multiplicity
 _atom_site_fract_x
 _atom_site_fract_y
 _atom_site_fract_z
 _atom_site_occupancy
  C  C0  1  0.65881800  0.13615800  0.93251900  1
  C  C1  1  0.15881800  0.86384200  0.06748100  1
  C  C2  1  0.15667800  0.35950200  0.91488400  1
  C  C3  1  0.68555200  0.31091100  0.40335600  1
  C  C4  1  0.18555200  0.68908900  0.59664400  1
  C  C5  1  0.65667800  0.64049800  0.08511600  1
  C  C6  1  0.02882400  0.13133000  0.60736200  1
  C  C7  1  0.81037200  0.65791500  0.76606200  1
  C  C8  1  0.31037200  0.34208500  0.23393800  1
  C  C9  1  0.52882400  0.86867000  0.39263800  1
  Ni  Ni10  1  0.38575800  0.45360000  0.61671900  1
  Ni  Ni11  1  0.91945200  0.11456300  0.23736500  1
  Ni  Ni12  1  0.41945200  0.88543700  0.76263500  1
  Ni  Ni13  1  0.88575800  0.54640000  0.38328100  1
  Cu  Cu14  1  0.22396200  0.52217500  0.06761500  1
  Cu  Cu15  1  0.78380700  0.18604000  0.60298200  1
  Cu  Cu16  1  0.00174200  0.87494600  0.63227700  1
  Cu  Cu17  1  0.04516900  0.55085800  0.76686300  1
  Cu  Cu18  1  0.72396200  0.47782500  0.93238500  1
  Cu  Cu19  1  0.50174200  0.12505400  0.36772300  1
  Cu  Cu20  1  0.54516900  0.44914200  0.23313700  1
  Cu  Cu21  1  0.82188700  0.80057600  0.94227700  1
  Cu  Cu22  1  0.32188700  0.19942400  0.05772300  1
  Cu  Cu23  1  0.54677900  0.84604000  0.16808300  1
  Cu  Cu24  1  0.04677900  0.15396000  0.83191700  1
  Cu  Cu25  1  0.28380700  0.81396000  0.39701800  1
