# generated using pymatgen
data_Cu20Ni5C3
_symmetry_space_group_name_H-M   'P 1'
_cell_length_a   8.29751800
_cell_length_b   10.69245877
_cell_length_c   11.83006769
_cell_angle_alpha   94.93381414
_cell_angle_beta   109.96377397
_cell_angle_gamma   105.18313143
_symmetry_Int_Tables_number   1
_chemical_formula_structural   Cu20Ni5C3
_chemical_formula_sum   'Cu40 Ni10 C6'
_cell_volume   934.09475505
_cell_formula_units_Z   2
loop_
 _symmetry_equiv_pos_site_id
 _symmetry_equiv_pos_as_xyz
  1  'x, y, z'
loop_
 _atom_site_type_symbol
 _atom_site_label
 _atom_site_symmetry_multiplicity
 _atom_site_fract_x
 _atom_site_fract_y
 _atom_site_fract_z
 _atom_site_occupancy
  C  C0  1  0.09425800  0.46593100  0.23691800  1
  C  C1  1  0.43054100  0.11215400  0.20932700  1
  C  C2  1  0.90574200  0.53406900  0.76308200  1
  C  C3  1  0.56945900  0.88784600  0.79067300  1
  C  C4  1  0.74386600  0.78090100  0.27921000  1
  C  C5  1  0.25613400  0.21909900  0.72079000  1
  Ni  Ni6  1  0.70898900  0.47312900  0.37178000  1
  Ni  Ni7  1  0.45156600  0.79623000  0.41525100  1
  Ni  Ni8  1  0.00808900  0.10281400  0.35911200  1
  Ni  Ni9  1  0.99191100  0.89718600  0.64088800  1
  Ni  Ni10  1  0.37372200  0.69964900  0.04541700  1
  Ni  Ni11  1  0.62627800  0.30035100  0.95458300  1
  Ni  Ni12  1  0.29101100  0.52687100  0.62822000  1
  Ni  Ni13  1  0.09510800  0.19579000  0.93626200  1
  Ni  Ni14  1  0.90489200  0.80421000  0.06373800  1
  Ni  Ni15  1  0.54843400  0.20377000  0.58474900  1
  Cu  Cu16  1  0.46894500  0.07568500  0.60796500  1
  Cu  Cu17  1  0.74240500  0.24342700  0.63227300  1
  Cu  Cu18  1  0.91721600  0.11076500  0.91381700  1
  Cu  Cu19  1  0.91402600  0.71830400  0.15910100  1
  Cu  Cu20  1  0.93457700  0.81355500  0.71838300  1
  Cu  Cu21  1  0.20604500  0.62309500  0.05076700  1
  Cu  Cu22  1  0.19460100  0.62112300  0.62968000  1
  Cu  Cu23  1  0.51579000  0.63319900  0.09856200  1
  Cu  Cu24  1  0.52161000  0.41957100  0.29148800  1
  Cu  Cu25  1  0.26832100  0.47277100  0.50637300  1
  Cu  Cu26  1  0.25759500  0.75657300  0.36772700  1
  Cu  Cu27  1  0.82484200  0.72082500  0.94349500  1
  Cu  Cu28  1  0.44434300  0.83186200  0.12371700  1
  Cu  Cu29  1  0.21328600  0.11854100  0.92197400  1
  Cu  Cu30  1  0.08692500  0.17669800  0.48595400  1
  Cu  Cu31  1  0.18978100  0.94090600  0.68140600  1
  Cu  Cu32  1  0.64757300  0.29173900  0.07951200  1
  Cu  Cu33  1  0.19974800  0.41360700  0.68222700  1
  Cu  Cu34  1  0.73167900  0.52722900  0.49362700  1
  Cu  Cu35  1  0.81021900  0.05909400  0.31859400  1
  Cu  Cu36  1  0.93533700  0.01629700  0.64645500  1
  Cu  Cu37  1  0.49758400  0.30485700  0.65595500  1
  Cu  Cu38  1  0.35242700  0.70826100  0.92048800  1
  Cu  Cu39  1  0.80025200  0.58639300  0.31777300  1
  Cu  Cu40  1  0.06466300  0.98370300  0.35354500  1
  Cu  Cu41  1  0.50241600  0.69514300  0.34404500  1
  Cu  Cu42  1  0.08597400  0.28169600  0.84089900  1
  Cu  Cu43  1  0.08278400  0.88923500  0.08618300  1
  Cu  Cu44  1  0.48421000  0.36680100  0.90143800  1
  Cu  Cu45  1  0.06542300  0.18644500  0.28161700  1
  Cu  Cu46  1  0.79395500  0.37690500  0.94923300  1
  Cu  Cu47  1  0.91307500  0.82330200  0.51404600  1
  Cu  Cu48  1  0.52598100  0.79002400  0.54294700  1
  Cu  Cu49  1  0.78671400  0.88145900  0.07802600  1
  Cu  Cu50  1  0.17515800  0.27917500  0.05650500  1
  Cu  Cu51  1  0.80539900  0.37887700  0.37032000  1
  Cu  Cu52  1  0.47839000  0.58042900  0.70851200  1
  Cu  Cu53  1  0.47401900  0.20997600  0.45705300  1
  Cu  Cu54  1  0.55565700  0.16813800  0.87628300  1
  Cu  Cu55  1  0.53105500  0.92431500  0.39203500  1
