# generated using pymatgen
data_Cu5NiC8
_symmetry_space_group_name_H-M   'P 1'
_cell_length_a   7.63089884
_cell_length_b   7.63089884
_cell_length_c   8.18020939
_cell_angle_alpha   58.07111859
_cell_angle_beta   58.07111859
_cell_angle_gamma   77.48729800
_symmetry_Int_Tables_number   1
_chemical_formula_structural   Cu5NiC8
_chemical_formula_sum   'Cu10 Ni2 C16'
_cell_volume   341.79027765
_cell_formula_units_Z   2
loop_
 _symmetry_equiv_pos_site_id
 _symmetry_equiv_pos_as_xyz
  1  'x, y, z'
loop_
 _atom_site_type_symbol
 _atom_site_label
 _atom_site_symmetry_multiplicity
 _atom_site_fract_x
 _atom_site_fract_y
 _atom_site_fract_z
 _atom_site_occupancy
  Ni  Ni0  1  0.69172100  0.30827900  0.75000000  1
  Ni  Ni1  1  0.30827900  0.69172100  0.25000000  1
  Cu  Cu2  1  0.52989900  0.26619700  0.22923000  1
  Cu  Cu3  1  0.70380000  0.07057000  0.46047100  1
  Cu  Cu4  1  0.47010100  0.73380300  0.77077000  1
  Cu  Cu5  1  0.73380300  0.47010100  0.27077000  1
  Cu  Cu6  1  0.00000000  0.00000000  0.00000000  1
  Cu  Cu7  1  0.29620000  0.92943000  0.53952900  1
  Cu  Cu8  1  0.26619700  0.52989900  0.72923000  1
  Cu  Cu9  1  0.07057000  0.70380000  0.96047100  1
  Cu  Cu10  1  0.00000000  0.00000000  0.50000000  1
  Cu  Cu11  1  0.92943000  0.29620000  0.03952900  1
  C  C12  1  0.83146400  0.68813600  0.81136300  1
  C  C13  1  0.68813600  0.83146400  0.31136300  1
  C  C14  1  0.16853600  0.31186400  0.18863700  1
  C  C15  1  0.31186400  0.16853600  0.68863700  1
  C  C16  1  0.16709600  0.27004100  0.79827900  1
  C  C17  1  0.04433100  0.73502400  0.71567900  1
  C  C18  1  0.95566900  0.26497600  0.28432100  1
  C  C19  1  0.27004100  0.16709600  0.29827900  1
  C  C20  1  0.73502400  0.04433100  0.21567900  1
  C  C21  1  0.26497600  0.95566900  0.78432100  1
  C  C22  1  0.50477600  0.73060100  0.50697800  1
  C  C23  1  0.83290400  0.72995900  0.20172100  1
  C  C24  1  0.73060100  0.50477600  0.00697800  1
  C  C25  1  0.26939900  0.49522400  0.99302200  1
  C  C26  1  0.49522400  0.26939900  0.49302200  1
  C  C27  1  0.72995900  0.83290400  0.70172100  1
