# generated using pymatgen
data_CuNi3C10
_symmetry_space_group_name_H-M   'P 1'
_cell_length_a   5.71183600
_cell_length_b   14.31106400
_cell_length_c   20.00066400
_cell_angle_alpha   90.00000000
_cell_angle_beta   90.00000000
_cell_angle_gamma   90.00000000
_symmetry_Int_Tables_number   1
_chemical_formula_structural   CuNi3C10
_chemical_formula_sum   'Cu8 Ni24 C80'
_cell_volume   1634.90328806
_cell_formula_units_Z   8
loop_
 _symmetry_equiv_pos_site_id
 _symmetry_equiv_pos_as_xyz
  1  'x, y, z'
loop_
 _atom_site_type_symbol
 _atom_site_label
 _atom_site_symmetry_multiplicity
 _atom_site_fract_x
 _atom_site_fract_y
 _atom_site_fract_z
 _atom_site_occupancy
  Ni  Ni0  1  0.97391600  0.78427100  0.08001700  1
  Ni  Ni1  1  0.45557200  0.53233600  0.18512000  1
  Ni  Ni2  1  0.54799700  0.70328100  0.33791700  1
  Ni  Ni3  1  0.02608400  0.28427100  0.08001700  1
  Ni  Ni4  1  0.54442800  0.03233600  0.18512000  1
  Ni  Ni5  1  0.54799700  0.79671900  0.83791700  1
  Ni  Ni6  1  0.98305700  0.36447400  0.74913400  1
  Ni  Ni7  1  0.51037100  0.61460500  0.52014800  1
  Ni  Ni8  1  0.03543900  0.95318000  0.92971600  1
  Ni  Ni9  1  0.96456100  0.04682000  0.42971600  1
  Ni  Ni10  1  0.45200300  0.29671900  0.83791700  1
  Ni  Ni11  1  0.51037100  0.88539500  0.02014800  1
  Ni  Ni12  1  0.45200300  0.20328100  0.33791700  1
  Ni  Ni13  1  0.48962900  0.11460500  0.52014800  1
  Ni  Ni14  1  0.03543900  0.54682000  0.42971600  1
  Ni  Ni15  1  0.45557200  0.96766400  0.68512000  1
  Ni  Ni16  1  0.96456100  0.45318000  0.92971600  1
  Ni  Ni17  1  0.54442800  0.46766400  0.68512000  1
  Ni  Ni18  1  0.01694300  0.63552600  0.24913400  1
  Ni  Ni19  1  0.02608400  0.21572900  0.58001700  1
  Ni  Ni20  1  0.01694300  0.86447400  0.74913400  1
  Ni  Ni21  1  0.97391600  0.71572900  0.58001700  1
  Ni  Ni22  1  0.48962900  0.38539500  0.02014800  1
  Ni  Ni23  1  0.98305700  0.13552600  0.24913400  1
  Cu  Cu24  1  0.92520500  0.38831400  0.26912100  1
  Cu  Cu25  1  0.07479500  0.61168600  0.76912100  1
  Cu  Cu26  1  0.56361200  0.13824800  0.00164800  1
  Cu  Cu27  1  0.43638800  0.63824800  0.00164800  1
  Cu  Cu28  1  0.56361200  0.36175200  0.50164800  1
  Cu  Cu29  1  0.07479500  0.88831400  0.26912100  1
  Cu  Cu30  1  0.43638800  0.86175200  0.50164800  1
  Cu  Cu31  1  0.92520500  0.11168600  0.76912100  1
  C  C32  1  0.47446200  0.02256400  0.84943300  1
  C  C33  1  0.01536800  0.22724400  0.92073100  1
  C  C34  1  0.96290900  0.52604100  0.09352100  1
  C  C35  1  0.03709100  0.02604100  0.09352100  1
  C  C36  1  0.01536800  0.27275600  0.42073100  1
  C  C37  1  0.52553800  0.52256400  0.84943300  1
  C  C38  1  0.54577700  0.72488400  0.67690400  1
  C  C39  1  0.98463200  0.77275600  0.42073100  1
  C  C40  1  0.52553800  0.97743600  0.34943300  1
  C  C41  1  0.98463200  0.72724400  0.92073100  1
  C  C42  1  0.96290900  0.97395900  0.59352100  1
  C  C43  1  0.03709100  0.47395900  0.59352100  1
  C  C44  1  0.45422300  0.27511600  0.17690400  1
  C  C45  1  0.45422300  0.22488400  0.67690400  1
  C  C46  1  0.54577700  0.77511600  0.17690400  1
  C  C47  1  0.47446200  0.47743600  0.34943300  1
  C  C48  1  0.30352400  0.03703900  0.30779800  1
  C  C49  1  0.53158800  0.75269400  0.09099900  1
  C  C50  1  0.79629500  0.00379500  0.31336300  1
  C  C51  1  0.54475500  0.36091900  0.34117700  1
  C  C52  1  0.60033400  0.12022400  0.69304000  1
  C  C53  1  0.46841200  0.25269400  0.09099900  1
  C  C54  1  0.98412300  0.00231800  0.17805800  1
  C  C55  1  0.10592200  0.63088300  0.07567700  1
  C  C56  1  0.54475500  0.13908100  0.84117700  1
  C  C57  1  0.90948800  0.94105100  0.04419900  1
  C  C58  1  0.46841200  0.24730600  0.59099900  1
  C  C59  1  0.01587700  0.50231800  0.17805800  1
  C  C60  1  0.15472100  0.28453900  0.19779700  1
  C  C61  1  0.46558700  0.99487100  0.93473300  1
  C  C62  1  0.28929700  0.25294500  0.95515700  1
  C  C63  1  0.33983500  0.03584300  0.07679700  1
  C  C64  1  0.09051200  0.44105100  0.04419900  1
  C  C65  1  0.30352400  0.46296100  0.80779800  1
  C  C66  1  0.01587700  0.99768200  0.67805800  1
  C  C67  1  0.28929700  0.24705500  0.45515700  1
  C  C68  1  0.94404000  0.38937600  0.42685400  1
  C  C69  1  0.84527900  0.78453900  0.19779700  1
  C  C70  1  0.79629500  0.49620500  0.81336300  1
  C  C71  1  0.98261600  0.75744800  0.83607800  1
  C  C72  1  0.66016500  0.53584300  0.07679700  1
  C  C73  1  0.79804700  0.21402100  0.46521400  1
  C  C74  1  0.09051200  0.05894900  0.54419900  1
  C  C75  1  0.53441300  0.49487100  0.93473300  1
  C  C76  1  0.71070300  0.75294500  0.95515700  1
  C  C77  1  0.45524500  0.63908100  0.84117700  1
  C  C78  1  0.60033400  0.37977600  0.19304000  1
  C  C79  1  0.20195300  0.78597900  0.96521400  1
  C  C80  1  0.05596000  0.61062400  0.92685400  1
  C  C81  1  0.05596000  0.88937600  0.42685400  1
  C  C82  1  0.33983500  0.46415700  0.57679700  1
  C  C83  1  0.53441300  0.00512900  0.43473300  1
  C  C84  1  0.89407800  0.36911700  0.57567700  1
  C  C85  1  0.98261600  0.74255200  0.33607800  1
  C  C86  1  0.20370500  0.50379500  0.31336300  1
  C  C87  1  0.66016500  0.96415700  0.57679700  1
  C  C88  1  0.58659800  0.31099500  0.72384800  1
  C  C89  1  0.69647600  0.96296100  0.80779800  1
  C  C90  1  0.39966600  0.87977600  0.19304000  1
  C  C91  1  0.46558700  0.50512900  0.43473300  1
  C  C92  1  0.79804700  0.28597900  0.96521400  1
  C  C93  1  0.53158800  0.74730600  0.59099900  1
  C  C94  1  0.89407800  0.13088300  0.07567700  1
  C  C95  1  0.45524500  0.86091900  0.34117700  1
  C  C96  1  0.20370500  0.99620500  0.81336300  1
  C  C97  1  0.90948800  0.55894900  0.54419900  1
  C  C98  1  0.01738400  0.24255200  0.33607800  1
  C  C99  1  0.41340200  0.81099500  0.72384800  1
  C  C100  1  0.58659800  0.18900500  0.22384800  1
  C  C101  1  0.69647600  0.53703900  0.30779800  1
  C  C102  1  0.41340200  0.68900500  0.22384800  1
  C  C103  1  0.20195300  0.71402100  0.46521400  1
  C  C104  1  0.94404000  0.11062400  0.92685400  1
  C  C105  1  0.98412300  0.49768200  0.67805800  1
  C  C106  1  0.15472100  0.21546100  0.69779700  1
  C  C107  1  0.39966600  0.62022400  0.69304000  1
  C  C108  1  0.01738400  0.25744800  0.83607800  1
  C  C109  1  0.71070300  0.74705500  0.45515700  1
  C  C110  1  0.10592200  0.86911700  0.57567700  1
  C  C111  1  0.84527900  0.71546100  0.69779700  1
