# generated using pymatgen
data_CuNiC7
_symmetry_space_group_name_H-M   'P 1'
_cell_length_a   10.32096400
_cell_length_b   5.42481300
_cell_length_c   8.64929261
_cell_angle_alpha   89.65192237
_cell_angle_beta   90.00000000
_cell_angle_gamma   90.00000000
_symmetry_Int_Tables_number   1
_chemical_formula_structural   CuNiC7
_chemical_formula_sum   'Cu4 Ni4 C28'
_cell_volume   484.25889951
_cell_formula_units_Z   4
loop_
 _symmetry_equiv_pos_site_id
 _symmetry_equiv_pos_as_xyz
  1  'x, y, z'
loop_
 _atom_site_type_symbol
 _atom_site_label
 _atom_site_symmetry_multiplicity
 _atom_site_fract_x
 _atom_site_fract_y
 _atom_site_fract_z
 _atom_site_occupancy
  Ni  Ni0  1  0.68686100  0.29703300  0.99554700  1
  Ni  Ni1  1  0.18686100  0.70296700  0.50445300  1
  Ni  Ni2  1  0.31313900  0.70296700  0.00445300  1
  Ni  Ni3  1  0.81313900  0.29703300  0.49554700  1
  Cu  Cu4  1  0.58583200  0.76113000  0.67509200  1
  Cu  Cu5  1  0.08583200  0.23887000  0.82490800  1
  Cu  Cu6  1  0.41416800  0.23887000  0.32490800  1
  Cu  Cu7  1  0.91416800  0.76113000  0.17509200  1
  C  C8  1  0.91152300  0.76189500  0.76866400  1
  C  C9  1  0.41152300  0.23810500  0.73133600  1
  C  C10  1  0.08847700  0.23810500  0.23133600  1
  C  C11  1  0.58847700  0.76189500  0.26866400  1
  C  C12  1  0.75103900  0.61183600  0.74038300  1
  C  C13  1  0.25103900  0.38816400  0.75961700  1
  C  C14  1  0.24896100  0.38816400  0.25961700  1
  C  C15  1  0.74896100  0.61183600  0.24038300  1
  C  C16  1  0.89768400  0.66915900  0.96799000  1
  C  C17  1  0.39768400  0.33084100  0.53201000  1
  C  C18  1  0.10231600  0.33084100  0.03201000  1
  C  C19  1  0.60231600  0.66915900  0.46799000  1
  C  C20  1  0.07562800  0.88993100  0.79321200  1
  C  C21  1  0.57562800  0.11006900  0.70678800  1
  C  C22  1  0.92437200  0.11006900  0.20678800  1
  C  C23  1  0.42437200  0.88993100  0.29321200  1
  C  C24  1  0.91069200  0.83009300  0.55930700  1
  C  C25  1  0.41069200  0.16990700  0.94069300  1
  C  C26  1  0.08930800  0.16990700  0.44069300  1
  C  C27  1  0.58930800  0.83009300  0.05930700  1
  C  C28  1  0.84179600  0.06171800  0.80248800  1
  C  C29  1  0.34179600  0.93828200  0.69751200  1
  C  C30  1  0.15820400  0.93828200  0.19751200  1
  C  C31  1  0.65820400  0.06171800  0.30248800  1
  C  C32  1  0.98974400  0.47119200  0.70930900  1
  C  C33  1  0.48974400  0.52880800  0.79069100  1
  C  C34  1  0.01025600  0.52880800  0.29069100  1
  C  C35  1  0.51025600  0.47119200  0.20930900  1
