# generated using pymatgen
data_CuNi3C11
_symmetry_space_group_name_H-M   'P 1'
_cell_length_a   8.44287000
_cell_length_b   5.61962300
_cell_length_c   7.24876946
_cell_angle_alpha   75.88376560
_cell_angle_beta   90.00000000
_cell_angle_gamma   90.00000000
_symmetry_Int_Tables_number   1
_chemical_formula_structural   CuNi3C11
_chemical_formula_sum   'Cu2 Ni6 C22'
_cell_volume   333.53780908
_cell_formula_units_Z   2
loop_
 _symmetry_equiv_pos_site_id
 _symmetry_equiv_pos_as_xyz
  1  'x, y, z'
loop_
 _atom_site_type_symbol
 _atom_site_label
 _atom_site_symmetry_multiplicity
 _atom_site_fract_x
 _atom_site_fract_y
 _atom_site_fract_z
 _atom_site_occupancy
  C  C0  1  0.10739000  0.69364600  0.87279300  1
  C  C1  1  0.64327900  0.82615500  0.34800900  1
  C  C2  1  0.99992900  0.53129900  0.21794900  1
  C  C3  1  0.75000000  0.58699900  0.51064600  1
  C  C4  1  0.14327900  0.17384500  0.65199100  1
  C  C5  1  0.25000000  0.31096900  0.91102100  1
  C  C6  1  0.00007100  0.46870100  0.78205100  1
  C  C7  1  0.35672100  0.17384500  0.65199100  1
  C  C8  1  0.89918900  0.28274900  0.37884200  1
  C  C9  1  0.60081100  0.28274900  0.37884200  1
  C  C10  1  0.89261000  0.30635400  0.12720700  1
  C  C11  1  0.60739000  0.30635400  0.12720700  1
  C  C12  1  0.25000000  0.41300100  0.48935400  1
  C  C13  1  0.49992900  0.46870100  0.78205100  1
  C  C14  1  0.75000000  0.68903100  0.08897900  1
  C  C15  1  0.10081100  0.71725100  0.62115800  1
  C  C16  1  0.50007100  0.53129900  0.21794900  1
  C  C17  1  0.85672100  0.82615500  0.34800900  1
  C  C18  1  0.39261000  0.69364600  0.87279300  1
  C  C19  1  0.39918900  0.71725100  0.62115800  1
  Ni  Ni20  1  0.60362700  0.40967100  0.23739800  1
  Ni  Ni21  1  0.75000000  0.71164600  0.36833600  1
  Ni  Ni22  1  0.10362700  0.59032900  0.76260200  1
  Ni  Ni23  1  0.39637300  0.59032900  0.76260200  1
  Ni  Ni24  1  0.25000000  0.28835400  0.63166400  1
  Ni  Ni25  1  0.89637300  0.40967100  0.23739800  1
  C  C26  1  0.75000000  0.03514400  0.80254900  1
  C  C27  1  0.25000000  0.96485600  0.19745100  1
  Cu  Cu28  1  0.75000000  0.56258100  0.22358100  1
  Cu  Cu29  1  0.25000000  0.43741900  0.77641900  1
