# generated using pymatgen
data_CuNi12C7
_symmetry_space_group_name_H-M   'P 1'
_cell_length_a   10.46302573
_cell_length_b   10.46302573
_cell_length_c   6.88621000
_cell_angle_alpha   90.00000000
_cell_angle_beta   90.00000000
_cell_angle_gamma   119.99999827
_symmetry_Int_Tables_number   1
_chemical_formula_structural   CuNi12C7
_chemical_formula_sum   'Cu2 Ni24 C14'
_cell_volume   652.86815914
_cell_formula_units_Z   2
loop_
 _symmetry_equiv_pos_site_id
 _symmetry_equiv_pos_as_xyz
  1  'x, y, z'
loop_
 _atom_site_type_symbol
 _atom_site_label
 _atom_site_symmetry_multiplicity
 _atom_site_fract_x
 _atom_site_fract_y
 _atom_site_fract_z
 _atom_site_occupancy
  C  C0  1  0.46217900  0.92435800  0.31736500  1
  C  C1  1  0.07564200  0.53782100  0.31736500  1
  C  C2  1  0.53782100  0.46217900  0.81736500  1
  C  C3  1  0.46217900  0.53782100  0.31736500  1
  C  C4  1  0.53782100  0.07564200  0.81736500  1
  C  C5  1  0.92435800  0.46217900  0.81736500  1
  C  C6  1  0.69004200  0.84502100  0.08430900  1
  C  C7  1  0.15497900  0.84502100  0.08430900  1
  C  C8  1  0.84502100  0.69004200  0.58430900  1
  C  C9  1  0.84502100  0.15497900  0.58430900  1
  C  C10  1  0.33333300  0.66666700  0.75134600  1
  C  C11  1  0.30995800  0.15497900  0.58430900  1
  C  C12  1  0.66666700  0.33333300  0.25134600  1
  C  C13  1  0.15497900  0.30995800  0.08430900  1
  Ni  Ni14  1  0.41686400  0.08057200  0.51436300  1
  Ni  Ni15  1  0.18224900  0.36449900  0.32395000  1
  Ni  Ni16  1  0.81775100  0.18224900  0.82395000  1
  Ni  Ni17  1  0.66370700  0.08057200  0.51436300  1
  Ni  Ni18  1  0.58313600  0.91942800  0.01436300  1
  Ni  Ni19  1  0.66370700  0.58313600  0.51436300  1
  Ni  Ni20  1  0.81775100  0.63550100  0.82395000  1
  Ni  Ni21  1  0.08057200  0.41686400  0.01436300  1
  Ni  Ni22  1  0.41919800  0.58080200  0.63865000  1
  Ni  Ni23  1  0.41686400  0.33629300  0.51436300  1
  Ni  Ni24  1  0.58080200  0.16160400  0.13865000  1
  Ni  Ni25  1  0.41919800  0.83839600  0.63865000  1
  Ni  Ni26  1  0.33629300  0.41686400  0.01436300  1
  Ni  Ni27  1  0.58080200  0.41919800  0.13865000  1
  Ni  Ni28  1  0.83839600  0.41919800  0.13865000  1
  Ni  Ni29  1  0.58313600  0.66370700  0.01436300  1
  Ni  Ni30  1  0.63550100  0.81775100  0.32395000  1
  Ni  Ni31  1  0.91942800  0.58313600  0.51436300  1
  Ni  Ni32  1  0.18224900  0.81775100  0.32395000  1
  Ni  Ni33  1  0.33629300  0.91942800  0.01436300  1
  Ni  Ni34  1  0.91942800  0.33629300  0.51436300  1
  Ni  Ni35  1  0.36449900  0.18224900  0.82395000  1
  Ni  Ni36  1  0.08057200  0.66370700  0.01436300  1
  Ni  Ni37  1  0.16160400  0.58080200  0.63865000  1
  Cu  Cu38  1  0.66666700  0.33333300  0.77194200  1
  Cu  Cu39  1  0.33333300  0.66666700  0.27194200  1
