# generated using pymatgen
data_Cu2Ni3C2
_symmetry_space_group_name_H-M   'P 1'
_cell_length_a   9.81154300
_cell_length_b   3.78480100
_cell_length_c   5.28484539
_cell_angle_alpha   74.26933800
_cell_angle_beta   90.00000000
_cell_angle_gamma   90.00000000
_symmetry_Int_Tables_number   1
_chemical_formula_structural   Cu2Ni3C2
_chemical_formula_sum   'Cu4 Ni6 C4'
_cell_volume   188.90110598
_cell_formula_units_Z   2
loop_
 _symmetry_equiv_pos_site_id
 _symmetry_equiv_pos_as_xyz
  1  'x, y, z'
loop_
 _atom_site_type_symbol
 _atom_site_label
 _atom_site_symmetry_multiplicity
 _atom_site_fract_x
 _atom_site_fract_y
 _atom_site_fract_z
 _atom_site_occupancy
  C  C0  1  0.50000000  0.00000000  0.50000000  1
  C  C1  1  0.00000000  0.00000000  0.50000000  1
  C  C2  1  0.25000000  0.79189600  0.02744000  1
  C  C3  1  0.75000000  0.20810400  0.97256000  1
  Ni  Ni4  1  0.60914800  0.12035900  0.19819400  1
  Ni  Ni5  1  0.39085200  0.87964100  0.80180600  1
  Ni  Ni6  1  0.10914800  0.87964100  0.80180600  1
  Ni  Ni7  1  0.25000000  0.26534000  0.10179200  1
  Ni  Ni8  1  0.75000000  0.73466000  0.89820800  1
  Ni  Ni9  1  0.89085200  0.12035900  0.19819400  1
  Cu  Cu10  1  0.88801800  0.33264900  0.65168800  1
  Cu  Cu11  1  0.11198200  0.66735100  0.34831200  1
  Cu  Cu12  1  0.38801800  0.66735100  0.34831200  1
  Cu  Cu13  1  0.61198200  0.33264900  0.65168800  1
