# generated using pymatgen
data_CuNi15C11
_symmetry_space_group_name_H-M   'P 1'
_cell_length_a   8.60278143
_cell_length_b   8.60278143
_cell_length_c   24.01205600
_cell_angle_alpha   90.00000000
_cell_angle_beta   90.00000000
_cell_angle_gamma   133.63996858
_symmetry_Int_Tables_number   1
_chemical_formula_structural   CuNi15C11
_chemical_formula_sum   'Cu2 Ni30 C22'
_cell_volume   1286.05655662
_cell_formula_units_Z   2
loop_
 _symmetry_equiv_pos_site_id
 _symmetry_equiv_pos_as_xyz
  1  'x, y, z'
loop_
 _atom_site_type_symbol
 _atom_site_label
 _atom_site_symmetry_multiplicity
 _atom_site_fract_x
 _atom_site_fract_y
 _atom_site_fract_z
 _atom_site_occupancy
  C  C0  1  0.37943100  0.18109700  0.32212700  1
  C  C1  1  0.62056900  0.81890300  0.82212700  1
  C  C2  1  0.09788500  0.31475400  0.16384300  1
  C  C3  1  0.15534700  0.44460800  0.48288600  1
  C  C4  1  0.81890300  0.62056900  0.17787300  1
  C  C5  1  0.84465300  0.55539200  0.98288600  1
  C  C6  1  0.55539200  0.84465300  0.01711400  1
  C  C7  1  0.18109700  0.37943100  0.67787300  1
  C  C8  1  0.90211500  0.68524600  0.66384300  1
  C  C9  1  0.31475400  0.09788500  0.83615700  1
  C  C10  1  0.44460800  0.15534700  0.51711400  1
  C  C11  1  0.68524600  0.90211500  0.33615700  1
  C  C12  1  0.36764400  0.11100100  0.09462000  1
  C  C13  1  0.93525300  0.44890200  0.80497900  1
  C  C14  1  0.55109800  0.06474700  0.69502100  1
  C  C15  1  0.17392800  0.17392800  0.00000000  1
  C  C16  1  0.11100100  0.36764400  0.90538000  1
  C  C17  1  0.63235600  0.88899900  0.59462000  1
  C  C18  1  0.88899900  0.63235600  0.40538000  1
  C  C19  1  0.82607200  0.82607200  0.50000000  1
  C  C20  1  0.44890200  0.93525300  0.19502100  1
  C  C21  1  0.06474700  0.55109800  0.30497900  1
  Ni  Ni22  1  0.64401500  0.94928100  0.49360300  1
  Ni  Ni23  1  0.21783200  0.69227900  0.89018300  1
  Ni  Ni24  1  0.73896000  0.21522900  0.88433500  1
  Ni  Ni25  1  0.35598500  0.05071900  0.99360300  1
  Ni  Ni26  1  0.21522900  0.73896000  0.11566500  1
  Ni  Ni27  1  0.80812200  0.60930600  0.80384800  1
  Ni  Ni28  1  0.02902000  0.06377300  0.57362800  1
  Ni  Ni29  1  0.60930600  0.80812200  0.19615200  1
  Ni  Ni30  1  0.46763600  0.43949400  0.07255200  1
  Ni  Ni31  1  0.05071900  0.35598500  0.00639700  1
  Ni  Ni32  1  0.78216800  0.30772100  0.39018300  1
  Ni  Ni33  1  0.30772100  0.78216800  0.60981700  1
  Ni  Ni34  1  0.25572700  0.74427300  0.75000000  1
  Ni  Ni35  1  0.93622700  0.97098000  0.92637200  1
  Ni  Ni36  1  0.87355900  0.69694600  0.30922200  1
  Ni  Ni37  1  0.69694600  0.87355900  0.69077800  1
  Ni  Ni38  1  0.26104000  0.78477100  0.38433500  1
  Ni  Ni39  1  0.97098000  0.93622700  0.07362800  1
  Ni  Ni40  1  0.19187800  0.39069400  0.30384800  1
  Ni  Ni41  1  0.56050600  0.53236400  0.42744800  1
  Ni  Ni42  1  0.74427300  0.25572700  0.25000000  1
  Ni  Ni43  1  0.39069400  0.19187800  0.69615200  1
  Ni  Ni44  1  0.94928100  0.64401500  0.50639700  1
  Ni  Ni45  1  0.06377300  0.02902000  0.42637200  1
  Ni  Ni46  1  0.69227900  0.21783200  0.10981700  1
  Ni  Ni47  1  0.12644100  0.30305400  0.80922200  1
  Ni  Ni48  1  0.43949400  0.46763600  0.92744800  1
  Ni  Ni49  1  0.53236400  0.56050600  0.57255200  1
  Ni  Ni50  1  0.78477100  0.26104000  0.61566500  1
  Ni  Ni51  1  0.30305400  0.12644100  0.19077800  1
  Cu  Cu52  1  0.75622000  0.24378000  0.75000000  1
  Cu  Cu53  1  0.24378000  0.75622000  0.25000000  1
