# generated using pymatgen
data_Cu2Ni7C25
_symmetry_space_group_name_H-M   'P 1'
_cell_length_a   17.70297470
_cell_length_b   17.70297491
_cell_length_c   17.70297502
_cell_angle_alpha   19.23036361
_cell_angle_beta   19.23036214
_cell_angle_gamma   19.23036466
_symmetry_Int_Tables_number   1
_chemical_formula_structural   Cu2Ni7C25
_chemical_formula_sum   'Cu2 Ni7 C25'
_cell_volume   526.12227227
_cell_formula_units_Z   1
loop_
 _symmetry_equiv_pos_site_id
 _symmetry_equiv_pos_as_xyz
  1  'x, y, z'
loop_
 _atom_site_type_symbol
 _atom_site_label
 _atom_site_symmetry_multiplicity
 _atom_site_fract_x
 _atom_site_fract_y
 _atom_site_fract_z
 _atom_site_occupancy
  Ni  Ni0  1  0.61166900  0.61166900  0.61166900  1
  Ni  Ni1  1  0.38833100  0.38833100  0.38833100  1
  Ni  Ni2  1  0.85410300  0.85410300  0.85410300  1
  Ni  Ni3  1  0.00000000  0.00000000  0.00000000  1
  Ni  Ni4  1  0.14589700  0.14589700  0.14589700  1
  Ni  Ni5  1  0.77389600  0.77389600  0.77389600  1
  Ni  Ni6  1  0.22610400  0.22610400  0.22610400  1
  Cu  Cu7  1  0.07465000  0.07465000  0.07465000  1
  Cu  Cu8  1  0.92535000  0.92535000  0.92535000  1
  C  C9  1  0.45055600  0.45055600  0.45055600  1
  C  C10  1  0.54944400  0.54944400  0.54944400  1
  C  C11  1  0.50000000  0.50000000  0.50000000  1
  C  C12  1  0.69705200  0.69705200  0.69705200  1
  C  C13  1  0.30294800  0.30294800  0.30294800  1
  C  C14  1  0.18500300  0.62255300  0.62255300  1
  C  C15  1  0.26333100  0.72190500  0.72190500  1
  C  C16  1  0.66435800  0.66435800  0.66435800  1
  C  C17  1  0.27809500  0.27809500  0.73666900  1
  C  C18  1  0.38954100  0.86827400  0.86827400  1
  C  C19  1  0.61045900  0.13172600  0.13172600  1
  C  C20  1  0.62255300  0.62255300  0.18500300  1
  C  C21  1  0.13172600  0.61045900  0.13172600  1
  C  C22  1  0.33564200  0.33564200  0.33564200  1
  C  C23  1  0.86827400  0.86827400  0.38954100  1
  C  C24  1  0.27809500  0.73666900  0.27809500  1
  C  C25  1  0.72190500  0.26333100  0.72190500  1
  C  C26  1  0.73666900  0.27809500  0.27809500  1
  C  C27  1  0.13172600  0.13172600  0.61045900  1
  C  C28  1  0.37744700  0.81499700  0.37744700  1
  C  C29  1  0.81499700  0.37744700  0.37744700  1
  C  C30  1  0.37744700  0.37744700  0.81499700  1
  C  C31  1  0.72190500  0.72190500  0.26333100  1
  C  C32  1  0.86827400  0.38954100  0.86827400  1
  C  C33  1  0.62255300  0.18500300  0.62255300  1
