# generated using pymatgen
data_Cu4NiC4
_symmetry_space_group_name_H-M   'P 1'
_cell_length_a   7.58720948
_cell_length_b   7.58720948
_cell_length_c   10.06009200
_cell_angle_alpha   90.00000000
_cell_angle_beta   90.00000000
_cell_angle_gamma   119.99999544
_symmetry_Int_Tables_number   1
_chemical_formula_structural   Cu4NiC4
_chemical_formula_sum   'Cu8 Ni2 C8'
_cell_volume   501.52981207
_cell_formula_units_Z   2
loop_
 _symmetry_equiv_pos_site_id
 _symmetry_equiv_pos_as_xyz
  1  'x, y, z'
loop_
 _atom_site_type_symbol
 _atom_site_label
 _atom_site_symmetry_multiplicity
 _atom_site_fract_x
 _atom_site_fract_y
 _atom_site_fract_z
 _atom_site_occupancy
  C  C0  1  0.49738900  0.99477800  0.24259100  1
  C  C1  1  0.99477800  0.49738900  0.74259100  1
  C  C2  1  0.00522200  0.50261100  0.24259100  1
  C  C3  1  0.50261100  0.49738900  0.74259100  1
  C  C4  1  0.50261100  0.00522200  0.74259100  1
  C  C5  1  0.49738900  0.50261100  0.24259100  1
  Ni  Ni6  1  0.00000000  0.00000000  0.73436700  1
  Ni  Ni7  1  0.00000000  0.00000000  0.23436700  1
  Cu  Cu8  1  0.70149700  0.85074800  0.85476400  1
  Cu  Cu9  1  0.66666700  0.33333300  0.61731500  1
  Cu  Cu10  1  0.85074800  0.14925200  0.35476400  1
  Cu  Cu11  1  0.14925200  0.29850300  0.85476400  1
  Cu  Cu12  1  0.29850300  0.14925200  0.35476400  1
  Cu  Cu13  1  0.85074800  0.70149700  0.35476400  1
  Cu  Cu14  1  0.14925200  0.85074800  0.85476400  1
  Cu  Cu15  1  0.33333300  0.66666700  0.11731500  1
  C  C16  1  0.66666700  0.33333300  0.03625600  1
  C  C17  1  0.33333300  0.66666700  0.53625600  1
