# generated using pymatgen
data_Cu6Ni2C
_symmetry_space_group_name_H-M   'P 1'
_cell_length_a   7.01161800
_cell_length_b   8.46719900
_cell_length_c   15.68210282
_cell_angle_alpha   58.88533695
_cell_angle_beta   90.00000000
_cell_angle_gamma   90.00000000
_symmetry_Int_Tables_number   1
_chemical_formula_structural   Cu6Ni2C
_chemical_formula_sum   'Cu36 Ni12 C6'
_cell_volume   797.08474095
_cell_formula_units_Z   6
loop_
 _symmetry_equiv_pos_site_id
 _symmetry_equiv_pos_as_xyz
  1  'x, y, z'
loop_
 _atom_site_type_symbol
 _atom_site_label
 _atom_site_symmetry_multiplicity
 _atom_site_fract_x
 _atom_site_fract_y
 _atom_site_fract_z
 _atom_site_occupancy
  C  C0  1  0.76809800  0.63398900  0.33907300  1
  C  C1  1  0.73190200  0.63398900  0.83907300  1
  C  C2  1  0.26809800  0.36601100  0.16092700  1
  C  C3  1  0.23190200  0.36601100  0.66092700  1
  C  C4  1  0.50000000  0.00000000  0.50000000  1
  C  C5  1  0.00000000  0.00000000  0.00000000  1
  Ni  Ni6  1  0.74715600  0.67141800  0.55401000  1
  Ni  Ni7  1  0.24205900  0.78687800  0.67726200  1
  Ni  Ni8  1  0.75794100  0.21312200  0.32273800  1
  Ni  Ni9  1  0.24715600  0.32858200  0.94599000  1
  Ni  Ni10  1  0.25284400  0.32858200  0.44599000  1
  Ni  Ni11  1  0.73047500  0.10725800  0.10990300  1
  Ni  Ni12  1  0.76952500  0.10725800  0.60990300  1
  Ni  Ni13  1  0.74205900  0.21312200  0.82273800  1
  Ni  Ni14  1  0.23047500  0.89274200  0.39009700  1
  Ni  Ni15  1  0.75284400  0.67141800  0.05401000  1
  Ni  Ni16  1  0.25794100  0.78687800  0.17726200  1
  Ni  Ni17  1  0.26952500  0.89274200  0.89009700  1
  Cu  Cu18  1  0.37456400  0.69593100  0.24355000  1
  Cu  Cu19  1  0.62543600  0.30406900  0.75645000  1
  Cu  Cu20  1  0.40595800  0.29389400  0.49866200  1
  Cu  Cu21  1  0.90595800  0.70610600  0.00133800  1
  Cu  Cu22  1  0.11679000  0.85689000  0.34305300  1
  Cu  Cu23  1  0.14099200  0.44979100  0.43493000  1
  Cu  Cu24  1  0.88321000  0.14311000  0.65694700  1
  Cu  Cu25  1  0.77502500  0.03998800  0.38354600  1
  Cu  Cu26  1  0.77388800  0.77178400  0.59192000  1
  Cu  Cu27  1  0.71612900  0.17280700  0.01592600  1
  Cu  Cu28  1  0.59404200  0.70610600  0.50133800  1
  Cu  Cu29  1  0.28387100  0.82719300  0.98407400  1
  Cu  Cu30  1  0.60941000  0.28901200  0.33580700  1
  Cu  Cu31  1  0.89059000  0.28901200  0.83580700  1
  Cu  Cu32  1  0.72497500  0.03998800  0.88354600  1
  Cu  Cu33  1  0.27502500  0.96001200  0.11645400  1
  Cu  Cu34  1  0.38321000  0.85689000  0.84305300  1
  Cu  Cu35  1  0.87456400  0.30406900  0.25645000  1
  Cu  Cu36  1  0.27388800  0.22821600  0.90808000  1
  Cu  Cu37  1  0.85900800  0.55020900  0.56507000  1
  Cu  Cu38  1  0.35900800  0.44979100  0.93493000  1
  Cu  Cu39  1  0.37413300  0.00138500  0.34759100  1
  Cu  Cu40  1  0.61679000  0.14311000  0.15694700  1
  Cu  Cu41  1  0.12543600  0.69593100  0.74355000  1
  Cu  Cu42  1  0.22497500  0.96001200  0.61645400  1
  Cu  Cu43  1  0.22611200  0.22821600  0.40808000  1
  Cu  Cu44  1  0.64099200  0.55020900  0.06507000  1
  Cu  Cu45  1  0.09404200  0.29389400  0.99866200  1
  Cu  Cu46  1  0.87413300  0.99861500  0.15240900  1
  Cu  Cu47  1  0.39059000  0.71098800  0.66419300  1
  Cu  Cu48  1  0.12586700  0.00138500  0.84759100  1
  Cu  Cu49  1  0.72611200  0.77178400  0.09192000  1
  Cu  Cu50  1  0.10941000  0.71098800  0.16419300  1
  Cu  Cu51  1  0.78387100  0.17280700  0.51592600  1
  Cu  Cu52  1  0.62586700  0.99861500  0.65240900  1
  Cu  Cu53  1  0.21612900  0.82719300  0.48407400  1
