# generated using pymatgen
data_Cu4Ni13C3
_symmetry_space_group_name_H-M   'P 1'
_cell_length_a   6.43314100
_cell_length_b   7.16619352
_cell_length_c   8.84567868
_cell_angle_alpha   81.74643101
_cell_angle_beta   73.55040587
_cell_angle_gamma   76.63519404
_symmetry_Int_Tables_number   1
_chemical_formula_structural   Cu4Ni13C3
_chemical_formula_sum   'Cu8 Ni26 C6'
_cell_volume   379.17736044
_cell_formula_units_Z   2
loop_
 _symmetry_equiv_pos_site_id
 _symmetry_equiv_pos_as_xyz
  1  'x, y, z'
loop_
 _atom_site_type_symbol
 _atom_site_label
 _atom_site_symmetry_multiplicity
 _atom_site_fract_x
 _atom_site_fract_y
 _atom_site_fract_z
 _atom_site_occupancy
  C  C0  1  0.45191900  0.91099200  0.87489900  1
  C  C1  1  0.54808100  0.08900800  0.12510100  1
  Ni  Ni2  1  0.28496900  0.62430700  0.18645800  1
  Ni  Ni3  1  0.28853200  0.36246500  0.77524500  1
  Ni  Ni4  1  0.03397800  0.15724600  0.43242500  1
  Ni  Ni5  1  0.71146800  0.63753500  0.22475500  1
  Ni  Ni6  1  0.95174300  0.78784100  0.77223200  1
  Ni  Ni7  1  0.40706100  0.76126000  0.60696900  1
  Ni  Ni8  1  0.97803500  0.60091400  0.65161900  1
  Ni  Ni9  1  0.34102200  0.40796700  0.45428700  1
  Ni  Ni10  1  0.31192700  0.76178700  0.32999500  1
  Ni  Ni11  1  0.71503100  0.37569300  0.81354200  1
  Ni  Ni12  1  0.79437200  0.07728500  0.12401100  1
  Ni  Ni13  1  0.84859700  0.12809200  0.80546400  1
  Ni  Ni14  1  0.64101700  0.83782600  0.47076500  1
  Ni  Ni15  1  0.68807300  0.23821300  0.67000500  1
  Ni  Ni16  1  0.84775900  0.71171500  0.02817100  1
  Ni  Ni17  1  0.67996800  0.53530000  0.06253700  1
  Ni  Ni18  1  0.04825700  0.21215900  0.22776800  1
  Ni  Ni19  1  0.96602200  0.84275400  0.56757500  1
  Ni  Ni20  1  0.59293900  0.23874000  0.39303100  1
  Ni  Ni21  1  0.15224100  0.28828500  0.97182900  1
  Ni  Ni22  1  0.02196500  0.39908600  0.34838100  1
  Ni  Ni23  1  0.32003200  0.46470000  0.93746300  1
  Ni  Ni24  1  0.65897800  0.59203300  0.54571300  1
  Ni  Ni25  1  0.20562800  0.92271500  0.87598900  1
  Ni  Ni26  1  0.35898300  0.16217400  0.52923500  1
  Ni  Ni27  1  0.15140300  0.87190800  0.19453600  1
  Cu  Cu28  1  0.10295300  0.24768400  0.32511300  1
  Cu  Cu29  1  0.69837500  0.23214400  0.79304500  1
  Cu  Cu30  1  0.41175300  0.25843100  0.42136200  1
  Cu  Cu31  1  0.89704700  0.75231600  0.67488700  1
  Cu  Cu32  1  0.69491100  0.66944500  0.10239000  1
  Cu  Cu33  1  0.30508900  0.33055500  0.89761000  1
  Cu  Cu34  1  0.58824700  0.74156900  0.57863800  1
  Cu  Cu35  1  0.30162500  0.76785600  0.20695500  1
  C  C36  1  0.65889500  0.77930300  0.71102000  1
  C  C37  1  0.34110500  0.22069700  0.28898000  1
  C  C38  1  0.50051100  0.82383000  0.09456700  1
  C  C39  1  0.49948900  0.17617000  0.90543300  1
