# generated using pymatgen
data_Cu3(Ni3C)4
_symmetry_space_group_name_H-M   'P 1'
_cell_length_a   6.44154900
_cell_length_b   9.90013500
_cell_length_c   10.60756800
_cell_angle_alpha   90.00000000
_cell_angle_beta   90.00000000
_cell_angle_gamma   90.00000000
_symmetry_Int_Tables_number   1
_chemical_formula_structural   Cu3(Ni3C)4
_chemical_formula_sum   'Cu12 Ni48 C16'
_cell_volume   676.46799796
_cell_formula_units_Z   4
loop_
 _symmetry_equiv_pos_site_id
 _symmetry_equiv_pos_as_xyz
  1  'x, y, z'
loop_
 _atom_site_type_symbol
 _atom_site_label
 _atom_site_symmetry_multiplicity
 _atom_site_fract_x
 _atom_site_fract_y
 _atom_site_fract_z
 _atom_site_occupancy
  Ni  Ni0  1  0.44759100  0.37408700  0.09862300  1
  Ni  Ni1  1  0.84080500  0.14072600  0.24450000  1
  Ni  Ni2  1  0.67577000  0.62506300  0.36510000  1
  Ni  Ni3  1  0.62483300  0.75000000  0.08955700  1
  Ni  Ni4  1  0.84080500  0.35927400  0.24450000  1
  Ni  Ni5  1  0.26850600  0.46254600  0.99786600  1
  Ni  Ni6  1  0.05240900  0.37408700  0.59862300  1
  Ni  Ni7  1  0.15919500  0.64072600  0.75550000  1
  Ni  Ni8  1  0.76850600  0.53745400  0.50213400  1
  Ni  Ni9  1  0.15919500  0.85927400  0.75550000  1
  Ni  Ni10  1  0.73149400  0.96254600  0.00213400  1
  Ni  Ni11  1  0.67577000  0.87493700  0.36510000  1
  Ni  Ni12  1  0.03920600  0.15891100  0.86081800  1
  Ni  Ni13  1  0.34080500  0.64072600  0.25550000  1
  Ni  Ni14  1  0.03920600  0.34108900  0.86081800  1
  Ni  Ni15  1  0.56711900  0.25000000  0.49212400  1
  Ni  Ni16  1  0.34080500  0.85927400  0.25550000  1
  Ni  Ni17  1  0.17577000  0.37493700  0.13490000  1
  Ni  Ni18  1  0.32423000  0.37493700  0.63490000  1
  Ni  Ni19  1  0.87516700  0.75000000  0.58955700  1
  Ni  Ni20  1  0.26850600  0.03745400  0.99786600  1
  Ni  Ni21  1  0.43288100  0.75000000  0.50787600  1
  Ni  Ni22  1  0.96079400  0.65891100  0.13918200  1
  Ni  Ni23  1  0.37516700  0.25000000  0.91044300  1
  Ni  Ni24  1  0.23149400  0.03745400  0.49786600  1
  Ni  Ni25  1  0.93288100  0.25000000  0.99212400  1
  Ni  Ni26  1  0.17577000  0.12506300  0.13490000  1
  Ni  Ni27  1  0.44759100  0.12591300  0.09862300  1
  Ni  Ni28  1  0.53920600  0.65891100  0.63918200  1
  Ni  Ni29  1  0.73149400  0.53745400  0.00213400  1
  Ni  Ni30  1  0.65919500  0.35927400  0.74450000  1
  Ni  Ni31  1  0.55240900  0.87408700  0.90137700  1
  Ni  Ni32  1  0.05240900  0.12591300  0.59862300  1
  Ni  Ni33  1  0.06711900  0.75000000  0.00787600  1
  Ni  Ni34  1  0.32423000  0.12506300  0.63490000  1
  Ni  Ni35  1  0.65919500  0.14072600  0.74450000  1
  Ni  Ni36  1  0.23149400  0.46254600  0.49786600  1
  Ni  Ni37  1  0.94759100  0.87408700  0.40137700  1
  Ni  Ni38  1  0.76850600  0.96254600  0.50213400  1
  Ni  Ni39  1  0.82423000  0.62506300  0.86510000  1
  Ni  Ni40  1  0.12483300  0.25000000  0.41044300  1
  Ni  Ni41  1  0.82423000  0.87493700  0.86510000  1
  Ni  Ni42  1  0.96079400  0.84108900  0.13918200  1
  Ni  Ni43  1  0.46079400  0.34108900  0.36081800  1
  Ni  Ni44  1  0.46079400  0.15891100  0.36081800  1
  Ni  Ni45  1  0.55240900  0.62591300  0.90137700  1
  Ni  Ni46  1  0.53920600  0.84108900  0.63918200  1
  Ni  Ni47  1  0.94759100  0.62591300  0.40137700  1
  Cu  Cu48  1  0.29061900  0.12551600  0.05883700  1
  Cu  Cu49  1  0.20938100  0.37448400  0.55883700  1
  Cu  Cu50  1  0.05282800  0.25000000  0.91882400  1
  Cu  Cu51  1  0.70938100  0.62551600  0.94116300  1
  Cu  Cu52  1  0.20938100  0.12551600  0.55883700  1
  Cu  Cu53  1  0.29061900  0.37448400  0.05883700  1
  Cu  Cu54  1  0.70938100  0.87448400  0.94116300  1
  Cu  Cu55  1  0.55282800  0.75000000  0.58117600  1
  Cu  Cu56  1  0.94717200  0.75000000  0.08117600  1
  Cu  Cu57  1  0.79061900  0.62551600  0.44116300  1
  Cu  Cu58  1  0.44717200  0.25000000  0.41882400  1
  Cu  Cu59  1  0.79061900  0.87448400  0.44116300  1
  C  C60  1  0.23932700  0.25000000  0.48129100  1
  C  C61  1  0.76067300  0.75000000  0.51870900  1
  C  C62  1  0.26067300  0.25000000  0.98129100  1
  C  C63  1  0.73932700  0.75000000  0.01870900  1
  C  C64  1  0.77143900  0.06531500  0.19634400  1
  C  C65  1  0.77143900  0.43468500  0.19634400  1
  C  C66  1  0.06835800  0.75000000  0.69518500  1
  C  C67  1  0.22856100  0.93468500  0.80365600  1
  C  C68  1  0.27143900  0.93468500  0.30365600  1
  C  C69  1  0.56835800  0.25000000  0.80481500  1
  C  C70  1  0.72856100  0.06531500  0.69634400  1
  C  C71  1  0.93164200  0.25000000  0.30481500  1
  C  C72  1  0.27143900  0.56531500  0.30365600  1
  C  C73  1  0.43164200  0.75000000  0.19518500  1
  C  C74  1  0.22856100  0.56531500  0.80365600  1
  C  C75  1  0.72856100  0.43468500  0.69634400  1
