# generated using pymatgen
data_Cu4NiC4
_symmetry_space_group_name_H-M   'P 1'
_cell_length_a   12.43187300
_cell_length_b   12.43187300
_cell_length_c   12.43187300
_cell_angle_alpha   90.00000000
_cell_angle_beta   90.00000000
_cell_angle_gamma   90.00000000
_symmetry_Int_Tables_number   1
_chemical_formula_structural   Cu4NiC4
_chemical_formula_sum   'Cu32 Ni8 C32'
_cell_volume   1921.36420086
_cell_formula_units_Z   8
loop_
 _symmetry_equiv_pos_site_id
 _symmetry_equiv_pos_as_xyz
  1  'x, y, z'
loop_
 _atom_site_type_symbol
 _atom_site_label
 _atom_site_symmetry_multiplicity
 _atom_site_fract_x
 _atom_site_fract_y
 _atom_site_fract_z
 _atom_site_occupancy
  C  C0  1  0.27368300  0.46581900  0.56051700  1
  C  C1  1  0.72444800  0.77555200  0.22444800  1
  C  C2  1  0.96581900  0.56051700  0.22631700  1
  C  C3  1  0.43948300  0.77368300  0.03418100  1
  C  C4  1  0.27555200  0.27555200  0.27555200  1
  C  C5  1  0.03418100  0.06051700  0.27368300  1
  C  C6  1  0.96581900  0.93948300  0.72631700  1
  C  C7  1  0.22444800  0.72444800  0.77555200  1
  C  C8  1  0.56051700  0.27368300  0.46581900  1
  C  C9  1  0.22631700  0.53418100  0.06051700  1
  C  C10  1  0.56051700  0.22631700  0.96581900  1
  C  C11  1  0.72631700  0.96581900  0.93948300  1
  C  C12  1  0.53418100  0.06051700  0.22631700  1
  C  C13  1  0.22631700  0.96581900  0.56051700  1
  C  C14  1  0.06051700  0.22631700  0.53418100  1
  C  C15  1  0.46581900  0.56051700  0.27368300  1
  C  C16  1  0.27368300  0.03418100  0.06051700  1
  C  C17  1  0.93948300  0.72631700  0.96581900  1
  C  C18  1  0.46581900  0.93948300  0.77368300  1
  C  C19  1  0.93948300  0.77368300  0.46581900  1
  C  C20  1  0.72444800  0.72444800  0.72444800  1
  C  C21  1  0.77555200  0.22444800  0.72444800  1
  C  C22  1  0.77368300  0.03418100  0.43948300  1
  C  C23  1  0.77555200  0.27555200  0.22444800  1
  C  C24  1  0.27555200  0.22444800  0.77555200  1
  C  C25  1  0.53418100  0.43948300  0.72631700  1
  C  C26  1  0.03418100  0.43948300  0.77368300  1
  C  C27  1  0.43948300  0.72631700  0.53418100  1
  C  C28  1  0.22444800  0.77555200  0.27555200  1
  C  C29  1  0.72631700  0.53418100  0.43948300  1
  C  C30  1  0.77368300  0.46581900  0.93948300  1
  C  C31  1  0.06051700  0.27368300  0.03418100  1
  Ni  Ni32  1  0.60107400  0.60107400  0.60107400  1
  Ni  Ni33  1  0.39892600  0.39892600  0.39892600  1
  Ni  Ni34  1  0.89892600  0.10107400  0.60107400  1
  Ni  Ni35  1  0.10107400  0.60107400  0.89892600  1
  Ni  Ni36  1  0.89892600  0.39892600  0.10107400  1
  Ni  Ni37  1  0.60107400  0.89892600  0.10107400  1
  Ni  Ni38  1  0.39892600  0.10107400  0.89892600  1
  Ni  Ni39  1  0.10107400  0.89892600  0.39892600  1
  Cu  Cu40  1  0.82971300  0.42371200  0.74664700  1
  Cu  Cu41  1  0.24664700  0.82971300  0.07628800  1
  Cu  Cu42  1  0.24664700  0.67028700  0.57628800  1
  Cu  Cu43  1  0.92371200  0.75335300  0.17028700  1
  Cu  Cu44  1  0.92416800  0.57583200  0.42416800  1
  Cu  Cu45  1  0.57628800  0.25335300  0.17028700  1
  Cu  Cu46  1  0.07628800  0.24664700  0.82971300  1
  Cu  Cu47  1  0.07628800  0.25335300  0.32971300  1
  Cu  Cu48  1  0.32971300  0.07628800  0.25335300  1
  Cu  Cu49  1  0.57583200  0.07583200  0.42416800  1
  Cu  Cu50  1  0.75335300  0.32971300  0.42371200  1
  Cu  Cu51  1  0.67028700  0.57628800  0.24664700  1
  Cu  Cu52  1  0.82971300  0.07628800  0.24664700  1
  Cu  Cu53  1  0.42371200  0.75335300  0.32971300  1
  Cu  Cu54  1  0.75335300  0.17028700  0.92371200  1
  Cu  Cu55  1  0.07583200  0.42416800  0.57583200  1
  Cu  Cu56  1  0.32971300  0.42371200  0.75335300  1
  Cu  Cu57  1  0.74664700  0.82971300  0.42371200  1
  Cu  Cu58  1  0.25335300  0.32971300  0.07628800  1
  Cu  Cu59  1  0.42371200  0.74664700  0.82971300  1
  Cu  Cu60  1  0.42416800  0.57583200  0.07583200  1
  Cu  Cu61  1  0.92416800  0.92416800  0.92416800  1
  Cu  Cu62  1  0.17028700  0.57628800  0.25335300  1
  Cu  Cu63  1  0.67028700  0.92371200  0.74664700  1
  Cu  Cu64  1  0.17028700  0.92371200  0.75335300  1
  Cu  Cu65  1  0.92371200  0.74664700  0.67028700  1
  Cu  Cu66  1  0.57628800  0.24664700  0.67028700  1
  Cu  Cu67  1  0.25335300  0.17028700  0.57628800  1
  Cu  Cu68  1  0.74664700  0.67028700  0.92371200  1
  Cu  Cu69  1  0.42416800  0.92416800  0.57583200  1
  Cu  Cu70  1  0.07583200  0.07583200  0.07583200  1
  Cu  Cu71  1  0.57583200  0.42416800  0.92416800  1
