# generated using pymatgen
data_Cu17NiC9
_symmetry_space_group_name_H-M   'P 1'
_cell_length_a   13.16555002
_cell_length_b   13.16555002
_cell_length_c   9.59586889
_cell_angle_alpha   89.12789733
_cell_angle_beta   89.12789733
_cell_angle_gamma   94.79065172
_symmetry_Int_Tables_number   1
_chemical_formula_structural   Cu17NiC9
_chemical_formula_sum   'Cu34 Ni2 C18'
_cell_volume   1657.03869327
_cell_formula_units_Z   2
loop_
 _symmetry_equiv_pos_site_id
 _symmetry_equiv_pos_as_xyz
  1  'x, y, z'
loop_
 _atom_site_type_symbol
 _atom_site_label
 _atom_site_symmetry_multiplicity
 _atom_site_fract_x
 _atom_site_fract_y
 _atom_site_fract_z
 _atom_site_occupancy
  C  C0  1  0.16797300  0.27456200  0.83215700  1
  C  C1  1  0.54455000  0.45545000  0.75000000  1
  C  C2  1  0.27456200  0.16797300  0.33215700  1
  C  C3  1  0.72543800  0.83202700  0.66784300  1
  C  C4  1  0.45545000  0.54455000  0.25000000  1
  C  C5  1  0.83202700  0.72543800  0.16784300  1
  C  C6  1  0.30136900  0.94741300  0.73811500  1
  C  C7  1  0.38261900  0.76008600  0.85637300  1
  C  C8  1  0.80363700  0.16425000  0.01974900  1
  C  C9  1  0.61738100  0.23991400  0.14362700  1
  C  C10  1  0.83575000  0.19636300  0.48025100  1
  C  C11  1  0.16425000  0.80363700  0.51974900  1
  C  C12  1  0.76008600  0.38261900  0.35637300  1
  C  C13  1  0.23991400  0.61738100  0.64362700  1
  C  C14  1  0.94741300  0.30136900  0.23811500  1
  C  C15  1  0.05258700  0.69863100  0.76188500  1
  C  C16  1  0.19636300  0.83575000  0.98025100  1
  C  C17  1  0.69863100  0.05258700  0.26188500  1
  Ni  Ni18  1  0.77744300  0.22255700  0.25000000  1
  Ni  Ni19  1  0.22255700  0.77744300  0.75000000  1
  Cu  Cu20  1  0.64071600  0.20122400  0.88073900  1
  Cu  Cu21  1  0.43487200  0.30944300  0.06219000  1
  Cu  Cu22  1  0.88154300  0.11845700  0.75000000  1
  Cu  Cu23  1  0.03112700  0.25520600  0.47669300  1
  Cu  Cu24  1  0.48936700  0.93500800  0.81642300  1
  Cu  Cu25  1  0.69055700  0.56512800  0.43781000  1
  Cu  Cu26  1  0.43822300  0.68896600  0.60456600  1
  Cu  Cu27  1  0.14436200  0.36291300  0.16561300  1
  Cu  Cu28  1  0.34978300  0.90091100  0.47462700  1
  Cu  Cu29  1  0.56177700  0.31103400  0.39543400  1
  Cu  Cu30  1  0.36291300  0.14436200  0.66561300  1
  Cu  Cu31  1  0.87305200  0.00988600  0.38950600  1
  Cu  Cu32  1  0.90091100  0.34978300  0.97462700  1
  Cu  Cu33  1  0.00988600  0.87305200  0.88950600  1
  Cu  Cu34  1  0.11845700  0.88154300  0.25000000  1
  Cu  Cu35  1  0.68896600  0.43822300  0.10456600  1
  Cu  Cu36  1  0.06499200  0.51063300  0.68357700  1
  Cu  Cu37  1  0.56512800  0.69055700  0.93781000  1
  Cu  Cu38  1  0.25520600  0.03112700  0.97669300  1
  Cu  Cu39  1  0.09908900  0.65021700  0.02537300  1
  Cu  Cu40  1  0.99011400  0.12694800  0.11049400  1
  Cu  Cu41  1  0.12694800  0.99011400  0.61049400  1
  Cu  Cu42  1  0.65021700  0.09908900  0.52537300  1
  Cu  Cu43  1  0.31103400  0.56177700  0.89543400  1
  Cu  Cu44  1  0.20122400  0.64071600  0.38073900  1
  Cu  Cu45  1  0.51063300  0.06499200  0.18357700  1
  Cu  Cu46  1  0.30944300  0.43487200  0.56219000  1
  Cu  Cu47  1  0.35928400  0.79877600  0.11926100  1
  Cu  Cu48  1  0.96887300  0.74479400  0.52330700  1
  Cu  Cu49  1  0.79877600  0.35928400  0.61926100  1
  Cu  Cu50  1  0.85563800  0.63708700  0.83438700  1
  Cu  Cu51  1  0.74479400  0.96887300  0.02330700  1
  Cu  Cu52  1  0.93500800  0.48936700  0.31642300  1
  Cu  Cu53  1  0.63708700  0.85563800  0.33438700  1
