# generated using pymatgen
data_Cu50Ni23
_symmetry_space_group_name_H-M   'P 1'
_cell_length_a   6.11670700
_cell_length_b   10.15127100
_cell_length_c   10.37678508
_cell_angle_alpha   95.93865850
_cell_angle_beta   95.40237519
_cell_angle_gamma   96.37012997
_symmetry_Int_Tables_number   1
_chemical_formula_structural   Cu50Ni23
_chemical_formula_sum   'Cu50 Ni23'
_cell_volume   633.25755030
_cell_formula_units_Z   1
loop_
 _symmetry_equiv_pos_site_id
 _symmetry_equiv_pos_as_xyz
  1  'x, y, z'
loop_
 _atom_site_type_symbol
 _atom_site_label
 _atom_site_symmetry_multiplicity
 _atom_site_fract_x
 _atom_site_fract_y
 _atom_site_fract_z
 _atom_site_occupancy
  Ni  Ni0  1  0.84326900  0.52649800  0.60601100  1
  Ni  Ni1  1  0.76741700  0.27894900  0.39244800  1
  Ni  Ni2  1  0.44216900  0.32042400  0.59844800  1
  Ni  Ni3  1  0.69273800  0.04594700  0.19795900  1
  Ni  Ni4  1  0.35713200  0.08280100  0.39379900  1
  Ni  Ni5  1  0.60981300  0.79961900  0.99250300  1
  Ni  Ni6  1  0.03925400  0.11931400  0.59952700  1
  Ni  Ni7  1  0.28163500  0.84099200  0.19726800  1
  Ni  Ni8  1  0.53263300  0.56613700  0.80032900  1
  Ni  Ni9  1  0.96074600  0.88068600  0.40047300  1
  Ni  Ni10  1  0.19545100  0.60288600  0.99517700  1
  Ni  Ni11  1  0.87905600  0.63820000  0.19784400  1
  Ni  Ni12  1  0.64286800  0.91719900  0.60620100  1
  Ni  Ni13  1  0.12094400  0.36180000  0.80215600  1
  Ni  Ni14  1  0.80454900  0.39711400  0.00482300  1
  Ni  Ni15  1  0.55783100  0.67957600  0.40155200  1
  Ni  Ni16  1  0.71836500  0.15900800  0.80273200  1
  Ni  Ni17  1  0.46736700  0.43386300  0.19967100  1
  Ni  Ni18  1  0.23258300  0.72105100  0.60755200  1
  Ni  Ni19  1  0.39018700  0.20038100  0.00749700  1
  Ni  Ni20  1  0.15673100  0.47350200  0.39398900  1
  Ni  Ni21  1  0.30726200  0.95405300  0.80204100  1
  Ni  Ni22  1  0.00000000  0.00000000  0.00000000  1
  Cu  Cu23  1  0.22167700  0.49209500  0.63431300  1
  Cu  Cu24  1  0.13949600  0.58645100  0.76647700  1
  Cu  Cu25  1  0.38013700  0.30638400  0.36659900  1
  Cu  Cu26  1  0.05984900  0.34595700  0.56747500  1
  Cu  Cu27  1  0.13940800  0.25335800  0.43351600  1
  Cu  Cu28  1  0.29894000  0.06613500  0.16628300  1
  Cu  Cu29  1  0.38307500  0.97204400  0.03481100  1
  Cu  Cu30  1  0.81969700  0.29279900  0.63346400  1
  Cu  Cu31  1  0.74077900  0.38472300  0.76765500  1
  Cu  Cu32  1  0.97975600  0.10593400  0.36627800  1
  Cu  Cu33  1  0.05995300  0.01272100  0.23312600  1
  Cu  Cu34  1  0.21936800  0.82646700  0.96641700  1
  Cu  Cu35  1  0.29772100  0.73350200  0.83310900  1
  Cu  Cu36  1  0.73968600  0.05224700  0.43418300  1
  Cu  Cu37  1  0.65995000  0.14594800  0.56609300  1
  Cu  Cu38  1  0.90108400  0.86437400  0.16843500  1
  Cu  Cu39  1  0.97954300  0.77327200  0.03319600  1
  Cu  Cu40  1  0.42050200  0.09386000  0.63336500  1
  Cu  Cu41  1  0.34022100  0.18719200  0.76602900  1
  Cu  Cu42  1  0.65977900  0.81280800  0.23397100  1
  Cu  Cu43  1  0.57949800  0.90614000  0.36663500  1
  Cu  Cu44  1  0.82020600  0.62570100  0.96600000  1
  Cu  Cu45  1  0.89970100  0.53299300  0.83313300  1
  Cu  Cu46  1  0.34005000  0.85405200  0.43390700  1
  Cu  Cu47  1  0.26031400  0.94775300  0.56581700  1
  Cu  Cu48  1  0.58014600  0.57264100  0.03432900  1
  Cu  Cu49  1  0.49939700  0.66627100  0.16617800  1
  Cu  Cu50  1  0.94004700  0.98727900  0.76687400  1
  Cu  Cu51  1  0.25922100  0.61527700  0.23234500  1
  Cu  Cu52  1  0.18030300  0.70720100  0.36653600  1
  Cu  Cu53  1  0.02024400  0.89406600  0.63372200  1
  Cu  Cu54  1  0.50060300  0.33372900  0.83382200  1
  Cu  Cu55  1  0.41985400  0.42735900  0.96567100  1
  Cu  Cu56  1  0.17979400  0.37429900  0.03400000  1
  Cu  Cu57  1  0.10029900  0.46700700  0.16686700  1
  Cu  Cu58  1  0.86059200  0.74664200  0.56648400  1
  Cu  Cu59  1  0.94015100  0.65404300  0.43252500  1
  Cu  Cu60  1  0.02045700  0.22672800  0.96680400  1
  Cu  Cu61  1  0.61986300  0.69361600  0.63340100  1
  Cu  Cu62  1  0.54231000  0.78652300  0.76720700  1
  Cu  Cu63  1  0.09891600  0.13562600  0.83156500  1
  Cu  Cu64  1  0.77832300  0.50790500  0.36568700  1
  Cu  Cu65  1  0.86050400  0.41354900  0.23352300  1
  Cu  Cu66  1  0.54206500  0.45344400  0.43412000  1
  Cu  Cu67  1  0.45793500  0.54655600  0.56588000  1
  Cu  Cu68  1  0.78063200  0.17353300  0.03358300  1
  Cu  Cu69  1  0.70227900  0.26649800  0.16689100  1
  Cu  Cu70  1  0.61692500  0.02795600  0.96518900  1
  Cu  Cu71  1  0.45769000  0.21347700  0.23279300  1
  Cu  Cu72  1  0.70106000  0.93386500  0.83371700  1
