# generated using pymatgen
data_Cu5Ni2
_symmetry_space_group_name_H-M   'P 1'
_cell_length_a   9.67888900
_cell_length_b   9.82382003
_cell_length_c   9.82486725
_cell_angle_alpha   92.89432645
_cell_angle_beta   109.71183665
_cell_angle_gamma   100.66057628
_symmetry_Int_Tables_number   1
_chemical_formula_structural   Cu5Ni2
_chemical_formula_sum   'Cu20 Ni8'
_cell_volume   857.80475481
_cell_formula_units_Z   4
loop_
 _symmetry_equiv_pos_site_id
 _symmetry_equiv_pos_as_xyz
  1  'x, y, z'
loop_
 _atom_site_type_symbol
 _atom_site_label
 _atom_site_symmetry_multiplicity
 _atom_site_fract_x
 _atom_site_fract_y
 _atom_site_fract_z
 _atom_site_occupancy
  Ni  Ni0  1  0.74417200  0.18778100  0.90253300  1
  Ni  Ni1  1  0.25582800  0.81221900  0.09746700  1
  Ni  Ni2  1  0.07739400  0.28137100  0.83693500  1
  Ni  Ni3  1  0.92260600  0.71862900  0.16306500  1
  Ni  Ni4  1  0.73833100  0.29428700  0.57002500  1
  Ni  Ni5  1  0.26166900  0.70571300  0.42997500  1
  Ni  Ni6  1  0.82286000  0.97443200  0.65892500  1
  Ni  Ni7  1  0.17714000  0.02556800  0.34107500  1
  Cu  Cu8  1  0.65351300  0.19118600  0.04886300  1
  Cu  Cu9  1  0.34648700  0.80881400  0.95113700  1
  Cu  Cu10  1  0.97542200  0.28358100  0.99680600  1
  Cu  Cu11  1  0.02457800  0.71641900  0.00319400  1
  Cu  Cu12  1  0.63679000  0.29663800  0.73034100  1
  Cu  Cu13  1  0.36321000  0.70336200  0.26965900  1
  Cu  Cu14  1  0.72102800  0.97836700  0.81880200  1
  Cu  Cu15  1  0.27897200  0.02163300  0.18119800  1
  Cu  Cu16  1  0.28721400  0.36799400  0.92329500  1
  Cu  Cu17  1  0.71278600  0.63200600  0.07670500  1
  Cu  Cu18  1  0.96943200  0.39100600  0.66573100  1
  Cu  Cu19  1  0.03056800  0.60899400  0.33426900  1
  Cu  Cu20  1  0.05365100  0.07171700  0.75378000  1
  Cu  Cu21  1  0.94634900  0.92828300  0.24622000  1
  Cu  Cu22  1  0.64225500  0.39297800  0.41352700  1
  Cu  Cu23  1  0.35774500  0.60702200  0.58647300  1
  Cu  Cu24  1  0.71699100  0.08494000  0.48766100  1
  Cu  Cu25  1  0.28300900  0.91506000  0.51233900  1
  Cu  Cu26  1  0.80157000  0.78430700  0.58367700  1
  Cu  Cu27  1  0.19843000  0.21569300  0.41632300  1
