# generated using pymatgen
data_Cu3Ni5C14
_symmetry_space_group_name_H-M   'P 1'
_cell_length_a   11.35146782
_cell_length_b   11.35146782
_cell_length_c   11.35146782
_cell_angle_alpha   109.47122063
_cell_angle_beta   109.47122063
_cell_angle_gamma   109.47122063
_symmetry_Int_Tables_number   1
_chemical_formula_structural   Cu3Ni5C14
_chemical_formula_sum   'Cu12 Ni20 C56'
_cell_volume   1125.98907272
_cell_formula_units_Z   4
loop_
 _symmetry_equiv_pos_site_id
 _symmetry_equiv_pos_as_xyz
  1  'x, y, z'
loop_
 _atom_site_type_symbol
 _atom_site_label
 _atom_site_symmetry_multiplicity
 _atom_site_fract_x
 _atom_site_fract_y
 _atom_site_fract_z
 _atom_site_occupancy
  Ni  Ni0  1  0.62500000  0.75000000  0.37500000  1
  Ni  Ni1  1  0.87500000  0.25000000  0.12500000  1
  Ni  Ni2  1  0.25000000  0.62500000  0.37500000  1
  Ni  Ni3  1  0.12500000  0.75000000  0.87500000  1
  Ni  Ni4  1  0.25000000  0.12500000  0.87500000  1
  Ni  Ni5  1  0.87500000  0.12500000  0.75000000  1
  Ni  Ni6  1  0.25000000  0.25000000  0.25000000  1
  Ni  Ni7  1  0.00000000  0.75000000  0.50000000  1
  Ni  Ni8  1  0.75000000  0.87500000  0.12500000  1
  Ni  Ni9  1  0.50000000  0.00000000  0.25000000  1
  Ni  Ni10  1  0.00000000  0.25000000  0.50000000  1
  Ni  Ni11  1  0.37500000  0.62500000  0.75000000  1
  Ni  Ni12  1  0.50000000  0.00000000  0.75000000  1
  Ni  Ni13  1  0.62500000  0.37500000  0.25000000  1
  Ni  Ni14  1  0.37500000  0.25000000  0.62500000  1
  Ni  Ni15  1  0.75000000  0.37500000  0.62500000  1
  Ni  Ni16  1  0.12500000  0.87500000  0.25000000  1
  Ni  Ni17  1  0.25000000  0.50000000  0.00000000  1
  Ni  Ni18  1  0.75000000  0.50000000  0.00000000  1
  Ni  Ni19  1  0.75000000  0.75000000  0.75000000  1
  Cu  Cu20  1  0.62500000  0.87500000  0.75000000  1
  Cu  Cu21  1  0.37500000  0.12500000  0.25000000  1
  Cu  Cu22  1  0.25000000  0.87500000  0.62500000  1
  Cu  Cu23  1  0.75000000  0.12500000  0.37500000  1
  Cu  Cu24  1  0.37500000  0.75000000  0.12500000  1
  Cu  Cu25  1  0.87500000  0.62500000  0.25000000  1
  Cu  Cu26  1  0.87500000  0.75000000  0.62500000  1
  Cu  Cu27  1  0.62500000  0.25000000  0.87500000  1
  Cu  Cu28  1  0.25000000  0.37500000  0.12500000  1
  Cu  Cu29  1  0.75000000  0.62500000  0.87500000  1
  Cu  Cu30  1  0.12500000  0.37500000  0.75000000  1
  Cu  Cu31  1  0.12500000  0.25000000  0.37500000  1
  C  C32  1  0.50000000  0.50000000  0.50000000  1
  C  C33  1  0.50000000  0.50000000  0.00000000  1
  C  C34  1  0.00000000  0.00000000  0.00000000  1
  C  C35  1  0.50000000  0.00000000  0.50000000  1
  C  C36  1  0.00000000  0.50000000  0.50000000  1
  C  C37  1  0.50000000  0.00000000  0.00000000  1
  C  C38  1  0.00000000  0.00000000  0.50000000  1
  C  C39  1  0.00000000  0.50000000  0.00000000  1
  C  C40  1  0.59014900  0.16522600  0.46716600  1
  C  C41  1  0.59014900  0.92492300  0.12298300  1
  C  C42  1  0.03283400  0.33477400  0.90985100  1
  C  C43  1  0.12298300  0.59014900  0.92492300  1
  C  C44  1  0.80194000  0.42492300  0.83477400  1
  C  C45  1  0.42492300  0.83477400  0.80194000  1
  C  C46  1  0.46716600  0.37701700  0.30194000  1
  C  C47  1  0.87701700  0.96716600  0.80194000  1
  C  C48  1  0.57507700  0.90985100  0.37701700  1
  C  C49  1  0.53283400  0.62298300  0.69806000  1
  C  C50  1  0.66522600  0.09014900  0.96716600  1
  C  C51  1  0.62298300  0.69806000  0.53283400  1
  C  C52  1  0.69806000  0.53283400  0.62298300  1
  C  C53  1  0.33477400  0.90985100  0.03283400  1
  C  C54  1  0.09014900  0.62298300  0.42492300  1
  C  C55  1  0.19806000  0.12298300  0.03283400  1
  C  C56  1  0.62298300  0.42492300  0.09014900  1
  C  C57  1  0.57507700  0.16522600  0.19806000  1
  C  C58  1  0.90985100  0.03283400  0.33477400  1
  C  C59  1  0.92492300  0.12298300  0.59014900  1
  C  C60  1  0.16522600  0.19806000  0.57507700  1
  C  C61  1  0.83477400  0.80194000  0.42492300  1
  C  C62  1  0.40985100  0.07507700  0.87701700  1
  C  C63  1  0.46716600  0.59014900  0.16522600  1
  C  C64  1  0.90985100  0.37701700  0.57507700  1
  C  C65  1  0.53283400  0.40985100  0.83477400  1
  C  C66  1  0.12298300  0.03283400  0.19806000  1
  C  C67  1  0.69806000  0.66522600  0.07507700  1
  C  C68  1  0.92492300  0.30194000  0.33477400  1
  C  C69  1  0.83477400  0.53283400  0.40985100  1
  C  C70  1  0.96716600  0.66522600  0.09014900  1
  C  C71  1  0.07507700  0.69806000  0.66522600  1
  C  C72  1  0.33477400  0.92492300  0.30194000  1
  C  C73  1  0.87701700  0.40985100  0.07507700  1
  C  C74  1  0.66522600  0.07507700  0.69806000  1
  C  C75  1  0.07507700  0.87701700  0.40985100  1
  C  C76  1  0.80194000  0.87701700  0.96716600  1
  C  C77  1  0.42492300  0.09014900  0.62298300  1
  C  C78  1  0.37701700  0.30194000  0.46716600  1
  C  C79  1  0.37701700  0.57507700  0.90985100  1
  C  C80  1  0.19806000  0.57507700  0.16522600  1
  C  C81  1  0.16522600  0.46716600  0.59014900  1
  C  C82  1  0.40985100  0.83477400  0.53283400  1
  C  C83  1  0.03283400  0.19806000  0.12298300  1
  C  C84  1  0.30194000  0.46716600  0.37701700  1
  C  C85  1  0.30194000  0.33477400  0.92492300  1
  C  C86  1  0.09014900  0.96716600  0.66522600  1
  C  C87  1  0.96716600  0.80194000  0.87701700  1
