# generated using pymatgen
data_CuNiC3
_symmetry_space_group_name_H-M   'P 1'
_cell_length_a   4.00969200
_cell_length_b   9.67063500
_cell_length_c   12.79138900
_cell_angle_alpha   90.00000000
_cell_angle_beta   90.00000000
_cell_angle_gamma   90.00000000
_symmetry_Int_Tables_number   1
_chemical_formula_structural   CuNiC3
_chemical_formula_sum   'Cu4 Ni4 C12'
_cell_volume   496.00232533
_cell_formula_units_Z   4
loop_
 _symmetry_equiv_pos_site_id
 _symmetry_equiv_pos_as_xyz
  1  'x, y, z'
loop_
 _atom_site_type_symbol
 _atom_site_label
 _atom_site_symmetry_multiplicity
 _atom_site_fract_x
 _atom_site_fract_y
 _atom_site_fract_z
 _atom_site_occupancy
  Ni  Ni0  1  0.75000000  0.99609000  0.76365900  1
  Ni  Ni1  1  0.25000000  0.00391000  0.23634100  1
  Ni  Ni2  1  0.75000000  0.49609000  0.73634100  1
  Ni  Ni3  1  0.25000000  0.50391000  0.26365900  1
  Cu  Cu4  1  0.25000000  0.80644700  0.52730000  1
  Cu  Cu5  1  0.25000000  0.30644700  0.97270000  1
  Cu  Cu6  1  0.75000000  0.69355300  0.02730000  1
  Cu  Cu7  1  0.75000000  0.19355300  0.47270000  1
  C  C8  1  0.75000000  0.75280300  0.66762800  1
  C  C9  1  0.25000000  0.74719700  0.16762800  1
  C  C10  1  0.75000000  0.44729900  0.11190100  1
  C  C11  1  0.25000000  0.55270100  0.88809900  1
  C  C12  1  0.75000000  0.25280300  0.83237200  1
  C  C13  1  0.75000000  0.94729900  0.38809900  1
  C  C14  1  0.25000000  0.05270100  0.61190100  1
  C  C15  1  0.25000000  0.24719700  0.33237200  1
  C  C16  1  0.75000000  0.07376100  0.10622600  1
  C  C17  1  0.75000000  0.57376100  0.39377400  1
  C  C18  1  0.25000000  0.92623900  0.89377400  1
  C  C19  1  0.25000000  0.42623900  0.60622600  1
