# generated using pymatgen
data_Cu(Ni2C)2
_symmetry_space_group_name_H-M   'P 1'
_cell_length_a   12.64376600
_cell_length_b   5.35258900
_cell_length_c   6.86824596
_cell_angle_alpha   67.23990440
_cell_angle_beta   90.00000000
_cell_angle_gamma   90.00000000
_symmetry_Int_Tables_number   1
_chemical_formula_structural   Cu(Ni2C)2
_chemical_formula_sum   'Cu4 Ni16 C8'
_cell_volume   428.62713828
_cell_formula_units_Z   4
loop_
 _symmetry_equiv_pos_site_id
 _symmetry_equiv_pos_as_xyz
  1  'x, y, z'
loop_
 _atom_site_type_symbol
 _atom_site_label
 _atom_site_symmetry_multiplicity
 _atom_site_fract_x
 _atom_site_fract_y
 _atom_site_fract_z
 _atom_site_occupancy
  C  C0  1  0.05269300  0.36173400  0.79960200  1
  C  C1  1  0.44730700  0.36173400  0.29960200  1
  C  C2  1  0.55269300  0.63826600  0.70039800  1
  C  C3  1  0.94730700  0.63826600  0.20039800  1
  C  C4  1  0.35728500  0.07750900  0.86998700  1
  C  C5  1  0.64271500  0.92249100  0.13001300  1
  C  C6  1  0.85728500  0.92249100  0.63001300  1
  C  C7  1  0.14271500  0.07750900  0.36998700  1
  Ni  Ni8  1  0.56619700  0.69503500  0.04008500  1
  Ni  Ni9  1  0.43380300  0.30496500  0.95991500  1
  Ni  Ni10  1  0.72598300  0.80745100  0.70585600  1
  Ni  Ni11  1  0.34727600  0.76605600  0.08727200  1
  Ni  Ni12  1  0.27401700  0.19254900  0.29414400  1
  Ni  Ni13  1  0.77401700  0.80745100  0.20585600  1
  Ni  Ni14  1  0.84727600  0.23394400  0.41272800  1
  Ni  Ni15  1  0.65272400  0.23394400  0.91272800  1
  Ni  Ni16  1  0.06930900  0.00788900  0.16513600  1
  Ni  Ni17  1  0.06619700  0.30496500  0.45991500  1
  Ni  Ni18  1  0.43069100  0.00788900  0.66513600  1
  Ni  Ni19  1  0.22598300  0.19254900  0.79414400  1
  Ni  Ni20  1  0.15272400  0.76605600  0.58727200  1
  Ni  Ni21  1  0.93069100  0.99211100  0.83486400  1
  Ni  Ni22  1  0.56930900  0.99211100  0.33486400  1
  Ni  Ni23  1  0.93380300  0.69503500  0.54008500  1
  Cu  Cu24  1  0.59764200  0.44833100  0.46532500  1
  Cu  Cu25  1  0.40235800  0.55166900  0.53467500  1
  Cu  Cu26  1  0.09764200  0.55166900  0.03467500  1
  Cu  Cu27  1  0.90235800  0.44833100  0.96532500  1
