# generated using pymatgen
data_Cu2NiC4
_symmetry_space_group_name_H-M   'P 1'
_cell_length_a   3.92609056
_cell_length_b   3.92609056
_cell_length_c   12.83145212
_cell_angle_alpha   81.19993433
_cell_angle_beta   81.19993433
_cell_angle_gamma   59.99999054
_symmetry_Int_Tables_number   1
_chemical_formula_structural   Cu2NiC4
_chemical_formula_sum   'Cu2 Ni1 C4'
_cell_volume   168.59418518
_cell_formula_units_Z   1
loop_
 _symmetry_equiv_pos_site_id
 _symmetry_equiv_pos_as_xyz
  1  'x, y, z'
loop_
 _atom_site_type_symbol
 _atom_site_label
 _atom_site_symmetry_multiplicity
 _atom_site_fract_x
 _atom_site_fract_y
 _atom_site_fract_z
 _atom_site_occupancy
  Ni  Ni0  1  0.60797100  0.60797100  0.17608700  1
  Cu  Cu1  1  0.83727600  0.83727600  0.48817200  1
  Cu  Cu2  1  0.06482200  0.06482200  0.80553400  1
  C  C3  1  0.95474900  0.95474900  0.13575300  1
  C  C4  1  0.70299000  0.70299000  0.89103000  1
  C  C5  1  0.53703600  0.53703600  0.38889200  1
  C  C6  1  0.12975600  0.12975600  0.61073200  1
