# generated using pymatgen
data_Cu29Ni19C13
_symmetry_space_group_name_H-M   'P 1'
_cell_length_a   19.32568890
_cell_length_b   19.32568895
_cell_length_c   19.32568860
_cell_angle_alpha   60.00000061
_cell_angle_beta   60.00000051
_cell_angle_gamma   59.99999944
_symmetry_Int_Tables_number   1
_chemical_formula_structural   Cu29Ni19C13
_chemical_formula_sum   'Cu58 Ni38 C26'
_cell_volume   5103.75655571
_cell_formula_units_Z   2
loop_
 _symmetry_equiv_pos_site_id
 _symmetry_equiv_pos_as_xyz
  1  'x, y, z'
loop_
 _atom_site_type_symbol
 _atom_site_label
 _atom_site_symmetry_multiplicity
 _atom_site_fract_x
 _atom_site_fract_y
 _atom_site_fract_z
 _atom_site_occupancy
  Ni  Ni0  1  0.04240362  0.64117076  0.27402201  1
  Ni  Ni1  1  0.27402201  0.64117076  0.04240362  1
  Ni  Ni2  1  0.65572725  0.65572725  0.03281824  1
  Ni  Ni3  1  0.49681702  0.49681702  0.12693688  1
  Ni  Ni4  1  0.04240362  0.04240362  0.27402201  1
  Ni  Ni5  1  0.90696522  0.27910435  0.90696522  1
  Ni  Ni6  1  0.90696522  0.90696522  0.90696522  1
  Ni  Ni7  1  0.49681702  0.12693688  0.49681702  1
  Ni  Ni8  1  0.04240362  0.27402201  0.04240362  1
  Ni  Ni9  1  0.40540360  0.40540360  0.78378920  1
  Ni  Ni10  1  0.04240362  0.27402201  0.64117076  1
  Ni  Ni11  1  0.90696522  0.90696522  0.27910435  1
  Ni  Ni12  1  0.27910435  0.90696522  0.90696522  1
  Ni  Ni13  1  0.12693688  0.87942907  0.49681702  1
  Ni  Ni14  1  0.49681702  0.49681702  0.87942907  1
  Ni  Ni15  1  0.12693688  0.49681702  0.87942907  1
  Ni  Ni16  1  0.64117076  0.04240362  0.27402201  1
  Ni  Ni17  1  0.87942907  0.49681702  0.49681702  1
  Ni  Ni18  1  0.87942907  0.49681702  0.12693688  1
  Ni  Ni19  1  0.75000000  0.75000000  0.75000000  1
  Ni  Ni20  1  0.65572725  0.03281824  0.65572725  1
  Ni  Ni21  1  0.78378920  0.40540360  0.40540360  1
  Ni  Ni22  1  0.49681702  0.12693688  0.87942907  1
  Ni  Ni23  1  0.49681702  0.87942907  0.49681702  1
  Ni  Ni24  1  0.40540360  0.40540360  0.40540360  1
  Ni  Ni25  1  0.27402201  0.04240362  0.04240362  1
  Ni  Ni26  1  0.04240362  0.64117076  0.04240362  1
  Ni  Ni27  1  0.27402201  0.04240362  0.64117076  1
  Ni  Ni28  1  0.40540360  0.78378920  0.40540360  1
  Ni  Ni29  1  0.65572725  0.65572725  0.65572725  1
  Ni  Ni30  1  0.12693688  0.49681702  0.49681702  1
  Ni  Ni31  1  0.03281824  0.65572725  0.65572725  1
  Ni  Ni32  1  0.64117076  0.04240362  0.04240362  1
  Ni  Ni33  1  0.87942907  0.12693688  0.49681702  1
  Ni  Ni34  1  0.49681702  0.87942907  0.12693688  1
  Ni  Ni35  1  0.50000000  0.50000000  0.50000000  1
  Ni  Ni36  1  0.64117076  0.27402201  0.04240362  1
  Ni  Ni37  1  0.04240362  0.04240362  0.64117076  1
  Cu  Cu38  1  0.51195032  0.69880224  0.89462372  1
  Cu  Cu39  1  0.26765771  0.26765771  0.83204519  1
  Cu  Cu40  1  0.63263939  0.26765771  0.26765771  1
  Cu  Cu41  1  0.04931570  0.85205290  0.04931570  1
  Cu  Cu42  1  0.08176281  0.76290972  0.76290972  1
  Cu  Cu43  1  0.76290972  0.08176281  0.39241774  1
  Cu  Cu44  1  0.04931570  0.04931570  0.85205290  1
  Cu  Cu45  1  0.83204519  0.26765771  0.63263939  1
  Cu  Cu46  1  0.69880224  0.89462372  0.89462372  1
  Cu  Cu47  1  0.45496268  0.26689866  0.63906933  1
  Cu  Cu48  1  0.26765771  0.63263939  0.83204519  1
  Cu  Cu49  1  0.63906933  0.26689866  0.45496268  1
  Cu  Cu50  1  0.26765771  0.63263939  0.26765771  1
  Cu  Cu51  1  0.63906933  0.45496268  0.63906933  1
  Cu  Cu52  1  0.63263939  0.83204519  0.26765771  1
  Cu  Cu53  1  0.45496268  0.63906933  0.63906933  1
  Cu  Cu54  1  0.08176281  0.39241774  0.76290972  1
  Cu  Cu55  1  0.51195032  0.89462372  0.69880224  1
  Cu  Cu56  1  0.63906933  0.63906933  0.45496268  1
  Cu  Cu57  1  0.89462372  0.69880224  0.89462372  1
  Cu  Cu58  1  0.76290972  0.76290972  0.08176281  1
  Cu  Cu59  1  0.63906933  0.63906933  0.26689866  1
  Cu  Cu60  1  0.63906933  0.45496268  0.26689866  1
  Cu  Cu61  1  0.39241774  0.76290972  0.08176281  1
  Cu  Cu62  1  0.04931570  0.04931570  0.04931570  1
  Cu  Cu63  1  0.84086408  0.15913592  0.84086408  1
  Cu  Cu64  1  0.84086408  0.15913592  0.15913592  1
  Cu  Cu65  1  0.63263939  0.26765771  0.83204519  1
  Cu  Cu66  1  0.26765771  0.83204519  0.63263939  1
  Cu  Cu67  1  0.39241774  0.76290972  0.76290972  1
  Cu  Cu68  1  0.63906933  0.26689866  0.63906933  1
  Cu  Cu69  1  0.84086408  0.84086408  0.15913592  1
  Cu  Cu70  1  0.89462372  0.89462372  0.51195032  1
  Cu  Cu71  1  0.51195032  0.89462372  0.89462372  1
  Cu  Cu72  1  0.76290972  0.39241774  0.76290972  1
  Cu  Cu73  1  0.85205290  0.04931570  0.04931570  1
  Cu  Cu74  1  0.76290972  0.08176281  0.76290972  1
  Cu  Cu75  1  0.15913592  0.15913592  0.84086408  1
  Cu  Cu76  1  0.08176281  0.76290972  0.39241774  1
  Cu  Cu77  1  0.83204519  0.63263939  0.26765771  1
  Cu  Cu78  1  0.89462372  0.51195032  0.69880224  1
  Cu  Cu79  1  0.76290972  0.39241774  0.08176281  1
  Cu  Cu80  1  0.69880224  0.89462372  0.51195032  1
  Cu  Cu81  1  0.83204519  0.26765771  0.26765771  1
  Cu  Cu82  1  0.39241774  0.08176281  0.76290972  1
  Cu  Cu83  1  0.26765771  0.26765771  0.63263939  1
  Cu  Cu84  1  0.69880224  0.51195032  0.89462372  1
  Cu  Cu85  1  0.26765771  0.83204519  0.26765771  1
  Cu  Cu86  1  0.45496268  0.63906933  0.26689866  1
  Cu  Cu87  1  0.26689866  0.63906933  0.63906933  1
  Cu  Cu88  1  0.89462372  0.51195032  0.89462372  1
  Cu  Cu89  1  0.89462372  0.89462372  0.69880224  1
  Cu  Cu90  1  0.15913592  0.84086408  0.15913592  1
  Cu  Cu91  1  0.89462372  0.69880224  0.51195032  1
  Cu  Cu92  1  0.15913592  0.84086408  0.84086408  1
  Cu  Cu93  1  0.26689866  0.63906933  0.45496268  1
  Cu  Cu94  1  0.26689866  0.45496268  0.63906933  1
  Cu  Cu95  1  0.76290972  0.76290972  0.39241774  1
  C  C96  1  0.18162311  0.18162311  0.18162311  1
  C  C97  1  0.18162311  0.18162311  0.45513068  1
  C  C98  1  0.99409405  0.45626003  0.27482296  1
  C  C99  1  0.38747155  0.38747155  0.11252845  1
  C  C100  1  0.45513068  0.18162311  0.18162311  1
  C  C101  1  0.28939649  0.28939649  0.13181052  1
  C  C102  1  0.11252845  0.38747155  0.38747155  1
  C  C103  1  0.27482296  0.27482296  0.99409405  1
  C  C104  1  0.45626003  0.27482296  0.99409405  1
  C  C105  1  0.27482296  0.99409405  0.45626003  1
  C  C106  1  0.18162311  0.45513068  0.18162311  1
  C  C107  1  0.27482296  0.45626003  0.27482296  1
  C  C108  1  0.27482296  0.27482296  0.45626003  1
  C  C109  1  0.45626003  0.27482296  0.27482296  1
  C  C110  1  0.27482296  0.99409405  0.27482296  1
  C  C111  1  0.13181052  0.28939649  0.28939649  1
  C  C112  1  0.28939649  0.13181052  0.28939649  1
  C  C113  1  0.45626003  0.99409405  0.27482296  1
  C  C114  1  0.38747155  0.11252845  0.38747155  1
  C  C115  1  0.28939649  0.28939649  0.28939649  1
  C  C116  1  0.27482296  0.45626003  0.99409405  1
  C  C117  1  0.11252845  0.38747155  0.11252845  1
  C  C118  1  0.99409405  0.27482296  0.45626003  1
  C  C119  1  0.38747155  0.11252845  0.11252845  1
  C  C120  1  0.99409405  0.27482296  0.27482296  1
  C  C121  1  0.11252845  0.11252845  0.38747155  1
