# generated using pymatgen
data_Cu2Ni2C
_symmetry_space_group_name_H-M   'P 1'
_cell_length_a   11.00802737
_cell_length_b   11.00802737
_cell_length_c   11.00802737
_cell_angle_alpha   156.19323727
_cell_angle_beta   156.19323727
_cell_angle_gamma   33.91933099
_symmetry_Int_Tables_number   1
_chemical_formula_structural   Cu2Ni2C
_chemical_formula_sum   'Cu4 Ni4 C2'
_cell_volume   217.12824795
_cell_formula_units_Z   2
loop_
 _symmetry_equiv_pos_site_id
 _symmetry_equiv_pos_as_xyz
  1  'x, y, z'
loop_
 _atom_site_type_symbol
 _atom_site_label
 _atom_site_symmetry_multiplicity
 _atom_site_fract_x
 _atom_site_fract_y
 _atom_site_fract_z
 _atom_site_occupancy
  C  C0  1  0.62351300  0.62351300  0.00000000  1
  C  C1  1  0.37648700  0.37648700  0.00000000  1
  Ni  Ni2  1  0.75000000  0.25000000  0.50000000  1
  Ni  Ni3  1  0.93326600  0.93326600  0.00000000  1
  Ni  Ni4  1  0.06673400  0.06673400  0.00000000  1
  Ni  Ni5  1  0.25000000  0.75000000  0.50000000  1
  Cu  Cu6  1  0.00000000  0.50000000  0.50000000  1
  Cu  Cu7  1  0.19263200  0.19263200  0.00000000  1
  Cu  Cu8  1  0.50000000  0.00000000  0.50000000  1
  Cu  Cu9  1  0.80736800  0.80736800  0.00000000  1
