# generated using pymatgen
data_Cu2NiC9
_symmetry_space_group_name_H-M   'P 1'
_cell_length_a   9.93289342
_cell_length_b   10.38201818
_cell_length_c   14.81329487
_cell_angle_alpha   90.00000000
_cell_angle_beta   90.00000000
_cell_angle_gamma   90.00000000
_symmetry_Int_Tables_number   1
_chemical_formula_structural   Cu2NiC9
_chemical_formula_sum   'Cu16 Ni8 C72'
_cell_volume   1527.59851824
_cell_formula_units_Z   8
loop_
 _symmetry_equiv_pos_site_id
 _symmetry_equiv_pos_as_xyz
  1  'x, y, z'
loop_
 _atom_site_type_symbol
 _atom_site_label
 _atom_site_symmetry_multiplicity
 _atom_site_fract_x
 _atom_site_fract_y
 _atom_site_fract_z
 _atom_site_occupancy
  C  C0  1  0.77736881  0.53465913  0.39635371  1
  C  C1  1  0.22263119  0.96534087  0.89635371  1
  C  C2  1  0.27736881  0.96534087  0.39635371  1
  C  C3  1  0.77736881  0.03465913  0.10364629  1
  C  C4  1  0.22263119  0.46534087  0.60364629  1
  C  C5  1  0.72263119  0.53465913  0.89635371  1
  C  C6  1  0.72263119  0.03465913  0.60364629  1
  C  C7  1  0.27736881  0.46534087  0.10364629  1
  Ni  Ni8  1  0.30877463  0.81809297  0.19530367  1
  Ni  Ni9  1  0.19122537  0.31809297  0.80469633  1
  Ni  Ni10  1  0.30877463  0.31809297  0.30469633  1
  Ni  Ni11  1  0.80877463  0.18190703  0.30469633  1
  Ni  Ni12  1  0.69122537  0.68190703  0.69530367  1
  Ni  Ni13  1  0.69122537  0.18190703  0.80469633  1
  Ni  Ni14  1  0.19122537  0.81809297  0.69530367  1
  Ni  Ni15  1  0.80877463  0.68190703  0.19530367  1
  Cu  Cu16  1  0.83017541  0.89671051  0.84710383  1
  Cu  Cu17  1  0.00021628  0.78015468  0.55723047  1
  Cu  Cu18  1  0.49978372  0.78015468  0.05723047  1
  Cu  Cu19  1  0.66982459  0.89671051  0.34710383  1
  Cu  Cu20  1  0.99978372  0.71984532  0.05723047  1
  Cu  Cu21  1  0.00021628  0.28015468  0.94276953  1
  Cu  Cu22  1  0.16982459  0.60328949  0.34710383  1
  Cu  Cu23  1  0.83017541  0.39671051  0.65289617  1
  Cu  Cu24  1  0.33017541  0.10328949  0.65289617  1
  Cu  Cu25  1  0.49978372  0.28015468  0.44276953  1
  Cu  Cu26  1  0.66982459  0.39671051  0.15289617  1
  Cu  Cu27  1  0.33017541  0.60328949  0.84710383  1
  Cu  Cu28  1  0.50021628  0.21984532  0.94276953  1
  Cu  Cu29  1  0.50021628  0.71984532  0.55723047  1
  Cu  Cu30  1  0.16982459  0.10328949  0.15289617  1
  Cu  Cu31  1  0.99978372  0.21984532  0.44276953  1
  C  C32  1  0.75686300  0.01127595  0.27262248  1
  C  C33  1  0.24313700  0.48872405  0.77262248  1
  C  C34  1  0.24313700  0.98872405  0.72737752  1
  C  C35  1  0.75686300  0.51127595  0.22737752  1
  C  C36  1  0.60850786  0.16896820  0.49876895  1
  C  C37  1  0.89149214  0.66896820  0.50123105  1
  C  C38  1  0.09437122  0.36835333  0.02450093  1
  C  C39  1  0.09437122  0.86835333  0.47549907  1
  C  C40  1  0.90562878  0.63164667  0.97549907  1
  C  C41  1  0.89833394  0.38681206  0.87569549  1
  C  C42  1  0.60166606  0.88681206  0.12430451  1
  C  C43  1  0.89833394  0.88681206  0.62430451  1
  C  C44  1  0.10850786  0.33103180  0.49876895  1
  C  C45  1  0.99227491  0.58757822  0.33400517  1
  C  C46  1  0.00772509  0.41242178  0.66599483  1
  C  C47  1  0.60850786  0.66896820  0.00123105  1
  C  C48  1  0.00772509  0.91242178  0.83400517  1
  C  C49  1  0.50772509  0.58757822  0.83400517  1
  C  C50  1  0.61115981  0.81838153  0.63159768  1
  C  C51  1  0.39833394  0.61318794  0.62430451  1
  C  C52  1  0.49227491  0.41242178  0.16599483  1
  C  C53  1  0.40562878  0.86835333  0.97549907  1
  C  C54  1  0.22505422  0.76487080  0.31830809  1
  C  C55  1  0.11115981  0.68161847  0.63159768  1
  C  C56  1  0.38884019  0.18161847  0.36840232  1
  C  C57  1  0.39149214  0.33103180  0.99876895  1
  C  C58  1  0.27494578  0.26487080  0.68169191  1
  C  C59  1  0.90562878  0.13164667  0.52450093  1
  C  C60  1  0.61115981  0.31838153  0.86840232  1
  C  C61  1  0.21163492  0.57562296  0.46214063  1
  C  C62  1  0.88884019  0.81838153  0.13159768  1
  C  C63  1  0.77494578  0.23512920  0.68169191  1
  C  C64  1  0.74313700  0.01127595  0.77262248  1
  C  C65  1  0.25686300  0.98872405  0.22737752  1
  C  C66  1  0.99227491  0.08757822  0.16599483  1
  C  C67  1  0.72505422  0.73512920  0.31830809  1
  C  C68  1  0.22505422  0.26487080  0.18169191  1
  C  C69  1  0.10166606  0.11318794  0.37569549  1
  C  C70  1  0.21163492  0.07562296  0.03785937  1
  C  C71  1  0.11115981  0.18161847  0.86840232  1
  C  C72  1  0.39149214  0.83103180  0.50123105  1
  C  C73  1  0.39833394  0.11318794  0.87569549  1
  C  C74  1  0.71163492  0.42437704  0.03785937  1
  C  C75  1  0.78836508  0.92437704  0.96214063  1
  C  C76  1  0.59437122  0.13164667  0.02450093  1
  C  C77  1  0.72505422  0.23512920  0.18169191  1
  C  C78  1  0.59437122  0.63164667  0.47549907  1
  C  C79  1  0.60166606  0.38681206  0.37569549  1
  C  C80  1  0.10166606  0.61318794  0.12430451  1
  C  C81  1  0.77494578  0.73512920  0.81830809  1
  C  C82  1  0.78836508  0.42437704  0.53785937  1
  C  C83  1  0.28836508  0.07562296  0.53785937  1
  C  C84  1  0.38884019  0.68161847  0.13159768  1
  C  C85  1  0.89149214  0.16896820  0.99876895  1
  C  C86  1  0.88884019  0.31838153  0.36840232  1
  C  C87  1  0.28836508  0.57562296  0.96214063  1
  C  C88  1  0.49227491  0.91242178  0.33400517  1
  C  C89  1  0.50772509  0.08757822  0.66599483  1
  C  C90  1  0.74313700  0.51127595  0.72737752  1
  C  C91  1  0.40562878  0.36835333  0.52450093  1
  C  C92  1  0.27494578  0.76487080  0.81830809  1
  C  C93  1  0.10850786  0.83103180  0.00123105  1
  C  C94  1  0.25686300  0.48872405  0.27262248  1
  C  C95  1  0.71163492  0.92437704  0.46214063  1
