# generated using pymatgen
data_Cu8NiC16
_symmetry_space_group_name_H-M   'P 1'
_cell_length_a   10.20033951
_cell_length_b   11.21584024
_cell_length_c   14.90575604
_cell_angle_alpha   69.32482590
_cell_angle_beta   87.70051856
_cell_angle_gamma   69.08997753
_symmetry_Int_Tables_number   1
_chemical_formula_structural   Cu8NiC16
_chemical_formula_sum   'Cu32 Ni4 C64'
_cell_volume   1483.18374238
_cell_formula_units_Z   4
loop_
 _symmetry_equiv_pos_site_id
 _symmetry_equiv_pos_as_xyz
  1  'x, y, z'
loop_
 _atom_site_type_symbol
 _atom_site_label
 _atom_site_symmetry_multiplicity
 _atom_site_fract_x
 _atom_site_fract_y
 _atom_site_fract_z
 _atom_site_occupancy
  Ni  Ni0  1  0.40832186  0.37553115  0.65810643  1
  Ni  Ni1  1  0.59167814  0.62446885  0.34189357  1
  Ni  Ni2  1  0.44464418  0.38392760  0.16544443  1
  Ni  Ni3  1  0.55535582  0.61607240  0.83455557  1
  Cu  Cu4  1  0.59483758  0.76815319  0.96179131  1
  Cu  Cu5  1  0.43158030  0.20890745  0.61309622  1
  Cu  Cu6  1  0.56841970  0.79109255  0.38690378  1
  Cu  Cu7  1  0.23783168  0.59826921  0.00334448  1
  Cu  Cu8  1  0.75802372  0.12767074  0.89353531  1
  Cu  Cu9  1  0.22697879  0.23101336  0.79758422  1
  Cu  Cu10  1  0.90595389  0.33240604  0.06026213  1
  Cu  Cu11  1  0.82299900  0.13261042  0.37368189  1
  Cu  Cu12  1  0.57398949  0.77774833  0.87105602  1
  Cu  Cu13  1  0.44614948  0.88928064  0.38806686  1
  Cu  Cu14  1  0.77748382  0.69625406  0.69845016  1
  Cu  Cu15  1  0.24197628  0.87232926  0.10646469  1
  Cu  Cu16  1  0.75560342  0.41603876  0.52649005  1
  Cu  Cu17  1  0.30329255  0.74738140  0.69650472  1
  Cu  Cu18  1  0.69670745  0.25261860  0.30349528  1
  Cu  Cu19  1  0.89239703  0.33614369  0.59816761  1
  Cu  Cu20  1  0.17700100  0.86738958  0.62631811  1
  Cu  Cu21  1  0.64214165  0.25091628  0.81645518  1
  Cu  Cu22  1  0.40516242  0.23184681  0.03820869  1
  Cu  Cu23  1  0.77302121  0.76898664  0.20241578  1
  Cu  Cu24  1  0.66704285  0.65596732  0.71043547  1
  Cu  Cu25  1  0.10760297  0.66385631  0.40183239  1
  Cu  Cu26  1  0.75991585  0.65032525  0.25637604  1
  Cu  Cu27  1  0.22251618  0.30374594  0.30154984  1
  Cu  Cu28  1  0.76216832  0.40173079  0.99665552  1
  Cu  Cu29  1  0.35785835  0.74908372  0.18354482  1
  Cu  Cu30  1  0.09404611  0.66759396  0.93973787  1
  Cu  Cu31  1  0.42601051  0.22225167  0.12894398  1
  Cu  Cu32  1  0.33295715  0.34403268  0.28956453  1
  Cu  Cu33  1  0.24008415  0.34967475  0.74362396  1
  Cu  Cu34  1  0.24439658  0.58396124  0.47350995  1
  Cu  Cu35  1  0.55385052  0.11071936  0.61193314  1
  C  C36  1  0.77122774  0.51354138  0.45238649  1
  C  C37  1  0.55541648  0.21194658  0.78276458  1
  C  C38  1  0.66099632  0.36876310  0.02671860  1
  C  C39  1  0.32407931  0.62712380  0.70860806  1
  C  C40  1  0.22877226  0.48645862  0.54761351  1
  C  C41  1  0.33900368  0.63123690  0.97328140  1
  C  C42  1  0.76467924  0.49732277  0.91636337  1
  C  C43  1  0.37930051  0.79105668  0.73562340  1
  C  C44  1  0.36007255  0.63176937  0.20458834  1
  C  C45  1  0.62069949  0.20894332  0.26437660  1
  C  C46  1  0.65048805  0.38522820  0.54298164  1
  C  C47  1  0.44458352  0.78805342  0.21723542  1
  C  C48  1  0.63992745  0.36823063  0.79541166  1
  C  C49  1  0.67592069  0.37287620  0.29139194  1
  C  C50  1  0.23532076  0.50267723  0.08363663  1
  C  C51  1  0.34951195  0.61477180  0.45701836  1
  C  C52  1  0.61092837  0.64359565  0.63446879  1
  C  C53  1  0.67903039  0.89161542  0.19190015  1
  C  C54  1  0.16167567  0.28434573  0.23387367  1
  C  C55  1  0.22721754  0.94149525  0.54899298  1
  C  C56  1  0.39356006  0.34296900  0.96152720  1
  C  C57  1  0.39256443  0.13371303  0.01357678  1
  C  C58  1  0.98197098  0.69642183  0.99097187  1
  C  C59  1  0.99380421  0.71036232  0.44718911  1
  C  C60  1  0.56391653  0.89501914  0.79823833  1
  C  C61  1  0.11710864  0.22347348  0.84653096  1
  C  C62  1  0.08709290  0.78496988  0.86799085  1
  C  C63  1  0.32096961  0.10838458  0.80809985  1
  C  C64  1  0.88063575  0.22736952  0.67072664  1
  C  C65  1  0.29894760  0.91087749  0.02124294  1
  C  C66  1  0.90219078  0.04693031  0.33047495  1
  C  C67  1  0.55997342  0.01015013  0.58255921  1
  C  C68  1  0.11936425  0.77263048  0.32927336  1
  C  C69  1  0.13572649  0.46835287  0.73773625  1
  C  C70  1  0.90743632  0.18060199  0.40691678  1
  C  C71  1  0.08360313  0.58043026  0.36190396  1
  C  C72  1  0.83682912  0.72294774  0.61685930  1
  C  C73  1  0.83832433  0.71565427  0.76612633  1
  C  C74  1  0.44002658  0.98984987  0.41744079  1
  C  C75  1  0.18924715  0.98216891  0.13350091  1
  C  C76  1  0.13395440  0.83717143  0.09008048  1
  C  C77  1  0.00619579  0.28963768  0.55281089  1
  C  C78  1  0.88289136  0.77652652  0.15346904  1
  C  C79  1  0.31079459  0.20471080  0.58270607  1
  C  C80  1  0.09780922  0.95306969  0.66952505  1
  C  C81  1  0.68920541  0.79528920  0.41729393  1
  C  C82  1  0.08305090  0.57963062  0.89898315  1
  C  C83  1  0.38907163  0.35640435  0.36553121  1
  C  C84  1  0.91694910  0.42036938  0.10101685  1
  C  C85  1  0.32014734  0.90029723  0.35953550  1
  C  C86  1  0.77278246  0.05850475  0.45100702  1
  C  C87  1  0.60643994  0.65703100  0.03847280  1
  C  C88  1  0.67985266  0.09970277  0.64046450  1
  C  C89  1  0.86604560  0.16282857  0.90991952  1
  C  C90  1  0.16317088  0.27705226  0.38314070  1
  C  C91  1  0.91290710  0.21503012  0.13200915  1
  C  C92  1  0.60743557  0.86628697  0.98642322  1
  C  C93  1  0.01802902  0.30357817  0.00902813  1
  C  C94  1  0.70105240  0.08912251  0.97875706  1
  C  C95  1  0.43608347  0.10498086  0.20176167  1
  C  C96  1  0.09256368  0.81939801  0.59308322  1
  C  C97  1  0.86427351  0.53164713  0.26226375  1
  C  C98  1  0.91639687  0.41956974  0.63809604  1
  C  C99  1  0.81075285  0.01783109  0.86649909  1
