# generated using pymatgen
data_Cu2NiC
_symmetry_space_group_name_H-M   'P 1'
_cell_length_a   7.52002000
_cell_length_b   9.04338900
_cell_length_c   13.73837700
_cell_angle_alpha   90.00000000
_cell_angle_beta   90.00000000
_cell_angle_gamma   90.00000000
_symmetry_Int_Tables_number   1
_chemical_formula_structural   Cu2NiC
_chemical_formula_sum   'Cu24 Ni12 C12'
_cell_volume   934.29847038
_cell_formula_units_Z   12
loop_
 _symmetry_equiv_pos_site_id
 _symmetry_equiv_pos_as_xyz
  1  'x, y, z'
loop_
 _atom_site_type_symbol
 _atom_site_label
 _atom_site_symmetry_multiplicity
 _atom_site_fract_x
 _atom_site_fract_y
 _atom_site_fract_z
 _atom_site_occupancy
  C  C0  1  0.31624800  0.44972800  0.16142400  1
  C  C1  1  0.18375200  0.94972800  0.66142400  1
  C  C2  1  0.15915000  0.96006900  0.86060100  1
  C  C3  1  0.97599200  0.47833100  0.77056000  1
  C  C4  1  0.02400800  0.52166900  0.27056000  1
  C  C5  1  0.47599200  0.02166900  0.77056000  1
  C  C6  1  0.52400800  0.97833100  0.27056000  1
  C  C7  1  0.65915000  0.53993100  0.86060100  1
  C  C8  1  0.68375200  0.55027200  0.66142400  1
  C  C9  1  0.84085000  0.03993100  0.36060100  1
  C  C10  1  0.81624800  0.05027200  0.16142400  1
  C  C11  1  0.34085000  0.46006900  0.36060100  1
  Ni  Ni12  1  0.42803800  0.42783700  0.25793100  1
  Ni  Ni13  1  0.86128500  0.49234100  0.86648100  1
  Ni  Ni14  1  0.61139500  0.01214500  0.16839200  1
  Ni  Ni15  1  0.38860500  0.98785500  0.66839200  1
  Ni  Ni16  1  0.92803800  0.07216300  0.25793100  1
  Ni  Ni17  1  0.13871500  0.50765900  0.36648100  1
  Ni  Ni18  1  0.88860500  0.51214500  0.66839200  1
  Ni  Ni19  1  0.11139500  0.48785500  0.16839200  1
  Ni  Ni20  1  0.36128500  0.00765900  0.86648100  1
  Ni  Ni21  1  0.63871500  0.99234100  0.36648100  1
  Ni  Ni22  1  0.07196200  0.92783700  0.75793100  1
  Ni  Ni23  1  0.57196200  0.57216300  0.75793100  1
  Cu  Cu24  1  0.65814200  0.68759700  0.59487900  1
  Cu  Cu25  1  0.12673000  0.82524800  0.92871300  1
  Cu  Cu26  1  0.64912300  0.92886700  0.78166000  1
  Cu  Cu27  1  0.34185800  0.31240300  0.09487900  1
  Cu  Cu28  1  0.95610900  0.92437400  0.41606300  1
  Cu  Cu29  1  0.45610900  0.57562600  0.41606300  1
  Cu  Cu30  1  0.37327000  0.32524800  0.42871300  1
  Cu  Cu31  1  0.87327000  0.17475200  0.42871300  1
  Cu  Cu32  1  0.35087700  0.07113300  0.28166000  1
  Cu  Cu33  1  0.06480000  0.32225600  0.76728700  1
  Cu  Cu34  1  0.90993300  0.93297300  0.09600600  1
  Cu  Cu35  1  0.43520000  0.82225600  0.26728700  1
  Cu  Cu36  1  0.62673000  0.67475200  0.92871300  1
  Cu  Cu37  1  0.04389100  0.07562600  0.91606300  1
  Cu  Cu38  1  0.84185800  0.18759700  0.09487900  1
  Cu  Cu39  1  0.09006700  0.06702700  0.59600600  1
  Cu  Cu40  1  0.93520000  0.67774400  0.26728700  1
  Cu  Cu41  1  0.14912300  0.57113300  0.78166000  1
  Cu  Cu42  1  0.15814200  0.81240300  0.59487900  1
  Cu  Cu43  1  0.56480000  0.17774400  0.76728700  1
  Cu  Cu44  1  0.40993300  0.56702700  0.09600600  1
  Cu  Cu45  1  0.59006700  0.43297300  0.59600600  1
  Cu  Cu46  1  0.85087700  0.42886700  0.28166000  1
  Cu  Cu47  1  0.54389100  0.42437400  0.91606300  1
