# generated using pymatgen
data_Cu2Ni2C7
_symmetry_space_group_name_H-M   'P 1'
_cell_length_a   7.16928354
_cell_length_b   7.16928354
_cell_length_c   12.32027237
_cell_angle_alpha   73.38228466
_cell_angle_beta   73.38228466
_cell_angle_gamma   61.23178931
_symmetry_Int_Tables_number   1
_chemical_formula_structural   Cu2Ni2C7
_chemical_formula_sum   'Cu4 Ni4 C14'
_cell_volume   523.54100846
_cell_formula_units_Z   2
loop_
 _symmetry_equiv_pos_site_id
 _symmetry_equiv_pos_as_xyz
  1  'x, y, z'
loop_
 _atom_site_type_symbol
 _atom_site_label
 _atom_site_symmetry_multiplicity
 _atom_site_fract_x
 _atom_site_fract_y
 _atom_site_fract_z
 _atom_site_occupancy
  Ni  Ni0  1  0.30370400  0.17406800  0.23291200  1
  Ni  Ni1  1  0.51430700  0.32544300  0.43059600  1
  Ni  Ni2  1  0.32544300  0.51430700  0.93059600  1
  Ni  Ni3  1  0.17406800  0.30370400  0.73291200  1
  C  C4  1  0.94102400  0.40323600  0.48973800  1
  C  C5  1  0.40323600  0.94102400  0.98973800  1
  Cu  Cu6  1  0.81168000  0.38922200  0.07870300  1
  Cu  Cu7  1  0.98657800  0.80571000  0.23682100  1
  Cu  Cu8  1  0.38922200  0.81168000  0.57870300  1
  Cu  Cu9  1  0.80571000  0.98657800  0.73682100  1
  C  C10  1  0.64899300  0.17005700  0.24910200  1
  C  C11  1  0.65214500  0.59662600  0.41573300  1
  C  C12  1  0.06621500  0.51831200  0.11820700  1
  C  C13  1  0.10368100  0.09941400  0.43389200  1
  C  C14  1  0.59662600  0.65214500  0.91573300  1
  C  C15  1  0.17005700  0.64899300  0.74910200  1
  C  C16  1  0.11542700  0.59417000  0.44008200  1
  C  C17  1  0.51831200  0.06621500  0.61820700  1
  C  C18  1  0.35469500  0.84509200  0.17251400  1
  C  C19  1  0.84509200  0.35469500  0.67251400  1
  C  C20  1  0.09941400  0.10368100  0.93389200  1
  C  C21  1  0.59417000  0.11542700  0.94008200  1
