# generated using pymatgen
data_CuNi5C4
_symmetry_space_group_name_H-M   'P 1'
_cell_length_a   10.07194300
_cell_length_b   6.54620900
_cell_length_c   11.25999791
_cell_angle_alpha   55.50837226
_cell_angle_beta   90.00000000
_cell_angle_gamma   90.00000000
_symmetry_Int_Tables_number   1
_chemical_formula_structural   CuNi5C4
_chemical_formula_sum   'Cu4 Ni20 C16'
_cell_volume   611.89761395
_cell_formula_units_Z   4
loop_
 _symmetry_equiv_pos_site_id
 _symmetry_equiv_pos_as_xyz
  1  'x, y, z'
loop_
 _atom_site_type_symbol
 _atom_site_label
 _atom_site_symmetry_multiplicity
 _atom_site_fract_x
 _atom_site_fract_y
 _atom_site_fract_z
 _atom_site_occupancy
  Ni  Ni0  1  0.41549300  0.07582000  0.09015000  1
  Ni  Ni1  1  0.91549300  0.92418000  0.40985000  1
  Ni  Ni2  1  0.58450700  0.92418000  0.90985000  1
  Ni  Ni3  1  0.08450700  0.07582000  0.59015000  1
  Ni  Ni4  1  0.35471800  0.60327000  0.12136800  1
  Ni  Ni5  1  0.85471800  0.39673000  0.37863200  1
  Ni  Ni6  1  0.64528200  0.39673000  0.87863200  1
  Ni  Ni7  1  0.14528200  0.60327000  0.62136800  1
  Ni  Ni8  1  0.40763300  0.32273000  0.69890000  1
  Ni  Ni9  1  0.90763300  0.67727000  0.80110000  1
  Ni  Ni10  1  0.59236700  0.67727000  0.30110000  1
  Ni  Ni11  1  0.09236700  0.32273000  0.19890000  1
  Ni  Ni12  1  0.37732500  0.80156200  0.42431600  1
  Ni  Ni13  1  0.87732500  0.19843800  0.07568400  1
  Ni  Ni14  1  0.62267500  0.19843800  0.57568400  1
  Ni  Ni15  1  0.12267500  0.80156200  0.92431600  1
  Ni  Ni16  1  0.37517200  0.34730000  0.44280400  1
  Ni  Ni17  1  0.87517200  0.65270000  0.05719600  1
  Ni  Ni18  1  0.62482800  0.65270000  0.55719600  1
  Ni  Ni19  1  0.12482800  0.34730000  0.94280400  1
  Cu  Cu20  1  0.38645700  0.75093800  0.75942100  1
  Cu  Cu21  1  0.88645700  0.24906200  0.74057900  1
  Cu  Cu22  1  0.61354300  0.24906200  0.24057900  1
  Cu  Cu23  1  0.11354300  0.75093800  0.25942100  1
  C  C24  1  0.43901000  0.22222200  0.27774200  1
  C  C25  1  0.93901000  0.77777800  0.22225800  1
  C  C26  1  0.56099000  0.77777800  0.72225800  1
  C  C27  1  0.06099000  0.22222200  0.77774200  1
  C  C28  1  0.29014300  0.91964600  0.59669300  1
  C  C29  1  0.79014300  0.08035400  0.90330700  1
  C  C30  1  0.70985700  0.08035400  0.40330700  1
  C  C31  1  0.20985700  0.91964600  0.09669300  1
  C  C32  1  0.34316500  0.43075800  0.85693900  1
  C  C33  1  0.13971600  0.88161400  0.36150900  1
  C  C34  1  0.84316500  0.56924200  0.64306100  1
  C  C35  1  0.15683500  0.43075800  0.35693900  1
  C  C36  1  0.36028400  0.88161400  0.86150900  1
  C  C37  1  0.86028400  0.11838600  0.63849100  1
  C  C38  1  0.63971600  0.11838600  0.13849100  1
  C  C39  1  0.65683500  0.56924200  0.14306100  1
