# generated using pymatgen
data_CuNiC12
_symmetry_space_group_name_H-M   'P 1'
_cell_length_a   5.22583500
_cell_length_b   12.11874400
_cell_length_c   13.15465600
_cell_angle_alpha   90.00000000
_cell_angle_beta   90.00000000
_cell_angle_gamma   90.00000000
_symmetry_Int_Tables_number   1
_chemical_formula_structural   CuNiC12
_chemical_formula_sum   'Cu4 Ni4 C48'
_cell_volume   833.09168572
_cell_formula_units_Z   4
loop_
 _symmetry_equiv_pos_site_id
 _symmetry_equiv_pos_as_xyz
  1  'x, y, z'
loop_
 _atom_site_type_symbol
 _atom_site_label
 _atom_site_symmetry_multiplicity
 _atom_site_fract_x
 _atom_site_fract_y
 _atom_site_fract_z
 _atom_site_occupancy
  Ni  Ni0  1  0.07879900  0.14085200  0.25000000  1
  Ni  Ni1  1  0.92120100  0.85914800  0.75000000  1
  Ni  Ni2  1  0.07879900  0.35914800  0.75000000  1
  Ni  Ni3  1  0.92120100  0.64085200  0.25000000  1
  Cu  Cu4  1  0.00000000  0.00000000  0.00000000  1
  Cu  Cu5  1  0.00000000  0.50000000  0.50000000  1
  Cu  Cu6  1  0.00000000  0.00000000  0.50000000  1
  Cu  Cu7  1  0.00000000  0.50000000  0.00000000  1
  C  C8  1  0.51021000  0.91554800  0.13469600  1
  C  C9  1  0.48979000  0.08445200  0.63469600  1
  C  C10  1  0.51021000  0.58445200  0.86530400  1
  C  C11  1  0.25049500  0.75000000  0.00000000  1
  C  C12  1  0.51021000  0.91554800  0.36530400  1
  C  C13  1  0.48979000  0.41554800  0.36530400  1
  C  C14  1  0.25049500  0.75000000  0.50000000  1
  C  C15  1  0.74950500  0.25000000  0.50000000  1
  C  C16  1  0.48979000  0.41554800  0.13469600  1
  C  C17  1  0.51021000  0.58445200  0.63469600  1
  C  C18  1  0.48979000  0.08445200  0.86530400  1
  C  C19  1  0.74950500  0.25000000  0.00000000  1
  C  C20  1  0.55069900  0.29759000  0.41738900  1
  C  C21  1  0.55069900  0.29759000  0.08261100  1
  C  C22  1  0.79197300  0.93733000  0.37388100  1
  C  C23  1  0.44930100  0.79759000  0.41738900  1
  C  C24  1  0.32314700  0.00288900  0.39889900  1
  C  C25  1  0.44930100  0.70241000  0.91738900  1
  C  C26  1  0.55069900  0.20241000  0.58261100  1
  C  C27  1  0.10459400  0.65759200  0.04940400  1
  C  C28  1  0.32314700  0.49711100  0.89889900  1
  C  C29  1  0.55706000  0.37934500  0.25000000  1
  C  C30  1  0.67685300  0.50288900  0.39889900  1
  C  C31  1  0.44294000  0.62065500  0.75000000  1
  C  C32  1  0.79197300  0.56267000  0.62611900  1
  C  C33  1  0.67685300  0.99711100  0.89889900  1
  C  C34  1  0.20802700  0.43733000  0.12611900  1
  C  C35  1  0.10459400  0.65759200  0.45059600  1
  C  C36  1  0.44294000  0.87934500  0.25000000  1
  C  C37  1  0.67685300  0.99711100  0.60110100  1
  C  C38  1  0.10459400  0.84240800  0.95059600  1
  C  C39  1  0.44930100  0.70241000  0.58261100  1
  C  C40  1  0.20802700  0.06267000  0.62611900  1
  C  C41  1  0.32314700  0.00288900  0.10110100  1
  C  C42  1  0.67685300  0.50288900  0.10110100  1
  C  C43  1  0.20802700  0.06267000  0.87388100  1
  C  C44  1  0.20802700  0.43733000  0.37388100  1
  C  C45  1  0.89540600  0.15759200  0.45059600  1
  C  C46  1  0.79197300  0.56267000  0.87388100  1
  C  C47  1  0.55706000  0.12065500  0.75000000  1
  C  C48  1  0.10459400  0.84240800  0.54940400  1
  C  C49  1  0.32314700  0.49711100  0.60110100  1
  C  C50  1  0.89540600  0.15759200  0.04940400  1
  C  C51  1  0.55069900  0.20241000  0.91738900  1
  C  C52  1  0.79197300  0.93733000  0.12611900  1
  C  C53  1  0.89540600  0.34240800  0.95059600  1
  C  C54  1  0.89540600  0.34240800  0.54940400  1
  C  C55  1  0.44930100  0.79759000  0.08261100  1
