# generated using pymatgen
data_Cu2NiC3
_symmetry_space_group_name_H-M   'P 1'
_cell_length_a   7.19337534
_cell_length_b   7.19337534
_cell_length_c   7.19337534
_cell_angle_alpha   143.05711743
_cell_angle_beta   136.71946357
_cell_angle_gamma   58.18078802
_symmetry_Int_Tables_number   1
_chemical_formula_structural   Cu2NiC3
_chemical_formula_sum   'Cu2 Ni1 C3'
_cell_volume   152.01651264
_cell_formula_units_Z   1
loop_
 _symmetry_equiv_pos_site_id
 _symmetry_equiv_pos_as_xyz
  1  'x, y, z'
loop_
 _atom_site_type_symbol
 _atom_site_label
 _atom_site_symmetry_multiplicity
 _atom_site_fract_x
 _atom_site_fract_y
 _atom_site_fract_z
 _atom_site_occupancy
  Ni  Ni0  1  0.50000000  0.50000000  0.00000000  1
  Cu  Cu1  1  0.80896200  0.80896200  0.00000000  1
  Cu  Cu2  1  0.19103800  0.19103800  0.00000000  1
  C  C3  1  0.26845100  0.76845100  0.50000000  1
  C  C4  1  0.73154900  0.23154900  0.50000000  1
  C  C5  1  0.00000000  0.00000000  0.00000000  1
