# generated using pymatgen
data_Cu(Ni4C5)2
_symmetry_space_group_name_H-M   'P 1'
_cell_length_a   6.21138600
_cell_length_b   6.87008165
_cell_length_c   7.60088734
_cell_angle_alpha   82.29921121
_cell_angle_beta   75.07817667
_cell_angle_gamma   69.95756503
_symmetry_Int_Tables_number   1
_chemical_formula_structural   Cu(Ni4C5)2
_chemical_formula_sum   'Cu1 Ni8 C10'
_cell_volume   294.05812111
_cell_formula_units_Z   1
loop_
 _symmetry_equiv_pos_site_id
 _symmetry_equiv_pos_as_xyz
  1  'x, y, z'
loop_
 _atom_site_type_symbol
 _atom_site_label
 _atom_site_symmetry_multiplicity
 _atom_site_fract_x
 _atom_site_fract_y
 _atom_site_fract_z
 _atom_site_occupancy
  C  C0  1  0.19987200  0.37940200  0.30197900  1
  C  C1  1  0.29282500  0.86455600  0.07038200  1
  C  C2  1  0.70005700  0.18800400  0.46800900  1
  C  C3  1  0.29994300  0.81199600  0.53199100  1
  C  C4  1  0.70717500  0.13544400  0.92961800  1
  C  C5  1  0.80012800  0.62059800  0.69802100  1
  C  C6  1  0.22539500  0.50966000  0.90831100  1
  C  C7  1  0.77460500  0.49034000  0.09168900  1
  C  C8  1  0.78823600  0.78796100  0.25078300  1
  C  C9  1  0.21176400  0.21203900  0.74921700  1
  Ni  Ni10  1  0.53355000  0.01138400  0.26546600  1
  Ni  Ni11  1  0.98701100  0.82008400  0.36485200  1
  Ni  Ni12  1  0.71508300  0.56859600  0.35754900  1
  Ni  Ni13  1  0.92253700  0.74467800  0.02051800  1
  Ni  Ni14  1  0.28491700  0.43140400  0.64245100  1
  Ni  Ni15  1  0.46645000  0.98861600  0.73453400  1
  Ni  Ni16  1  0.07746300  0.25532200  0.97948200  1
  Ni  Ni17  1  0.01298900  0.17991600  0.63514800  1
  Cu  Cu18  1  0.50000000  0.50000000  0.00000000  1
