# generated using pymatgen
data_CuNiC
_symmetry_space_group_name_H-M   'P 1'
_cell_length_a   3.71003182
_cell_length_b   3.71003182
_cell_length_c   12.23417409
_cell_angle_alpha   81.27884292
_cell_angle_beta   81.27884292
_cell_angle_gamma   60.00000312
_symmetry_Int_Tables_number   1
_chemical_formula_structural   CuNiC
_chemical_formula_sum   'Cu2 Ni2 C2'
_cell_volume   143.58200560
_cell_formula_units_Z   2
loop_
 _symmetry_equiv_pos_site_id
 _symmetry_equiv_pos_as_xyz
  1  'x, y, z'
loop_
 _atom_site_type_symbol
 _atom_site_label
 _atom_site_symmetry_multiplicity
 _atom_site_fract_x
 _atom_site_fract_y
 _atom_site_fract_z
 _atom_site_occupancy
  C  C0  1  0.79838200  0.79838200  0.60485400  1
  C  C1  1  0.20161800  0.20161800  0.39514600  1
  Ni  Ni2  1  0.40410700  0.40410700  0.78767900  1
  Ni  Ni3  1  0.59589300  0.59589300  0.21232100  1
  Cu  Cu4  1  0.14255600  0.14255600  0.57233200  1
  Cu  Cu5  1  0.85744400  0.85744400  0.42766800  1
