# generated using pymatgen
data_Cu2NiC13
_symmetry_space_group_name_H-M   'P 1'
_cell_length_a   14.46537249
_cell_length_b   14.46537249
_cell_length_c   7.70464200
_cell_angle_alpha   90.00000000
_cell_angle_beta   90.00000000
_cell_angle_gamma   164.36836263
_symmetry_Int_Tables_number   1
_chemical_formula_structural   Cu2NiC13
_chemical_formula_sum   'Cu4 Ni2 C26'
_cell_volume   434.40268177
_cell_formula_units_Z   2
loop_
 _symmetry_equiv_pos_site_id
 _symmetry_equiv_pos_as_xyz
  1  'x, y, z'
loop_
 _atom_site_type_symbol
 _atom_site_label
 _atom_site_symmetry_multiplicity
 _atom_site_fract_x
 _atom_site_fract_y
 _atom_site_fract_z
 _atom_site_occupancy
  Ni  Ni0  1  0.74066500  0.25933500  0.25000000  1
  Ni  Ni1  1  0.25933500  0.74066500  0.75000000  1
  Cu  Cu2  1  0.42741700  0.57258300  0.75000000  1
  Cu  Cu3  1  0.57258300  0.42741700  0.25000000  1
  Cu  Cu4  1  0.57957200  0.42042800  0.75000000  1
  Cu  Cu5  1  0.42042800  0.57957200  0.25000000  1
  C  C6  1  0.85420300  0.14579700  0.99584900  1
  C  C7  1  0.14579700  0.85420300  0.00415100  1
  C  C8  1  0.85420300  0.14579700  0.50415100  1
  C  C9  1  0.00000000  0.00000000  0.00000000  1
  C  C10  1  0.14579700  0.85420300  0.49584900  1
  C  C11  1  0.00000000  0.00000000  0.50000000  1
  C  C12  1  0.20683500  0.79316500  0.04265000  1
  C  C13  1  0.79316500  0.20683500  0.95735000  1
  C  C14  1  0.63096400  0.36903600  0.49285800  1
  C  C15  1  0.01602500  0.98397500  0.25000000  1
  C  C16  1  0.93368000  0.06632000  0.04957100  1
  C  C17  1  0.36903600  0.63096400  0.50714200  1
  C  C18  1  0.98397500  0.01602500  0.75000000  1
  C  C19  1  0.12323400  0.87676600  0.25000000  1
  C  C20  1  0.79316500  0.20683500  0.54265000  1
  C  C21  1  0.50000000  0.50000000  0.00000000  1
  C  C22  1  0.36903600  0.63096400  0.99285800  1
  C  C23  1  0.06632000  0.93368000  0.54957100  1
  C  C24  1  0.63096400  0.36903600  0.00714200  1
  C  C25  1  0.93368000  0.06632000  0.45042900  1
  C  C26  1  0.20683500  0.79316500  0.45735000  1
  C  C27  1  0.06632000  0.93368000  0.95042900  1
  C  C28  1  0.85534700  0.14465300  0.25000000  1
  C  C29  1  0.87676600  0.12323400  0.75000000  1
  C  C30  1  0.50000000  0.50000000  0.50000000  1
  C  C31  1  0.14465300  0.85534700  0.75000000  1
