# generated using pymatgen
data_CuNi8C5
_symmetry_space_group_name_H-M   'P 1'
_cell_length_a   8.92661730
_cell_length_b   8.92661730
_cell_length_c   10.88263261
_cell_angle_alpha   82.68647564
_cell_angle_beta   82.68647564
_cell_angle_gamma   52.30606805
_symmetry_Int_Tables_number   1
_chemical_formula_structural   CuNi8C5
_chemical_formula_sum   'Cu2 Ni16 C10'
_cell_volume   679.25161505
_cell_formula_units_Z   2
loop_
 _symmetry_equiv_pos_site_id
 _symmetry_equiv_pos_as_xyz
  1  'x, y, z'
loop_
 _atom_site_type_symbol
 _atom_site_label
 _atom_site_symmetry_multiplicity
 _atom_site_fract_x
 _atom_site_fract_y
 _atom_site_fract_z
 _atom_site_occupancy
  C  C0  1  0.40045200  0.59954800  0.75000000  1
  C  C1  1  0.67736400  0.92389000  0.68144700  1
  C  C2  1  0.92389000  0.67736400  0.18144700  1
  C  C3  1  0.07611000  0.32263600  0.81855300  1
  C  C4  1  0.32263600  0.07611000  0.31855300  1
  C  C5  1  0.59954800  0.40045200  0.25000000  1
  C  C6  1  0.69667800  0.62242200  0.47109100  1
  C  C7  1  0.37757800  0.30332200  0.02890900  1
  C  C8  1  0.62242200  0.69667800  0.97109100  1
  C  C9  1  0.30332200  0.37757800  0.52890900  1
  Ni  Ni10  1  0.55059100  0.74793100  0.16282700  1
  Ni  Ni11  1  0.71267400  0.85077600  0.41401500  1
  Ni  Ni12  1  0.74793100  0.55059100  0.66282700  1
  Ni  Ni13  1  0.89045000  0.39909600  0.35251500  1
  Ni  Ni14  1  0.25206900  0.44940900  0.33717300  1
  Ni  Ni15  1  0.41334200  0.72328100  0.45808200  1
  Ni  Ni16  1  0.10955000  0.60090400  0.64748500  1
  Ni  Ni17  1  0.85077600  0.71267500  0.91401500  1
  Ni  Ni18  1  0.44940900  0.25206900  0.83717300  1
  Ni  Ni19  1  0.14922400  0.28732600  0.08598500  1
  Ni  Ni20  1  0.58665800  0.27671900  0.54191800  1
  Ni  Ni21  1  0.72328100  0.41334200  0.95808200  1
  Ni  Ni22  1  0.60090400  0.10955000  0.14748500  1
  Ni  Ni23  1  0.39909600  0.89045000  0.85251500  1
  Ni  Ni24  1  0.28732600  0.14922400  0.58598500  1
  Ni  Ni25  1  0.27671900  0.58665800  0.04191800  1
  Cu  Cu26  1  0.98636600  0.01363400  0.75000000  1
  Cu  Cu27  1  0.01363400  0.98636600  0.25000000  1
