# generated using pymatgen
data_Cu3NiC4
_symmetry_space_group_name_H-M   'P 1'
_cell_length_a   8.04734100
_cell_length_b   8.04734100
_cell_length_c   8.04734100
_cell_angle_alpha   90.00000000
_cell_angle_beta   90.00000000
_cell_angle_gamma   90.00000000
_symmetry_Int_Tables_number   1
_chemical_formula_structural   Cu3NiC4
_chemical_formula_sum   'Cu12 Ni4 C16'
_cell_volume   521.14336619
_cell_formula_units_Z   4
loop_
 _symmetry_equiv_pos_site_id
 _symmetry_equiv_pos_as_xyz
  1  'x, y, z'
loop_
 _atom_site_type_symbol
 _atom_site_label
 _atom_site_symmetry_multiplicity
 _atom_site_fract_x
 _atom_site_fract_y
 _atom_site_fract_z
 _atom_site_occupancy
  C  C0  1  0.31567200  0.98052000  0.35812000  1
  C  C1  1  0.48052000  0.14188000  0.68432800  1
  C  C2  1  0.01948000  0.85812000  0.18432800  1
  C  C3  1  0.81567200  0.51948000  0.64188000  1
  C  C4  1  0.35812000  0.31567200  0.98052000  1
  C  C5  1  0.51948000  0.64188000  0.81567200  1
  C  C6  1  0.68432800  0.48052000  0.14188000  1
  C  C7  1  0.14188000  0.68432800  0.48052000  1
  C  C8  1  0.64188000  0.81567200  0.51948000  1
  C  C9  1  0.98052000  0.35812000  0.31567200  1
  C  C10  1  0.85812000  0.18432800  0.01948000  1
  C  C11  1  0.18432800  0.01948000  0.85812000  1
  C  C12  1  0.85683000  0.64317000  0.35683000  1
  C  C13  1  0.14317000  0.14317000  0.14317000  1
  C  C14  1  0.64317000  0.35683000  0.85683000  1
  C  C15  1  0.35683000  0.85683000  0.64317000  1
  Ni  Ni16  1  0.07927300  0.57927300  0.92072700  1
  Ni  Ni17  1  0.92072700  0.07927300  0.57927300  1
  Ni  Ni18  1  0.42072700  0.42072700  0.42072700  1
  Ni  Ni19  1  0.57927300  0.92072700  0.07927300  1
  Cu  Cu20  1  0.69111000  0.92131900  0.96778800  1
  Cu  Cu21  1  0.46778800  0.80889000  0.07868100  1
  Cu  Cu22  1  0.07868100  0.46778800  0.80889000  1
  Cu  Cu23  1  0.92131900  0.96778800  0.69111000  1
  Cu  Cu24  1  0.03221200  0.19111000  0.57868100  1
  Cu  Cu25  1  0.96778800  0.69111000  0.92131900  1
  Cu  Cu26  1  0.30889000  0.42131900  0.53221200  1
  Cu  Cu27  1  0.57868100  0.03221200  0.19111000  1
  Cu  Cu28  1  0.19111000  0.57868100  0.03221200  1
  Cu  Cu29  1  0.80889000  0.07868100  0.46778800  1
  Cu  Cu30  1  0.53221200  0.30889000  0.42131900  1
  Cu  Cu31  1  0.42131900  0.53221200  0.30889000  1
