# generated using pymatgen
data_Cu2Ni5C38
_symmetry_space_group_name_H-M   'P 1'
_cell_length_a   5.84597000
_cell_length_b   6.79262700
_cell_length_c   33.95873100
_cell_angle_alpha   90.00000000
_cell_angle_beta   90.00000000
_cell_angle_gamma   90.00000000
_symmetry_Int_Tables_number   1
_chemical_formula_structural   Cu2Ni5C38
_chemical_formula_sum   'Cu4 Ni10 C76'
_cell_volume   1348.48401345
_cell_formula_units_Z   2
loop_
 _symmetry_equiv_pos_site_id
 _symmetry_equiv_pos_as_xyz
  1  'x, y, z'
loop_
 _atom_site_type_symbol
 _atom_site_label
 _atom_site_symmetry_multiplicity
 _atom_site_fract_x
 _atom_site_fract_y
 _atom_site_fract_z
 _atom_site_occupancy
  Ni  Ni0  1  0.50000000  0.50310800  0.80142700  1
  Ni  Ni1  1  0.50000000  0.50000000  0.00000000  1
  Ni  Ni2  1  0.50000000  0.49689200  0.19857300  1
  Ni  Ni3  1  0.50000000  0.50219200  0.39981500  1
  Ni  Ni4  1  0.50000000  0.49780800  0.60018500  1
  Ni  Ni5  1  0.50000000  0.00310800  0.69857300  1
  Ni  Ni6  1  0.50000000  0.00219200  0.10018500  1
  Ni  Ni7  1  0.50000000  0.99689200  0.30142700  1
  Ni  Ni8  1  0.50000000  0.99780800  0.89981500  1
  Ni  Ni9  1  0.50000000  0.00000000  0.50000000  1
  Cu  Cu10  1  0.00000000  0.67381900  0.86566400  1
  Cu  Cu11  1  0.00000000  0.32618100  0.13433600  1
  Cu  Cu12  1  0.00000000  0.82618100  0.36566400  1
  Cu  Cu13  1  0.00000000  0.17381900  0.63433600  1
  C  C14  1  0.00000000  0.32589500  0.73437300  1
  C  C15  1  0.00000000  0.17634400  0.83550100  1
  C  C16  1  0.00000000  0.82589500  0.76562700  1
  C  C17  1  0.00000000  0.32923600  0.93458000  1
  C  C18  1  0.00000000  0.17380700  0.03512500  1
  C  C19  1  0.00000000  0.82619300  0.96487500  1
  C  C20  1  0.00000000  0.67076400  0.06542000  1
  C  C21  1  0.00000000  0.82365600  0.16449900  1
  C  C22  1  0.00000000  0.32365600  0.33550100  1
  C  C23  1  0.00000000  0.67410500  0.26562700  1
  C  C24  1  0.00000000  0.17076400  0.43458000  1
  C  C25  1  0.00000000  0.32619300  0.53512500  1
  C  C26  1  0.00000000  0.67380700  0.46487500  1
  C  C27  1  0.00000000  0.82923600  0.56542000  1
  C  C28  1  0.00000000  0.67634400  0.66449900  1
  C  C29  1  0.00000000  0.17410500  0.23437300  1
  C  C30  1  0.50000000  0.00445700  0.79882400  1
  C  C31  1  0.50000000  0.50445700  0.70117600  1
  C  C32  1  0.50000000  0.00000000  0.00000000  1
  C  C33  1  0.50000000  0.49573700  0.90096500  1
  C  C34  1  0.50000000  0.99554300  0.20117600  1
  C  C35  1  0.50000000  0.49554300  0.29882400  1
  C  C36  1  0.50000000  0.00426300  0.40096500  1
  C  C37  1  0.50000000  0.50426300  0.09903500  1
  C  C38  1  0.50000000  0.50000000  0.50000000  1
  C  C39  1  0.50000000  0.99573700  0.59903500  1
  C  C40  1  0.00000000  0.99204400  0.70227200  1
  C  C41  1  0.00000000  0.00847600  0.90125100  1
  C  C42  1  0.00000000  0.99152400  0.09874900  1
  C  C43  1  0.00000000  0.50000000  0.00000000  1
  C  C44  1  0.00000000  0.50795600  0.20227200  1
  C  C45  1  0.00000000  0.00795600  0.29772800  1
  C  C46  1  0.00000000  0.00000000  0.50000000  1
  C  C47  1  0.00000000  0.49152400  0.40125100  1
  C  C48  1  0.00000000  0.50847600  0.59874900  1
  C  C49  1  0.26337200  0.87130600  0.82545000  1
  C  C50  1  0.26241300  0.63873400  0.72798200  1
  C  C51  1  0.25782100  0.86255200  0.02701200  1
  C  C52  1  0.26241300  0.86126600  0.22798200  1
  C  C53  1  0.26470700  0.64591200  0.12672200  1
  C  C54  1  0.26470700  0.85408800  0.62672200  1
  C  C55  1  0.26470700  0.35408800  0.87327800  1
  C  C56  1  0.26347600  0.63189400  0.92935500  1
  C  C57  1  0.26347600  0.86810600  0.42935500  1
  C  C58  1  0.26337200  0.62869400  0.32545000  1
  C  C59  1  0.26347600  0.36810600  0.07064500  1
  C  C60  1  0.25782100  0.63744800  0.52701200  1
  C  C61  1  0.25782100  0.13744800  0.97298800  1
  C  C62  1  0.26241300  0.36126600  0.27201800  1
  C  C63  1  0.26241300  0.13873400  0.77201800  1
  C  C64  1  0.25782100  0.36255200  0.47298800  1
  C  C65  1  0.26337200  0.12869400  0.17455000  1
  C  C66  1  0.26470700  0.14591200  0.37327800  1
  C  C67  1  0.26337200  0.37130600  0.67455000  1
  C  C68  1  0.26347600  0.13189400  0.57064500  1
  C  C69  1  0.73529300  0.35408800  0.87327800  1
  C  C70  1  0.73662800  0.87130600  0.82545000  1
  C  C71  1  0.73758700  0.13873400  0.77201800  1
  C  C72  1  0.73652400  0.36810600  0.07064500  1
  C  C73  1  0.73758700  0.36126600  0.27201800  1
  C  C74  1  0.73758700  0.63873400  0.72798200  1
  C  C75  1  0.73652400  0.63189400  0.92935500  1
  C  C76  1  0.74217900  0.86255200  0.02701200  1
  C  C77  1  0.73758700  0.86126600  0.22798200  1
  C  C78  1  0.73652400  0.86810600  0.42935500  1
  C  C79  1  0.74217900  0.13744800  0.97298800  1
  C  C80  1  0.73662800  0.12869400  0.17455000  1
  C  C81  1  0.73529300  0.14591200  0.37327800  1
  C  C82  1  0.74217900  0.36255200  0.47298800  1
  C  C83  1  0.73662800  0.37130600  0.67455000  1
  C  C84  1  0.73529300  0.64591200  0.12672200  1
  C  C85  1  0.73662800  0.62869400  0.32545000  1
  C  C86  1  0.73529300  0.85408800  0.62672200  1
  C  C87  1  0.73652400  0.13189400  0.57064500  1
  C  C88  1  0.74217900  0.63744800  0.52701200  1
  C  C89  1  0.00000000  0.49204400  0.79772800  1
