# generated using pymatgen
data_CuNiC2
_symmetry_space_group_name_H-M   'P 1'
_cell_length_a   3.04944712
_cell_length_b   3.04945459
_cell_length_c   11.46137900
_cell_angle_alpha   89.99996938
_cell_angle_beta   89.99999683
_cell_angle_gamma   119.99993177
_symmetry_Int_Tables_number   1
_chemical_formula_structural   CuNiC2
_chemical_formula_sum   'Cu2 Ni2 C4'
_cell_volume   92.30199362
_cell_formula_units_Z   2
loop_
 _symmetry_equiv_pos_site_id
 _symmetry_equiv_pos_as_xyz
  1  'x, y, z'
loop_
 _atom_site_type_symbol
 _atom_site_label
 _atom_site_symmetry_multiplicity
 _atom_site_fract_x
 _atom_site_fract_y
 _atom_site_fract_z
 _atom_site_occupancy
  Ni  Ni0  1  0.99999300  0.99999700  0.49999800  1
  Ni  Ni1  1  0.00000200  0.00000000  0.00000000  1
  Cu  Cu2  1  0.33333500  0.66666700  0.25000000  1
  Cu  Cu3  1  0.66666900  0.33333500  0.74999900  1
  C  C4  1  0.66666700  0.33333300  0.58803600  1
  C  C5  1  0.33333500  0.66666800  0.08803900  1
  C  C6  1  0.33333400  0.66666700  0.41196600  1
  C  C7  1  0.66666800  0.33333400  0.91195900  1
