# generated using pymatgen
data_Cu(NiC)6
_symmetry_space_group_name_H-M   'P 1'
_cell_length_a   5.52612400
_cell_length_b   6.48748774
_cell_length_c   9.08716129
_cell_angle_alpha   107.36601095
_cell_angle_beta   87.84369597
_cell_angle_gamma   109.40785352
_symmetry_Int_Tables_number   1
_chemical_formula_structural   Cu(NiC)6
_chemical_formula_sum   'Cu2 Ni12 C12'
_cell_volume   292.57645178
_cell_formula_units_Z   2
loop_
 _symmetry_equiv_pos_site_id
 _symmetry_equiv_pos_as_xyz
  1  'x, y, z'
loop_
 _atom_site_type_symbol
 _atom_site_label
 _atom_site_symmetry_multiplicity
 _atom_site_fract_x
 _atom_site_fract_y
 _atom_site_fract_z
 _atom_site_occupancy
  C  C0  1  0.72928900  0.45215300  0.59903800  1
  C  C1  1  0.27071100  0.54784700  0.40096200  1
  Ni  Ni2  1  0.61499100  0.67572600  0.92697900  1
  Ni  Ni3  1  0.38500900  0.32427400  0.07302100  1
  Ni  Ni4  1  0.40718900  0.43155800  0.84868100  1
  Ni  Ni5  1  0.59281100  0.56844200  0.15131900  1
  Ni  Ni6  1  0.25448800  0.09550900  0.43448600  1
  Ni  Ni7  1  0.74551200  0.90449100  0.56551400  1
  Ni  Ni8  1  0.14957800  0.23136900  0.58031900  1
  Ni  Ni9  1  0.85042200  0.76863100  0.41968100  1
  Ni  Ni10  1  0.70601800  0.32218200  0.26419000  1
  Ni  Ni11  1  0.29398200  0.67781800  0.73581000  1
  Ni  Ni12  1  0.80539500  0.12254700  0.26426700  1
  Ni  Ni13  1  0.19460500  0.87745300  0.73573300  1
  Cu  Cu14  1  0.89719700  0.17277900  0.87260800  1
  Cu  Cu15  1  0.10280300  0.82722100  0.12739200  1
  C  C16  1  0.84214500  0.17595400  0.68535000  1
  C  C17  1  0.15785500  0.82404600  0.31465000  1
  C  C18  1  0.21323200  0.16737000  0.88324400  1
  C  C19  1  0.78676800  0.83263000  0.11675600  1
  C  C20  1  0.50837600  0.57915800  0.82982800  1
  C  C21  1  0.49162400  0.42084200  0.17017200  1
  C  C22  1  0.28949800  0.25228300  0.50987100  1
  C  C23  1  0.71050200  0.74771700  0.49012900  1
  C  C24  1  0.82383200  0.28305200  0.32210900  1
  C  C25  1  0.17616800  0.71694800  0.67789100  1
