# generated using pymatgen
data_Cu2NiC5
_symmetry_space_group_name_H-M   'P 1'
_cell_length_a   7.91746600
_cell_length_b   8.80884400
_cell_length_c   12.24302400
_cell_angle_alpha   90.00000000
_cell_angle_beta   90.00000000
_cell_angle_gamma   90.00000000
_symmetry_Int_Tables_number   1
_chemical_formula_structural   Cu2NiC5
_chemical_formula_sum   'Cu8 Ni4 C20'
_cell_volume   853.87407294
_cell_formula_units_Z   4
loop_
 _symmetry_equiv_pos_site_id
 _symmetry_equiv_pos_as_xyz
  1  'x, y, z'
loop_
 _atom_site_type_symbol
 _atom_site_label
 _atom_site_symmetry_multiplicity
 _atom_site_fract_x
 _atom_site_fract_y
 _atom_site_fract_z
 _atom_site_occupancy
  C  C0  1  0.15472200  0.75000000  0.20370900  1
  C  C1  1  0.65472200  0.25000000  0.29629100  1
  C  C2  1  0.84527800  0.25000000  0.79629100  1
  C  C3  1  0.34527800  0.75000000  0.70370900  1
  C  C4  1  0.45404700  0.75000000  0.99795600  1
  C  C5  1  0.95404700  0.25000000  0.50204400  1
  C  C6  1  0.54595300  0.25000000  0.00204400  1
  C  C7  1  0.04595300  0.75000000  0.49795600  1
  C  C8  1  0.62192800  0.75000000  0.30533400  1
  C  C9  1  0.12192800  0.25000000  0.19466600  1
  C  C10  1  0.37807200  0.25000000  0.69466600  1
  C  C11  1  0.87807200  0.75000000  0.80533400  1
  C  C12  1  0.82152600  0.96326800  0.06476400  1
  C  C13  1  0.32152600  0.03673200  0.43523600  1
  C  C14  1  0.17847400  0.46326800  0.93523600  1
  C  C15  1  0.67847400  0.53673200  0.56476400  1
  C  C16  1  0.17847400  0.03673200  0.93523600  1
  C  C17  1  0.67847400  0.96326800  0.56476400  1
  C  C18  1  0.82152600  0.53673200  0.06476400  1
  C  C19  1  0.32152600  0.46326800  0.43523600  1
  Ni  Ni20  1  0.42990400  0.75000000  0.48917000  1
  Ni  Ni21  1  0.92990400  0.25000000  0.01083000  1
  Ni  Ni22  1  0.57009600  0.25000000  0.51083000  1
  Ni  Ni23  1  0.07009600  0.75000000  0.98917000  1
  Cu  Cu24  1  0.92779200  0.99172000  0.32688900  1
  Cu  Cu25  1  0.42779200  0.00828000  0.17311100  1
  Cu  Cu26  1  0.07220800  0.49172000  0.67311100  1
  Cu  Cu27  1  0.57220800  0.50828000  0.82688900  1
  Cu  Cu28  1  0.07220800  0.00828000  0.67311100  1
  Cu  Cu29  1  0.57220800  0.99172000  0.82688900  1
  Cu  Cu30  1  0.92779200  0.50828000  0.32688900  1
  Cu  Cu31  1  0.42779200  0.49172000  0.17311100  1
