# generated using pymatgen
data_CuNiC15
_symmetry_space_group_name_H-M   'P 1'
_cell_length_a   6.62229800
_cell_length_b   8.41332900
_cell_length_c   15.84203700
_cell_angle_alpha   90.00000000
_cell_angle_beta   90.00000000
_cell_angle_gamma   90.00000000
_symmetry_Int_Tables_number   1
_chemical_formula_structural   CuNiC15
_chemical_formula_sum   'Cu4 Ni4 C60'
_cell_volume   882.64815009
_cell_formula_units_Z   4
loop_
 _symmetry_equiv_pos_site_id
 _symmetry_equiv_pos_as_xyz
  1  'x, y, z'
loop_
 _atom_site_type_symbol
 _atom_site_label
 _atom_site_symmetry_multiplicity
 _atom_site_fract_x
 _atom_site_fract_y
 _atom_site_fract_z
 _atom_site_occupancy
  C  C0  1  0.71443800  0.22877000  0.36389000  1
  C  C1  1  0.52939900  0.87785400  0.43377500  1
  C  C2  1  0.78556200  0.72877000  0.86389000  1
  C  C3  1  0.21443800  0.27123000  0.13611000  1
  C  C4  1  0.47060100  0.12214600  0.93377500  1
  C  C5  1  0.97060100  0.37785400  0.56622500  1
  C  C6  1  0.02939900  0.62214600  0.06622500  1
  C  C7  1  0.97060100  0.37785400  0.93377500  1
  C  C8  1  0.02939900  0.62214600  0.43377500  1
  C  C9  1  0.78556200  0.72877000  0.63611000  1
  C  C10  1  0.21443800  0.27123000  0.36389000  1
  C  C11  1  0.47060100  0.12214600  0.56622500  1
  C  C12  1  0.28556200  0.77123000  0.63611000  1
  C  C13  1  0.28556200  0.77123000  0.86389000  1
  C  C14  1  0.52939900  0.87785400  0.06622500  1
  C  C15  1  0.71443800  0.22877000  0.13611000  1
  Ni  Ni16  1  0.06585600  0.51067200  0.75000000  1
  Ni  Ni17  1  0.93414400  0.48932800  0.25000000  1
  Ni  Ni18  1  0.43414400  0.01067200  0.25000000  1
  Ni  Ni19  1  0.56585600  0.98932800  0.75000000  1
  Cu  Cu20  1  0.00000000  0.00000000  0.50000000  1
  Cu  Cu21  1  0.50000000  0.50000000  0.00000000  1
  Cu  Cu22  1  0.00000000  0.00000000  0.00000000  1
  Cu  Cu23  1  0.50000000  0.50000000  0.50000000  1
  C  C24  1  0.05588300  0.08997900  0.75000000  1
  C  C25  1  0.55588300  0.41002100  0.75000000  1
  C  C26  1  0.44411700  0.58997900  0.25000000  1
  C  C27  1  0.94411700  0.91002100  0.25000000  1
  C  C28  1  0.47349600  0.65781100  0.08955800  1
  C  C29  1  0.08423900  0.48181400  0.33302600  1
  C  C30  1  0.52474100  0.67032200  0.91416100  1
  C  C31  1  0.02474100  0.82967800  0.58583900  1
  C  C32  1  0.02474100  0.82967800  0.91416100  1
  C  C33  1  0.22007100  0.66664300  0.75000000  1
  C  C34  1  0.20697600  0.50586600  0.51502400  1
  C  C35  1  0.02650400  0.15781100  0.58955800  1
  C  C36  1  0.52650400  0.34218900  0.91044200  1
  C  C37  1  0.79302400  0.49413400  0.01502400  1
  C  C38  1  0.77992900  0.33335700  0.25000000  1
  C  C39  1  0.30563300  0.84475500  0.25000000  1
  C  C40  1  0.97349600  0.84218900  0.41044200  1
  C  C41  1  0.97525900  0.17032200  0.41416100  1
  C  C42  1  0.80563300  0.65524500  0.25000000  1
  C  C43  1  0.72007100  0.83335700  0.75000000  1
  C  C44  1  0.47349600  0.65781100  0.41044200  1
  C  C45  1  0.69436700  0.15524500  0.75000000  1
  C  C46  1  0.52474100  0.67032200  0.58583900  1
  C  C47  1  0.91576100  0.51818600  0.83302600  1
  C  C48  1  0.41576100  0.98181400  0.66697400  1
  C  C49  1  0.29302400  0.00586600  0.48497600  1
  C  C50  1  0.58423900  0.01818600  0.33302600  1
  C  C51  1  0.52650400  0.34218900  0.58955800  1
  C  C52  1  0.47525900  0.32967800  0.08583900  1
  C  C53  1  0.41576100  0.98181400  0.83302600  1
  C  C54  1  0.20697600  0.50586600  0.98497600  1
  C  C55  1  0.58423900  0.01818600  0.16697400  1
  C  C56  1  0.29302400  0.00586600  0.01502400  1
  C  C57  1  0.19436700  0.34475500  0.75000000  1
  C  C58  1  0.02650400  0.15781100  0.91044200  1
  C  C59  1  0.47525900  0.32967800  0.41416100  1
  C  C60  1  0.08423900  0.48181400  0.16697400  1
  C  C61  1  0.97349600  0.84218900  0.08955800  1
  C  C62  1  0.91576100  0.51818600  0.66697400  1
  C  C63  1  0.70697600  0.99413400  0.51502400  1
  C  C64  1  0.79302400  0.49413400  0.48497600  1
  C  C65  1  0.27992900  0.16664300  0.25000000  1
  C  C66  1  0.97525900  0.17032200  0.08583900  1
  C  C67  1  0.70697600  0.99413400  0.98497600  1
