# generated using pymatgen
data_CuNi2C13
_symmetry_space_group_name_H-M   'P 1'
_cell_length_a   9.69705031
_cell_length_b   9.69705031
_cell_length_c   7.88733400
_cell_angle_alpha   90.00000000
_cell_angle_beta   90.00000000
_cell_angle_gamma   120.00000212
_symmetry_Int_Tables_number   1
_chemical_formula_structural   CuNi2C13
_chemical_formula_sum   'Cu3 Ni6 C39'
_cell_volume   642.30329818
_cell_formula_units_Z   3
loop_
 _symmetry_equiv_pos_site_id
 _symmetry_equiv_pos_as_xyz
  1  'x, y, z'
loop_
 _atom_site_type_symbol
 _atom_site_label
 _atom_site_symmetry_multiplicity
 _atom_site_fract_x
 _atom_site_fract_y
 _atom_site_fract_z
 _atom_site_occupancy
  C  C0  1  0.33345100  0.30955000  0.75020100  1
  C  C1  1  0.66654900  0.97609900  0.24979900  1
  C  C2  1  0.00000000  0.35751200  0.50000000  1
  C  C3  1  0.64248800  0.64248800  0.50000000  1
  C  C4  1  0.30955000  0.33345100  0.24979900  1
  C  C5  1  0.00000000  0.32759800  0.00000000  1
  C  C6  1  0.67240200  0.67240200  0.00000000  1
  C  C7  1  0.97609900  0.66654900  0.75020100  1
  C  C8  1  0.35751200  0.00000000  0.50000000  1
  C  C9  1  0.02390100  0.69045000  0.24979900  1
  C  C10  1  0.32759800  0.00000000  0.00000000  1
  C  C11  1  0.69045000  0.02390100  0.75020100  1
  Ni  Ni12  1  0.00000000  0.00000000  0.83536000  1
  Ni  Ni13  1  0.66666700  0.33333300  0.92775100  1
  Ni  Ni14  1  0.33333300  0.66666700  0.07224900  1
  Ni  Ni15  1  0.33333300  0.66666700  0.40538600  1
  Ni  Ni16  1  0.00000000  0.00000000  0.16464000  1
  Ni  Ni17  1  0.66666700  0.33333300  0.59461400  1
  Cu  Cu18  1  0.66666700  0.33333300  0.25897400  1
  Cu  Cu19  1  0.00000000  0.00000000  0.50000000  1
  Cu  Cu20  1  0.33333300  0.66666700  0.74102600  1
  C  C21  1  0.68219600  0.18152700  0.45565100  1
  C  C22  1  0.83507400  0.84292100  0.69785700  1
  C  C23  1  0.34871800  0.82964800  0.24044100  1
  C  C24  1  0.31780400  0.49933000  0.54434900  1
  C  C25  1  0.49933000  0.31780400  0.45565100  1
  C  C26  1  0.00000000  0.84773500  0.00000000  1
  C  C27  1  0.17035200  0.51907000  0.24044100  1
  C  C28  1  0.18295300  0.67944200  0.93412700  1
  C  C29  1  0.67944200  0.18295300  0.06587300  1
  C  C30  1  0.82964800  0.34871800  0.75955900  1
  C  C31  1  0.32055800  0.50351200  0.93412700  1
  C  C32  1  0.16492600  0.00784700  0.30214300  1
  C  C33  1  0.18152700  0.68219600  0.54434900  1
  C  C34  1  0.81847300  0.50067000  0.45565100  1
  C  C35  1  0.84773500  0.00000000  0.00000000  1
  C  C36  1  0.15226500  0.15226500  0.00000000  1
  C  C37  1  0.65128200  0.48093000  0.75955900  1
  C  C38  1  0.49648800  0.81704700  0.93412700  1
  C  C39  1  0.99215300  0.15707900  0.30214300  1
  C  C40  1  0.00784700  0.16492600  0.69785700  1
  C  C41  1  0.50351200  0.32055800  0.06587300  1
  C  C42  1  0.48093000  0.65128200  0.24044100  1
  C  C43  1  0.50067000  0.81847300  0.54434900  1
  C  C44  1  0.84292100  0.83507400  0.30214300  1
  C  C45  1  0.15707900  0.99215300  0.69785700  1
  C  C46  1  0.51907000  0.17035200  0.75955900  1
  C  C47  1  0.81704700  0.49648800  0.06587300  1
