# generated using pymatgen
data_Cu6NiC8
_symmetry_space_group_name_H-M   'P 1'
_cell_length_a   7.42411012
_cell_length_b   7.42411012
_cell_length_c   12.06039400
_cell_angle_alpha   90.00000000
_cell_angle_beta   90.00000000
_cell_angle_gamma   120.00000108
_symmetry_Int_Tables_number   1
_chemical_formula_structural   Cu6NiC8
_chemical_formula_sum   'Cu12 Ni2 C16'
_cell_volume   575.67972357
_cell_formula_units_Z   2
loop_
 _symmetry_equiv_pos_site_id
 _symmetry_equiv_pos_as_xyz
  1  'x, y, z'
loop_
 _atom_site_type_symbol
 _atom_site_label
 _atom_site_symmetry_multiplicity
 _atom_site_fract_x
 _atom_site_fract_y
 _atom_site_fract_z
 _atom_site_occupancy
  Ni  Ni0  1  0.66666700  0.33333300  0.09483500  1
  Ni  Ni1  1  0.33333300  0.66666700  0.59483500  1
  Cu  Cu2  1  0.17240700  0.34481500  0.09313800  1
  Cu  Cu3  1  0.98807300  0.49403700  0.35147800  1
  Cu  Cu4  1  0.49403700  0.98807300  0.85147800  1
  Cu  Cu5  1  0.34481500  0.17240700  0.59313800  1
  Cu  Cu6  1  0.65518500  0.82759300  0.09313800  1
  Cu  Cu7  1  0.01192700  0.50596300  0.85147800  1
  Cu  Cu8  1  0.82759300  0.65518500  0.59313800  1
  Cu  Cu9  1  0.49403700  0.50596300  0.85147800  1
  Cu  Cu10  1  0.50596300  0.49403700  0.35147800  1
  Cu  Cu11  1  0.50596300  0.01192700  0.35147800  1
  Cu  Cu12  1  0.82759300  0.17240700  0.59313800  1
  Cu  Cu13  1  0.17240700  0.82759300  0.09313800  1
  C  C14  1  0.80710000  0.61420000  0.41933600  1
  C  C15  1  0.54459000  0.45541000  0.04813600  1
  C  C16  1  0.33333300  0.66666700  0.11889700  1
  C  C17  1  0.54459000  0.08918000  0.04813600  1
  C  C18  1  0.61420000  0.80710000  0.91933600  1
  C  C19  1  0.45541000  0.91082000  0.54813600  1
  C  C20  1  0.66666700  0.33333300  0.61889700  1
  C  C21  1  0.80710000  0.19290000  0.41933600  1
  C  C22  1  0.19290000  0.38580000  0.91933600  1
  C  C23  1  0.33333300  0.66666700  0.73271300  1
  C  C24  1  0.66666700  0.33333300  0.23271300  1
  C  C25  1  0.08918000  0.54459000  0.54813600  1
  C  C26  1  0.38580000  0.19290000  0.41933600  1
  C  C27  1  0.45541000  0.54459000  0.54813600  1
  C  C28  1  0.91082000  0.45541000  0.04813600  1
  C  C29  1  0.19290000  0.80710000  0.91933600  1
