# generated using pymatgen
data_Cu9NiC6
_symmetry_space_group_name_H-M   'P 1'
_cell_length_a   7.21750200
_cell_length_b   9.80940100
_cell_length_c   13.03598800
_cell_angle_alpha   90.00000000
_cell_angle_beta   90.00000000
_cell_angle_gamma   90.00000000
_symmetry_Int_Tables_number   1
_chemical_formula_structural   Cu9NiC6
_chemical_formula_sum   'Cu36 Ni4 C24'
_cell_volume   922.93975515
_cell_formula_units_Z   4
loop_
 _symmetry_equiv_pos_site_id
 _symmetry_equiv_pos_as_xyz
  1  'x, y, z'
loop_
 _atom_site_type_symbol
 _atom_site_label
 _atom_site_symmetry_multiplicity
 _atom_site_fract_x
 _atom_site_fract_y
 _atom_site_fract_z
 _atom_site_occupancy
  C  C0  1  0.34525300  0.86437600  0.42469000  1
  C  C1  1  0.84525300  0.63562400  0.92469000  1
  C  C2  1  0.34525300  0.36437600  0.07531000  1
  C  C3  1  0.84525300  0.13562400  0.57531000  1
  C  C4  1  0.33353500  0.34688500  0.64809500  1
  C  C5  1  0.83571900  0.72106700  0.59424400  1
  C  C6  1  0.83353500  0.65311500  0.35190500  1
  C  C7  1  0.08286000  0.50113400  0.50024300  1
  C  C8  1  0.33571900  0.77893300  0.09424400  1
  C  C9  1  0.58286000  0.99886600  0.00024300  1
  C  C10  1  0.83353500  0.15311500  0.14809500  1
  C  C11  1  0.08286000  0.00113400  0.99975700  1
  C  C12  1  0.58286000  0.49886600  0.49975700  1
  C  C13  1  0.83571900  0.22106700  0.90575600  1
  C  C14  1  0.33571900  0.27893300  0.40575600  1
  C  C15  1  0.33353500  0.84688500  0.85190500  1
  C  C16  1  0.83351300  0.83424700  0.14502200  1
  C  C17  1  0.83727100  0.42888600  0.70941300  1
  C  C18  1  0.83727100  0.92888600  0.79058700  1
  C  C19  1  0.33727100  0.57111400  0.29058700  1
  C  C20  1  0.33351300  0.66575300  0.64502200  1
  C  C21  1  0.83351300  0.33424700  0.35497800  1
  C  C22  1  0.33727100  0.07111400  0.20941300  1
  C  C23  1  0.33351300  0.16575300  0.85497800  1
  Ni  Ni24  1  0.33869800  0.14130000  0.55727100  1
  Ni  Ni25  1  0.83869800  0.35870000  0.05727100  1
  Ni  Ni26  1  0.83869800  0.85870000  0.44272900  1
  Ni  Ni27  1  0.33869800  0.64130000  0.94272900  1
  Cu  Cu28  1  0.50300100  0.16831200  0.92406500  1
  Cu  Cu29  1  0.34018600  0.11312500  0.32074500  1
  Cu  Cu30  1  0.00300100  0.83168800  0.07593500  1
  Cu  Cu31  1  0.84018600  0.38687500  0.82074500  1
  Cu  Cu32  1  0.83228700  0.07705300  0.00909700  1
  Cu  Cu33  1  0.50300100  0.66831200  0.57593500  1
  Cu  Cu34  1  0.50073400  0.62742300  0.34575700  1
  Cu  Cu35  1  0.00073400  0.37257700  0.65424300  1
  Cu  Cu36  1  0.66760700  0.87877100  0.84229100  1
  Cu  Cu37  1  0.34018600  0.61312500  0.17925500  1
  Cu  Cu38  1  0.32964900  0.54317600  0.70961900  1
  Cu  Cu39  1  0.84349300  0.08192900  0.78650000  1
  Cu  Cu40  1  0.82964900  0.45682400  0.29038100  1
  Cu  Cu41  1  0.16676700  0.67217600  0.57450700  1
  Cu  Cu42  1  0.16760700  0.62122900  0.34229100  1
  Cu  Cu43  1  0.33692700  0.79225200  0.70567700  1
  Cu  Cu44  1  0.34349300  0.41807100  0.28650000  1
  Cu  Cu45  1  0.83228700  0.57705300  0.49090300  1
  Cu  Cu46  1  0.83692700  0.20774800  0.29432300  1
  Cu  Cu47  1  0.16676700  0.17217600  0.92549300  1
  Cu  Cu48  1  0.32964900  0.04317600  0.79038100  1
  Cu  Cu49  1  0.84018600  0.88687500  0.67925500  1
  Cu  Cu50  1  0.33228600  0.92294700  0.99090300  1
  Cu  Cu51  1  0.66676700  0.82782400  0.07450700  1
  Cu  Cu52  1  0.00300100  0.33168800  0.42406500  1
  Cu  Cu53  1  0.33692700  0.29225200  0.79432300  1
  Cu  Cu54  1  0.34349300  0.91807100  0.21350000  1
  Cu  Cu55  1  0.84349300  0.58192900  0.71350000  1
  Cu  Cu56  1  0.66760700  0.37877100  0.65770900  1
  Cu  Cu57  1  0.00073400  0.87257700  0.84575700  1
  Cu  Cu58  1  0.83692700  0.70774800  0.20567700  1
  Cu  Cu59  1  0.33228600  0.42294700  0.50909700  1
  Cu  Cu60  1  0.16760700  0.12122900  0.15770900  1
  Cu  Cu61  1  0.50073400  0.12742300  0.15424300  1
  Cu  Cu62  1  0.82964900  0.95682400  0.20961900  1
  Cu  Cu63  1  0.66676700  0.32782400  0.42549300  1
