# generated using pymatgen
data_Cu4Ni2C
_symmetry_space_group_name_H-M   'P 1'
_cell_length_a   9.35202200
_cell_length_b   13.97263600
_cell_length_c   13.99036200
_cell_angle_alpha   90.00000000
_cell_angle_beta   90.00000000
_cell_angle_gamma   90.00000000
_symmetry_Int_Tables_number   1
_chemical_formula_structural   Cu4Ni2C
_chemical_formula_sum   'Cu32 Ni16 C8'
_cell_volume   1828.15416920
_cell_formula_units_Z   8
loop_
 _symmetry_equiv_pos_site_id
 _symmetry_equiv_pos_as_xyz
  1  'x, y, z'
loop_
 _atom_site_type_symbol
 _atom_site_label
 _atom_site_symmetry_multiplicity
 _atom_site_fract_x
 _atom_site_fract_y
 _atom_site_fract_z
 _atom_site_occupancy
  C  C0  1  0.50000000  0.60163000  0.33159800  1
  C  C1  1  0.00000000  0.83940300  0.38451900  1
  C  C2  1  0.00000000  0.33940300  0.11548100  1
  C  C3  1  0.50000000  0.89837000  0.83159800  1
  C  C4  1  0.00000000  0.16059700  0.61548100  1
  C  C5  1  0.50000000  0.39837000  0.66840200  1
  C  C6  1  0.00000000  0.66059700  0.88451900  1
  C  C7  1  0.50000000  0.10163000  0.16840200  1
  Ni  Ni8  1  0.32261800  0.50000000  0.00000000  1
  Ni  Ni9  1  0.00000000  0.48588900  0.61740000  1
  Ni  Ni10  1  0.82269300  0.50000000  0.50000000  1
  Ni  Ni11  1  0.50000000  0.11562800  0.52516600  1
  Ni  Ni12  1  0.82269300  0.00000000  0.00000000  1
  Ni  Ni13  1  0.00000000  0.51411100  0.38260000  1
  Ni  Ni14  1  0.17730700  0.50000000  0.50000000  1
  Ni  Ni15  1  0.32261800  0.00000000  0.50000000  1
  Ni  Ni16  1  0.00000000  0.01411100  0.11740000  1
  Ni  Ni17  1  0.50000000  0.38437200  0.02516600  1
  Ni  Ni18  1  0.17730700  0.00000000  0.00000000  1
  Ni  Ni19  1  0.00000000  0.98588900  0.88260000  1
  Ni  Ni20  1  0.67738200  0.50000000  0.00000000  1
  Ni  Ni21  1  0.50000000  0.88437200  0.47483400  1
  Ni  Ni22  1  0.50000000  0.61562800  0.97483400  1
  Ni  Ni23  1  0.67738200  0.00000000  0.50000000  1
  Cu  Cu24  1  0.68512300  0.98904900  0.80014500  1
  Cu  Cu25  1  0.31487700  0.98904900  0.80014500  1
  Cu  Cu26  1  0.50000000  0.27469100  0.75686300  1
  Cu  Cu27  1  0.50000000  0.63465600  0.48175200  1
  Cu  Cu28  1  0.50000000  0.22530900  0.25686300  1
  Cu  Cu29  1  0.81431900  0.69954000  0.97151100  1
  Cu  Cu30  1  0.50000000  0.86534400  0.98175200  1
  Cu  Cu31  1  0.00000000  0.73820600  0.75381100  1
  Cu  Cu32  1  0.00000000  0.23820600  0.74618900  1
  Cu  Cu33  1  0.31487700  0.51095100  0.30014500  1
  Cu  Cu34  1  0.81431900  0.80046000  0.47151100  1
  Cu  Cu35  1  0.00000000  0.49193100  0.13534300  1
  Cu  Cu36  1  0.00000000  0.99193100  0.36465700  1
  Cu  Cu37  1  0.00000000  0.00806900  0.63534300  1
  Cu  Cu38  1  0.00000000  0.76179400  0.25381100  1
  Cu  Cu39  1  0.81431900  0.19954000  0.52848900  1
  Cu  Cu40  1  0.31487700  0.48904900  0.69985500  1
  Cu  Cu41  1  0.18568100  0.19954000  0.52848900  1
  Cu  Cu42  1  0.31487700  0.01095100  0.19985500  1
  Cu  Cu43  1  0.68512300  0.48904900  0.69985500  1
  Cu  Cu44  1  0.50000000  0.72530900  0.24313700  1
  Cu  Cu45  1  0.18568100  0.69954000  0.97151100  1
  Cu  Cu46  1  0.50000000  0.36534400  0.51824800  1
  Cu  Cu47  1  0.18568100  0.30046000  0.02848900  1
  Cu  Cu48  1  0.50000000  0.13465600  0.01824800  1
  Cu  Cu49  1  0.68512300  0.01095100  0.19985500  1
  Cu  Cu50  1  0.81431900  0.30046000  0.02848900  1
  Cu  Cu51  1  0.18568100  0.80046000  0.47151100  1
  Cu  Cu52  1  0.00000000  0.26179400  0.24618900  1
  Cu  Cu53  1  0.68512300  0.51095100  0.30014500  1
  Cu  Cu54  1  0.50000000  0.77469100  0.74313700  1
  Cu  Cu55  1  0.00000000  0.50806900  0.86465700  1
