# generated using pymatgen
data_CuNiC5
_symmetry_space_group_name_H-M   'P 1'
_cell_length_a   18.57591400
_cell_length_b   5.57384600
_cell_length_c   17.66004626
_cell_angle_alpha   89.24474322
_cell_angle_beta   90.00000000
_cell_angle_gamma   90.00000000
_symmetry_Int_Tables_number   1
_chemical_formula_structural   CuNiC5
_chemical_formula_sum   'Cu16 Ni16 C80'
_cell_volume   1828.34968802
_cell_formula_units_Z   16
loop_
 _symmetry_equiv_pos_site_id
 _symmetry_equiv_pos_as_xyz
  1  'x, y, z'
loop_
 _atom_site_type_symbol
 _atom_site_label
 _atom_site_symmetry_multiplicity
 _atom_site_fract_x
 _atom_site_fract_y
 _atom_site_fract_z
 _atom_site_occupancy
  C  C0  1  0.25132700  0.49432300  0.76169300  1
  C  C1  1  0.74867300  0.50567700  0.23830700  1
  C  C2  1  0.87758000  0.50836300  0.46607500  1
  C  C3  1  0.24867300  0.49432300  0.26169300  1
  C  C4  1  0.62242000  0.50836300  0.96607500  1
  C  C5  1  0.37758000  0.49163700  0.03392500  1
  C  C6  1  0.75132700  0.50567700  0.73830700  1
  C  C7  1  0.12242000  0.49163700  0.53392500  1
  Ni  Ni8  1  0.35136700  0.04383800  0.44740400  1
  Ni  Ni9  1  0.93965500  0.98974000  0.70695300  1
  Ni  Ni10  1  0.99614400  0.05313400  0.23649600  1
  Ni  Ni11  1  0.62735400  0.97427000  0.46666100  1
  Ni  Ni12  1  0.50385600  0.05313400  0.73649600  1
  Ni  Ni13  1  0.00385600  0.94686600  0.76350400  1
  Ni  Ni14  1  0.37264600  0.02573000  0.53333900  1
  Ni  Ni15  1  0.64863300  0.95616200  0.55259600  1
  Ni  Ni16  1  0.87264600  0.97427000  0.96666100  1
  Ni  Ni17  1  0.56034500  0.98974000  0.20695300  1
  Ni  Ni18  1  0.14863300  0.04383800  0.94740400  1
  Ni  Ni19  1  0.49614400  0.94686600  0.26350400  1
  Ni  Ni20  1  0.43965500  0.01026000  0.79304700  1
  Ni  Ni21  1  0.12735400  0.02573000  0.03333900  1
  Ni  Ni22  1  0.85136700  0.95616200  0.05259600  1
  Ni  Ni23  1  0.06034500  0.01026000  0.29304700  1
  Cu  Cu24  1  0.41007400  0.95552300  0.20430200  1
  Cu  Cu25  1  0.52227400  0.95338700  0.10911200  1
  Cu  Cu26  1  0.97772600  0.95338700  0.60911200  1
  Cu  Cu27  1  0.74981000  0.99773500  0.05813900  1
  Cu  Cu28  1  0.78558800  0.95820500  0.91153000  1
  Cu  Cu29  1  0.47772600  0.04661300  0.89088800  1
  Cu  Cu30  1  0.24981000  0.00226500  0.44186100  1
  Cu  Cu31  1  0.08992600  0.95552300  0.70430200  1
  Cu  Cu32  1  0.91007400  0.04447700  0.29569800  1
  Cu  Cu33  1  0.25019000  0.00226500  0.94186100  1
  Cu  Cu34  1  0.02227400  0.04661300  0.39088800  1
  Cu  Cu35  1  0.71441200  0.95820500  0.41153000  1
  Cu  Cu36  1  0.21441200  0.04179500  0.08847000  1
  Cu  Cu37  1  0.28558800  0.04179500  0.58847000  1
  Cu  Cu38  1  0.58992600  0.04447700  0.79569800  1
  Cu  Cu39  1  0.75019000  0.99773500  0.55813900  1
  C  C40  1  0.26525600  0.91534500  0.02738300  1
  C  C41  1  0.55629700  0.94163800  0.87347100  1
  C  C42  1  0.44370300  0.05836200  0.12652900  1
  C  C43  1  0.05629700  0.05836200  0.62652900  1
  C  C44  1  0.23474400  0.91534500  0.52738300  1
  C  C45  1  0.73474400  0.08465500  0.97261700  1
  C  C46  1  0.76525600  0.08465500  0.47261700  1
  C  C47  1  0.94370300  0.94163800  0.37347100  1
  C  C48  1  0.20860000  0.89115600  0.15544600  1
  C  C49  1  0.79140000  0.10884400  0.84455400  1
  C  C50  1  0.27084600  0.29548600  0.59968000  1
  C  C51  1  0.72031400  0.76344700  0.07810700  1
  C  C52  1  0.26551300  0.80712200  0.89112200  1
  C  C53  1  0.22031400  0.23655300  0.42189300  1
  C  C54  1  0.05960000  0.88743500  0.44274100  1
  C  C55  1  0.77968600  0.76344700  0.57810700  1
  C  C56  1  0.73448700  0.19287800  0.10887800  1
  C  C57  1  0.72915400  0.70451400  0.40032000  1
  C  C58  1  0.13844900  0.13120100  0.73551100  1
  C  C59  1  0.47503600  0.30246100  0.90570200  1
  C  C60  1  0.11563900  0.70949700  0.70013400  1
  C  C61  1  0.76551300  0.19287800  0.60887800  1
  C  C62  1  0.36155100  0.13120100  0.23551100  1
  C  C63  1  0.02496400  0.30246100  0.40570200  1
  C  C64  1  0.29140000  0.89115600  0.65544600  1
  C  C65  1  0.63844900  0.86879900  0.76448900  1
  C  C66  1  0.94040000  0.11256500  0.55725900  1
  C  C67  1  0.86155100  0.86879900  0.26448900  1
  C  C68  1  0.52496400  0.69753900  0.09429800  1
  C  C69  1  0.97503600  0.69753900  0.59429800  1
  C  C70  1  0.88436100  0.29050300  0.29986600  1
  C  C71  1  0.23448700  0.80712200  0.39112200  1
  C  C72  1  0.77084600  0.70451400  0.90032000  1
  C  C73  1  0.27968600  0.23655300  0.92189300  1
  C  C74  1  0.38436100  0.70949700  0.20013400  1
  C  C75  1  0.61563900  0.29050300  0.79986600  1
  C  C76  1  0.44040000  0.88743500  0.94274100  1
  C  C77  1  0.22915400  0.29548600  0.09968000  1
  C  C78  1  0.70860000  0.10884400  0.34455400  1
  C  C79  1  0.55960000  0.11256500  0.05725900  1
  C  C80  1  0.49721000  0.26940300  0.70119900  1
  C  C81  1  0.08142700  0.20354800  0.05299300  1
  C  C82  1  0.13017800  0.26121000  0.91790800  1
  C  C83  1  0.50279000  0.73059700  0.29880100  1
  C  C84  1  0.49405600  0.12226100  0.31584200  1
  C  C85  1  0.00594400  0.12226100  0.81584200  1
  C  C86  1  0.50594400  0.87773900  0.68415800  1
  C  C87  1  0.59601600  0.18977100  0.45159600  1
  C  C88  1  0.41400200  0.78304800  0.78659200  1
  C  C89  1  0.40398400  0.81022900  0.54840400  1
  C  C90  1  0.88483800  0.83245600  0.72076100  1
  C  C91  1  0.91400200  0.21695200  0.71340800  1
  C  C92  1  0.11604800  0.86855800  0.90713400  1
  C  C93  1  0.58599800  0.21695200  0.21340800  1
  C  C94  1  0.36982200  0.26121000  0.41790800  1
  C  C95  1  0.99721000  0.73059700  0.79880100  1
  C  C96  1  0.91857300  0.79645200  0.94700700  1
  C  C97  1  0.61604800  0.13144200  0.59286600  1
  C  C98  1  0.90398400  0.18977100  0.95159600  1
  C  C99  1  0.99405600  0.87773900  0.18415800  1
  C  C100  1  0.41857300  0.20354800  0.55299300  1
  C  C101  1  0.09601600  0.81022900  0.04840400  1
  C  C102  1  0.63017800  0.73879000  0.58209200  1
  C  C103  1  0.38483800  0.16754400  0.77923900  1
  C  C104  1  0.38395200  0.86855800  0.40713400  1
  C  C105  1  0.00279000  0.26940300  0.20119900  1
  C  C106  1  0.58142700  0.79645200  0.44700700  1
  C  C107  1  0.11516200  0.16754400  0.27923900  1
  C  C108  1  0.86982200  0.73879000  0.08209200  1
  C  C109  1  0.61516200  0.83245600  0.22076100  1
  C  C110  1  0.88395200  0.13144200  0.09286600  1
  C  C111  1  0.08599800  0.78304800  0.28659200  1
