# generated using pymatgen
data_CuNi2C7
_symmetry_space_group_name_H-M   'P 1'
_cell_length_a   10.95877648
_cell_length_b   10.95877648
_cell_length_c   10.95877625
_cell_angle_alpha   33.73296597
_cell_angle_beta   33.73296597
_cell_angle_gamma   33.73296618
_symmetry_Int_Tables_number   1
_chemical_formula_structural   CuNi2C7
_chemical_formula_sum   'Cu2 Ni4 C14'
_cell_volume   361.61482335
_cell_formula_units_Z   2
loop_
 _symmetry_equiv_pos_site_id
 _symmetry_equiv_pos_as_xyz
  1  'x, y, z'
loop_
 _atom_site_type_symbol
 _atom_site_label
 _atom_site_symmetry_multiplicity
 _atom_site_fract_x
 _atom_site_fract_y
 _atom_site_fract_z
 _atom_site_occupancy
  Ni  Ni0  1  0.71800000  0.71800000  0.71800000  1
  Ni  Ni1  1  0.28200000  0.28200000  0.28200000  1
  Ni  Ni2  1  0.87195100  0.87195100  0.87195100  1
  Ni  Ni3  1  0.12804900  0.12804900  0.12804900  1
  Cu  Cu4  1  0.40322100  0.40322100  0.40322100  1
  Cu  Cu5  1  0.59677900  0.59677900  0.59677900  1
  C  C6  1  0.00000000  0.00000000  0.00000000  1
  C  C7  1  0.50000000  0.50000000  0.50000000  1
  C  C8  1  0.18307900  0.18307900  0.74218700  1
  C  C9  1  0.74218700  0.18307900  0.18307900  1
  C  C10  1  0.18307900  0.74218700  0.18307900  1
  C  C11  1  0.81692100  0.25781300  0.81692100  1
  C  C12  1  0.81692100  0.81692100  0.25781300  1
  C  C13  1  0.25781300  0.81692100  0.81692100  1
  C  C14  1  0.39611500  0.39611500  0.82201400  1
  C  C15  1  0.82201400  0.39611500  0.39611500  1
  C  C16  1  0.17798600  0.60388500  0.60388500  1
  C  C17  1  0.60388500  0.60388500  0.17798600  1
  C  C18  1  0.60388500  0.17798600  0.60388500  1
  C  C19  1  0.39611500  0.82201400  0.39611500  1
