# generated using pymatgen
data_Cu30Ni13C3
_symmetry_space_group_name_H-M   'P 1'
_cell_length_a   14.64233022
_cell_length_b   14.64233022
_cell_length_c   8.66283600
_cell_angle_alpha   90.00000000
_cell_angle_beta   90.00000000
_cell_angle_gamma   120.00000098
_symmetry_Int_Tables_number   1
_chemical_formula_structural   Cu30Ni13C3
_chemical_formula_sum   'Cu60 Ni26 C6'
_cell_volume   1608.46314350
_cell_formula_units_Z   2
loop_
 _symmetry_equiv_pos_site_id
 _symmetry_equiv_pos_as_xyz
  1  'x, y, z'
loop_
 _atom_site_type_symbol
 _atom_site_label
 _atom_site_symmetry_multiplicity
 _atom_site_fract_x
 _atom_site_fract_y
 _atom_site_fract_z
 _atom_site_occupancy
  C  C0  1  0.45911200  0.91822300  0.25000000  1
  C  C1  1  0.91822300  0.45911200  0.75000000  1
  C  C2  1  0.08177700  0.54088800  0.25000000  1
  C  C3  1  0.54088800  0.45911200  0.75000000  1
  C  C4  1  0.54088800  0.08177700  0.75000000  1
  C  C5  1  0.45911200  0.54088800  0.25000000  1
  Ni  Ni6  1  0.88419500  0.11580500  0.06516100  1
  Ni  Ni7  1  0.77193900  0.22806100  0.94792300  1
  Ni  Ni8  1  0.88419500  0.76839100  0.06516100  1
  Ni  Ni9  1  0.88419500  0.76839100  0.43483900  1
  Ni  Ni10  1  0.33333300  0.66666700  0.75000000  1
  Ni  Ni11  1  0.77193900  0.54387800  0.94792300  1
  Ni  Ni12  1  0.77193900  0.22806100  0.55207700  1
  Ni  Ni13  1  0.11580500  0.23160900  0.56516100  1
  Ni  Ni14  1  0.23160900  0.11580500  0.43483900  1
  Ni  Ni15  1  0.22806100  0.77193900  0.44792300  1
  Ni  Ni16  1  0.76839100  0.88419500  0.56516100  1
  Ni  Ni17  1  0.45612200  0.22806100  0.94792300  1
  Ni  Ni18  1  0.54387800  0.77193900  0.05207700  1
  Ni  Ni19  1  0.22806100  0.45612200  0.44792300  1
  Ni  Ni20  1  0.23160900  0.11580500  0.06516100  1
  Ni  Ni21  1  0.66666700  0.33333300  0.25000000  1
  Ni  Ni22  1  0.11580500  0.88419500  0.93483900  1
  Ni  Ni23  1  0.22806100  0.77193900  0.05207700  1
  Ni  Ni24  1  0.22806100  0.45612200  0.05207700  1
  Ni  Ni25  1  0.11580500  0.88419500  0.56516100  1
  Ni  Ni26  1  0.77193900  0.54387800  0.55207700  1
  Ni  Ni27  1  0.45612200  0.22806100  0.55207700  1
  Ni  Ni28  1  0.76839100  0.88419500  0.93483900  1
  Ni  Ni29  1  0.11580500  0.23160900  0.93483900  1
  Ni  Ni30  1  0.88419500  0.11580500  0.43483900  1
  Ni  Ni31  1  0.54387800  0.77193900  0.44792300  1
  Cu  Cu32  1  0.29024900  0.40858700  0.75000000  1
  Cu  Cu33  1  0.13761600  0.56880800  0.91279800  1
  Cu  Cu34  1  0.11833800  0.70975100  0.75000000  1
  Cu  Cu35  1  0.59141300  0.70975100  0.75000000  1
  Cu  Cu36  1  0.56880800  0.13761600  0.08720200  1
  Cu  Cu37  1  0.30310600  0.23911100  0.75000000  1
  Cu  Cu38  1  0.64133000  0.00000000  0.50000000  1
  Cu  Cu39  1  0.06399500  0.76088900  0.25000000  1
  Cu  Cu40  1  0.66666700  0.33333300  0.59957700  1
  Cu  Cu41  1  0.29024900  0.88166200  0.75000000  1
  Cu  Cu42  1  0.93600500  0.69689400  0.75000000  1
  Cu  Cu43  1  0.93854500  0.06145500  0.75000000  1
  Cu  Cu44  1  0.64133000  0.00000000  0.00000000  1
  Cu  Cu45  1  0.56880800  0.43119200  0.41279800  1
  Cu  Cu46  1  0.76088900  0.69689400  0.75000000  1
  Cu  Cu47  1  0.43119200  0.56880800  0.91279800  1
  Cu  Cu48  1  0.00000000  0.35867000  0.50000000  1
  Cu  Cu49  1  0.33333300  0.66666700  0.09957700  1
  Cu  Cu50  1  0.56880800  0.43119200  0.08720200  1
  Cu  Cu51  1  0.43119200  0.56880800  0.58720200  1
  Cu  Cu52  1  0.93600500  0.23911100  0.75000000  1
  Cu  Cu53  1  0.70975100  0.11833800  0.25000000  1
  Cu  Cu54  1  0.69689400  0.93600500  0.25000000  1
  Cu  Cu55  1  0.06145500  0.93854500  0.25000000  1
  Cu  Cu56  1  0.43119200  0.86238400  0.91279800  1
  Cu  Cu57  1  0.93854500  0.87708900  0.75000000  1
  Cu  Cu58  1  0.35867000  0.00000000  0.00000000  1
  Cu  Cu59  1  0.23911100  0.93600500  0.25000000  1
  Cu  Cu60  1  0.66666700  0.33333300  0.90042300  1
  Cu  Cu61  1  0.33333300  0.66666700  0.40042300  1
  Cu  Cu62  1  0.00000000  0.35867000  0.00000000  1
  Cu  Cu63  1  0.35867000  0.35867000  0.00000000  1
  Cu  Cu64  1  0.70975100  0.59141300  0.25000000  1
  Cu  Cu65  1  0.88166200  0.29024900  0.25000000  1
  Cu  Cu66  1  0.00000000  0.00000000  0.50000000  1
  Cu  Cu67  1  0.13761600  0.56880800  0.58720200  1
  Cu  Cu68  1  0.11833800  0.40858700  0.75000000  1
  Cu  Cu69  1  0.56880800  0.13761600  0.41279800  1
  Cu  Cu70  1  0.76088900  0.06399500  0.75000000  1
  Cu  Cu71  1  0.00000000  0.64133000  0.00000000  1
  Cu  Cu72  1  0.86238400  0.43119200  0.08720200  1
  Cu  Cu73  1  0.06399500  0.30310600  0.25000000  1
  Cu  Cu74  1  0.59141300  0.88166200  0.75000000  1
  Cu  Cu75  1  0.64133000  0.64133000  0.50000000  1
  Cu  Cu76  1  0.69689400  0.76088900  0.25000000  1
  Cu  Cu77  1  0.35867000  0.35867000  0.50000000  1
  Cu  Cu78  1  0.40858700  0.29024900  0.25000000  1
  Cu  Cu79  1  0.88166200  0.59141300  0.25000000  1
  Cu  Cu80  1  0.64133000  0.64133000  0.00000000  1
  Cu  Cu81  1  0.12291100  0.06145500  0.75000000  1
  Cu  Cu82  1  0.30310600  0.06399500  0.75000000  1
  Cu  Cu83  1  0.00000000  0.64133000  0.50000000  1
  Cu  Cu84  1  0.06145500  0.12291100  0.25000000  1
  Cu  Cu85  1  0.87708900  0.93854500  0.25000000  1
  Cu  Cu86  1  0.00000000  0.00000000  0.00000000  1
  Cu  Cu87  1  0.35867000  0.00000000  0.50000000  1
  Cu  Cu88  1  0.43119200  0.86238400  0.58720200  1
  Cu  Cu89  1  0.23911100  0.30310600  0.25000000  1
  Cu  Cu90  1  0.86238400  0.43119200  0.41279800  1
  Cu  Cu91  1  0.40858700  0.11833800  0.25000000  1
