# generated using pymatgen
data_CuNi2C7
_symmetry_space_group_name_H-M   'P 1'
_cell_length_a   7.41586411
_cell_length_b   7.41586411
_cell_length_c   5.46790300
_cell_angle_alpha   90.00000000
_cell_angle_beta   90.00000000
_cell_angle_gamma   114.62744618
_symmetry_Int_Tables_number   1
_chemical_formula_structural   CuNi2C7
_chemical_formula_sum   'Cu2 Ni4 C14'
_cell_volume   273.35416465
_cell_formula_units_Z   2
loop_
 _symmetry_equiv_pos_site_id
 _symmetry_equiv_pos_as_xyz
  1  'x, y, z'
loop_
 _atom_site_type_symbol
 _atom_site_label
 _atom_site_symmetry_multiplicity
 _atom_site_fract_x
 _atom_site_fract_y
 _atom_site_fract_z
 _atom_site_occupancy
  Ni  Ni0  1  0.71153300  0.89624900  0.25000000  1
  Ni  Ni1  1  0.89624900  0.71153300  0.75000000  1
  Ni  Ni2  1  0.10375100  0.28846700  0.25000000  1
  Ni  Ni3  1  0.28846700  0.10375100  0.75000000  1
  Cu  Cu4  1  0.59201000  0.40799000  0.25000000  1
  Cu  Cu5  1  0.40799000  0.59201000  0.75000000  1
  C  C6  1  0.19791400  0.80208600  0.25000000  1
  C  C7  1  0.80208600  0.19791400  0.75000000  1
  C  C8  1  0.88279600  0.11720400  0.00711300  1
  C  C9  1  0.44942500  0.90486600  0.25000000  1
  C  C10  1  0.32973300  0.32973300  0.00000000  1
  C  C11  1  0.09513400  0.55057500  0.25000000  1
  C  C12  1  0.11720400  0.88279600  0.50711300  1
  C  C13  1  0.67026700  0.67026700  0.00000000  1
  C  C14  1  0.32973300  0.32973300  0.50000000  1
  C  C15  1  0.90486600  0.44942500  0.75000000  1
  C  C16  1  0.67026700  0.67026700  0.50000000  1
  C  C17  1  0.88279600  0.11720400  0.49288700  1
  C  C18  1  0.11720400  0.88279600  0.99288700  1
  C  C19  1  0.55057500  0.09513400  0.75000000  1
