# generated using pymatgen
data_CuNi3C5
_symmetry_space_group_name_H-M   'P 1'
_cell_length_a   7.73976555
_cell_length_b   7.73976555
_cell_length_c   5.89842100
_cell_angle_alpha   90.00000000
_cell_angle_beta   90.00000000
_cell_angle_gamma   91.75824110
_symmetry_Int_Tables_number   1
_chemical_formula_structural   CuNi3C5
_chemical_formula_sum   'Cu2 Ni6 C10'
_cell_volume   353.17248332
_cell_formula_units_Z   2
loop_
 _symmetry_equiv_pos_site_id
 _symmetry_equiv_pos_as_xyz
  1  'x, y, z'
loop_
 _atom_site_type_symbol
 _atom_site_label
 _atom_site_symmetry_multiplicity
 _atom_site_fract_x
 _atom_site_fract_y
 _atom_site_fract_z
 _atom_site_occupancy
  Ni  Ni0  1  0.11363300  0.88636700  0.18446900  1
  Ni  Ni1  1  0.88636700  0.11363300  0.68446900  1
  Ni  Ni2  1  0.64428000  0.85926000  0.18774700  1
  Ni  Ni3  1  0.35572000  0.14074000  0.68774700  1
  Ni  Ni4  1  0.14074000  0.35572000  0.18774700  1
  Ni  Ni5  1  0.85926000  0.64428000  0.68774700  1
  Cu  Cu6  1  0.62899000  0.37101000  0.14157600  1
  Cu  Cu7  1  0.37101000  0.62899000  0.64157600  1
  C  C8  1  0.86899600  0.86371900  0.95127900  1
  C  C9  1  0.13100400  0.13628100  0.45127900  1
  C  C10  1  0.13628100  0.13100400  0.95127900  1
  C  C11  1  0.86371900  0.86899600  0.45127900  1
  C  C12  1  0.77593700  0.22406300  0.23098700  1
  C  C13  1  0.22406300  0.77593700  0.73098700  1
  C  C14  1  0.44128600  0.30251900  0.28395800  1
  C  C15  1  0.55871400  0.69748100  0.78395800  1
  C  C16  1  0.69748100  0.55871400  0.28395800  1
  C  C17  1  0.30251900  0.44128600  0.78395800  1
