# generated using pymatgen
data_Cu12Ni2C9
_symmetry_space_group_name_H-M   'P 1'
_cell_length_a   8.52094700
_cell_length_b   8.52094700
_cell_length_c   18.73429800
_cell_angle_alpha   90.00000000
_cell_angle_beta   90.00000000
_cell_angle_gamma   90.00000000
_symmetry_Int_Tables_number   1
_chemical_formula_structural   Cu12Ni2C9
_chemical_formula_sum   'Cu48 Ni8 C36'
_cell_volume   1360.23251546
_cell_formula_units_Z   4
loop_
 _symmetry_equiv_pos_site_id
 _symmetry_equiv_pos_as_xyz
  1  'x, y, z'
loop_
 _atom_site_type_symbol
 _atom_site_label
 _atom_site_symmetry_multiplicity
 _atom_site_fract_x
 _atom_site_fract_y
 _atom_site_fract_z
 _atom_site_occupancy
  C  C0  1  0.30292300  0.68236800  0.83157400  1
  C  C1  1  0.81763200  0.19707700  0.33157400  1
  C  C2  1  0.00000000  0.50000000  0.91669100  1
  C  C3  1  0.31763200  0.30292300  0.66842600  1
  C  C4  1  0.50000000  0.00000000  0.58330900  1
  C  C5  1  0.68236800  0.69707700  0.66842600  1
  C  C6  1  0.69707700  0.31763200  0.83157400  1
  C  C7  1  0.00000000  0.50000000  0.58330900  1
  C  C8  1  0.19707700  0.18236800  0.83157400  1
  C  C9  1  0.18236800  0.80292300  0.66842600  1
  C  C10  1  0.80292300  0.81763200  0.16842600  1
  C  C11  1  0.80292300  0.81763200  0.83157400  1
  C  C12  1  0.19707700  0.18236800  0.16842600  1
  C  C13  1  0.00000000  0.50000000  0.08330900  1
  C  C14  1  0.81763200  0.19707700  0.66842600  1
  C  C15  1  0.50000000  0.00000000  0.41669100  1
  C  C16  1  0.50000000  0.00000000  0.91669100  1
  C  C17  1  0.50000000  0.00000000  0.08330900  1
  C  C18  1  0.31763200  0.30292300  0.33157400  1
  C  C19  1  0.69707700  0.31763200  0.16842600  1
  C  C20  1  0.00000000  0.50000000  0.41669100  1
  C  C21  1  0.68236800  0.69707700  0.33157400  1
  C  C22  1  0.30292300  0.68236800  0.16842600  1
  C  C23  1  0.18236800  0.80292300  0.33157400  1
  C  C24  1  0.30887300  0.68168000  0.50000000  1
  C  C25  1  0.80887300  0.81832000  0.50000000  1
  C  C26  1  0.68168000  0.69112700  0.00000000  1
  C  C27  1  0.19112700  0.18168000  0.50000000  1
  C  C28  1  0.00000000  0.50000000  0.25000000  1
  C  C29  1  0.50000000  0.00000000  0.75000000  1
  C  C30  1  0.31832000  0.30887300  0.00000000  1
  C  C31  1  0.00000000  0.50000000  0.75000000  1
  C  C32  1  0.18168000  0.80887300  0.00000000  1
  C  C33  1  0.81832000  0.19112700  0.00000000  1
  C  C34  1  0.50000000  0.00000000  0.25000000  1
  C  C35  1  0.69112700  0.31832000  0.50000000  1
  Ni  Ni36  1  0.00000000  0.00000000  0.85691100  1
  Ni  Ni37  1  0.50000000  0.50000000  0.85691100  1
  Ni  Ni38  1  0.00000000  0.00000000  0.35691100  1
  Ni  Ni39  1  0.00000000  0.00000000  0.14308900  1
  Ni  Ni40  1  0.00000000  0.00000000  0.64308900  1
  Ni  Ni41  1  0.50000000  0.50000000  0.35691100  1
  Ni  Ni42  1  0.50000000  0.50000000  0.14308900  1
  Ni  Ni43  1  0.50000000  0.50000000  0.64308900  1
  Cu  Cu44  1  0.35584200  0.90361300  0.50000000  1
  Cu  Cu45  1  0.16363300  0.66363300  0.75000000  1
  Cu  Cu46  1  0.15877200  0.69045800  0.57560500  1
  Cu  Cu47  1  0.38527600  0.89789500  0.17214200  1
  Cu  Cu48  1  0.80954200  0.34122800  0.07560500  1
  Cu  Cu49  1  0.30954200  0.15877200  0.07560500  1
  Cu  Cu50  1  0.65877200  0.80954200  0.57560500  1
  Cu  Cu51  1  0.10210500  0.38527600  0.67214200  1
  Cu  Cu52  1  0.38527600  0.89789500  0.82785800  1
  Cu  Cu53  1  0.14415800  0.40361300  0.50000000  1
  Cu  Cu54  1  0.19045800  0.65877200  0.07560500  1
  Cu  Cu55  1  0.61472400  0.10210500  0.17214200  1
  Cu  Cu56  1  0.11472400  0.39789500  0.17214200  1
  Cu  Cu57  1  0.16363300  0.66363300  0.25000000  1
  Cu  Cu58  1  0.84122800  0.30954200  0.57560500  1
  Cu  Cu59  1  0.69045800  0.84122800  0.07560500  1
  Cu  Cu60  1  0.89789500  0.61472400  0.32785800  1
  Cu  Cu61  1  0.40361300  0.85584200  0.00000000  1
  Cu  Cu62  1  0.83636700  0.33636700  0.25000000  1
  Cu  Cu63  1  0.11472400  0.39789500  0.82785800  1
  Cu  Cu64  1  0.66363300  0.83636700  0.75000000  1
  Cu  Cu65  1  0.34122800  0.19045800  0.57560500  1
  Cu  Cu66  1  0.64415800  0.09638700  0.50000000  1
  Cu  Cu67  1  0.19045800  0.65877200  0.92439500  1
  Cu  Cu68  1  0.39789500  0.88527600  0.32785800  1
  Cu  Cu69  1  0.85584200  0.59638700  0.50000000  1
  Cu  Cu70  1  0.39789500  0.88527600  0.67214200  1
  Cu  Cu71  1  0.65877200  0.80954200  0.42439500  1
  Cu  Cu72  1  0.34122800  0.19045800  0.42439500  1
  Cu  Cu73  1  0.10210500  0.38527600  0.32785800  1
  Cu  Cu74  1  0.69045800  0.84122800  0.92439500  1
  Cu  Cu75  1  0.33636700  0.16363300  0.25000000  1
  Cu  Cu76  1  0.15877200  0.69045800  0.42439500  1
  Cu  Cu77  1  0.84122800  0.30954200  0.42439500  1
  Cu  Cu78  1  0.66363300  0.83636700  0.25000000  1
  Cu  Cu79  1  0.88527600  0.60210500  0.82785800  1
  Cu  Cu80  1  0.89789500  0.61472400  0.67214200  1
  Cu  Cu81  1  0.59638700  0.14415800  0.00000000  1
  Cu  Cu82  1  0.60210500  0.11472400  0.67214200  1
  Cu  Cu83  1  0.80954200  0.34122800  0.92439500  1
  Cu  Cu84  1  0.83636700  0.33636700  0.75000000  1
  Cu  Cu85  1  0.61472400  0.10210500  0.82785800  1
  Cu  Cu86  1  0.33636700  0.16363300  0.75000000  1
  Cu  Cu87  1  0.30954200  0.15877200  0.92439500  1
  Cu  Cu88  1  0.09638700  0.35584200  0.00000000  1
  Cu  Cu89  1  0.90361300  0.64415800  0.00000000  1
  Cu  Cu90  1  0.60210500  0.11472400  0.32785800  1
  Cu  Cu91  1  0.88527600  0.60210500  0.17214200  1
