# generated using pymatgen
data_Cu7NiC7
_symmetry_space_group_name_H-M   'P 1'
_cell_length_a   10.38557913
_cell_length_b   10.38557913
_cell_length_c   9.81468672
_cell_angle_alpha   64.05111533
_cell_angle_beta   64.05111533
_cell_angle_gamma   46.53626280
_symmetry_Int_Tables_number   1
_chemical_formula_structural   Cu7NiC7
_chemical_formula_sum   'Cu14 Ni2 C14'
_cell_volume   675.59575536
_cell_formula_units_Z   2
loop_
 _symmetry_equiv_pos_site_id
 _symmetry_equiv_pos_as_xyz
  1  'x, y, z'
loop_
 _atom_site_type_symbol
 _atom_site_label
 _atom_site_symmetry_multiplicity
 _atom_site_fract_x
 _atom_site_fract_y
 _atom_site_fract_z
 _atom_site_occupancy
  C  C0  1  0.50000000  0.00000000  0.00000000  1
  C  C1  1  0.00000000  0.50000000  0.00000000  1
  C  C2  1  0.20094700  0.20094700  0.72987400  1
  C  C3  1  0.63398200  0.10023700  0.55942800  1
  C  C4  1  0.05449800  0.05449800  0.17391300  1
  C  C5  1  0.43794900  0.43794900  0.76213200  1
  C  C6  1  0.89976300  0.36601800  0.44057200  1
  C  C7  1  0.34552800  0.34552800  0.20457400  1
  C  C8  1  0.65447200  0.65447200  0.79542600  1
  C  C9  1  0.56205100  0.56205100  0.23786800  1
  C  C10  1  0.79905300  0.79905300  0.27012600  1
  C  C11  1  0.10023700  0.63398200  0.55942800  1
  C  C12  1  0.36601800  0.89976300  0.44057200  1
  C  C13  1  0.94550200  0.94550200  0.82608700  1
  Ni  Ni14  1  0.73365500  0.26634500  0.00000000  1
  Ni  Ni15  1  0.26634500  0.73365500  0.00000000  1
  Cu  Cu16  1  0.04096900  0.47715500  0.25908800  1
  Cu  Cu17  1  0.33024300  0.33024300  0.98943300  1
  Cu  Cu18  1  0.65385100  0.65385100  0.37768200  1
  Cu  Cu19  1  0.11404800  0.66945500  0.75767800  1
  Cu  Cu20  1  0.66945500  0.11404800  0.75767800  1
  Cu  Cu21  1  0.88595200  0.33054500  0.24232200  1
  Cu  Cu22  1  0.66975700  0.66975700  0.01056700  1
  Cu  Cu23  1  0.33054500  0.88595200  0.24232200  1
  Cu  Cu24  1  0.47715500  0.04096900  0.25908800  1
  Cu  Cu25  1  0.81954200  0.81954200  0.02839400  1
  Cu  Cu26  1  0.52284500  0.95903100  0.74091200  1
  Cu  Cu27  1  0.34614900  0.34614900  0.62231800  1
  Cu  Cu28  1  0.18045800  0.18045800  0.97160600  1
  Cu  Cu29  1  0.95903100  0.52284500  0.74091200  1
