# generated using pymatgen
data_Cu3NiC7
_symmetry_space_group_name_H-M   'P 1'
_cell_length_a   9.43712166
_cell_length_b   9.43712166
_cell_length_c   6.93573100
_cell_angle_alpha   90.00000000
_cell_angle_beta   90.00000000
_cell_angle_gamma   119.99999763
_symmetry_Int_Tables_number   1
_chemical_formula_structural   Cu3NiC7
_chemical_formula_sum   'Cu6 Ni2 C14'
_cell_volume   534.93620304
_cell_formula_units_Z   2
loop_
 _symmetry_equiv_pos_site_id
 _symmetry_equiv_pos_as_xyz
  1  'x, y, z'
loop_
 _atom_site_type_symbol
 _atom_site_label
 _atom_site_symmetry_multiplicity
 _atom_site_fract_x
 _atom_site_fract_y
 _atom_site_fract_z
 _atom_site_occupancy
  C  C0  1  0.33333300  0.66666700  0.78667600  1
  C  C1  1  0.79818900  0.59637700  0.75243800  1
  C  C2  1  0.20181100  0.40362300  0.25243800  1
  C  C3  1  0.40362300  0.20181100  0.75243800  1
  C  C4  1  0.20181100  0.79818900  0.25243800  1
  C  C5  1  0.59637700  0.79818900  0.25243800  1
  C  C6  1  0.66666700  0.33333300  0.28667600  1
  C  C7  1  0.79818900  0.20181100  0.75243800  1
  C  C8  1  0.93566900  0.46783500  0.03071300  1
  C  C9  1  0.46783500  0.93566900  0.53071300  1
  C  C10  1  0.53216500  0.46783500  0.03071300  1
  C  C11  1  0.46783500  0.53216500  0.53071300  1
  C  C12  1  0.06433100  0.53216500  0.53071300  1
  C  C13  1  0.53216500  0.06433100  0.03071300  1
  Ni  Ni14  1  0.33333300  0.66666700  0.13173200  1
  Ni  Ni15  1  0.66666700  0.33333300  0.63173200  1
  Cu  Cu16  1  0.13128000  0.26256000  0.86153300  1
  Cu  Cu17  1  0.13128000  0.86872000  0.86153300  1
  Cu  Cu18  1  0.73744000  0.86872000  0.86153300  1
  Cu  Cu19  1  0.86872000  0.13128000  0.36153300  1
  Cu  Cu20  1  0.26256000  0.13128000  0.36153300  1
  Cu  Cu21  1  0.86872000  0.73744000  0.36153300  1
