# generated using pymatgen
data_Cu2NiC13
_symmetry_space_group_name_H-M   'P 1'
_cell_length_a   12.86802100
_cell_length_b   14.46686700
_cell_length_c   14.77406900
_cell_angle_alpha   90.00000000
_cell_angle_beta   90.00000000
_cell_angle_gamma   90.00000000
_symmetry_Int_Tables_number   1
_chemical_formula_structural   Cu2NiC13
_chemical_formula_sum   'Cu16 Ni8 C104'
_cell_volume   2750.33992211
_cell_formula_units_Z   8
loop_
 _symmetry_equiv_pos_site_id
 _symmetry_equiv_pos_as_xyz
  1  'x, y, z'
loop_
 _atom_site_type_symbol
 _atom_site_label
 _atom_site_symmetry_multiplicity
 _atom_site_fract_x
 _atom_site_fract_y
 _atom_site_fract_z
 _atom_site_occupancy
  C  C0  1  0.71200700  0.08476400  0.16496000  1
  C  C1  1  0.17480600  0.08545000  0.55122000  1
  C  C2  1  0.21200700  0.91523600  0.33504000  1
  C  C3  1  0.32519400  0.08545000  0.05122000  1
  C  C4  1  0.67480600  0.41455000  0.55122000  1
  C  C5  1  0.71200700  0.58476400  0.33504000  1
  C  C6  1  0.17480600  0.58545000  0.94878000  1
  C  C7  1  0.78799300  0.08476400  0.66496000  1
  C  C8  1  0.67480600  0.91455000  0.94878000  1
  C  C9  1  0.28799300  0.91523600  0.83504000  1
  C  C10  1  0.82519400  0.91455000  0.44878000  1
  C  C11  1  0.28799300  0.41523600  0.66496000  1
  C  C12  1  0.21200700  0.41523600  0.16496000  1
  C  C13  1  0.82519400  0.41455000  0.05122000  1
  C  C14  1  0.32519400  0.58545000  0.44878000  1
  C  C15  1  0.78799300  0.58476400  0.83504000  1
  Ni  Ni16  1  0.59790100  0.76171600  0.63926000  1
  Ni  Ni17  1  0.40209900  0.23828400  0.36074000  1
  Ni  Ni18  1  0.59790100  0.26171600  0.86074000  1
  Ni  Ni19  1  0.40209900  0.73828400  0.13926000  1
  Ni  Ni20  1  0.09790100  0.73828400  0.63926000  1
  Ni  Ni21  1  0.90209900  0.26171600  0.36074000  1
  Ni  Ni22  1  0.90209900  0.76171600  0.13926000  1
  Ni  Ni23  1  0.09790100  0.23828400  0.86074000  1
  Cu  Cu24  1  0.46916000  0.17972100  0.76700200  1
  Cu  Cu25  1  0.53084000  0.82027900  0.23299800  1
  Cu  Cu26  1  0.98242200  0.64030300  0.54719700  1
  Cu  Cu27  1  0.53084000  0.32027900  0.26700200  1
  Cu  Cu28  1  0.01757800  0.85969700  0.04719700  1
  Cu  Cu29  1  0.03084000  0.17972100  0.26700200  1
  Cu  Cu30  1  0.01757800  0.35969700  0.45280300  1
  Cu  Cu31  1  0.51757800  0.64030300  0.04719700  1
  Cu  Cu32  1  0.46916000  0.67972100  0.73299800  1
  Cu  Cu33  1  0.96916000  0.82027900  0.73299800  1
  Cu  Cu34  1  0.03084000  0.67972100  0.23299800  1
  Cu  Cu35  1  0.48242200  0.35969700  0.95280300  1
  Cu  Cu36  1  0.48242200  0.85969700  0.54719700  1
  Cu  Cu37  1  0.51757800  0.14030300  0.45280300  1
  Cu  Cu38  1  0.96916000  0.32027900  0.76700200  1
  Cu  Cu39  1  0.98242200  0.14030300  0.95280300  1
  C  C40  1  0.31092100  0.03847000  0.57130700  1
  C  C41  1  0.92434900  0.57453500  0.78725600  1
  C  C42  1  0.84564400  0.58750300  0.39077800  1
  C  C43  1  0.68907900  0.96153000  0.42869300  1
  C  C44  1  0.32968400  0.31167700  0.59518100  1
  C  C45  1  0.81092100  0.96153000  0.92869300  1
  C  C46  1  0.95812800  0.87507500  0.48844100  1
  C  C47  1  0.17031600  0.31167700  0.09518100  1
  C  C48  1  0.74188000  0.65752500  0.73346500  1
  C  C49  1  0.75812000  0.65752500  0.23346500  1
  C  C50  1  0.82101300  0.32828100  0.14754100  1
  C  C51  1  0.88320500  0.01255700  0.38039500  1
  C  C52  1  0.45812800  0.62492500  0.48844100  1
  C  C53  1  0.65435600  0.08750300  0.60922200  1
  C  C54  1  0.73547200  0.83185600  0.03719700  1
  C  C55  1  0.25812000  0.34247500  0.26653500  1
  C  C56  1  0.25362100  0.53116400  0.71750800  1
  C  C57  1  0.04187200  0.62492500  0.98844100  1
  C  C58  1  0.34564400  0.41249700  0.10922200  1
  C  C59  1  0.24637900  0.03116400  0.28249200  1
  C  C60  1  0.75362100  0.96883600  0.71750800  1
  C  C61  1  0.25362100  0.03116400  0.78249200  1
  C  C62  1  0.67031600  0.18832300  0.09518100  1
  C  C63  1  0.42434900  0.42546500  0.71274400  1
  C  C64  1  0.74188000  0.15752500  0.76653500  1
  C  C65  1  0.23547200  0.66814400  0.03719700  1
  C  C66  1  0.57565100  0.57453500  0.28725600  1
  C  C67  1  0.75362100  0.46883600  0.78249200  1
  C  C68  1  0.61679500  0.51255700  0.61960500  1
  C  C69  1  0.65435600  0.58750300  0.89077800  1
  C  C70  1  0.74637900  0.96883600  0.21750800  1
  C  C71  1  0.18907900  0.03847000  0.07130700  1
  C  C72  1  0.24188000  0.84247500  0.73346500  1
  C  C73  1  0.82968400  0.68832300  0.90481900  1
  C  C74  1  0.75812000  0.15752500  0.26653500  1
  C  C75  1  0.38320500  0.48744300  0.38039500  1
  C  C76  1  0.17898700  0.67171900  0.85245900  1
  C  C77  1  0.82101300  0.82828100  0.35245900  1
  C  C78  1  0.16310000  0.49234000  0.05561300  1
  C  C79  1  0.81092100  0.46153000  0.57130700  1
  C  C80  1  0.04187200  0.12492500  0.51155900  1
  C  C81  1  0.16310000  0.99234000  0.44438700  1
  C  C82  1  0.23547200  0.16814400  0.46280300  1
  C  C83  1  0.73547200  0.33185600  0.46280300  1
  C  C84  1  0.82968400  0.18832300  0.59518100  1
  C  C85  1  0.32968400  0.81167700  0.90481900  1
  C  C86  1  0.26452800  0.66814400  0.53719700  1
  C  C87  1  0.18907900  0.53847000  0.42869300  1
  C  C88  1  0.17031600  0.81167700  0.40481900  1
  C  C89  1  0.83690000  0.50766000  0.94438700  1
  C  C90  1  0.61679500  0.01255700  0.88039500  1
  C  C91  1  0.24188000  0.34247500  0.76653500  1
  C  C92  1  0.17898700  0.17171900  0.64754100  1
  C  C93  1  0.42434900  0.92546500  0.78725600  1
  C  C94  1  0.83690000  0.00766000  0.55561300  1
  C  C95  1  0.33690000  0.49234000  0.55561300  1
  C  C96  1  0.07565100  0.42546500  0.21274400  1
  C  C97  1  0.26452800  0.16814400  0.96280300  1
  C  C98  1  0.67031600  0.68832300  0.40481900  1
  C  C99  1  0.68907900  0.46153000  0.07130700  1
  C  C100  1  0.66310000  0.50766000  0.44438700  1
  C  C101  1  0.84564400  0.08750300  0.10922200  1
  C  C102  1  0.32101300  0.17171900  0.14754100  1
  C  C103  1  0.15435600  0.41249700  0.60922200  1
  C  C104  1  0.32101300  0.67171900  0.35245900  1
  C  C105  1  0.92434900  0.07453500  0.71274400  1
  C  C106  1  0.76452800  0.33185600  0.96280300  1
  C  C107  1  0.95812800  0.37507500  0.01155900  1
  C  C108  1  0.76452800  0.83185600  0.53719700  1
  C  C109  1  0.24637900  0.53116400  0.21750800  1
  C  C110  1  0.57565100  0.07453500  0.21274400  1
  C  C111  1  0.45812800  0.12492500  0.01155900  1
  C  C112  1  0.33690000  0.99234000  0.94438700  1
  C  C113  1  0.38320500  0.98744300  0.11960500  1
  C  C114  1  0.34564400  0.91249700  0.39077800  1
  C  C115  1  0.31092100  0.53847000  0.92869300  1
  C  C116  1  0.67898700  0.32828100  0.64754100  1
  C  C117  1  0.54187200  0.87507500  0.98844100  1
  C  C118  1  0.74637900  0.46883600  0.28249200  1
  C  C119  1  0.15435600  0.91249700  0.89077800  1
  C  C120  1  0.11679500  0.48744300  0.88039500  1
  C  C121  1  0.67898700  0.82828100  0.85245900  1
  C  C122  1  0.11679500  0.98744300  0.61960500  1
  C  C123  1  0.07565100  0.92546500  0.28725600  1
  C  C124  1  0.66310000  0.00766000  0.05561300  1
  C  C125  1  0.54187200  0.37507500  0.51155900  1
  C  C126  1  0.25812000  0.84247500  0.23346500  1
  C  C127  1  0.88320500  0.51255700  0.11960500  1
