# generated using pymatgen
data_Cu(NiC10)2
_symmetry_space_group_name_H-M   'P 1'
_cell_length_a   9.16971300
_cell_length_b   10.67340800
_cell_length_c   11.92479000
_cell_angle_alpha   90.00000000
_cell_angle_beta   90.00000000
_cell_angle_gamma   90.00000000
_symmetry_Int_Tables_number   1
_chemical_formula_structural   Cu(NiC10)2
_chemical_formula_sum   'Cu4 Ni8 C80'
_cell_volume   1167.10409736
_cell_formula_units_Z   4
loop_
 _symmetry_equiv_pos_site_id
 _symmetry_equiv_pos_as_xyz
  1  'x, y, z'
loop_
 _atom_site_type_symbol
 _atom_site_label
 _atom_site_symmetry_multiplicity
 _atom_site_fract_x
 _atom_site_fract_y
 _atom_site_fract_z
 _atom_site_occupancy
  Ni  Ni0  1  0.61866200  0.77221800  0.81973600  1
  Ni  Ni1  1  0.38133800  0.22778200  0.18026400  1
  Ni  Ni2  1  0.11866200  0.72778200  0.31973600  1
  Ni  Ni3  1  0.38133800  0.22778200  0.81973600  1
  Ni  Ni4  1  0.11866200  0.72778200  0.68026400  1
  Ni  Ni5  1  0.88133800  0.27221800  0.31973600  1
  Ni  Ni6  1  0.88133800  0.27221800  0.68026400  1
  Ni  Ni7  1  0.61866200  0.77221800  0.18026400  1
  Cu  Cu8  1  0.00000000  0.50000000  0.00000000  1
  Cu  Cu9  1  0.00000000  0.00000000  0.00000000  1
  Cu  Cu10  1  0.50000000  0.50000000  0.50000000  1
  Cu  Cu11  1  0.50000000  0.00000000  0.50000000  1
  C  C12  1  0.59979300  0.34521700  0.70708100  1
  C  C13  1  0.40020700  0.65478300  0.29291900  1
  C  C14  1  0.90020700  0.84521700  0.20708100  1
  C  C15  1  0.50000000  0.00000000  0.75873200  1
  C  C16  1  0.67063000  0.75091300  0.50000000  1
  C  C17  1  0.17063000  0.74908700  0.00000000  1
  C  C18  1  0.09979300  0.15478300  0.79291900  1
  C  C19  1  0.00000000  0.50000000  0.74126800  1
  C  C20  1  0.70971700  0.64700700  0.00000000  1
  C  C21  1  0.00000000  0.50000000  0.25873200  1
  C  C22  1  0.20971700  0.85299300  0.50000000  1
  C  C23  1  0.50000000  0.00000000  0.24126800  1
  C  C24  1  0.29028300  0.35299300  0.00000000  1
  C  C25  1  0.09979300  0.15478300  0.20708100  1
  C  C26  1  0.82937000  0.25091300  0.00000000  1
  C  C27  1  0.79028300  0.14700700  0.50000000  1
  C  C28  1  0.40020700  0.65478300  0.70708100  1
  C  C29  1  0.59979300  0.34521700  0.29291900  1
  C  C30  1  0.90020700  0.84521700  0.79291900  1
  C  C31  1  0.32937000  0.24908700  0.50000000  1
  C  C32  1  0.46483600  0.37358100  0.70014200  1
  C  C33  1  0.96483600  0.12641900  0.20014200  1
  C  C34  1  0.94328900  0.41006800  0.20132500  1
  C  C35  1  0.10184500  0.78024500  0.50000000  1
  C  C36  1  0.81368100  0.88765600  0.86907700  1
  C  C37  1  0.94328900  0.41006800  0.79867500  1
  C  C38  1  0.85359400  0.77660800  0.28301700  1
  C  C39  1  0.50000000  0.00000000  0.86178200  1
  C  C40  1  0.23335800  0.38909000  0.09181600  1
  C  C41  1  0.73335800  0.11091000  0.40818400  1
  C  C42  1  0.35359400  0.72339200  0.21698300  1
  C  C43  1  0.85359400  0.77660800  0.71698300  1
  C  C44  1  0.03516400  0.87358100  0.20014200  1
  C  C45  1  0.35359400  0.72339200  0.78301700  1
  C  C46  1  0.53516400  0.62641900  0.70014200  1
  C  C47  1  0.05671100  0.58993200  0.79867500  1
  C  C48  1  0.00000000  0.50000000  0.63821800  1
  C  C49  1  0.23335800  0.38909000  0.90818400  1
  C  C50  1  0.76664200  0.61091000  0.90818400  1
  C  C51  1  0.31368100  0.61234400  0.63092300  1
  C  C52  1  0.03516400  0.87358100  0.79985800  1
  C  C53  1  0.81368100  0.88765600  0.13092300  1
  C  C54  1  0.96483600  0.12641900  0.79985800  1
  C  C55  1  0.76664200  0.61091000  0.09181600  1
  C  C56  1  0.55671100  0.91006800  0.70132500  1
  C  C57  1  0.26664200  0.88909000  0.40818400  1
  C  C58  1  0.52853300  0.75310800  0.50000000  1
  C  C59  1  0.00000000  0.50000000  0.36178200  1
  C  C60  1  0.68631900  0.38765600  0.36907700  1
  C  C61  1  0.14640600  0.22339200  0.71698300  1
  C  C62  1  0.53516400  0.62641900  0.29985800  1
  C  C63  1  0.26372900  0.14652900  0.50000000  1
  C  C64  1  0.44328900  0.08993200  0.29867500  1
  C  C65  1  0.76372900  0.35347100  0.00000000  1
  C  C66  1  0.14640600  0.22339200  0.28301700  1
  C  C67  1  0.60184500  0.71975500  0.00000000  1
  C  C68  1  0.47146700  0.24689200  0.50000000  1
  C  C69  1  0.44328900  0.08993200  0.70132500  1
  C  C70  1  0.18631900  0.11234400  0.13092300  1
  C  C71  1  0.73260300  0.64630400  0.50000000  1
  C  C72  1  0.18631900  0.11234400  0.86907700  1
  C  C73  1  0.76739700  0.14630400  0.00000000  1
  C  C74  1  0.64640600  0.27660800  0.21698300  1
  C  C75  1  0.05671100  0.58993200  0.20132500  1
  C  C76  1  0.73335800  0.11091000  0.59181600  1
  C  C77  1  0.39815500  0.28024500  0.00000000  1
  C  C78  1  0.46483600  0.37358100  0.29985800  1
  C  C79  1  0.55671100  0.91006800  0.29867500  1
  C  C80  1  0.31368100  0.61234400  0.36907700  1
  C  C81  1  0.02853300  0.74689200  0.00000000  1
  C  C82  1  0.50000000  0.00000000  0.13821800  1
  C  C83  1  0.23627100  0.64652900  0.00000000  1
  C  C84  1  0.97146700  0.25310800  0.00000000  1
  C  C85  1  0.64640600  0.27660800  0.78301700  1
  C  C86  1  0.73627100  0.85347100  0.50000000  1
  C  C87  1  0.26664200  0.88909000  0.59181600  1
  C  C88  1  0.89815500  0.21975500  0.50000000  1
  C  C89  1  0.23260300  0.85369600  0.00000000  1
  C  C90  1  0.68631900  0.38765600  0.63092300  1
  C  C91  1  0.26739700  0.35369600  0.50000000  1
