# generated using pymatgen
data_Cu(NiC4)2
_symmetry_space_group_name_H-M   'P 1'
_cell_length_a   10.60263000
_cell_length_b   6.95752400
_cell_length_c   13.51466788
_cell_angle_alpha   64.65224209
_cell_angle_beta   90.00000000
_cell_angle_gamma   90.00000000
_symmetry_Int_Tables_number   1
_chemical_formula_structural   Cu(NiC4)2
_chemical_formula_sum   'Cu4 Ni8 C32'
_cell_volume   900.97031629
_cell_formula_units_Z   4
loop_
 _symmetry_equiv_pos_site_id
 _symmetry_equiv_pos_as_xyz
  1  'x, y, z'
loop_
 _atom_site_type_symbol
 _atom_site_label
 _atom_site_symmetry_multiplicity
 _atom_site_fract_x
 _atom_site_fract_y
 _atom_site_fract_z
 _atom_site_occupancy
  Ni  Ni0  1  0.09347200  0.73534200  0.39691800  1
  Ni  Ni1  1  0.65420800  0.65256200  0.94578900  1
  Ni  Ni2  1  0.84579200  0.65256200  0.44578900  1
  Ni  Ni3  1  0.34579200  0.34743800  0.05421100  1
  Ni  Ni4  1  0.90652800  0.26465800  0.60308200  1
  Ni  Ni5  1  0.40652800  0.73534200  0.89691800  1
  Ni  Ni6  1  0.15420800  0.34743800  0.55421100  1
  Ni  Ni7  1  0.59347200  0.26465800  0.10308200  1
  Cu  Cu8  1  0.05502900  0.68060000  0.78799200  1
  Cu  Cu9  1  0.44497100  0.68060000  0.28799200  1
  Cu  Cu10  1  0.94497100  0.31940000  0.21200800  1
  Cu  Cu11  1  0.55502900  0.31940000  0.71200800  1
  C  C12  1  0.93580900  0.99682100  0.00696200  1
  C  C13  1  0.06419100  0.00317900  0.99303800  1
  C  C14  1  0.56419100  0.99682100  0.50696200  1
  C  C15  1  0.43580900  0.00317900  0.49303800  1
  C  C16  1  0.67350900  0.99127300  0.51890300  1
  C  C17  1  0.32649100  0.00872700  0.48109700  1
  C  C18  1  0.17350900  0.00872700  0.98109700  1
  C  C19  1  0.82649100  0.99127300  0.01890300  1
  C  C20  1  0.81849600  0.43830000  0.24976800  1
  C  C21  1  0.53400800  0.44520700  0.33310900  1
  C  C22  1  0.46599200  0.55479300  0.66689100  1
  C  C23  1  0.48968900  0.22501300  0.84529900  1
  C  C24  1  0.87569500  0.40187800  0.07909800  1
  C  C25  1  0.93166700  0.80826200  0.82687300  1
  C  C26  1  0.51031100  0.77498700  0.15470100  1
  C  C27  1  0.68150400  0.43830000  0.74976800  1
  C  C28  1  0.62430500  0.40187800  0.57909800  1
  C  C29  1  0.56833300  0.80826200  0.32687300  1
  C  C30  1  0.35583100  0.92417900  0.24365500  1
  C  C31  1  0.85583100  0.07582100  0.25634500  1
  C  C32  1  0.37569500  0.59812200  0.42090200  1
  C  C33  1  0.64416900  0.07582100  0.75634500  1
  C  C34  1  0.01031100  0.22501300  0.34529900  1
  C  C35  1  0.96599200  0.44520700  0.83310900  1
  C  C36  1  0.12430500  0.59812200  0.92090200  1
  C  C37  1  0.43166700  0.19173800  0.67312700  1
  C  C38  1  0.06833300  0.19173800  0.17312700  1
  C  C39  1  0.98968900  0.77498700  0.65470100  1
  C  C40  1  0.18150400  0.56170000  0.75023200  1
  C  C41  1  0.31849600  0.56170000  0.25023200  1
  C  C42  1  0.03400800  0.55479300  0.16689100  1
  C  C43  1  0.14416900  0.92417900  0.74365500  1
