# generated using pymatgen
data_Cu4Ni2C19
_symmetry_space_group_name_H-M   'P 1'
_cell_length_a   11.31972441
_cell_length_b   11.31972441
_cell_length_c   8.85910946
_cell_angle_alpha   71.80341612
_cell_angle_beta   71.80341612
_cell_angle_gamma   46.15737833
_symmetry_Int_Tables_number   1
_chemical_formula_structural   Cu4Ni2C19
_chemical_formula_sum   'Cu8 Ni4 C38'
_cell_volume   770.12571420
_cell_formula_units_Z   2
loop_
 _symmetry_equiv_pos_site_id
 _symmetry_equiv_pos_as_xyz
  1  'x, y, z'
loop_
 _atom_site_type_symbol
 _atom_site_label
 _atom_site_symmetry_multiplicity
 _atom_site_fract_x
 _atom_site_fract_y
 _atom_site_fract_z
 _atom_site_occupancy
  C  C0  1  0.27757400  0.15498600  0.22674500  1
  C  C1  1  0.05493900  0.94506100  0.75000000  1
  C  C2  1  0.94506100  0.05493900  0.25000000  1
  C  C3  1  0.84501400  0.72242600  0.27325500  1
  C  C4  1  0.72242600  0.84501400  0.77325500  1
  C  C5  1  0.15498600  0.27757400  0.72674500  1
  Ni  Ni6  1  0.52509100  0.63928700  0.31261300  1
  Ni  Ni7  1  0.47490900  0.36071300  0.68738700  1
  Ni  Ni8  1  0.36071300  0.47490900  0.18738700  1
  Ni  Ni9  1  0.63928700  0.52509100  0.81261300  1
  Cu  Cu10  1  0.45201800  0.83813200  0.54919300  1
  Cu  Cu11  1  0.32346100  0.89793700  0.01099900  1
  Cu  Cu12  1  0.89793700  0.32346100  0.51099900  1
  Cu  Cu13  1  0.16186800  0.54798200  0.95080700  1
  Cu  Cu14  1  0.54798200  0.16186800  0.45080700  1
  Cu  Cu15  1  0.10206300  0.67653900  0.48900100  1
  Cu  Cu16  1  0.83813200  0.45201800  0.04919300  1
  Cu  Cu17  1  0.67653900  0.10206300  0.98900100  1
  C  C18  1  0.54996500  0.29486700  0.99745400  1
  C  C19  1  0.71040000  0.09903400  0.80126000  1
  C  C20  1  0.59897900  0.74258100  0.64559700  1
  C  C21  1  0.70513300  0.45003500  0.50254600  1
  C  C22  1  0.81545600  0.53083500  0.86584300  1
  C  C23  1  0.09903400  0.71040000  0.30126000  1
  C  C24  1  0.38638200  0.74585600  0.60035100  1
  C  C25  1  0.02172700  0.32118900  0.06089100  1
  C  C26  1  0.39849200  0.97816500  0.92478200  1
  C  C27  1  0.28960000  0.90096600  0.19874000  1
  C  C28  1  0.67881100  0.97827300  0.43910900  1
  C  C29  1  0.18454400  0.46916500  0.13415700  1
  C  C30  1  0.74585600  0.38638200  0.10035100  1
  C  C31  1  0.01289300  0.83940000  0.54632300  1
  C  C32  1  0.60150800  0.02183500  0.07521800  1
  C  C33  1  0.45003500  0.70513300  0.00254600  1
  C  C34  1  0.61361800  0.25414400  0.39964900  1
  C  C35  1  0.46916500  0.18454400  0.63415700  1
  C  C36  1  0.32118900  0.02172700  0.56089100  1
  C  C37  1  0.40102100  0.25741900  0.35440300  1
  C  C38  1  0.90096600  0.28960000  0.69874000  1
  C  C39  1  0.97816500  0.39849200  0.42478200  1
  C  C40  1  0.16060000  0.98710700  0.95367700  1
  C  C41  1  0.02183500  0.60150800  0.57521800  1
  C  C42  1  0.74258100  0.59897900  0.14559700  1
  C  C43  1  0.25414400  0.61361800  0.89964900  1
  C  C44  1  0.29486700  0.54996500  0.49745400  1
  C  C45  1  0.98710700  0.16060000  0.45367700  1
  C  C46  1  0.25741900  0.40102100  0.85440300  1
  C  C47  1  0.97827300  0.67881100  0.93910900  1
  C  C48  1  0.83940000  0.01289300  0.04632300  1
  C  C49  1  0.53083500  0.81545600  0.36584300  1
