# generated using pymatgen
data_Cu(NiC10)2
_symmetry_space_group_name_H-M   'P 1'
_cell_length_a   11.43924619
_cell_length_b   11.43924619
_cell_length_c   7.60409800
_cell_angle_alpha   90.00000000
_cell_angle_beta   90.00000000
_cell_angle_gamma   140.10638912
_symmetry_Int_Tables_number   1
_chemical_formula_structural   Cu(NiC10)2
_chemical_formula_sum   'Cu2 Ni4 C40'
_cell_volume   638.18582309
_cell_formula_units_Z   2
loop_
 _symmetry_equiv_pos_site_id
 _symmetry_equiv_pos_as_xyz
  1  'x, y, z'
loop_
 _atom_site_type_symbol
 _atom_site_label
 _atom_site_symmetry_multiplicity
 _atom_site_fract_x
 _atom_site_fract_y
 _atom_site_fract_z
 _atom_site_occupancy
  C  C0  1  0.24151700  0.75848300  0.00000000  1
  C  C1  1  0.24151700  0.75848300  0.50000000  1
  C  C2  1  0.75848300  0.24151700  0.00000000  1
  C  C3  1  0.75848300  0.24151700  0.50000000  1
  C  C4  1  0.63138600  0.87761000  0.25000000  1
  C  C5  1  0.12239000  0.36861400  0.75000000  1
  C  C6  1  0.36861400  0.12239000  0.75000000  1
  C  C7  1  0.87761000  0.63138600  0.25000000  1
  C  C8  1  0.50000000  0.50000000  0.00000000  1
  C  C9  1  0.50000000  0.50000000  0.50000000  1
  Ni  Ni10  1  0.41376400  0.14325700  0.25000000  1
  Ni  Ni11  1  0.85674300  0.58623600  0.75000000  1
  Ni  Ni12  1  0.58623600  0.85674300  0.75000000  1
  Ni  Ni13  1  0.14325700  0.41376400  0.25000000  1
  Cu  Cu14  1  0.00000000  0.00000000  0.00000000  1
  Cu  Cu15  1  0.00000000  0.00000000  0.50000000  1
  C  C16  1  0.31781300  0.70664100  0.75000000  1
  C  C17  1  0.29335900  0.68218700  0.25000000  1
  C  C18  1  0.68218700  0.29335900  0.25000000  1
  C  C19  1  0.70664100  0.31781300  0.75000000  1
  C  C20  1  0.44353300  0.07730200  0.48573800  1
  C  C21  1  0.92269800  0.55646700  0.51426200  1
  C  C22  1  0.44353300  0.07730200  0.01426200  1
  C  C23  1  0.92269800  0.55646700  0.98573800  1
  C  C24  1  0.55646700  0.92269800  0.51426200  1
  C  C25  1  0.07730200  0.44353300  0.48573800  1
  C  C26  1  0.55646700  0.92269800  0.98573800  1
  C  C27  1  0.07730200  0.44353300  0.01426200  1
  C  C28  1  0.58226800  0.43645300  0.75000000  1
  C  C29  1  0.56354700  0.41773200  0.25000000  1
  C  C30  1  0.41773200  0.56354700  0.25000000  1
  C  C31  1  0.43645300  0.58226800  0.75000000  1
  C  C32  1  0.81387900  0.13930900  0.75000000  1
  C  C33  1  0.86069100  0.18612100  0.25000000  1
  C  C34  1  0.18612100  0.86069100  0.25000000  1
  C  C35  1  0.13930900  0.81387900  0.75000000  1
  C  C36  1  0.11048100  0.11048100  0.75000000  1
  C  C37  1  0.88951900  0.88951900  0.25000000  1
  C  C38  1  0.73342500  0.86574500  0.93511200  1
  C  C39  1  0.13425500  0.26657500  0.06488800  1
  C  C40  1  0.73342500  0.86574500  0.56488800  1
  C  C41  1  0.13425500  0.26657500  0.43511200  1
  C  C42  1  0.26657500  0.13425500  0.06488800  1
  C  C43  1  0.86574500  0.73342500  0.93511200  1
  C  C44  1  0.26657500  0.13425500  0.43511200  1
  C  C45  1  0.86574500  0.73342500  0.56488800  1
