# generated using pymatgen
data_CuNi3C11
_symmetry_space_group_name_H-M   'P 1'
_cell_length_a   9.16620300
_cell_length_b   9.00628700
_cell_length_c   15.83379413
_cell_angle_alpha   76.56056862
_cell_angle_beta   90.00000000
_cell_angle_gamma   90.00000000
_symmetry_Int_Tables_number   1
_chemical_formula_structural   CuNi3C11
_chemical_formula_sum   'Cu8 Ni24 C88'
_cell_volume   1271.34004665
_cell_formula_units_Z   8
loop_
 _symmetry_equiv_pos_site_id
 _symmetry_equiv_pos_as_xyz
  1  'x, y, z'
loop_
 _atom_site_type_symbol
 _atom_site_label
 _atom_site_symmetry_multiplicity
 _atom_site_fract_x
 _atom_site_fract_y
 _atom_site_fract_z
 _atom_site_occupancy
  C  C0  1  0.61423400  0.39574800  0.84017500  1
  C  C1  1  0.38576600  0.60425200  0.15982500  1
  C  C2  1  0.11423400  0.60425200  0.65982500  1
  C  C3  1  0.88576600  0.39574800  0.34017500  1
  C  C4  1  0.60646200  0.84800600  0.16757000  1
  C  C5  1  0.03803500  0.95246000  0.60669100  1
  C  C6  1  0.88999200  0.81166300  0.04755200  1
  C  C7  1  0.73739100  0.45866400  0.96556900  1
  C  C8  1  0.90693900  0.58344900  0.42109100  1
  C  C9  1  0.33563200  0.28028100  0.60640800  1
  C  C10  1  0.16436800  0.28028100  0.10640800  1
  C  C11  1  0.56372800  0.15676200  0.71541300  1
  C  C12  1  0.23739100  0.54133600  0.53443100  1
  C  C13  1  0.79960900  0.01337100  0.25588300  1
  C  C14  1  0.13169000  0.06197800  0.44360600  1
  C  C15  1  0.10646200  0.15199400  0.33243000  1
  C  C16  1  0.80879700  0.10615700  0.14099500  1
  C  C17  1  0.19120300  0.89384300  0.85900500  1
  C  C18  1  0.90367600  0.65554100  0.57367300  1
  C  C19  1  0.94918200  0.24249800  0.48651100  1
  C  C20  1  0.59306100  0.58344900  0.92109100  1
  C  C21  1  0.26260900  0.54133600  0.03443100  1
  C  C22  1  0.11000800  0.18833700  0.95244800  1
  C  C23  1  0.06372800  0.84323800  0.78458700  1
  C  C24  1  0.75328500  0.71208300  0.29536400  1
  C  C25  1  0.05081800  0.75750200  0.51348900  1
  C  C26  1  0.29960900  0.98662900  0.24411700  1
  C  C27  1  0.24671500  0.28791700  0.70463600  1
  C  C28  1  0.96196500  0.04754000  0.39330900  1
  C  C29  1  0.53803500  0.04754000  0.89330900  1
  C  C30  1  0.93627200  0.15676200  0.21541300  1
  C  C31  1  0.20039100  0.98662900  0.74411700  1
  C  C32  1  0.70039100  0.01337100  0.75588300  1
  C  C33  1  0.03651800  0.37440800  0.90303700  1
  C  C34  1  0.74671500  0.71208300  0.79536400  1
  C  C35  1  0.09632400  0.34445900  0.42632700  1
  C  C36  1  0.39506700  0.41204600  0.66714000  1
  C  C37  1  0.55081800  0.24249800  0.98651100  1
  C  C38  1  0.39353800  0.15199400  0.83243000  1
  C  C39  1  0.59632400  0.65554100  0.07367300  1
  C  C40  1  0.40663300  0.24983400  0.33521500  1
  C  C41  1  0.46196500  0.95246000  0.10669100  1
  C  C42  1  0.46348200  0.37440800  0.40303700  1
  C  C43  1  0.76260900  0.45866400  0.46556900  1
  C  C44  1  0.30879700  0.89384300  0.35900500  1
  C  C45  1  0.61000800  0.81166300  0.54755200  1
  C  C46  1  0.59336700  0.75016600  0.66478500  1
  C  C47  1  0.36831000  0.06197800  0.94360600  1
  C  C48  1  0.38999200  0.18833700  0.45244800  1
  C  C49  1  0.10493300  0.41204600  0.16714000  1
  C  C50  1  0.40367600  0.34445900  0.92632700  1
  C  C51  1  0.96348200  0.62559200  0.09696300  1
  C  C52  1  0.25328500  0.28791700  0.20463600  1
  C  C53  1  0.89506700  0.58795400  0.83286000  1
  C  C54  1  0.66436800  0.71971900  0.39359200  1
  C  C55  1  0.90663300  0.75016600  0.16478500  1
  C  C56  1  0.69120300  0.10615700  0.64099500  1
  C  C57  1  0.09306100  0.41655100  0.57890900  1
  C  C58  1  0.86831000  0.93802200  0.55639400  1
  C  C59  1  0.89353800  0.84800600  0.66757000  1
  C  C60  1  0.40693900  0.41655100  0.07890900  1
  C  C61  1  0.53651800  0.62559200  0.59696300  1
  C  C62  1  0.44918200  0.75750200  0.01348900  1
  C  C63  1  0.83563200  0.71971900  0.89359200  1
  C  C64  1  0.09336700  0.24983400  0.83521500  1
  C  C65  1  0.63169000  0.93802200  0.05639400  1
  C  C66  1  0.43627200  0.84323800  0.28458700  1
  C  C67  1  0.60493300  0.58795400  0.33286000  1
  Ni  Ni68  1  0.19068000  0.47535100  0.59563800  1
  Ni  Ni69  1  0.54672400  0.74432300  0.60209100  1
  Ni  Ni70  1  0.80932000  0.52464900  0.40436200  1
  Ni  Ni71  1  0.95327600  0.74432300  0.10209100  1
  Ni  Ni72  1  0.44696000  0.12544800  0.89635600  1
  Ni  Ni73  1  0.30932000  0.47535100  0.09563800  1
  Ni  Ni74  1  0.45327600  0.25567700  0.39790900  1
  Ni  Ni75  1  0.04672400  0.25567700  0.89790900  1
  Ni  Ni76  1  0.82468200  0.11874100  0.20767500  1
  Ni  Ni77  1  0.32468200  0.88125900  0.29232500  1
  Ni  Ni78  1  0.17531800  0.88125900  0.79232500  1
  Ni  Ni79  1  0.00206000  0.26998600  0.42257800  1
  Ni  Ni80  1  0.50206000  0.73001400  0.07742200  1
  Ni  Ni81  1  0.99794000  0.73001400  0.57742200  1
  Ni  Ni82  1  0.55304000  0.87455200  0.10364400  1
  Ni  Ni83  1  0.79830900  0.64202700  0.85383200  1
  Ni  Ni84  1  0.70169100  0.64202700  0.35383200  1
  Ni  Ni85  1  0.20169100  0.35797300  0.14616800  1
  Ni  Ni86  1  0.69068000  0.52464900  0.90436200  1
  Ni  Ni87  1  0.94696000  0.87455200  0.60364400  1
  Ni  Ni88  1  0.67531800  0.11874100  0.70767500  1
  Ni  Ni89  1  0.49794000  0.26998600  0.92257800  1
  Ni  Ni90  1  0.05304000  0.12544800  0.39635600  1
  Ni  Ni91  1  0.29830900  0.35797300  0.64616800  1
  Cu  Cu92  1  0.70139900  0.26273600  0.22187900  1
  Cu  Cu93  1  0.29860100  0.73726400  0.77812100  1
  Cu  Cu94  1  0.87093700  0.16974400  0.90815200  1
  Cu  Cu95  1  0.37093700  0.83025600  0.59184800  1
  Cu  Cu96  1  0.62906300  0.16974400  0.40815200  1
  Cu  Cu97  1  0.20139900  0.73726400  0.27812100  1
  Cu  Cu98  1  0.79860100  0.26273600  0.72187900  1
  Cu  Cu99  1  0.12906300  0.83025600  0.09184800  1
  C  C100  1  0.73225800  0.27993300  0.32663600  1
  C  C101  1  0.23225800  0.72006700  0.17336400  1
  C  C102  1  0.26774200  0.72006700  0.67336400  1
  C  C103  1  0.76774200  0.27993300  0.82663600  1
  C  C104  1  0.94635000  0.20804700  0.71869700  1
  C  C105  1  0.55365000  0.20804700  0.21869700  1
  C  C106  1  0.80682600  0.19047000  0.98804300  1
  C  C107  1  0.74296700  0.40581300  0.16468600  1
  C  C108  1  0.88170500  0.01659800  0.89470900  1
  C  C109  1  0.05365000  0.79195300  0.28130300  1
  C  C110  1  0.25703300  0.59418700  0.83531400  1
  C  C111  1  0.11829500  0.98340200  0.10529100  1
  C  C112  1  0.19317400  0.80953000  0.01195700  1
  C  C113  1  0.44635000  0.79195300  0.78130300  1
  C  C114  1  0.38170500  0.98340200  0.60529100  1
  C  C115  1  0.75703300  0.40581300  0.66468600  1
  C  C116  1  0.30682600  0.80953000  0.51195700  1
  C  C117  1  0.61829500  0.01659800  0.39470900  1
  C  C118  1  0.24296700  0.59418700  0.33531400  1
  C  C119  1  0.69317400  0.19047000  0.48804300  1
