# generated using pymatgen
data_Cu2NiC5
_symmetry_space_group_name_H-M   'P 1'
_cell_length_a   8.99104600
_cell_length_b   12.44215100
_cell_length_c   18.19549700
_cell_angle_alpha   90.00000000
_cell_angle_beta   90.00000000
_cell_angle_gamma   90.00000000
_symmetry_Int_Tables_number   1
_chemical_formula_structural   Cu2NiC5
_chemical_formula_sum   'Cu16 Ni8 C40'
_cell_volume   2035.49298465
_cell_formula_units_Z   8
loop_
 _symmetry_equiv_pos_site_id
 _symmetry_equiv_pos_as_xyz
  1  'x, y, z'
loop_
 _atom_site_type_symbol
 _atom_site_label
 _atom_site_symmetry_multiplicity
 _atom_site_fract_x
 _atom_site_fract_y
 _atom_site_fract_z
 _atom_site_occupancy
  Ni  Ni0  1  0.41565400  0.10842900  0.62596000  1
  Ni  Ni1  1  0.08434600  0.39157100  0.12596000  1
  Ni  Ni2  1  0.58434600  0.10842900  0.12596000  1
  Ni  Ni3  1  0.08434600  0.60842900  0.37404000  1
  Ni  Ni4  1  0.91565400  0.39157100  0.62596000  1
  Ni  Ni5  1  0.58434600  0.89157100  0.37404000  1
  Ni  Ni6  1  0.41565400  0.89157100  0.87404000  1
  Ni  Ni7  1  0.91565400  0.60842900  0.87404000  1
  Cu  Cu8  1  0.96190800  0.00000000  0.75000000  1
  Cu  Cu9  1  0.53809200  0.50000000  0.25000000  1
  Cu  Cu10  1  0.67605100  0.76278000  0.62237100  1
  Cu  Cu11  1  0.03809200  0.00000000  0.25000000  1
  Cu  Cu12  1  0.32394900  0.23722000  0.37762900  1
  Cu  Cu13  1  0.32394900  0.76278000  0.12237100  1
  Cu  Cu14  1  0.17605100  0.73722000  0.62237100  1
  Cu  Cu15  1  0.67605100  0.23722000  0.87762900  1
  Cu  Cu16  1  0.00000000  0.00000000  0.00000000  1
  Cu  Cu17  1  0.46190800  0.50000000  0.75000000  1
  Cu  Cu18  1  0.82394900  0.73722000  0.12237100  1
  Cu  Cu19  1  0.17605100  0.26278000  0.87762900  1
  Cu  Cu20  1  0.50000000  0.50000000  0.00000000  1
  Cu  Cu21  1  0.82394900  0.26278000  0.37762900  1
  Cu  Cu22  1  0.00000000  0.00000000  0.50000000  1
  Cu  Cu23  1  0.50000000  0.50000000  0.50000000  1
  C  C24  1  0.56089200  0.62206000  0.12382400  1
  C  C25  1  0.56089200  0.37794000  0.37617600  1
  C  C26  1  0.93910800  0.12206000  0.87617600  1
  C  C27  1  0.93910800  0.87794000  0.62382400  1
  C  C28  1  0.06089200  0.12206000  0.37617600  1
  C  C29  1  0.43910800  0.37794000  0.87617600  1
  C  C30  1  0.43910800  0.62206000  0.62382400  1
  C  C31  1  0.06089200  0.87794000  0.12382400  1
  C  C32  1  0.36376000  0.91926600  0.33429100  1
  C  C33  1  0.15998400  0.46734900  0.43348200  1
  C  C34  1  0.76498500  0.35867400  0.71590600  1
  C  C35  1  0.65998400  0.96734900  0.06651800  1
  C  C36  1  0.34001600  0.03265100  0.93348200  1
  C  C37  1  0.65998400  0.03265100  0.43348200  1
  C  C38  1  0.84001600  0.46734900  0.93348200  1
  C  C39  1  0.23501500  0.35867400  0.21590600  1
  C  C40  1  0.76498500  0.64132600  0.78409400  1
  C  C41  1  0.91086900  0.25501000  0.55227600  1
  C  C42  1  0.23501500  0.64132600  0.28409400  1
  C  C43  1  0.58913100  0.75501000  0.44772400  1
  C  C44  1  0.91086900  0.74499000  0.94772400  1
  C  C45  1  0.86376000  0.41926600  0.16570900  1
  C  C46  1  0.36376000  0.08073400  0.16570900  1
  C  C47  1  0.41086900  0.24499000  0.55227600  1
  C  C48  1  0.08913100  0.25501000  0.05227600  1
  C  C49  1  0.15998400  0.53265100  0.06651800  1
  C  C50  1  0.73501500  0.14132600  0.21590600  1
  C  C51  1  0.13624000  0.41926600  0.66570900  1
  C  C52  1  0.08913100  0.74499000  0.44772400  1
  C  C53  1  0.58913100  0.24499000  0.05227600  1
  C  C54  1  0.86376000  0.58073400  0.33429100  1
  C  C55  1  0.34001600  0.96734900  0.56651800  1
  C  C56  1  0.63624000  0.91926600  0.83429100  1
  C  C57  1  0.26498500  0.85867400  0.78409400  1
  C  C58  1  0.26498500  0.14132600  0.71590600  1
  C  C59  1  0.84001600  0.53265100  0.56651800  1
  C  C60  1  0.73501500  0.85867400  0.28409400  1
  C  C61  1  0.41086900  0.75501000  0.94772400  1
  C  C62  1  0.13624000  0.58073400  0.83429100  1
  C  C63  1  0.63624000  0.08073400  0.66570900  1
