# generated using pymatgen
data_Cu2NiC4
_symmetry_space_group_name_H-M   'P 1'
_cell_length_a   8.08448100
_cell_length_b   8.12651100
_cell_length_c   10.11399400
_cell_angle_alpha   90.00000000
_cell_angle_beta   90.00000000
_cell_angle_gamma   90.00000000
_symmetry_Int_Tables_number   1
_chemical_formula_structural   Cu2NiC4
_chemical_formula_sum   'Cu8 Ni4 C16'
_cell_volume   664.47548668
_cell_formula_units_Z   4
loop_
 _symmetry_equiv_pos_site_id
 _symmetry_equiv_pos_as_xyz
  1  'x, y, z'
loop_
 _atom_site_type_symbol
 _atom_site_label
 _atom_site_symmetry_multiplicity
 _atom_site_fract_x
 _atom_site_fract_y
 _atom_site_fract_z
 _atom_site_occupancy
  Ni  Ni0  1  0.75000000  0.93960600  0.50615500  1
  Ni  Ni1  1  0.75000000  0.56039400  0.00615500  1
  Ni  Ni2  1  0.25000000  0.06039400  0.49384500  1
  Ni  Ni3  1  0.25000000  0.43960600  0.99384500  1
  Cu  Cu4  1  0.03852700  0.96382900  0.86816300  1
  Cu  Cu5  1  0.96147300  0.46382900  0.63183700  1
  Cu  Cu6  1  0.03852700  0.53617100  0.36816300  1
  Cu  Cu7  1  0.46147300  0.53617100  0.36816300  1
  Cu  Cu8  1  0.53852700  0.03617100  0.13183700  1
  Cu  Cu9  1  0.53852700  0.46382900  0.63183700  1
  Cu  Cu10  1  0.46147300  0.96382900  0.86816300  1
  Cu  Cu11  1  0.96147300  0.03617100  0.13183700  1
  C  C12  1  0.25000000  0.65474700  0.66714600  1
  C  C13  1  0.75000000  0.34525300  0.33285400  1
  C  C14  1  0.75000000  0.15474700  0.83285400  1
  C  C15  1  0.25000000  0.84525300  0.16714600  1
  C  C16  1  0.55028300  0.27412200  0.27240600  1
  C  C17  1  0.55028300  0.22587800  0.77240600  1
  C  C18  1  0.25000000  0.48972000  0.54088600  1
  C  C19  1  0.75000000  0.98972000  0.95911400  1
  C  C20  1  0.75000000  0.51028000  0.45911400  1
  C  C21  1  0.94971700  0.22587800  0.77240600  1
  C  C22  1  0.44971700  0.77412200  0.22759400  1
  C  C23  1  0.94971700  0.27412200  0.27240600  1
  C  C24  1  0.25000000  0.01028000  0.04088600  1
  C  C25  1  0.05028300  0.77412200  0.22759400  1
  C  C26  1  0.44971700  0.72587800  0.72759400  1
  C  C27  1  0.05028300  0.72587800  0.72759400  1
