# generated using pymatgen
data_Cu5(NiC)2
_symmetry_space_group_name_H-M   'P 1'
_cell_length_a   11.01193078
_cell_length_b   11.01193078
_cell_length_c   8.94814515
_cell_angle_alpha   79.86509574
_cell_angle_beta   79.86509574
_cell_angle_gamma   90.13531077
_symmetry_Int_Tables_number   1
_chemical_formula_structural   Cu5(NiC)2
_chemical_formula_sum   'Cu20 Ni8 C8'
_cell_volume   1050.85504977
_cell_formula_units_Z   4
loop_
 _symmetry_equiv_pos_site_id
 _symmetry_equiv_pos_as_xyz
  1  'x, y, z'
loop_
 _atom_site_type_symbol
 _atom_site_label
 _atom_site_symmetry_multiplicity
 _atom_site_fract_x
 _atom_site_fract_y
 _atom_site_fract_z
 _atom_site_occupancy
  C  C0  1  0.46832900  0.21373100  0.88009600  1
  C  C1  1  0.78626900  0.53167100  0.61990400  1
  C  C2  1  0.53167100  0.78627000  0.11990400  1
  C  C3  1  0.21373000  0.46832900  0.38009600  1
  C  C4  1  0.78772000  0.93923300  0.61785600  1
  C  C5  1  0.06076700  0.21228000  0.88214400  1
  C  C6  1  0.21228000  0.06076700  0.38214400  1
  C  C7  1  0.93923300  0.78772000  0.11785600  1
  Ni  Ni8  1  0.52639800  0.26710800  0.40423800  1
  Ni  Ni9  1  0.73289200  0.47360200  0.09576200  1
  Ni  Ni10  1  0.47360200  0.73289200  0.59576200  1
  Ni  Ni11  1  0.26710800  0.52639800  0.90423800  1
  Ni  Ni12  1  0.26977400  0.86683100  0.88994000  1
  Ni  Ni13  1  0.13316900  0.73022600  0.61006000  1
  Ni  Ni14  1  0.73022600  0.13316900  0.11006000  1
  Ni  Ni15  1  0.86683100  0.26977400  0.38994000  1
  Cu  Cu16  1  0.54169900  0.11468100  0.26007100  1
  Cu  Cu17  1  0.88531900  0.45830100  0.23992900  1
  Cu  Cu18  1  0.45830100  0.88531900  0.73992900  1
  Cu  Cu19  1  0.11468100  0.54169900  0.76007100  1
  Cu  Cu20  1  0.32098400  0.75528000  0.45105900  1
  Cu  Cu21  1  0.24472000  0.67901600  0.04894100  1
  Cu  Cu22  1  0.67901600  0.24472000  0.54894100  1
  Cu  Cu23  1  0.75528000  0.32098400  0.95105900  1
  Cu  Cu24  1  0.35103900  0.24313800  0.55541200  1
  Cu  Cu25  1  0.75686200  0.64896100  0.94458800  1
  Cu  Cu26  1  0.64896100  0.75686200  0.44458800  1
  Cu  Cu27  1  0.24313800  0.35103900  0.05541200  1
  Cu  Cu28  1  0.75299500  0.99316600  0.97019300  1
  Cu  Cu29  1  0.00683400  0.24700500  0.52980700  1
  Cu  Cu30  1  0.24700500  0.00683400  0.02980700  1
  Cu  Cu31  1  0.99316600  0.75299500  0.47019300  1
  Cu  Cu32  1  0.88467700  0.11532300  0.25000000  1
  Cu  Cu33  1  0.11532300  0.88467700  0.75000000  1
  Cu  Cu34  1  0.54496200  0.45503800  0.25000000  1
  Cu  Cu35  1  0.45503800  0.54496200  0.75000000  1
