# generated using pymatgen
data_Cu9Ni5C4
_symmetry_space_group_name_H-M   'P 1'
_cell_length_a   5.64561971
_cell_length_b   5.64561971
_cell_length_c   10.41326300
_cell_angle_alpha   90.00000000
_cell_angle_beta   90.00000000
_cell_angle_gamma   119.99999655
_symmetry_Int_Tables_number   1
_chemical_formula_structural   Cu9Ni5C4
_chemical_formula_sum   'Cu9 Ni5 C4'
_cell_volume   287.43571145
_cell_formula_units_Z   1
loop_
 _symmetry_equiv_pos_site_id
 _symmetry_equiv_pos_as_xyz
  1  'x, y, z'
loop_
 _atom_site_type_symbol
 _atom_site_label
 _atom_site_symmetry_multiplicity
 _atom_site_fract_x
 _atom_site_fract_y
 _atom_site_fract_z
 _atom_site_occupancy
  Ni  Ni0  1  0.00000000  0.00000000  0.00000000  1
  Ni  Ni1  1  0.66666700  0.33333300  0.50000000  1
  Ni  Ni2  1  0.00000000  0.00000000  0.65659000  1
  Ni  Ni3  1  0.00000000  0.00000000  0.34341000  1
  Ni  Ni4  1  0.33333300  0.66666700  0.50000000  1
  C  C5  1  0.66666700  0.33333300  0.14624600  1
  C  C6  1  0.33333300  0.66666700  0.85375400  1
  C  C7  1  0.66666700  0.33333300  0.85375400  1
  C  C8  1  0.33333300  0.66666700  0.14624600  1
  Cu  Cu9  1  0.00000000  0.48117200  0.27480300  1
  Cu  Cu10  1  0.48117200  0.00000000  0.72519700  1
  Cu  Cu11  1  0.48117200  0.00000000  0.27480300  1
  Cu  Cu12  1  0.00000000  0.48146700  0.00000000  1
  Cu  Cu13  1  0.51882800  0.51882800  0.72519700  1
  Cu  Cu14  1  0.00000000  0.48117200  0.72519700  1
  Cu  Cu15  1  0.51853300  0.51853300  0.00000000  1
  Cu  Cu16  1  0.48146700  0.00000000  0.00000000  1
  Cu  Cu17  1  0.51882800  0.51882800  0.27480300  1
