# generated using pymatgen
data_Cu(NiC3)2
_symmetry_space_group_name_H-M   'P 1'
_cell_length_a   3.55243000
_cell_length_b   5.06432559
_cell_length_c   6.79462810
_cell_angle_alpha   107.30329134
_cell_angle_beta   90.00000000
_cell_angle_gamma   110.53202103
_symmetry_Int_Tables_number   1
_chemical_formula_structural   Cu(NiC3)2
_chemical_formula_sum   'Cu1 Ni2 C6'
_cell_volume   108.54758095
_cell_formula_units_Z   1
loop_
 _symmetry_equiv_pos_site_id
 _symmetry_equiv_pos_as_xyz
  1  'x, y, z'
loop_
 _atom_site_type_symbol
 _atom_site_label
 _atom_site_symmetry_multiplicity
 _atom_site_fract_x
 _atom_site_fract_y
 _atom_site_fract_z
 _atom_site_occupancy
  Ni  Ni0  1  0.20221300  0.40442600  0.66466500  1
  Ni  Ni1  1  0.79778700  0.59557400  0.33533500  1
  Cu  Cu2  1  0.00000000  0.00000000  0.00000000  1
  C  C3  1  0.04526100  0.09052200  0.73574500  1
  C  C4  1  0.95473900  0.90947800  0.26425500  1
  C  C5  1  0.34874900  0.69749800  0.88616600  1
  C  C6  1  0.65125100  0.30250200  0.11383400  1
  C  C7  1  0.30167300  0.60334600  0.42913100  1
  C  C8  1  0.69832700  0.39665400  0.57086900  1
