# generated using pymatgen
data_Cu2NiC4
_symmetry_space_group_name_H-M   'P 1'
_cell_length_a   11.67570100
_cell_length_b   12.22302700
_cell_length_c   14.27994200
_cell_angle_alpha   90.00000000
_cell_angle_beta   90.00000000
_cell_angle_gamma   90.00000000
_symmetry_Int_Tables_number   1
_chemical_formula_structural   Cu2NiC4
_chemical_formula_sum   'Cu16 Ni8 C32'
_cell_volume   2037.92491702
_cell_formula_units_Z   8
loop_
 _symmetry_equiv_pos_site_id
 _symmetry_equiv_pos_as_xyz
  1  'x, y, z'
loop_
 _atom_site_type_symbol
 _atom_site_label
 _atom_site_symmetry_multiplicity
 _atom_site_fract_x
 _atom_site_fract_y
 _atom_site_fract_z
 _atom_site_occupancy
  Ni  Ni0  1  0.60239400  0.91133300  0.35481400  1
  Ni  Ni1  1  0.10239400  0.08866700  0.14518600  1
  Ni  Ni2  1  0.89760600  0.41133300  0.64518600  1
  Ni  Ni3  1  0.39760600  0.58866700  0.85481400  1
  Ni  Ni4  1  0.39760600  0.08866700  0.64518600  1
  Ni  Ni5  1  0.89760600  0.91133300  0.85481400  1
  Ni  Ni6  1  0.10239400  0.58866700  0.35481400  1
  Ni  Ni7  1  0.60239400  0.41133300  0.14518600  1
  Cu  Cu8  1  0.00401500  0.63540100  0.06831400  1
  Cu  Cu9  1  0.50401500  0.36459900  0.43168600  1
  Cu  Cu10  1  0.49598500  0.13540100  0.93168600  1
  Cu  Cu11  1  0.99598500  0.86459900  0.56831400  1
  Cu  Cu12  1  0.99598500  0.36459900  0.93168600  1
  Cu  Cu13  1  0.49598500  0.63540100  0.56831400  1
  Cu  Cu14  1  0.50401500  0.86459900  0.06831400  1
  Cu  Cu15  1  0.00401500  0.13540100  0.43168600  1
  Cu  Cu16  1  0.61301600  0.56033500  0.41663800  1
  Cu  Cu17  1  0.11301600  0.43966500  0.08336200  1
  Cu  Cu18  1  0.88698400  0.06033500  0.58336200  1
  Cu  Cu19  1  0.38698400  0.93966500  0.91663800  1
  Cu  Cu20  1  0.38698400  0.43966500  0.58336200  1
  Cu  Cu21  1  0.88698400  0.56033500  0.91663800  1
  Cu  Cu22  1  0.11301600  0.93966500  0.41663800  1
  Cu  Cu23  1  0.61301600  0.06033500  0.08336200  1
  C  C24  1  0.61620400  0.58205300  0.11525600  1
  C  C25  1  0.11620400  0.41794700  0.38474400  1
  C  C26  1  0.88379600  0.08205300  0.88474400  1
  C  C27  1  0.38379600  0.91794700  0.61525600  1
  C  C28  1  0.38379600  0.41794700  0.88474400  1
  C  C29  1  0.88379600  0.58205300  0.61525600  1
  C  C30  1  0.11620400  0.91794700  0.11525600  1
  C  C31  1  0.61620400  0.08205300  0.38474400  1
  C  C32  1  0.93187000  0.64365500  0.32682000  1
  C  C33  1  0.43187000  0.35634500  0.17318000  1
  C  C34  1  0.56813000  0.14365500  0.67318000  1
  C  C35  1  0.06813000  0.85634500  0.82682000  1
  C  C36  1  0.06813000  0.35634500  0.67318000  1
  C  C37  1  0.56813000  0.64365500  0.82682000  1
  C  C38  1  0.43187000  0.85634500  0.32682000  1
  C  C39  1  0.93187000  0.14365500  0.17318000  1
  C  C40  1  0.67632800  0.81554100  0.46937000  1
  C  C41  1  0.17632800  0.18445900  0.03063000  1
  C  C42  1  0.82367200  0.31554100  0.53063000  1
  C  C43  1  0.32367200  0.68445900  0.96937000  1
  C  C44  1  0.32367200  0.18445900  0.53063000  1
  C  C45  1  0.82367200  0.81554100  0.96937000  1
  C  C46  1  0.17632800  0.68445900  0.46937000  1
  C  C47  1  0.67632800  0.31554100  0.03063000  1
  C  C48  1  0.70693800  0.87676600  0.23114300  1
  C  C49  1  0.20693800  0.12323400  0.26885700  1
  C  C50  1  0.79306200  0.37676600  0.76885700  1
  C  C51  1  0.29306200  0.62323400  0.73114300  1
  C  C52  1  0.29306200  0.12323400  0.76885700  1
  C  C53  1  0.79306200  0.87676600  0.73114300  1
  C  C54  1  0.20693800  0.62323400  0.23114300  1
  C  C55  1  0.70693800  0.37676600  0.26885700  1
