# generated using pymatgen
data_Cu8NiC12
_symmetry_space_group_name_H-M   'P 1'
_cell_length_a   6.98057400
_cell_length_b   6.98057400
_cell_length_c   9.26482900
_cell_angle_alpha   90.00000000
_cell_angle_beta   90.00000000
_cell_angle_gamma   90.00000000
_symmetry_Int_Tables_number   1
_chemical_formula_structural   Cu8NiC12
_chemical_formula_sum   'Cu16 Ni2 C24'
_cell_volume   451.46041731
_cell_formula_units_Z   2
loop_
 _symmetry_equiv_pos_site_id
 _symmetry_equiv_pos_as_xyz
  1  'x, y, z'
loop_
 _atom_site_type_symbol
 _atom_site_label
 _atom_site_symmetry_multiplicity
 _atom_site_fract_x
 _atom_site_fract_y
 _atom_site_fract_z
 _atom_site_occupancy
  C  C0  1  0.00000000  0.00000000  0.50000000  1
  C  C1  1  0.50000000  0.50000000  0.50000000  1
  C  C2  1  0.50000000  0.00000000  0.09868900  1
  C  C3  1  0.00000000  0.50000000  0.90131100  1
  Ni  Ni4  1  0.00000000  0.00000000  0.00000000  1
  Ni  Ni5  1  0.50000000  0.50000000  0.00000000  1
  Cu  Cu6  1  0.58825300  0.33022200  0.72885200  1
  Cu  Cu7  1  0.17026300  0.35393200  0.37974600  1
  Cu  Cu8  1  0.64606800  0.17026300  0.62025400  1
  Cu  Cu9  1  0.91174700  0.16977800  0.27114800  1
  Cu  Cu10  1  0.14606800  0.67026300  0.37974600  1
  Cu  Cu11  1  0.16977800  0.08825300  0.72885200  1
  Cu  Cu12  1  0.83022200  0.91174700  0.72885200  1
  Cu  Cu13  1  0.67026300  0.85393200  0.62025400  1
  Cu  Cu14  1  0.41174700  0.66977800  0.72885200  1
  Cu  Cu15  1  0.85393200  0.32973700  0.37974600  1
  Cu  Cu16  1  0.32973700  0.14606800  0.62025400  1
  Cu  Cu17  1  0.33022200  0.41174700  0.27114800  1
  Cu  Cu18  1  0.08825300  0.83022200  0.27114800  1
  Cu  Cu19  1  0.66977800  0.58825300  0.27114800  1
  Cu  Cu20  1  0.35393200  0.82973700  0.62025400  1
  Cu  Cu21  1  0.82973700  0.64606800  0.37974600  1
  C  C22  1  0.45331000  0.32824600  0.10064100  1
  C  C23  1  0.50000000  0.00000000  0.90325200  1
  C  C24  1  0.17175400  0.95331000  0.10064100  1
  C  C25  1  0.54669000  0.67175400  0.10064100  1
  C  C26  1  0.44125600  0.71839300  0.63104400  1
  C  C27  1  0.67175400  0.45331000  0.89935900  1
  C  C28  1  0.78160700  0.94125600  0.63104400  1
  C  C29  1  0.00000000  0.50000000  0.09674800  1
  C  C30  1  0.55874400  0.28160700  0.63104400  1
  C  C31  1  0.21839300  0.05874400  0.63104400  1
  C  C32  1  0.82824600  0.04669000  0.10064100  1
  C  C33  1  0.00000000  0.50000000  0.70549200  1
  C  C34  1  0.50000000  0.00000000  0.29450800  1
  C  C35  1  0.71839300  0.55874400  0.36895600  1
  C  C36  1  0.94125600  0.21839300  0.36895600  1
  C  C37  1  0.28160700  0.44125600  0.36895600  1
  C  C38  1  0.32824600  0.54669000  0.89935900  1
  C  C39  1  0.05874400  0.78160700  0.36895600  1
  C  C40  1  0.95331000  0.82824600  0.89935900  1
  C  C41  1  0.04669000  0.17175400  0.89935900  1
