# generated using pymatgen
data_CuNiC6
_symmetry_space_group_name_H-M   'P 1'
_cell_length_a   5.36363110
_cell_length_b   5.36363110
_cell_length_c   5.65058597
_cell_angle_alpha   61.66615552
_cell_angle_beta   61.66615552
_cell_angle_gamma   60.00001106
_symmetry_Int_Tables_number   1
_chemical_formula_structural   CuNiC6
_chemical_formula_sum   'Cu1 Ni1 C6'
_cell_volume   117.75688880
_cell_formula_units_Z   1
loop_
 _symmetry_equiv_pos_site_id
 _symmetry_equiv_pos_as_xyz
  1  'x, y, z'
loop_
 _atom_site_type_symbol
 _atom_site_label
 _atom_site_symmetry_multiplicity
 _atom_site_fract_x
 _atom_site_fract_y
 _atom_site_fract_z
 _atom_site_occupancy
  Ni  Ni0  1  0.00000000  0.00000000  0.00000000  1
  Cu  Cu1  1  0.50000000  0.50000000  0.50000000  1
  C  C2  1  0.85795000  0.62338600  0.25769700  1
  C  C3  1  0.62338600  0.26096700  0.25769700  1
  C  C4  1  0.73903300  0.14205000  0.74230300  1
  C  C5  1  0.37661400  0.73903300  0.74230300  1
  C  C6  1  0.14205000  0.37661400  0.74230300  1
  C  C7  1  0.26096700  0.85795000  0.25769700  1
