# generated using pymatgen
data_Cu(Ni3C8)2
_symmetry_space_group_name_H-M   'P 1'
_cell_length_a   6.87986200
_cell_length_b   9.45386100
_cell_length_c   16.42343600
_cell_angle_alpha   90.00000000
_cell_angle_beta   90.00000000
_cell_angle_gamma   90.00000000
_symmetry_Int_Tables_number   1
_chemical_formula_structural   Cu(Ni3C8)2
_chemical_formula_sum   'Cu4 Ni24 C64'
_cell_volume   1068.20095532
_cell_formula_units_Z   4
loop_
 _symmetry_equiv_pos_site_id
 _symmetry_equiv_pos_as_xyz
  1  'x, y, z'
loop_
 _atom_site_type_symbol
 _atom_site_label
 _atom_site_symmetry_multiplicity
 _atom_site_fract_x
 _atom_site_fract_y
 _atom_site_fract_z
 _atom_site_occupancy
  C  C0  1  0.75221400  0.06005300  0.25000000  1
  C  C1  1  0.74232700  0.93969900  0.86534500  1
  C  C2  1  0.24232700  0.56030100  0.13465500  1
  C  C3  1  0.75767300  0.43969900  0.63465500  1
  C  C4  1  0.75767300  0.43969900  0.86534500  1
  C  C5  1  0.24778600  0.93994700  0.75000000  1
  C  C6  1  0.74778600  0.56005300  0.25000000  1
  C  C7  1  0.25767300  0.06030100  0.36534500  1
  C  C8  1  0.25221400  0.43994700  0.75000000  1
  C  C9  1  0.74232700  0.93969900  0.63465500  1
  C  C10  1  0.24232700  0.56030100  0.36534500  1
  C  C11  1  0.25767300  0.06030100  0.13465500  1
  Ni  Ni12  1  0.18969600  0.31647700  0.94849800  1
  Ni  Ni13  1  0.69480300  0.43615400  0.44623300  1
  Ni  Ni14  1  0.68969600  0.18352300  0.44849800  1
  Ni  Ni15  1  0.53586400  0.30963700  0.32907900  1
  Ni  Ni16  1  0.68969600  0.18352300  0.05150200  1
  Ni  Ni17  1  0.80519700  0.93615400  0.05376700  1
  Ni  Ni18  1  0.96413600  0.80963700  0.32907900  1
  Ni  Ni19  1  0.69480300  0.43615400  0.05376700  1
  Ni  Ni20  1  0.18969600  0.31647700  0.55150200  1
  Ni  Ni21  1  0.80519700  0.93615400  0.44623300  1
  Ni  Ni22  1  0.81030400  0.68352300  0.05150200  1
  Ni  Ni23  1  0.19480300  0.06384600  0.94623300  1
  Ni  Ni24  1  0.31030400  0.81647700  0.55150200  1
  Ni  Ni25  1  0.03586400  0.19036300  0.82907900  1
  Ni  Ni26  1  0.46413600  0.69036300  0.82907900  1
  Ni  Ni27  1  0.30519700  0.56384600  0.94623300  1
  Ni  Ni28  1  0.53586400  0.30963700  0.17092100  1
  Ni  Ni29  1  0.96413600  0.80963700  0.17092100  1
  Ni  Ni30  1  0.30519700  0.56384600  0.55376700  1
  Ni  Ni31  1  0.46413600  0.69036300  0.67092100  1
  Ni  Ni32  1  0.03586400  0.19036300  0.67092100  1
  Ni  Ni33  1  0.31030400  0.81647700  0.94849800  1
  Ni  Ni34  1  0.81030400  0.68352300  0.44849800  1
  Ni  Ni35  1  0.19480300  0.06384600  0.55376700  1
  Cu  Cu36  1  0.32300100  0.81000800  0.25000000  1
  Cu  Cu37  1  0.82300100  0.68999200  0.75000000  1
  Cu  Cu38  1  0.67699900  0.18999200  0.75000000  1
  Cu  Cu39  1  0.17699900  0.31000800  0.25000000  1
  C  C40  1  0.39936200  0.56013800  0.62594000  1
  C  C41  1  0.81852100  0.18728300  0.67218300  1
  C  C42  1  0.73404300  0.31047600  0.48783600  1
  C  C43  1  0.90582200  0.68038500  0.12361000  1
  C  C44  1  0.74737000  0.05870700  0.48623900  1
  C  C45  1  0.75263000  0.55870700  0.01376100  1
  C  C46  1  0.59417800  0.18038500  0.12361000  1
  C  C47  1  0.09417800  0.31961500  0.62361000  1
  C  C48  1  0.74737000  0.05870700  0.01376100  1
  C  C49  1  0.73404300  0.31047600  0.01216400  1
  C  C50  1  0.60063800  0.43986200  0.37406000  1
  C  C51  1  0.93773700  0.55347200  0.75000000  1
  C  C52  1  0.92933400  0.83012800  0.75000000  1
  C  C53  1  0.18147900  0.81271700  0.32781700  1
  C  C54  1  0.09417800  0.31961500  0.87639000  1
  C  C55  1  0.18147900  0.81271700  0.17218300  1
  C  C56  1  0.57066600  0.33012800  0.75000000  1
  C  C57  1  0.59417800  0.18038500  0.37639000  1
  C  C58  1  0.37914600  0.69414100  0.75000000  1
  C  C59  1  0.81852100  0.18728300  0.82781700  1
  C  C60  1  0.60063800  0.43986200  0.12594000  1
  C  C61  1  0.39936200  0.56013800  0.87406000  1
  C  C62  1  0.24737000  0.44129300  0.98623900  1
  C  C63  1  0.10063800  0.06013800  0.62594000  1
  C  C64  1  0.07066600  0.16987200  0.25000000  1
  C  C65  1  0.89936200  0.93986200  0.37406000  1
  C  C66  1  0.25263000  0.94129300  0.98623900  1
  C  C67  1  0.26595700  0.68952400  0.98783600  1
  C  C68  1  0.40582200  0.81961500  0.87639000  1
  C  C69  1  0.75263000  0.55870700  0.48623900  1
  C  C70  1  0.68147900  0.68728300  0.82781700  1
  C  C71  1  0.76595700  0.81047600  0.01216400  1
  C  C72  1  0.12085400  0.19414100  0.75000000  1
  C  C73  1  0.23404300  0.18952400  0.98783600  1
  C  C74  1  0.42933400  0.66987200  0.25000000  1
  C  C75  1  0.31852100  0.31271700  0.17218300  1
  C  C76  1  0.89936200  0.93986200  0.12594000  1
  C  C77  1  0.06226300  0.44652800  0.25000000  1
  C  C78  1  0.76595700  0.81047600  0.48783600  1
  C  C79  1  0.31852100  0.31271700  0.32781700  1
  C  C80  1  0.62085400  0.30585900  0.25000000  1
  C  C81  1  0.23404300  0.18952400  0.51216400  1
  C  C82  1  0.43773700  0.94652800  0.25000000  1
  C  C83  1  0.90582200  0.68038500  0.37639000  1
  C  C84  1  0.87914600  0.80585900  0.25000000  1
  C  C85  1  0.56226300  0.05347200  0.75000000  1
  C  C86  1  0.40582200  0.81961500  0.62361000  1
  C  C87  1  0.26595700  0.68952400  0.51216400  1
  C  C88  1  0.25263000  0.94129300  0.51376100  1
  C  C89  1  0.10063800  0.06013800  0.87406000  1
  C  C90  1  0.24737000  0.44129300  0.51376100  1
  C  C91  1  0.68147900  0.68728300  0.67218300  1
