# generated using pymatgen
data_Cu18Ni14C55
_symmetry_space_group_name_H-M   'P 1'
_cell_length_a   9.40042100
_cell_length_b   9.40839625
_cell_length_c   15.33166650
_cell_angle_alpha   90.01719844
_cell_angle_beta   90.24990357
_cell_angle_gamma   109.52500889
_symmetry_Int_Tables_number   1
_chemical_formula_structural   Cu18Ni14C55
_chemical_formula_sum   'Cu18 Ni14 C55'
_cell_volume   1277.98794887
_cell_formula_units_Z   1
loop_
 _symmetry_equiv_pos_site_id
 _symmetry_equiv_pos_as_xyz
  1  'x, y, z'
loop_
 _atom_site_type_symbol
 _atom_site_label
 _atom_site_symmetry_multiplicity
 _atom_site_fract_x
 _atom_site_fract_y
 _atom_site_fract_z
 _atom_site_occupancy
  Ni  Ni0  1  0.87369200  0.15259600  0.12964200  1
  Ni  Ni1  1  0.38463600  0.62621700  0.87081800  1
  Ni  Ni2  1  0.11439000  0.87190500  0.63539000  1
  Ni  Ni3  1  0.02003200  0.49487100  0.75600100  1
  Ni  Ni4  1  0.89299300  0.13445000  0.61379300  1
  Ni  Ni5  1  0.74818500  0.74550700  0.49989600  1
  Ni  Ni6  1  0.01914700  0.51302300  0.50756600  1
  Ni  Ni7  1  0.11803400  0.87406100  0.87660600  1
  Ni  Ni8  1  0.63058600  0.35650200  0.61363000  1
  Ni  Ni9  1  0.25564400  0.25550500  0.00190000  1
  Ni  Ni10  1  0.40124100  0.63667400  0.11855200  1
  Ni  Ni11  1  0.50870900  0.00743300  0.99994800  1
  Ni  Ni12  1  0.58941400  0.36053800  0.37288900  1
  Ni  Ni13  1  0.13684200  0.86359200  0.11721400  1
  Cu  Cu14  1  0.74455700  0.74519400  0.75255000  1
  Cu  Cu15  1  0.88296600  0.13719900  0.88859200  1
  Cu  Cu16  1  0.38192000  0.65924800  0.62770900  1
  Cu  Cu17  1  0.52515900  0.00399400  0.49627900  1
  Cu  Cu18  1  0.23581700  0.24351100  0.25162200  1
  Cu  Cu19  1  0.37891800  0.64124000  0.38876400  1
  Cu  Cu20  1  0.60443400  0.35084900  0.87259000  1
  Cu  Cu21  1  0.47816900  0.00503400  0.74799200  1
  Cu  Cu22  1  0.74600100  0.76038400  0.98554700  1
  Cu  Cu23  1  0.02303700  0.50382700  0.00040000  1
  Cu  Cu24  1  0.23581400  0.24016100  0.76034900  1
  Cu  Cu25  1  0.10758400  0.84700700  0.37123700  1
  Cu  Cu26  1  0.98423200  0.51264000  0.23713900  1
  Cu  Cu27  1  0.23308700  0.26217600  0.48164400  1
  Cu  Cu28  1  0.88276000  0.09727100  0.36873000  1
  Cu  Cu29  1  0.73188700  0.72730900  0.26017600  1
  Cu  Cu30  1  0.60748200  0.36303200  0.13924500  1
  Cu  Cu31  1  0.52567200  0.99595700  0.25567100  1
  C  C32  1  0.86320200  0.39755100  0.87621300  1
  C  C33  1  0.51986000  0.78069700  0.74747200  1
  C  C34  1  0.62848800  0.11179700  0.86895600  1
  C  C35  1  0.63971800  0.60248300  0.87272600  1
  C  C36  1  0.62225800  0.58520300  0.63237800  1
  C  C37  1  0.50028900  0.26988200  0.73669900  1
  C  C38  1  0.35782000  0.90032100  0.61277100  1
  C  C39  1  0.46891900  0.24006900  0.50371300  1
  C  C40  1  0.36405000  0.89315100  0.37811700  1
  C  C41  1  0.25599900  0.99887400  0.00143900  1
  C  C42  1  0.00207300  0.28054600  0.25521400  1
  C  C43  1  0.10874200  0.59620500  0.36970300  1
  C  C44  1  0.23255100  0.99493600  0.75409200  1
  C  C45  1  0.50626400  0.76224700  0.99336600  1
  C  C46  1  0.36668100  0.36661300  0.87762800  1
  C  C47  1  0.14238100  0.13546700  0.60958600  1
  C  C48  1  0.01914500  0.76571400  0.50528100  1
  C  C49  1  0.13552600  0.09594700  0.37142700  1
  C  C50  1  0.10917000  0.08935900  0.13798900  1
  C  C51  1  0.26422000  0.49351100  0.74254800  1
  C  C52  1  0.26155600  0.50185900  0.51543100  1
  C  C53  1  0.00197100  0.76946000  0.23613600  1
  C  C54  1  0.36570700  0.87650800  0.87511500  1
  C  C55  1  0.12540600  0.12134900  0.88449500  1
  C  C56  1  0.85933600  0.39753800  0.11182700  1
  C  C57  1  0.98317500  0.74428800  0.00453100  1
  C  C58  1  0.01425600  0.26172800  0.00700500  1
  C  C59  1  0.13933900  0.62353900  0.87369700  1
  C  C60  1  0.13010500  0.63418200  0.63260200  1
  C  C61  1  0.76309400  0.47581500  0.48825100  1
  C  C62  1  0.98521000  0.22982600  0.75136700  1
  C  C63  1  0.74142200  0.47961600  0.26498700  1
  C  C64  1  0.86071400  0.89309200  0.86274800  1
  C  C65  1  0.86866400  0.88890900  0.63872700  1
  C  C66  1  0.86426300  0.84953200  0.37815000  1
  C  C67  1  0.99063800  0.26920200  0.48401900  1
  C  C68  1  0.65252300  0.63170100  0.11532300  1
  C  C69  1  0.51385500  0.26412500  0.00370900  1
  C  C70  1  0.76851100  0.99774800  0.49807500  1
  C  C71  1  0.76517500  0.98270200  0.24011200  1
  C  C72  1  0.87756900  0.38975600  0.63395400  1
  C  C73  1  0.97820800  0.72002000  0.75524200  1
  C  C74  1  0.76688600  0.00161200  0.01495900  1
  C  C75  1  0.61419000  0.61418200  0.38600600  1
  C  C76  1  0.64778900  0.11874000  0.62985000  1
  C  C77  1  0.51427200  0.76185800  0.50655000  1
  C  C78  1  0.65670400  0.14819400  0.37452400  1
  C  C79  1  0.63105200  0.12998900  0.13016300  1
  C  C80  1  0.48378600  0.72507000  0.25240400  1
  C  C81  1  0.35053800  0.39263900  0.36122300  1
  C  C82  1  0.36167600  0.38844500  0.13785300  1
  C  C83  1  0.27035200  0.50862500  0.99713500  1
  C  C84  1  0.37844500  0.88813800  0.13229200  1
  C  C85  1  0.46514600  0.21469300  0.25465600  1
  C  C86  1  0.14907000  0.61884300  0.13048300  1
