# generated using pymatgen
data_Cu4NiC7
_symmetry_space_group_name_H-M   'P 1'
_cell_length_a   6.35134858
_cell_length_b   6.35134858
_cell_length_c   5.15631800
_cell_angle_alpha   90.00000000
_cell_angle_beta   90.00000000
_cell_angle_gamma   117.85612854
_symmetry_Int_Tables_number   1
_chemical_formula_structural   Cu4NiC7
_chemical_formula_sum   'Cu8 Ni2 C14'
_cell_volume   183.90121800
_cell_formula_units_Z   2
loop_
 _symmetry_equiv_pos_site_id
 _symmetry_equiv_pos_as_xyz
  1  'x, y, z'
loop_
 _atom_site_type_symbol
 _atom_site_label
 _atom_site_symmetry_multiplicity
 _atom_site_fract_x
 _atom_site_fract_y
 _atom_site_fract_z
 _atom_site_occupancy
  Ni  Ni0  1  0.27875300  0.27875300  0.25000000  1
  Ni  Ni1  1  0.72124700  0.72124700  0.75000000  1
  Cu  Cu2  1  0.69817000  0.92579600  0.25000000  1
  Cu  Cu3  1  0.29679800  0.70320200  0.50000000  1
  Cu  Cu4  1  0.92579600  0.69817000  0.25000000  1
  Cu  Cu5  1  0.07420400  0.30183000  0.75000000  1
  Cu  Cu6  1  0.70320200  0.29679800  0.00000000  1
  Cu  Cu7  1  0.70320200  0.29679800  0.50000000  1
  Cu  Cu8  1  0.30183000  0.07420400  0.75000000  1
  Cu  Cu9  1  0.29679800  0.70320200  0.00000000  1
  C  C10  1  0.92172600  0.92172600  0.25000000  1
  C  C11  1  0.24385000  0.80290300  0.75000000  1
  C  C12  1  0.19709700  0.75615000  0.25000000  1
  C  C13  1  0.44459800  0.18992100  0.97902400  1
  C  C14  1  0.44459800  0.18992100  0.52097600  1
  C  C15  1  0.81007900  0.55540200  0.47902400  1
  C  C16  1  0.81007900  0.55540200  0.02097600  1
  C  C17  1  0.80290300  0.24385000  0.75000000  1
  C  C18  1  0.07827400  0.07827400  0.75000000  1
  C  C19  1  0.55540200  0.81007900  0.02097600  1
  C  C20  1  0.18992100  0.44459800  0.97902400  1
  C  C21  1  0.18992100  0.44459800  0.52097600  1
  C  C22  1  0.75615000  0.19709700  0.25000000  1
  C  C23  1  0.55540200  0.81007900  0.47902400  1
