# generated using pymatgen
data_CuNi2C7
_symmetry_space_group_name_H-M   'P 1'
_cell_length_a   5.90807000
_cell_length_b   5.85920400
_cell_length_c   10.15173825
_cell_angle_alpha   54.93988248
_cell_angle_beta   90.00000000
_cell_angle_gamma   90.00000000
_symmetry_Int_Tables_number   1
_chemical_formula_structural   CuNi2C7
_chemical_formula_sum   'Cu2 Ni4 C14'
_cell_volume   287.65355997
_cell_formula_units_Z   2
loop_
 _symmetry_equiv_pos_site_id
 _symmetry_equiv_pos_as_xyz
  1  'x, y, z'
loop_
 _atom_site_type_symbol
 _atom_site_label
 _atom_site_symmetry_multiplicity
 _atom_site_fract_x
 _atom_site_fract_y
 _atom_site_fract_z
 _atom_site_occupancy
  Ni  Ni0  1  0.46884600  0.24242700  0.25036000  1
  Ni  Ni1  1  0.96884600  0.75757300  0.24964000  1
  Ni  Ni2  1  0.53115400  0.75757300  0.74964000  1
  Ni  Ni3  1  0.03115400  0.24242700  0.75036000  1
  Cu  Cu4  1  0.50000000  0.50000000  0.50000000  1
  Cu  Cu5  1  0.00000000  0.50000000  0.00000000  1
  C  C6  1  0.00000000  0.00000000  0.50000000  1
  C  C7  1  0.50000000  0.00000000  0.00000000  1
  C  C8  1  0.01981700  0.31129100  0.26358500  1
  C  C9  1  0.98018300  0.68870900  0.73641500  1
  C  C10  1  0.22670400  0.15891000  0.04059000  1
  C  C11  1  0.20238800  0.76685200  0.46132000  1
  C  C12  1  0.72670400  0.84109000  0.45941000  1
  C  C13  1  0.48018300  0.31129100  0.76358500  1
  C  C14  1  0.77329600  0.84109000  0.95941000  1
  C  C15  1  0.29761200  0.76685200  0.96132000  1
  C  C16  1  0.70238800  0.23314800  0.03868000  1
  C  C17  1  0.51981700  0.68870900  0.23641500  1
  C  C18  1  0.27329600  0.15891000  0.54059000  1
  C  C19  1  0.79761200  0.23314800  0.53868000  1
