# generated using pymatgen
data_CuNiC17
_symmetry_space_group_name_H-M   'P 1'
_cell_length_a   10.47077800
_cell_length_b   10.47652601
_cell_length_c   20.97800181
_cell_angle_alpha   90.07002584
_cell_angle_beta   90.00656861
_cell_angle_gamma   90.00194148
_symmetry_Int_Tables_number   1
_chemical_formula_structural   CuNiC17
_chemical_formula_sum   'Cu8 Ni8 C136'
_cell_volume   2301.23005902
_cell_formula_units_Z   8
loop_
 _symmetry_equiv_pos_site_id
 _symmetry_equiv_pos_as_xyz
  1  'x, y, z'
loop_
 _atom_site_type_symbol
 _atom_site_label
 _atom_site_symmetry_multiplicity
 _atom_site_fract_x
 _atom_site_fract_y
 _atom_site_fract_z
 _atom_site_occupancy
  C  C0  1  0.07966100  0.56499900  0.71275300  1
  C  C1  1  0.07206000  0.57395600  0.21452300  1
  C  C2  1  0.19453400  0.19725800  0.85179100  1
  C  C3  1  0.19922100  0.20199000  0.35095000  1
  C  C4  1  0.28967800  0.80703500  0.09841800  1
  C  C5  1  0.31075000  0.79947700  0.59689000  1
  C  C6  1  0.42788600  0.41978500  0.96528700  1
  C  C7  1  0.42952100  0.43066200  0.47252800  1
  C  C8  1  0.56737300  0.93854900  0.78403600  1
  C  C9  1  0.56667000  0.91848400  0.28428700  1
  C  C10  1  0.69195300  0.30012700  0.65270200  1
  C  C11  1  0.70572900  0.30057000  0.14650900  1
  C  C12  1  0.79553300  0.69462300  0.39932000  1
  C  C13  1  0.80490000  0.70524800  0.90630300  1
  C  C14  1  0.93074400  0.07045100  0.53985000  1
  C  C15  1  0.93955700  0.06674700  0.03473700  1
  Ni  Ni16  1  0.08009300  0.41298100  0.54286000  1
  Ni  Ni17  1  0.08483900  0.41897800  0.04183100  1
  Ni  Ni18  1  0.14673700  0.84849000  0.92344400  1
  Ni  Ni19  1  0.35002800  0.14989600  0.67498100  1
  Ni  Ni20  1  0.41730200  0.58063700  0.29235800  1
  Ni  Ni21  1  0.58166300  0.08185600  0.95816700  1
  Ni  Ni22  1  0.65000900  0.65171700  0.57409100  1
  Ni  Ni23  1  0.91416400  0.91760500  0.21011800  1
  Cu  Cu24  1  0.14581700  0.85941900  0.42695800  1
  Cu  Cu25  1  0.35683000  0.14445800  0.17972100  1
  Cu  Cu26  1  0.41390600  0.58667700  0.79320500  1
  Cu  Cu27  1  0.58833100  0.08416100  0.45871500  1
  Cu  Cu28  1  0.64576300  0.64194000  0.07187200  1
  Cu  Cu29  1  0.85687900  0.35413100  0.32275300  1
  Cu  Cu30  1  0.85202400  0.35776900  0.82190300  1
  Cu  Cu31  1  0.91690400  0.91129700  0.70602200  1
  C  C32  1  0.02859200  0.22845100  0.69040300  1
  C  C33  1  0.04421700  0.23895500  0.19111200  1
  C  C34  1  0.12536600  0.52950300  0.87734500  1
  C  C35  1  0.11803500  0.54539200  0.38387800  1
  C  C36  1  0.23120000  0.87147800  0.76467500  1
  C  C37  1  0.23672400  0.87704400  0.26957500  1
  C  C38  1  0.27344900  0.12408700  0.51410200  1
  C  C39  1  0.26278900  0.12068500  0.02402600  1
  C  C40  1  0.38214100  0.45673400  0.13190500  1
  C  C41  1  0.37393600  0.46981100  0.63554600  1
  C  C42  1  0.46161100  0.75668700  0.93891300  1
  C  C43  1  0.46250500  0.77463600  0.43642700  1
  C  C44  1  0.53410900  0.27701000  0.81434800  1
  C  C45  1  0.54409800  0.25767500  0.31417400  1
  C  C46  1  0.63144600  0.97148300  0.61670600  1
  C  C47  1  0.61783300  0.95475500  0.11769500  1
  C  C48  1  0.72991300  0.62653000  0.73495700  1
  C  C49  1  0.74038100  0.61625100  0.22867500  1
  C  C50  1  0.76850900  0.37488200  0.98079700  1
  C  C51  1  0.76192000  0.37138000  0.47784800  1
  C  C52  1  0.87323100  0.03931800  0.37112900  1
  C  C53  1  0.87181700  0.03972000  0.86085000  1
  C  C54  1  0.96735600  0.74202000  0.56079100  1
  C  C55  1  0.95692800  0.73726400  0.06282800  1
  C  C56  1  0.99279400  0.08467200  0.68360500  1
  C  C57  1  0.98923400  0.10685400  0.17540900  1
  C  C58  1  0.02566100  0.43787600  0.84560700  1
  C  C59  1  0.00304300  0.47014200  0.35468600  1
  C  C60  1  0.01127200  0.29146600  0.62486700  1
  C  C61  1  0.02421100  0.33211500  0.13576100  1
  C  C62  1  0.06139600  0.80704800  0.51273600  1
  C  C63  1  0.02297800  0.78798300  0.00261500  1
  C  C64  1  0.07305000  0.66673200  0.87593800  1
  C  C65  1  0.07757100  0.68939100  0.38775900  1
  C  C66  1  0.09072100  0.84447400  0.74286800  1
  C  C67  1  0.10334700  0.84590300  0.24414500  1
  C  C68  1  0.15600900  0.48360600  0.94497900  1
  C  C69  1  0.14954900  0.49478800  0.45046300  1
  C  C70  1  0.16599700  0.23833300  0.71614600  1
  C  C71  1  0.18858600  0.23197400  0.21007200  1
  C  C72  1  0.20616100  0.00331000  0.98999500  1
  C  C73  1  0.20793500  0.02726400  0.46805800  1
  C  C74  1  0.20460700  0.25253000  0.50648400  1
  C  C75  1  0.17430100  0.23468900  0.01069800  1
  C  C76  1  0.23325100  0.92802800  0.83246600  1
  C  C77  1  0.22862100  0.91582400  0.34140600  1
  C  C78  1  0.23813600  0.48253500  0.60776800  1
  C  C79  1  0.27101800  0.47271500  0.08516900  1
  C  C80  1  0.24756800  0.51850900  0.83529400  1
  C  C81  1  0.23178500  0.52838000  0.33845700  1
  C  C82  1  0.26854400  0.07182500  0.58247300  1
  C  C83  1  0.26429100  0.09095800  0.09723400  1
  C  C84  1  0.30591000  0.74230800  0.76388700  1
  C  C85  1  0.32796000  0.76469800  0.25907100  1
  C  C86  1  0.29884000  0.96014400  0.71722700  1
  C  C87  1  0.29445200  0.99339600  0.23338000  1
  C  C88  1  0.32478600  0.75524800  0.96554800  1
  C  C89  1  0.31754700  0.77810100  0.45409500  1
  C  C90  1  0.36781100  0.50937100  0.70733900  1
  C  C91  1  0.34835800  0.51106100  0.19757400  1
  C  C92  1  0.39858400  0.14917000  0.00056200  1
  C  C93  1  0.41488900  0.14264000  0.49291200  1
  C  C94  1  0.42326500  0.33148200  0.63001900  1
  C  C95  1  0.42271900  0.31350000  0.13798000  1
  C  C96  1  0.45546200  0.20989900  0.76258300  1
  C  C97  1  0.46720200  0.19667500  0.25835200  1
  C  C98  1  0.46752400  0.67282100  0.87758400  1
  C  C99  1  0.48516200  0.70192500  0.37398600  1
  C  C100  1  0.49706900  0.53006900  0.10210700  1
  C  C101  1  0.46336700  0.56110000  0.59958900  1
  C  C102  1  0.50766800  0.89168800  0.92251800  1
  C  C103  1  0.51193900  0.91377200  0.42836100  1
  C  C104  1  0.49217000  0.41833700  0.82309500  1
  C  C105  1  0.48679400  0.38791100  0.33180100  1
  C  C106  1  0.54295800  0.06552300  0.65131100  1
  C  C107  1  0.50261700  0.03070400  0.14612000  1
  C  C108  1  0.51249600  0.20648300  0.87742100  1
  C  C109  1  0.53416800  0.16414600  0.37129600  1
  C  C110  1  0.55351300  0.69304200  0.98804300  1
  C  C111  1  0.53569000  0.70802600  0.48986200  1
  C  C112  1  0.57817700  0.83489000  0.61861700  1
  C  C113  1  0.57516100  0.81170800  0.11149300  1
  C  C114  1  0.59315500  0.65572900  0.76021100  1
  C  C115  1  0.60699000  0.64559800  0.25469000  1
  C  C116  1  0.65543900  0.00895800  0.05239900  1
  C  C117  1  0.65177700  0.01569800  0.54621800  1
  C  C118  1  0.67797700  0.27888500  0.79425400  1
  C  C119  1  0.68625700  0.26755900  0.29285000  1
  C  C120  1  0.70246100  0.48042100  0.51670200  1
  C  C121  1  0.71291800  0.48868300  0.01975500  1
  C  C122  1  0.67725400  0.26205200  0.98945600  1
  C  C123  1  0.67014300  0.25498000  0.48396300  1
  C  C124  1  0.72638300  0.56950000  0.66747600  1
  C  C125  1  0.73351800  0.58118600  0.15647400  1
  C  C126  1  0.74416600  0.01813300  0.89514900  1
  C  C127  1  0.75989900  0.02738900  0.41827700  1
  C  C128  1  0.76377400  0.97663000  0.65118200  1
  C  C129  1  0.72734800  0.96851900  0.16581000  1
  C  C130  1  0.77745400  0.41752000  0.90938700  1
  C  C131  1  0.76663400  0.41170900  0.40612200  1
  C  C132  1  0.80898300  0.75259500  0.73545700  1
  C  C133  1  0.83218900  0.72812900  0.23985900  1
  C  C134  1  0.79813400  0.53202500  0.78116500  1
  C  C135  1  0.79763500  0.49867500  0.26440400  1
  C  C136  1  0.83030700  0.74864900  0.53435800  1
  C  C137  1  0.81097500  0.73206600  0.04690200  1
  C  C138  1  0.83634100  0.98408900  0.30615600  1
  C  C139  1  0.85791200  0.98883600  0.79129800  1
  C  C140  1  0.90117500  0.33952300  0.00592400  1
  C  C141  1  0.89513200  0.33498700  0.50215300  1
  C  C142  1  0.91554300  0.18143300  0.36627400  1
  C  C143  1  0.90702300  0.18455400  0.85917400  1
  C  C144  1  0.93346900  0.29668800  0.73687200  1
  C  C145  1  0.97318800  0.29426300  0.25047600  1
  C  C146  1  0.97890700  0.82129400  0.62360900  1
  C  C147  1  0.98059900  0.83159000  0.11781200  1
  C  C148  1  0.97901400  0.96921700  0.89591400  1
  C  C149  1  0.98394200  0.96046100  0.40109100  1
  C  C150  1  0.00690800  0.60413000  0.57496500  1
  C  C151  1  0.00802100  0.60416000  0.08028300  1
