# generated using pymatgen
data_Cu3NiC
_symmetry_space_group_name_H-M   'P 1'
_cell_length_a   6.40636700
_cell_length_b   8.18021500
_cell_length_c   12.49699700
_cell_angle_alpha   90.00000000
_cell_angle_beta   90.00000000
_cell_angle_gamma   90.00000000
_symmetry_Int_Tables_number   1
_chemical_formula_structural   Cu3NiC
_chemical_formula_sum   'Cu24 Ni8 C8'
_cell_volume   654.91086927
_cell_formula_units_Z   8
loop_
 _symmetry_equiv_pos_site_id
 _symmetry_equiv_pos_as_xyz
  1  'x, y, z'
loop_
 _atom_site_type_symbol
 _atom_site_label
 _atom_site_symmetry_multiplicity
 _atom_site_fract_x
 _atom_site_fract_y
 _atom_site_fract_z
 _atom_site_occupancy
  C  C0  1  0.29321600  0.99618200  0.37227300  1
  C  C1  1  0.79321600  0.00381800  0.12772700  1
  C  C2  1  0.70678400  0.49618200  0.62772700  1
  C  C3  1  0.20678400  0.50381800  0.87227300  1
  C  C4  1  0.70678400  0.00381800  0.62772700  1
  C  C5  1  0.20678400  0.99618200  0.87227300  1
  C  C6  1  0.29321600  0.50381800  0.37227300  1
  C  C7  1  0.79321600  0.49618200  0.12772700  1
  Ni  Ni8  1  0.66652400  0.25000000  0.86406800  1
  Ni  Ni9  1  0.16652400  0.75000000  0.63593200  1
  Ni  Ni10  1  0.33347600  0.75000000  0.13593200  1
  Ni  Ni11  1  0.83347600  0.25000000  0.36406800  1
  Ni  Ni12  1  0.73131200  0.75000000  0.89060700  1
  Ni  Ni13  1  0.23131200  0.25000000  0.60939300  1
  Ni  Ni14  1  0.26868800  0.25000000  0.10939300  1
  Ni  Ni15  1  0.76868800  0.75000000  0.39060700  1
  Cu  Cu16  1  0.65255900  0.25000000  0.32391700  1
  Cu  Cu17  1  0.15255900  0.75000000  0.17608300  1
  Cu  Cu18  1  0.34744100  0.75000000  0.67608300  1
  Cu  Cu19  1  0.84744100  0.25000000  0.82391700  1
  Cu  Cu20  1  0.86361500  0.25000000  0.46377900  1
  Cu  Cu21  1  0.36361500  0.75000000  0.03622100  1
  Cu  Cu22  1  0.13638500  0.75000000  0.53622100  1
  Cu  Cu23  1  0.63638500  0.25000000  0.96377900  1
  Cu  Cu24  1  0.83757700  0.88491300  0.35654300  1
  Cu  Cu25  1  0.33757700  0.11508700  0.14345700  1
  Cu  Cu26  1  0.16242300  0.38491300  0.64345700  1
  Cu  Cu27  1  0.66242300  0.61508700  0.85654300  1
  Cu  Cu28  1  0.16242300  0.11508700  0.64345700  1
  Cu  Cu29  1  0.66242300  0.88491300  0.85654300  1
  Cu  Cu30  1  0.83757700  0.61508700  0.35654300  1
  Cu  Cu31  1  0.33757700  0.38491300  0.14345700  1
  Cu  Cu32  1  0.62330600  0.75000000  0.46162400  1
  Cu  Cu33  1  0.12330600  0.25000000  0.03837600  1
  Cu  Cu34  1  0.37669400  0.25000000  0.53837600  1
  Cu  Cu35  1  0.87669400  0.75000000  0.96162400  1
  Cu  Cu36  1  0.99189900  0.25000000  0.30065400  1
  Cu  Cu37  1  0.49189900  0.75000000  0.19934600  1
  Cu  Cu38  1  0.00810100  0.75000000  0.69934600  1
  Cu  Cu39  1  0.50810100  0.25000000  0.80065400  1
