# generated using pymatgen
data_Cu7NiC4
_symmetry_space_group_name_H-M   'P 1'
_cell_length_a   9.89241415
_cell_length_b   9.89241415
_cell_length_c   5.82526600
_cell_angle_alpha   90.00000000
_cell_angle_beta   90.00000000
_cell_angle_gamma   120.00000099
_symmetry_Int_Tables_number   1
_chemical_formula_structural   Cu7NiC4
_chemical_formula_sum   'Cu14 Ni2 C8'
_cell_volume   493.68617843
_cell_formula_units_Z   2
loop_
 _symmetry_equiv_pos_site_id
 _symmetry_equiv_pos_as_xyz
  1  'x, y, z'
loop_
 _atom_site_type_symbol
 _atom_site_label
 _atom_site_symmetry_multiplicity
 _atom_site_fract_x
 _atom_site_fract_y
 _atom_site_fract_z
 _atom_site_occupancy
  C  C0  1  0.13379600  0.77633500  0.75138500  1
  C  C1  1  0.77633500  0.64253900  0.25138500  1
  C  C2  1  0.35746100  0.13379600  0.25138500  1
  C  C3  1  0.64253900  0.86620400  0.75138500  1
  C  C4  1  0.86620400  0.22366500  0.25138500  1
  C  C5  1  0.22366500  0.35746100  0.75138500  1
  C  C6  1  0.00000000  0.00000000  0.19306200  1
  C  C7  1  0.00000000  0.00000000  0.69306200  1
  Ni  Ni8  1  0.66666700  0.33333300  0.83262300  1
  Ni  Ni9  1  0.33333300  0.66666700  0.33262300  1
  Cu  Cu10  1  0.47985200  0.57779300  0.49401700  1
  Cu  Cu11  1  0.90205900  0.47985200  0.99401700  1
  Cu  Cu12  1  0.90035200  0.15953600  0.71534900  1
  Cu  Cu13  1  0.09964800  0.84046400  0.21534900  1
  Cu  Cu14  1  0.09794100  0.52014800  0.49401700  1
  Cu  Cu15  1  0.33333300  0.66666700  0.95366300  1
  Cu  Cu16  1  0.74081600  0.90035200  0.21534900  1
  Cu  Cu17  1  0.66666700  0.33333300  0.45366300  1
  Cu  Cu18  1  0.57779300  0.09794100  0.99401700  1
  Cu  Cu19  1  0.25918400  0.09964800  0.71534900  1
  Cu  Cu20  1  0.15953600  0.25918400  0.21534900  1
  Cu  Cu21  1  0.42220700  0.90205900  0.49401700  1
  Cu  Cu22  1  0.84046400  0.74081600  0.71534900  1
  Cu  Cu23  1  0.52014800  0.42220700  0.99401700  1
