# generated using pymatgen
data_CuNiC5
_symmetry_space_group_name_H-M   'P 1'
_cell_length_a   5.02594167
_cell_length_b   9.35883506
_cell_length_c   8.70537084
_cell_angle_alpha   108.06273675
_cell_angle_beta   90.00062737
_cell_angle_gamma   90.00053422
_symmetry_Int_Tables_number   1
_chemical_formula_structural   CuNiC5
_chemical_formula_sum   'Cu4 Ni4 C20'
_cell_volume   389.29429599
_cell_formula_units_Z   4
loop_
 _symmetry_equiv_pos_site_id
 _symmetry_equiv_pos_as_xyz
  1  'x, y, z'
loop_
 _atom_site_type_symbol
 _atom_site_label
 _atom_site_symmetry_multiplicity
 _atom_site_fract_x
 _atom_site_fract_y
 _atom_site_fract_z
 _atom_site_occupancy
  C  C0  1  0.50000000  0.13803100  0.21267900  1
  C  C1  1  0.00000000  0.13803100  0.71267800  1
  C  C2  1  0.50000000  0.86196900  0.78732200  1
  C  C3  1  0.00000000  0.86196900  0.28732100  1
  Ni  Ni4  1  0.50000200  0.50730400  0.33577100  1
  Ni  Ni5  1  0.99999800  0.49269600  0.16422900  1
  Ni  Ni6  1  0.00000300  0.50730300  0.83577000  1
  Ni  Ni7  1  0.49999700  0.49269700  0.66423000  1
  Cu  Cu8  1  0.49999500  0.30169400  0.93390200  1
  Cu  Cu9  1  0.99999600  0.30169500  0.43390000  1
  Cu  Cu10  1  0.50000400  0.69830500  0.06610000  1
  Cu  Cu11  1  0.00000500  0.69830600  0.56609800  1
  C  C12  1  0.50000200  0.11267000  0.87089000  1
  C  C13  1  0.00000200  0.11267100  0.37089200  1
  C  C14  1  0.49999800  0.88732900  0.12910800  1
  C  C15  1  0.99999800  0.88733000  0.62911000  1
  C  C16  1  0.17026000  0.36296600  0.94928600  1
  C  C17  1  0.67025900  0.36296500  0.44928700  1
  C  C18  1  0.82974100  0.63703500  0.05071300  1
  C  C19  1  0.32974000  0.63703400  0.55071400  1
  C  C20  1  0.65731900  0.36297100  0.12171300  1
  C  C21  1  0.15731800  0.36297100  0.62171500  1
  C  C22  1  0.67242400  0.36297100  0.79196900  1
  C  C23  1  0.17242400  0.36297200  0.29197100  1
  C  C24  1  0.32757600  0.63702800  0.20802900  1
  C  C25  1  0.82757600  0.63702900  0.70803100  1
  C  C26  1  0.34268200  0.63702800  0.87828500  1
  C  C27  1  0.84268100  0.63702900  0.37828700  1
