# generated using pymatgen
data_Cu2NiC8
_symmetry_space_group_name_H-M   'P 1'
_cell_length_a   8.65421248
_cell_length_b   8.65421248
_cell_length_c   20.22403900
_cell_angle_alpha   90.00000000
_cell_angle_beta   90.00000000
_cell_angle_gamma   120.00000370
_symmetry_Int_Tables_number   1
_chemical_formula_structural   Cu2NiC8
_chemical_formula_sum   'Cu12 Ni6 C48'
_cell_volume   1311.75768655
_cell_formula_units_Z   6
loop_
 _symmetry_equiv_pos_site_id
 _symmetry_equiv_pos_as_xyz
  1  'x, y, z'
loop_
 _atom_site_type_symbol
 _atom_site_label
 _atom_site_symmetry_multiplicity
 _atom_site_fract_x
 _atom_site_fract_y
 _atom_site_fract_z
 _atom_site_occupancy
  Ni  Ni0  1  0.50000000  0.50000000  0.29238400  1
  Ni  Ni1  1  0.00000000  0.50000000  0.70761600  1
  Ni  Ni2  1  0.50000000  0.00000000  0.37428300  1
  Ni  Ni3  1  0.00000000  0.50000000  0.95905000  1
  Ni  Ni4  1  0.50000000  0.50000000  0.04095000  1
  Ni  Ni5  1  0.50000000  0.00000000  0.62571700  1
  Cu  Cu6  1  0.99845800  0.68291700  0.45971000  1
  Cu  Cu7  1  0.68445900  0.68291700  0.54029000  1
  Cu  Cu8  1  0.99845800  0.31554100  0.20695700  1
  Cu  Cu9  1  0.68291700  0.68445900  0.79304300  1
  Cu  Cu10  1  0.68445900  0.00154200  0.12637700  1
  Cu  Cu11  1  0.00154200  0.68445900  0.20695700  1
  Cu  Cu12  1  0.00154200  0.31708300  0.45971000  1
  Cu  Cu13  1  0.31554100  0.31708300  0.54029000  1
  Cu  Cu14  1  0.68291700  0.99845800  0.87362300  1
  Cu  Cu15  1  0.31554100  0.99845800  0.12637700  1
  Cu  Cu16  1  0.31708300  0.00154200  0.87362300  1
  Cu  Cu17  1  0.31708300  0.31554100  0.79304300  1
  C  C18  1  0.81493900  0.60308900  0.38863900  1
  C  C19  1  0.21429600  0.81338200  0.80415900  1
  C  C20  1  0.81338200  0.59908600  0.13749300  1
  C  C21  1  0.81338200  0.21429600  0.52917400  1
  C  C22  1  0.60308900  0.78815100  0.72197200  1
  C  C23  1  0.78815100  0.18506100  0.05530600  1
  C  C24  1  0.18661800  0.40091400  0.13749300  1
  C  C25  1  0.21184900  0.39691100  0.61136100  1
  C  C26  1  0.39691100  0.18506100  0.94469400  1
  C  C27  1  0.18506100  0.78815100  0.27802800  1
  C  C28  1  0.78570400  0.59908600  0.86250700  1
  C  C29  1  0.59908600  0.78570400  0.47082600  1
  C  C30  1  0.60308900  0.81493900  0.94469400  1
  C  C31  1  0.40091400  0.21429600  0.47082600  1
  C  C32  1  0.59908600  0.81338200  0.19584100  1
  C  C33  1  0.78815100  0.60308900  0.61136100  1
  C  C34  1  0.21429600  0.40091400  0.86250700  1
  C  C35  1  0.40091400  0.18661800  0.19584100  1
  C  C36  1  0.81493900  0.21184900  0.27802800  1
  C  C37  1  0.78570400  0.18661800  0.80415900  1
  C  C38  1  0.21184900  0.81493900  0.05530600  1
  C  C39  1  0.18506100  0.39691100  0.38863900  1
  C  C40  1  0.18661800  0.78570400  0.52917400  1
  C  C41  1  0.39691100  0.21184900  0.72197200  1
  C  C42  1  0.56128700  0.85927800  0.68237200  1
  C  C43  1  0.43871300  0.14072200  0.68237200  1
  C  C44  1  0.85927800  0.56128700  0.65096200  1
  C  C45  1  0.29898000  0.44387900  0.09759100  1
  C  C46  1  0.70102000  0.14489900  0.56907600  1
  C  C47  1  0.70102000  0.55612100  0.09759100  1
  C  C48  1  0.14072200  0.43871300  0.65096200  1
  C  C49  1  0.55612100  0.85510100  0.43092400  1
  C  C50  1  0.14072200  0.70201000  0.01570500  1
  C  C51  1  0.44387900  0.29898000  0.23574300  1
  C  C52  1  0.85510100  0.55612100  0.90240900  1
  C  C53  1  0.14489900  0.44387900  0.90240900  1
  C  C54  1  0.55612100  0.70102000  0.23574300  1
  C  C55  1  0.70201000  0.14072200  0.31762800  1
  C  C56  1  0.29799000  0.43871300  0.34903800  1
  C  C57  1  0.44387900  0.14489900  0.43092400  1
  C  C58  1  0.85510100  0.29898000  0.76425700  1
  C  C59  1  0.70201000  0.56128700  0.34903800  1
  C  C60  1  0.85927800  0.29799000  0.01570500  1
  C  C61  1  0.43871300  0.29799000  0.98429500  1
  C  C62  1  0.29898000  0.85510100  0.56907600  1
  C  C63  1  0.56128700  0.70201000  0.98429500  1
  C  C64  1  0.14489900  0.70102000  0.76425700  1
  C  C65  1  0.29799000  0.85927800  0.31762800  1
