# generated using pymatgen
data_Cu3(Ni9C5)2
_symmetry_space_group_name_H-M   'P 1'
_cell_length_a   8.07613300
_cell_length_b   8.97714300
_cell_length_c   11.59979400
_cell_angle_alpha   90.00000000
_cell_angle_beta   90.00000000
_cell_angle_gamma   90.00000000
_symmetry_Int_Tables_number   1
_chemical_formula_structural   Cu3(Ni9C5)2
_chemical_formula_sum   'Cu6 Ni36 C20'
_cell_volume   840.99203448
_cell_formula_units_Z   2
loop_
 _symmetry_equiv_pos_site_id
 _symmetry_equiv_pos_as_xyz
  1  'x, y, z'
loop_
 _atom_site_type_symbol
 _atom_site_label
 _atom_site_symmetry_multiplicity
 _atom_site_fract_x
 _atom_site_fract_y
 _atom_site_fract_z
 _atom_site_occupancy
  C  C0  1  0.50000000  0.33588100  0.00000000  1
  C  C1  1  0.00000000  0.66411900  0.50000000  1
  Ni  Ni2  1  0.21477700  0.51934100  0.10029400  1
  Ni  Ni3  1  0.71477700  0.48065900  0.39970600  1
  Ni  Ni4  1  0.78522300  0.51934100  0.89970600  1
  Ni  Ni5  1  0.28522300  0.48065900  0.60029400  1
  Ni  Ni6  1  0.28522300  0.48065900  0.39970600  1
  Ni  Ni7  1  0.78522300  0.51934100  0.10029400  1
  Ni  Ni8  1  0.71477700  0.48065900  0.60029400  1
  Ni  Ni9  1  0.21477700  0.51934100  0.89970600  1
  Ni  Ni10  1  0.20983800  0.36939400  0.17023500  1
  Ni  Ni11  1  0.70983800  0.63060600  0.32976500  1
  Ni  Ni12  1  0.79016200  0.36939400  0.82976500  1
  Ni  Ni13  1  0.29016200  0.63060600  0.67023500  1
  Ni  Ni14  1  0.29016200  0.63060600  0.32976500  1
  Ni  Ni15  1  0.79016200  0.36939400  0.17023500  1
  Ni  Ni16  1  0.70983800  0.63060600  0.67023500  1
  Ni  Ni17  1  0.20983800  0.36939400  0.82976500  1
  Ni  Ni18  1  0.50000000  0.68118000  0.93153600  1
  Ni  Ni19  1  0.00000000  0.31882000  0.56846400  1
  Ni  Ni20  1  0.50000000  0.68118000  0.06846400  1
  Ni  Ni21  1  0.00000000  0.31882000  0.43153600  1
  Ni  Ni22  1  0.77959100  0.11637300  0.93236000  1
  Ni  Ni23  1  0.27959100  0.88362700  0.56764000  1
  Ni  Ni24  1  0.22040900  0.11637300  0.06764000  1
  Ni  Ni25  1  0.72040900  0.88362700  0.43236000  1
  Ni  Ni26  1  0.72040900  0.88362700  0.56764000  1
  Ni  Ni27  1  0.22040900  0.11637300  0.93236000  1
  Ni  Ni28  1  0.27959100  0.88362700  0.43236000  1
  Ni  Ni29  1  0.77959100  0.11637300  0.06764000  1
  Ni  Ni30  1  0.50000000  0.09503800  0.20103100  1
  Ni  Ni31  1  0.00000000  0.90496200  0.29896900  1
  Ni  Ni32  1  0.50000000  0.09503800  0.79896900  1
  Ni  Ni33  1  0.00000000  0.90496200  0.70103100  1
  Ni  Ni34  1  0.50000000  0.24809800  0.26642700  1
  Ni  Ni35  1  0.00000000  0.75190200  0.23357300  1
  Ni  Ni36  1  0.50000000  0.24809800  0.73357300  1
  Ni  Ni37  1  0.00000000  0.75190200  0.76642700  1
  Cu  Cu38  1  0.00000000  0.17147000  0.23725600  1
  Cu  Cu39  1  0.50000000  0.82853000  0.26274400  1
  Cu  Cu40  1  0.00000000  0.17147000  0.76274400  1
  Cu  Cu41  1  0.50000000  0.82853000  0.73725600  1
  Cu  Cu42  1  0.50000000  0.30681700  0.50000000  1
  Cu  Cu43  1  0.00000000  0.69318300  0.00000000  1
  C  C44  1  0.28555100  0.43774700  0.12922200  1
  C  C45  1  0.78555100  0.56225300  0.37077800  1
  C  C46  1  0.71444900  0.43774700  0.87077800  1
  C  C47  1  0.21444900  0.56225300  0.62922200  1
  C  C48  1  0.21444900  0.56225300  0.37077800  1
  C  C49  1  0.71444900  0.43774700  0.12922200  1
  C  C50  1  0.78555100  0.56225300  0.62922200  1
  C  C51  1  0.28555100  0.43774700  0.87077800  1
  C  C52  1  0.50000000  0.61607600  0.00000000  1
  C  C53  1  0.00000000  0.38392400  0.50000000  1
  C  C54  1  0.70720100  0.12915900  0.00000000  1
  C  C55  1  0.20720100  0.87084100  0.50000000  1
  C  C56  1  0.29279900  0.12915900  0.00000000  1
  C  C57  1  0.79279900  0.87084100  0.50000000  1
  C  C58  1  0.50000000  0.20419200  0.18887400  1
  C  C59  1  0.00000000  0.79580800  0.31112600  1
  C  C60  1  0.50000000  0.20419200  0.81112600  1
  C  C61  1  0.00000000  0.79580800  0.68887400  1
