# generated using pymatgen
data_Cu2NiC2
_symmetry_space_group_name_H-M   'P 1'
_cell_length_a   3.97388200
_cell_length_b   6.89302609
_cell_length_c   9.84493534
_cell_angle_alpha   91.53843228
_cell_angle_beta   90.00000000
_cell_angle_gamma   106.75344272
_symmetry_Int_Tables_number   1
_chemical_formula_structural   Cu2NiC2
_chemical_formula_sum   'Cu4 Ni2 C4'
_cell_volume   258.12512774
_cell_formula_units_Z   2
loop_
 _symmetry_equiv_pos_site_id
 _symmetry_equiv_pos_as_xyz
  1  'x, y, z'
loop_
 _atom_site_type_symbol
 _atom_site_label
 _atom_site_symmetry_multiplicity
 _atom_site_fract_x
 _atom_site_fract_y
 _atom_site_fract_z
 _atom_site_occupancy
  C  C0  1  0.00000000  0.00000000  0.00000000  1
  C  C1  1  0.00000000  0.00000000  0.50000000  1
  Ni  Ni2  1  0.28614200  0.57228400  0.68474100  1
  Ni  Ni3  1  0.71385800  0.42771600  0.31525900  1
  Cu  Cu4  1  0.91405800  0.82811600  0.73883900  1
  Cu  Cu5  1  0.35357900  0.70715800  0.44951400  1
  Cu  Cu6  1  0.64642100  0.29284200  0.55048600  1
  Cu  Cu7  1  0.08594200  0.17188400  0.26116100  1
  C  C8  1  0.36552200  0.73104400  0.07555500  1
  C  C9  1  0.63447800  0.26895600  0.92444500  1
