# generated using pymatgen
data_Cu(Ni6C5)2
_symmetry_space_group_name_H-M   'P 1'
_cell_length_a   7.01382889
_cell_length_b   7.01382889
_cell_length_c   7.01382889
_cell_angle_alpha   109.47122063
_cell_angle_beta   109.47122063
_cell_angle_gamma   109.47122063
_symmetry_Int_Tables_number   1
_chemical_formula_structural   Cu(Ni6C5)2
_chemical_formula_sum   'Cu1 Ni12 C10'
_cell_volume   265.60950334
_cell_formula_units_Z   1
loop_
 _symmetry_equiv_pos_site_id
 _symmetry_equiv_pos_as_xyz
  1  'x, y, z'
loop_
 _atom_site_type_symbol
 _atom_site_label
 _atom_site_symmetry_multiplicity
 _atom_site_fract_x
 _atom_site_fract_y
 _atom_site_fract_z
 _atom_site_occupancy
  C  C0  1  0.00000000  0.70120100  0.00000000  1
  C  C1  1  0.70120100  0.00000000  0.00000000  1
  C  C2  1  0.00000000  0.00000000  0.70120100  1
  C  C3  1  0.29879900  0.29879900  0.29879900  1
  C  C4  1  0.50000000  0.25000000  0.75000000  1
  C  C5  1  0.50000000  0.75000000  0.25000000  1
  C  C6  1  0.75000000  0.50000000  0.25000000  1
  C  C7  1  0.25000000  0.75000000  0.50000000  1
  C  C8  1  0.75000000  0.25000000  0.50000000  1
  C  C9  1  0.25000000  0.50000000  0.75000000  1
  Ni  Ni10  1  0.00000000  0.73512400  0.45919700  1
  Ni  Ni11  1  0.27592600  0.54080300  0.54080300  1
  Ni  Ni12  1  0.73512400  0.45919700  0.00000000  1
  Ni  Ni13  1  0.26487600  0.72407400  0.26487600  1
  Ni  Ni14  1  0.45919700  0.00000000  0.73512400  1
  Ni  Ni15  1  0.72407400  0.26487600  0.26487600  1
  Ni  Ni16  1  0.54080300  0.27592600  0.54080300  1
  Ni  Ni17  1  0.73512400  0.00000000  0.45919700  1
  Ni  Ni18  1  0.26487600  0.26487600  0.72407400  1
  Ni  Ni19  1  0.45919700  0.73512400  0.00000000  1
  Ni  Ni20  1  0.54080300  0.54080300  0.27592600  1
  Ni  Ni21  1  0.00000000  0.45919700  0.73512400  1
  Cu  Cu22  1  0.00000000  0.00000000  0.00000000  1
