# generated using pymatgen
data_Cu6NiC4
_symmetry_space_group_name_H-M   'P 1'
_cell_length_a   14.98550200
_cell_length_b   5.44196600
_cell_length_c   9.33357039
_cell_angle_alpha   80.05396715
_cell_angle_beta   90.00000000
_cell_angle_gamma   90.00000000
_symmetry_Int_Tables_number   1
_chemical_formula_structural   Cu6NiC4
_chemical_formula_sum   'Cu24 Ni4 C16'
_cell_volume   749.71865315
_cell_formula_units_Z   4
loop_
 _symmetry_equiv_pos_site_id
 _symmetry_equiv_pos_as_xyz
  1  'x, y, z'
loop_
 _atom_site_type_symbol
 _atom_site_label
 _atom_site_symmetry_multiplicity
 _atom_site_fract_x
 _atom_site_fract_y
 _atom_site_fract_z
 _atom_site_occupancy
  C  C0  1  0.91294700  0.25448500  0.97263200  1
  C  C1  1  0.08705300  0.74551500  0.02736800  1
  C  C2  1  0.41294700  0.74551500  0.52736800  1
  C  C3  1  0.58705300  0.25448500  0.47263200  1
  C  C4  1  0.27725400  0.72747900  0.82945400  1
  C  C5  1  0.77725400  0.27252100  0.67054600  1
  C  C6  1  0.72274600  0.27252100  0.17054600  1
  C  C7  1  0.22274600  0.72747900  0.32945400  1
  C  C8  1  0.65449900  0.74427300  0.71659100  1
  C  C9  1  0.41367300  0.21963100  0.79638400  1
  C  C10  1  0.84550100  0.74427300  0.21659100  1
  C  C11  1  0.15449900  0.25572700  0.78340900  1
  C  C12  1  0.34550100  0.25572700  0.28340900  1
  C  C13  1  0.08632700  0.21963100  0.29638400  1
  C  C14  1  0.91367300  0.78036900  0.70361600  1
  C  C15  1  0.58632700  0.78036900  0.20361600  1
  Ni  Ni16  1  0.89710600  0.27583500  0.44351300  1
  Ni  Ni17  1  0.60289400  0.27583500  0.94351300  1
  Ni  Ni18  1  0.10289400  0.72416500  0.55648700  1
  Ni  Ni19  1  0.39710600  0.72416500  0.05648700  1
  Cu  Cu20  1  0.63844300  0.03811000  0.29213700  1
  Cu  Cu21  1  0.98258800  0.63085200  0.86532300  1
  Cu  Cu22  1  0.54565700  0.87457000  0.62647900  1
  Cu  Cu23  1  0.67640200  0.49851100  0.59680900  1
  Cu  Cu24  1  0.36155700  0.96189000  0.70786300  1
  Cu  Cu25  1  0.28595000  0.98446100  0.40832000  1
  Cu  Cu26  1  0.86155700  0.03811000  0.79213700  1
  Cu  Cu27  1  0.32302700  0.46855300  0.72936900  1
  Cu  Cu28  1  0.48258800  0.36914800  0.63467700  1
  Cu  Cu29  1  0.17640200  0.50148900  0.90319100  1
  Cu  Cu30  1  0.82302700  0.53144700  0.77063100  1
  Cu  Cu31  1  0.21405000  0.98446100  0.90832000  1
  Cu  Cu32  1  0.67697300  0.53144700  0.27063100  1
  Cu  Cu33  1  0.01741200  0.36914800  0.13467700  1
  Cu  Cu34  1  0.78595000  0.01553900  0.09168000  1
  Cu  Cu35  1  0.04565700  0.12543000  0.87352100  1
  Cu  Cu36  1  0.13844300  0.96189000  0.20786300  1
  Cu  Cu37  1  0.51741200  0.63085200  0.36532300  1
  Cu  Cu38  1  0.45434300  0.12543000  0.37352100  1
  Cu  Cu39  1  0.32359800  0.50148900  0.40319100  1
  Cu  Cu40  1  0.71405000  0.01553900  0.59168000  1
  Cu  Cu41  1  0.17697300  0.46855300  0.22936900  1
  Cu  Cu42  1  0.82359800  0.49851100  0.09680900  1
  Cu  Cu43  1  0.95434300  0.87457000  0.12647900  1
