# generated using pymatgen
data_Cu4Ni2C3
_symmetry_space_group_name_H-M   'P 1'
_cell_length_a   7.53158835
_cell_length_b   7.53158835
_cell_length_c   7.53158835
_cell_angle_alpha   111.00826353
_cell_angle_beta   111.00826353
_cell_angle_gamma   106.43902628
_symmetry_Int_Tables_number   1
_chemical_formula_structural   Cu4Ni2C3
_chemical_formula_sum   'Cu4 Ni2 C3'
_cell_volume   328.19410519
_cell_formula_units_Z   1
loop_
 _symmetry_equiv_pos_site_id
 _symmetry_equiv_pos_as_xyz
  1  'x, y, z'
loop_
 _atom_site_type_symbol
 _atom_site_label
 _atom_site_symmetry_multiplicity
 _atom_site_fract_x
 _atom_site_fract_y
 _atom_site_fract_z
 _atom_site_occupancy
  C  C0  1  0.25000000  0.75000000  0.50000000  1
  C  C1  1  0.75000000  0.25000000  0.50000000  1
  C  C2  1  0.00000000  0.00000000  0.00000000  1
  Ni  Ni3  1  0.33979600  0.33979600  0.00000000  1
  Ni  Ni4  1  0.66020400  0.66020400  0.00000000  1
  Cu  Cu5  1  0.79428700  0.20571300  0.00000000  1
  Cu  Cu6  1  0.79428700  0.79428700  0.58857300  1
  Cu  Cu7  1  0.20571300  0.79428700  0.00000000  1
  Cu  Cu8  1  0.20571300  0.20571300  0.41142700  1
