# generated using pymatgen
data_CuNiC23
_symmetry_space_group_name_H-M   'P 1'
_cell_length_a   6.25789200
_cell_length_b   7.05974900
_cell_length_c   11.44785200
_cell_angle_alpha   90.00000000
_cell_angle_beta   90.00000000
_cell_angle_gamma   90.00000000
_symmetry_Int_Tables_number   1
_chemical_formula_structural   CuNiC23
_chemical_formula_sum   'Cu2 Ni2 C46'
_cell_volume   505.75633393
_cell_formula_units_Z   2
loop_
 _symmetry_equiv_pos_site_id
 _symmetry_equiv_pos_as_xyz
  1  'x, y, z'
loop_
 _atom_site_type_symbol
 _atom_site_label
 _atom_site_symmetry_multiplicity
 _atom_site_fract_x
 _atom_site_fract_y
 _atom_site_fract_z
 _atom_site_occupancy
  Ni  Ni0  1  0.37957600  0.50000000  0.88034300  1
  Ni  Ni1  1  0.62042400  0.00000000  0.38034300  1
  Cu  Cu2  1  0.36950000  0.50000000  0.22312400  1
  Cu  Cu3  1  0.63050000  0.00000000  0.72312400  1
  C  C4  1  0.99368300  0.50000000  0.50861400  1
  C  C5  1  0.00631700  0.00000000  0.00861400  1
  C  C6  1  0.61057900  0.67976300  0.52596100  1
  C  C7  1  0.99982100  0.11425200  0.49896000  1
  C  C8  1  0.18291300  0.17766800  0.80747700  1
  C  C9  1  0.38942100  0.17976300  0.02596100  1
  C  C10  1  0.21636400  0.29563800  0.68962700  1
  C  C11  1  0.21636400  0.70436200  0.68962700  1
  C  C12  1  0.78363600  0.79563800  0.18962700  1
  C  C13  1  0.62999200  0.74450200  0.01270400  1
  C  C14  1  0.27922700  0.00000000  0.21762500  1
  C  C15  1  0.81708700  0.32233200  0.30747700  1
  C  C16  1  0.78363600  0.20436200  0.18962700  1
  C  C17  1  0.00017900  0.61425200  0.99896000  1
  C  C18  1  0.61057900  0.32023700  0.52596100  1
  C  C19  1  0.18291300  0.82233200  0.80747700  1
  C  C20  1  0.17494100  0.00000000  0.34661300  1
  C  C21  1  0.99982100  0.88574800  0.49896000  1
  C  C22  1  0.81708700  0.67766800  0.30747700  1
  C  C23  1  0.82505900  0.50000000  0.84661300  1
  C  C24  1  0.37000800  0.24450200  0.51270400  1
  C  C25  1  0.62999200  0.25549800  0.01270400  1
  C  C26  1  0.38942100  0.82023700  0.02596100  1
  C  C27  1  0.72077300  0.50000000  0.71762500  1
  C  C28  1  0.00017900  0.38574800  0.99896000  1
  C  C29  1  0.37000800  0.75549800  0.51270400  1
  C  C30  1  0.27792600  0.27657700  0.77017500  1
  C  C31  1  0.52354100  0.20606100  0.50122900  1
  C  C32  1  0.31184500  0.00000000  0.30393600  1
  C  C33  1  0.87391700  0.20133800  0.05392100  1
  C  C34  1  0.87391700  0.79866200  0.05392100  1
  C  C35  1  0.68815500  0.50000000  0.80393600  1
  C  C36  1  0.03578900  0.00000000  0.85931900  1
  C  C37  1  0.25637300  0.00000000  0.07364400  1
  C  C38  1  0.27792600  0.72342300  0.77017500  1
  C  C39  1  0.93675500  0.00000000  0.45829400  1
  C  C40  1  0.52354100  0.79393900  0.50122900  1
  C  C41  1  0.06324500  0.50000000  0.95829400  1
  C  C42  1  0.72207400  0.77657700  0.27017500  1
  C  C43  1  0.12608300  0.70133800  0.55392100  1
  C  C44  1  0.72207400  0.22342300  0.27017500  1
  C  C45  1  0.12608300  0.29866200  0.55392100  1
  C  C46  1  0.47645900  0.29393900  0.00122900  1
  C  C47  1  0.96421100  0.50000000  0.35931900  1
  C  C48  1  0.74362700  0.50000000  0.57364400  1
  C  C49  1  0.47645900  0.70606100  0.00122900  1
