# generated using pymatgen
data_CuNi2C11
_symmetry_space_group_name_H-M   'P 1'
_cell_length_a   9.35255800
_cell_length_b   11.20211900
_cell_length_c   19.23402637
_cell_angle_alpha   89.94050290
_cell_angle_beta   90.00000000
_cell_angle_gamma   90.00000000
_symmetry_Int_Tables_number   1
_chemical_formula_structural   CuNi2C11
_chemical_formula_sum   'Cu8 Ni16 C88'
_cell_volume   2015.11838347
_cell_formula_units_Z   8
loop_
 _symmetry_equiv_pos_site_id
 _symmetry_equiv_pos_as_xyz
  1  'x, y, z'
loop_
 _atom_site_type_symbol
 _atom_site_label
 _atom_site_symmetry_multiplicity
 _atom_site_fract_x
 _atom_site_fract_y
 _atom_site_fract_z
 _atom_site_occupancy
  Ni  Ni0  1  0.00021500  0.08495600  0.88125300  1
  Ni  Ni1  1  0.00522900  0.59271800  0.39769100  1
  Ni  Ni2  1  0.45893900  0.18469100  0.85376600  1
  Ni  Ni3  1  0.04106100  0.18469100  0.35376600  1
  Ni  Ni4  1  0.95893900  0.81530900  0.64623400  1
  Ni  Ni5  1  0.54106100  0.81530900  0.14623400  1
  Ni  Ni6  1  0.99477100  0.40728200  0.60230900  1
  Ni  Ni7  1  0.03401900  0.31345200  0.13328100  1
  Ni  Ni8  1  0.50522900  0.40728200  0.10230900  1
  Ni  Ni9  1  0.99978500  0.91504400  0.11874700  1
  Ni  Ni10  1  0.50021500  0.91504400  0.61874700  1
  Ni  Ni11  1  0.49477100  0.59271800  0.89769100  1
  Ni  Ni12  1  0.96598100  0.68654800  0.86671900  1
  Ni  Ni13  1  0.49978500  0.08495600  0.38125300  1
  Ni  Ni14  1  0.46598100  0.31345200  0.63328100  1
  Ni  Ni15  1  0.53401900  0.68654800  0.36671900  1
  Cu  Cu16  1  0.64697400  0.91057200  0.79143300  1
  Cu  Cu17  1  0.83034200  0.60274500  0.03940500  1
  Cu  Cu18  1  0.16965800  0.39725500  0.96059500  1
  Cu  Cu19  1  0.66965800  0.60274500  0.53940500  1
  Cu  Cu20  1  0.14697400  0.08942800  0.70856700  1
  Cu  Cu21  1  0.35302600  0.08942800  0.20856700  1
  Cu  Cu22  1  0.33034200  0.39725500  0.46059500  1
  Cu  Cu23  1  0.85302600  0.91057200  0.29143300  1
  C  C24  1  0.82647300  0.38431100  0.78956100  1
  C  C25  1  0.16008900  0.88192000  0.45873300  1
  C  C26  1  0.66008900  0.11808000  0.04126700  1
  C  C27  1  0.17352700  0.61568900  0.21043900  1
  C  C28  1  0.83991100  0.11808000  0.54126700  1
  C  C29  1  0.32647300  0.61568900  0.71043900  1
  C  C30  1  0.33991100  0.88192000  0.95873300  1
  C  C31  1  0.67352700  0.38431100  0.28956100  1
  C  C32  1  0.22905800  0.85301700  0.29904100  1
  C  C33  1  0.68750700  0.87857800  0.96093200  1
  C  C34  1  0.18750700  0.12142200  0.53906800  1
  C  C35  1  0.82539400  0.60332700  0.21799600  1
  C  C36  1  0.21126900  0.66319300  0.04763100  1
  C  C37  1  0.17460600  0.39667300  0.78200400  1
  C  C38  1  0.31249300  0.12142200  0.03906800  1
  C  C39  1  0.71126900  0.33680700  0.45236900  1
  C  C40  1  0.27094200  0.85301700  0.79904100  1
  C  C41  1  0.72905800  0.14698300  0.20095900  1
  C  C42  1  0.81249300  0.87857800  0.46093200  1
  C  C43  1  0.78873100  0.33680700  0.95236900  1
  C  C44  1  0.32539400  0.39667300  0.28200400  1
  C  C45  1  0.67460600  0.60332700  0.71799600  1
  C  C46  1  0.28873100  0.66319300  0.54763100  1
  C  C47  1  0.77094200  0.14698300  0.70095900  1
  C  C48  1  0.22830500  0.09869700  0.10572100  1
  C  C49  1  0.50826500  0.57672600  0.71336200  1
  C  C50  1  0.72286900  0.32210900  0.37025200  1
  C  C51  1  0.77125800  0.97774600  0.51679900  1
  C  C52  1  0.77169500  0.90130300  0.89427900  1
  C  C53  1  0.52367200  0.89829200  0.94385400  1
  C  C54  1  0.79109900  0.75661100  0.49373900  1
  C  C55  1  0.71781500  0.28265100  0.22390800  1
  C  C56  1  0.70890100  0.75661100  0.99373900  1
  C  C57  1  0.77713100  0.32210900  0.87025200  1
  C  C58  1  0.99173500  0.57672600  0.21336200  1
  C  C59  1  0.02367200  0.10170800  0.55614600  1
  C  C60  1  0.74572100  0.56868700  0.64961600  1
  C  C61  1  0.25376600  0.84111900  0.88125900  1
  C  C62  1  0.69274700  0.22835700  0.97833700  1
  C  C63  1  0.24623400  0.84111900  0.38125900  1
  C  C64  1  0.22286900  0.67789100  0.12974800  1
  C  C65  1  0.86717800  0.09374300  0.22952100  1
  C  C66  1  0.29872200  0.26802400  0.25957700  1
  C  C67  1  0.13282200  0.90625700  0.77047900  1
  C  C68  1  0.09494500  0.92227700  0.28050800  1
  C  C69  1  0.21781500  0.71734900  0.27609200  1
  C  C70  1  0.55663400  0.32024900  0.47542000  1
  C  C71  1  0.70127800  0.73197600  0.74042300  1
  C  C72  1  0.74623400  0.15888100  0.11874100  1
  C  C73  1  0.47632800  0.10170800  0.05614600  1
  C  C74  1  0.77278600  0.51718500  0.27879000  1
  C  C75  1  0.77959300  0.45396900  0.47508700  1
  C  C76  1  0.97632800  0.89829200  0.44385400  1
  C  C77  1  0.90505500  0.07772300  0.71949200  1
  C  C78  1  0.27278600  0.48281500  0.22121000  1
  C  C79  1  0.44336600  0.67975100  0.52458000  1
  C  C80  1  0.36717800  0.90625700  0.27047900  1
  C  C81  1  0.19274700  0.77164300  0.52166300  1
  C  C82  1  0.27125800  0.02225400  0.98320100  1
  C  C83  1  0.20127800  0.26802400  0.75957700  1
  C  C84  1  0.59494500  0.07772300  0.21949200  1
  C  C85  1  0.05663400  0.67975100  0.02458000  1
  C  C86  1  0.80725300  0.22835700  0.47833700  1
  C  C87  1  0.49173500  0.42327400  0.28663800  1
  C  C88  1  0.22040700  0.54603100  0.52491300  1
  C  C89  1  0.72830500  0.90130300  0.39427900  1
  C  C90  1  0.78218500  0.28265100  0.72390800  1
  C  C91  1  0.28218500  0.71734900  0.77609200  1
  C  C92  1  0.22721400  0.48281500  0.72121000  1
  C  C93  1  0.22874200  0.02225400  0.48320100  1
  C  C94  1  0.75427900  0.56868700  0.14961600  1
  C  C95  1  0.72040700  0.45396900  0.97508700  1
  C  C96  1  0.30725300  0.77164300  0.02166300  1
  C  C97  1  0.25427900  0.43131300  0.35038400  1
  C  C98  1  0.72721400  0.51718500  0.77879000  1
  C  C99  1  0.79872200  0.73197600  0.24042300  1
  C  C100  1  0.29109900  0.24338900  0.00626100  1
  C  C101  1  0.75376600  0.15888100  0.61874100  1
  C  C102  1  0.27959300  0.54603100  0.02491300  1
  C  C103  1  0.40505500  0.92227700  0.78050800  1
  C  C104  1  0.27169500  0.09869700  0.60572100  1
  C  C105  1  0.27713100  0.67789100  0.62974800  1
  C  C106  1  0.00826500  0.42327400  0.78663800  1
  C  C107  1  0.24572100  0.43131300  0.85038400  1
  C  C108  1  0.94336600  0.32024900  0.97542000  1
  C  C109  1  0.20890100  0.24338900  0.50626100  1
  C  C110  1  0.63282200  0.09374300  0.72952100  1
  C  C111  1  0.72874200  0.97774600  0.01679900  1
