# generated using pymatgen
data_CuNiC
_symmetry_space_group_name_H-M   'P 1'
_cell_length_a   3.98742672
_cell_length_b   3.98742672
_cell_length_c   7.02443637
_cell_angle_alpha   73.51134470
_cell_angle_beta   73.51134470
_cell_angle_gamma   59.99998800
_symmetry_Int_Tables_number   1
_chemical_formula_structural   CuNiC
_chemical_formula_sum   'Cu2 Ni2 C2'
_cell_volume   91.38053485
_cell_formula_units_Z   2
loop_
 _symmetry_equiv_pos_site_id
 _symmetry_equiv_pos_as_xyz
  1  'x, y, z'
loop_
 _atom_site_type_symbol
 _atom_site_label
 _atom_site_symmetry_multiplicity
 _atom_site_fract_x
 _atom_site_fract_y
 _atom_site_fract_z
 _atom_site_occupancy
  C  C0  1  0.25846100  0.25846100  0.22461700  1
  C  C1  1  0.74153900  0.74153900  0.77538300  1
  Ni  Ni2  1  0.37802600  0.37802600  0.86592200  1
  Ni  Ni3  1  0.62197400  0.62197400  0.13407800  1
  Cu  Cu4  1  0.13004400  0.13004400  0.60986800  1
  Cu  Cu5  1  0.86995600  0.86995600  0.39013200  1
