# generated using pymatgen
data_CuNi4C3
_symmetry_space_group_name_H-M   'P 1'
_cell_length_a   7.85938560
_cell_length_b   7.85938560
_cell_length_c   10.73329625
_cell_angle_alpha   62.00757053
_cell_angle_beta   62.00757053
_cell_angle_gamma   51.36514948
_symmetry_Int_Tables_number   1
_chemical_formula_structural   CuNi4C3
_chemical_formula_sum   'Cu4 Ni16 C12'
_cell_volume   442.11198283
_cell_formula_units_Z   4
loop_
 _symmetry_equiv_pos_site_id
 _symmetry_equiv_pos_as_xyz
  1  'x, y, z'
loop_
 _atom_site_type_symbol
 _atom_site_label
 _atom_site_symmetry_multiplicity
 _atom_site_fract_x
 _atom_site_fract_y
 _atom_site_fract_z
 _atom_site_occupancy
  C  C0  1  0.25783400  0.05948100  0.65295100  1
  C  C1  1  0.05948100  0.25783400  0.15295100  1
  C  C2  1  0.20864100  0.68622900  0.48558700  1
  C  C3  1  0.68622900  0.20864100  0.98558700  1
  C  C4  1  0.79135900  0.31377100  0.51441300  1
  C  C5  1  0.74216600  0.94051900  0.34704900  1
  C  C6  1  0.31377100  0.79135900  0.01441300  1
  C  C7  1  0.94051900  0.74216600  0.84704900  1
  C  C8  1  0.23493800  0.41263300  0.30546200  1
  C  C9  1  0.41263300  0.23493800  0.80546200  1
  C  C10  1  0.58736700  0.76506200  0.19453800  1
  C  C11  1  0.76506200  0.58736700  0.69453800  1
  Ni  Ni12  1  0.38948200  0.22858400  0.41177900  1
  Ni  Ni13  1  0.77141600  0.61051800  0.08822100  1
  Ni  Ni14  1  0.35033200  0.07370100  0.81815200  1
  Ni  Ni15  1  0.07370100  0.35033200  0.31815200  1
  Ni  Ni16  1  0.22858400  0.38948200  0.91177900  1
  Ni  Ni17  1  0.62160500  0.55717800  0.85497100  1
  Ni  Ni18  1  0.64966800  0.92629900  0.18184800  1
  Ni  Ni19  1  0.37839500  0.44282200  0.14502900  1
  Ni  Ni20  1  0.63900000  0.09588700  0.84819100  1
  Ni  Ni21  1  0.90411300  0.36100000  0.65180900  1
  Ni  Ni22  1  0.55717800  0.62160500  0.35497100  1
  Ni  Ni23  1  0.61051800  0.77141600  0.58822100  1
  Ni  Ni24  1  0.09588700  0.63900000  0.34819100  1
  Ni  Ni25  1  0.36100000  0.90411300  0.15180900  1
  Ni  Ni26  1  0.92629900  0.64966800  0.68184800  1
  Ni  Ni27  1  0.44282200  0.37839500  0.64502900  1
  Cu  Cu28  1  0.92919600  0.09838600  0.10890300  1
  Cu  Cu29  1  0.07080400  0.90161400  0.89109700  1
  Cu  Cu30  1  0.09838600  0.92919600  0.60890300  1
  Cu  Cu31  1  0.90161400  0.07080400  0.39109700  1
