# generated using pymatgen
data_Cu2NiC7
_symmetry_space_group_name_H-M   'P 1'
_cell_length_a   8.44241879
_cell_length_b   8.44241879
_cell_length_c   12.33334500
_cell_angle_alpha   90.00000000
_cell_angle_beta   90.00000000
_cell_angle_gamma   106.08040987
_symmetry_Int_Tables_number   1
_chemical_formula_structural   Cu2NiC7
_chemical_formula_sum   'Cu12 Ni6 C42'
_cell_volume   844.65832647
_cell_formula_units_Z   6
loop_
 _symmetry_equiv_pos_site_id
 _symmetry_equiv_pos_as_xyz
  1  'x, y, z'
loop_
 _atom_site_type_symbol
 _atom_site_label
 _atom_site_symmetry_multiplicity
 _atom_site_fract_x
 _atom_site_fract_y
 _atom_site_fract_z
 _atom_site_occupancy
  C  C0  1  0.00003600  0.00003600  0.00000000  1
  C  C1  1  0.50003600  0.50003600  0.50000000  1
  Ni  Ni2  1  0.27732000  0.82096400  0.72097100  1
  Ni  Ni3  1  0.88011300  0.88011200  0.50000000  1
  Ni  Ni4  1  0.32096400  0.77732000  0.22097000  1
  Ni  Ni5  1  0.38011300  0.38011300  0.00000000  1
  Ni  Ni6  1  0.77732000  0.32096400  0.77903000  1
  Ni  Ni7  1  0.82096400  0.27732000  0.27903000  1
  Cu  Cu8  1  0.22489300  0.37912800  0.21948500  1
  Cu  Cu9  1  0.75304600  0.37932700  0.04234500  1
  Cu  Cu10  1  0.37912800  0.22489300  0.78051500  1
  Cu  Cu11  1  0.90387600  0.63773100  0.19509800  1
  Cu  Cu12  1  0.72489300  0.87912800  0.28051500  1
  Cu  Cu13  1  0.63773100  0.90387600  0.80490200  1
  Cu  Cu14  1  0.37932700  0.75304600  0.95765500  1
  Cu  Cu15  1  0.40387600  0.13773100  0.30490200  1
  Cu  Cu16  1  0.13773100  0.40387600  0.69509800  1
  Cu  Cu17  1  0.87932700  0.25304600  0.54234500  1
  Cu  Cu18  1  0.87912800  0.72489300  0.71948500  1
  Cu  Cu19  1  0.25304600  0.87932700  0.45765500  1
  C  C20  1  0.34599200  0.05182800  0.74082000  1
  C  C21  1  0.78226800  0.81449400  0.80383600  1
  C  C22  1  0.21747700  0.58546300  0.70006700  1
  C  C23  1  0.31449400  0.28226800  0.30383600  1
  C  C24  1  0.05182800  0.34599200  0.25918000  1
  C  C25  1  0.30292900  0.84795100  0.57051700  1
  C  C26  1  0.28226800  0.31449400  0.69616400  1
  C  C27  1  0.82069000  0.50665500  0.27546900  1
  C  C28  1  0.84795100  0.30292900  0.42948300  1
  C  C29  1  0.71747700  0.08546300  0.79993300  1
  C  C30  1  0.82907700  0.05654600  0.27797100  1
  C  C31  1  0.76480500  0.29349500  0.62590300  1
  C  C32  1  0.80292900  0.34795100  0.92948300  1
  C  C33  1  0.55182800  0.84599200  0.24082000  1
  C  C34  1  0.06808600  0.36191800  0.57323000  1
  C  C35  1  0.79349500  0.26480500  0.12590300  1
  C  C36  1  0.88301300  0.07250600  0.55093800  1
  C  C37  1  0.00665500  0.32069000  0.77546900  1
  C  C38  1  0.05654600  0.82907700  0.72202900  1
  C  C39  1  0.32907700  0.55654600  0.22202900  1
  C  C40  1  0.55654600  0.32907700  0.77797100  1
  C  C41  1  0.81449400  0.78226800  0.19616400  1
  C  C42  1  0.86191800  0.56808600  0.07323000  1
  C  C43  1  0.57250600  0.38301300  0.05093800  1
  C  C44  1  0.29349500  0.76480500  0.37409700  1
  C  C45  1  0.23581800  0.30475500  0.10527100  1
  C  C46  1  0.73581800  0.80475500  0.39472900  1
  C  C47  1  0.38301300  0.57250600  0.94906200  1
  C  C48  1  0.80475500  0.73581800  0.60527100  1
  C  C49  1  0.50665500  0.82069000  0.72453100  1
  C  C50  1  0.08546300  0.71747700  0.20006700  1
  C  C51  1  0.56808600  0.86191800  0.92677000  1
  C  C52  1  0.07250600  0.88301300  0.44906200  1
  C  C53  1  0.26480500  0.79349500  0.87409700  1
  C  C54  1  0.34795100  0.80292900  0.07051700  1
  C  C55  1  0.84599200  0.55182800  0.75918000  1
  C  C56  1  0.30475500  0.23581800  0.89472900  1
  C  C57  1  0.58546300  0.21747700  0.29993300  1
  C  C58  1  0.36191800  0.06808600  0.42677000  1
  C  C59  1  0.32069000  0.00665500  0.22453100  1
