# generated using pymatgen
data_CuNiC8
_symmetry_space_group_name_H-M   'P 1'
_cell_length_a   3.84281200
_cell_length_b   11.38224500
_cell_length_c   12.46611366
_cell_angle_alpha   63.25559628
_cell_angle_beta   90.00000000
_cell_angle_gamma   90.00000000
_symmetry_Int_Tables_number   1
_chemical_formula_structural   CuNiC8
_chemical_formula_sum   'Cu2 Ni2 C16'
_cell_volume   486.93472506
_cell_formula_units_Z   2
loop_
 _symmetry_equiv_pos_site_id
 _symmetry_equiv_pos_as_xyz
  1  'x, y, z'
loop_
 _atom_site_type_symbol
 _atom_site_label
 _atom_site_symmetry_multiplicity
 _atom_site_fract_x
 _atom_site_fract_y
 _atom_site_fract_z
 _atom_site_occupancy
  C  C0  1  0.25000000  0.25773900  0.77629400  1
  C  C1  1  0.75000000  0.74226100  0.22370600  1
  C  C2  1  0.75000000  0.94889400  0.64314200  1
  C  C3  1  0.25000000  0.05110600  0.35685800  1
  Ni  Ni4  1  0.25000000  0.83156200  0.90632200  1
  Ni  Ni5  1  0.75000000  0.16843800  0.09367800  1
  Cu  Cu6  1  0.75000000  0.58990500  0.61241700  1
  Cu  Cu7  1  0.25000000  0.41009500  0.38758300  1
  C  C8  1  0.75000000  0.96187700  0.26447300  1
  C  C9  1  0.25000000  0.84463100  0.56765600  1
  C  C10  1  0.75000000  0.35879200  0.60330700  1
  C  C11  1  0.25000000  0.26164600  0.13150100  1
  C  C12  1  0.75000000  0.73835400  0.86849900  1
  C  C13  1  0.25000000  0.03812300  0.73552700  1
  C  C14  1  0.25000000  0.64120800  0.39669300  1
  C  C15  1  0.75000000  0.14293800  0.92294700  1
  C  C16  1  0.25000000  0.85706200  0.07705300  1
  C  C17  1  0.75000000  0.15536900  0.43234400  1
  C  C18  1  0.25000000  0.48660600  0.77859000  1
  C  C19  1  0.75000000  0.51339400  0.22141000  1
