# generated using pymatgen
data_CuNi2C13
_symmetry_space_group_name_H-M   'P 1'
_cell_length_a   7.60428300
_cell_length_b   7.10452200
_cell_length_c   12.52555586
_cell_angle_alpha   56.17302723
_cell_angle_beta   90.00000000
_cell_angle_gamma   90.00000000
_symmetry_Int_Tables_number   1
_chemical_formula_structural   CuNi2C13
_chemical_formula_sum   'Cu2 Ni4 C26'
_cell_volume   562.14210148
_cell_formula_units_Z   2
loop_
 _symmetry_equiv_pos_site_id
 _symmetry_equiv_pos_as_xyz
  1  'x, y, z'
loop_
 _atom_site_type_symbol
 _atom_site_label
 _atom_site_symmetry_multiplicity
 _atom_site_fract_x
 _atom_site_fract_y
 _atom_site_fract_z
 _atom_site_occupancy
  Ni  Ni0  1  0.42263400  0.22232400  0.25213100  1
  Ni  Ni1  1  0.57736600  0.77767600  0.74786900  1
  Ni  Ni2  1  0.92263400  0.77767600  0.24786900  1
  Ni  Ni3  1  0.07736600  0.22232400  0.75213100  1
  Cu  Cu4  1  0.00000000  0.00000000  0.50000000  1
  Cu  Cu5  1  0.50000000  0.00000000  0.00000000  1
  C  C6  1  0.00000000  0.50000000  0.00000000  1
  C  C7  1  0.50000000  0.50000000  0.50000000  1
  C  C8  1  0.02734800  0.41408600  0.17019900  1
  C  C9  1  0.62945400  0.75458000  0.46266900  1
  C  C10  1  0.70723600  0.32780900  0.54705800  1
  C  C11  1  0.29276400  0.67219100  0.45294200  1
  C  C12  1  0.79276400  0.32780900  0.04705800  1
  C  C13  1  0.87054600  0.75458000  0.96266900  1
  C  C14  1  0.52734800  0.58591400  0.32980100  1
  C  C15  1  0.97265200  0.58591400  0.82980100  1
  C  C16  1  0.20723600  0.67219100  0.95294200  1
  C  C17  1  0.12945400  0.24542000  0.03733100  1
  C  C18  1  0.37054600  0.24542000  0.53733100  1
  C  C19  1  0.47265200  0.41408600  0.67019900  1
  C  C20  1  0.95294300  0.64177600  0.72285400  1
  C  C21  1  0.54705700  0.64177600  0.22285400  1
  C  C22  1  0.79039900  0.91607900  0.93724600  1
  C  C23  1  0.04705700  0.35822400  0.27714600  1
  C  C24  1  0.70960100  0.91607900  0.43724600  1
  C  C25  1  0.66485800  0.21642000  0.07732500  1
  C  C26  1  0.29039900  0.08392100  0.56275400  1
  C  C27  1  0.20960100  0.08392100  0.06275400  1
  C  C28  1  0.33514200  0.78358000  0.92267500  1
  C  C29  1  0.45294300  0.35822400  0.77714600  1
  C  C30  1  0.83514200  0.21642000  0.57732500  1
  C  C31  1  0.16485800  0.78358000  0.42267500  1
