# generated using pymatgen
data_CuNi3
_symmetry_space_group_name_H-M   'P 1'
_cell_length_a   6.55376200
_cell_length_b   6.55376200
_cell_length_c   6.83667000
_cell_angle_alpha   90.00000000
_cell_angle_beta   90.00000000
_cell_angle_gamma   90.00000000
_symmetry_Int_Tables_number   1
_chemical_formula_structural   CuNi3
_chemical_formula_sum   'Cu4 Ni12'
_cell_volume   293.64725757
_cell_formula_units_Z   4
loop_
 _symmetry_equiv_pos_site_id
 _symmetry_equiv_pos_as_xyz
  1  'x, y, z'
loop_
 _atom_site_type_symbol
 _atom_site_label
 _atom_site_symmetry_multiplicity
 _atom_site_fract_x
 _atom_site_fract_y
 _atom_site_fract_z
 _atom_site_occupancy
  Ni  Ni0  1  0.65461500  0.34538500  0.73511100  1
  Ni  Ni1  1  0.65461500  0.34538500  0.26488900  1
  Ni  Ni2  1  0.84538500  0.84538500  0.76488900  1
  Ni  Ni3  1  0.15461500  0.15461500  0.76488900  1
  Ni  Ni4  1  0.00000000  0.50000000  0.00000000  1
  Ni  Ni5  1  0.50000000  0.00000000  0.50000000  1
  Ni  Ni6  1  0.84538500  0.84538500  0.23511100  1
  Ni  Ni7  1  0.34538500  0.65461500  0.73511100  1
  Ni  Ni8  1  0.15461500  0.15461500  0.23511100  1
  Ni  Ni9  1  0.50000000  0.00000000  0.00000000  1
  Ni  Ni10  1  0.34538500  0.65461500  0.26488900  1
  Ni  Ni11  1  0.00000000  0.50000000  0.50000000  1
  Cu  Cu12  1  0.83969000  0.16031000  0.00000000  1
  Cu  Cu13  1  0.66031000  0.66031000  0.50000000  1
  Cu  Cu14  1  0.16031000  0.83969000  0.00000000  1
  Cu  Cu15  1  0.33969000  0.33969000  0.50000000  1
