# generated using pymatgen
data_Cu3Ni9C
_symmetry_space_group_name_H-M   'P 1'
_cell_length_a   10.04334236
_cell_length_b   10.04334236
_cell_length_c   10.04334302
_cell_angle_alpha   42.46378416
_cell_angle_beta   42.46378416
_cell_angle_gamma   42.46378647
_symmetry_Int_Tables_number   1
_chemical_formula_structural   Cu3Ni9C
_chemical_formula_sum   'Cu6 Ni18 C2'
_cell_volume   418.07055474
_cell_formula_units_Z   2
loop_
 _symmetry_equiv_pos_site_id
 _symmetry_equiv_pos_as_xyz
  1  'x, y, z'
loop_
 _atom_site_type_symbol
 _atom_site_label
 _atom_site_symmetry_multiplicity
 _atom_site_fract_x
 _atom_site_fract_y
 _atom_site_fract_z
 _atom_site_occupancy
  C  C0  1  0.16691600  0.16691600  0.16691600  1
  C  C1  1  0.83308400  0.83308400  0.83308400  1
  Ni  Ni2  1  0.10266600  0.43292900  0.76311900  1
  Ni  Ni3  1  0.43292900  0.76311900  0.10266600  1
  Ni  Ni4  1  0.56707100  0.89733400  0.23688100  1
  Ni  Ni5  1  0.94810000  0.94810000  0.94810000  1
  Ni  Ni6  1  0.05190000  0.05190000  0.05190000  1
  Ni  Ni7  1  0.29080500  0.70919500  0.50000000  1
  Ni  Ni8  1  0.89733400  0.23688100  0.56707100  1
  Ni  Ni9  1  0.38694600  0.38694600  0.38694600  1
  Ni  Ni10  1  0.50000000  0.29080500  0.70919500  1
  Ni  Ni11  1  0.23688100  0.56707100  0.89733400  1
  Ni  Ni12  1  0.71803300  0.71803300  0.71803300  1
  Ni  Ni13  1  0.61305400  0.61305400  0.61305400  1
  Ni  Ni14  1  0.33388400  0.00000000  0.66611600  1
  Ni  Ni15  1  0.70919500  0.50000000  0.29080500  1
  Ni  Ni16  1  0.66611600  0.33388400  0.00000000  1
  Ni  Ni17  1  0.28196700  0.28196700  0.28196700  1
  Ni  Ni18  1  0.00000000  0.66611600  0.33388400  1
  Ni  Ni19  1  0.76311900  0.10266600  0.43292900  1
  Cu  Cu20  1  0.41840500  0.07847700  0.75845800  1
  Cu  Cu21  1  0.58159500  0.24154200  0.92152300  1
  Cu  Cu22  1  0.07847700  0.75845800  0.41840500  1
  Cu  Cu23  1  0.75845800  0.41840500  0.07847700  1
  Cu  Cu24  1  0.92152300  0.58159500  0.24154200  1
  Cu  Cu25  1  0.24154200  0.92152300  0.58159500  1
