# generated using pymatgen
data_CuNiC9
_symmetry_space_group_name_H-M   'P 1'
_cell_length_a   7.38260504
_cell_length_b   7.38260504
_cell_length_c   7.38260504
_cell_angle_alpha   120.90011728
_cell_angle_beta   118.67031175
_cell_angle_gamma   90.38320039
_symmetry_Int_Tables_number   1
_chemical_formula_structural   CuNiC9
_chemical_formula_sum   'Cu2 Ni2 C18'
_cell_volume   285.30349897
_cell_formula_units_Z   2
loop_
 _symmetry_equiv_pos_site_id
 _symmetry_equiv_pos_as_xyz
  1  'x, y, z'
loop_
 _atom_site_type_symbol
 _atom_site_label
 _atom_site_symmetry_multiplicity
 _atom_site_fract_x
 _atom_site_fract_y
 _atom_site_fract_z
 _atom_site_occupancy
  C  C0  1  0.50000000  0.50000000  0.00000000  1
  C  C1  1  0.00000000  0.00000000  0.00000000  1
  C  C2  1  0.50000000  0.50000000  0.50000000  1
  C  C3  1  0.50000000  0.00000000  0.00000000  1
  Ni  Ni4  1  0.00000000  0.50000000  0.50000000  1
  Ni  Ni5  1  0.50000000  0.00000000  0.50000000  1
  Cu  Cu6  1  0.00000000  0.50000000  0.00000000  1
  Cu  Cu7  1  0.00000000  0.00000000  0.50000000  1
  C  C8  1  0.36143600  0.09064200  0.27079400  1
  C  C9  1  0.89416100  0.75000000  0.14416100  1
  C  C10  1  0.32092200  0.08299500  0.63574400  1
  C  C11  1  0.67907800  0.91700500  0.36425600  1
  C  C12  1  0.05274900  0.41700500  0.23792700  1
  C  C13  1  0.94725100  0.58299500  0.76207300  1
  C  C14  1  0.68015200  0.40935800  0.27079400  1
  C  C15  1  0.63856400  0.90935800  0.72920600  1
  C  C16  1  0.10583900  0.25000000  0.85583900  1
  C  C17  1  0.05274900  0.81482200  0.63574400  1
  C  C18  1  0.94725100  0.18517800  0.36425600  1
  C  C19  1  0.32092200  0.68517800  0.23792700  1
  C  C20  1  0.31984800  0.59064200  0.72920600  1
  C  C21  1  0.67907800  0.31482200  0.76207300  1
