# generated using pymatgen
data_CuNiC4
_symmetry_space_group_name_H-M   'P 1'
_cell_length_a   7.18494500
_cell_length_b   7.40724900
_cell_length_c   9.05496700
_cell_angle_alpha   90.00000000
_cell_angle_beta   90.00000000
_cell_angle_gamma   90.00000000
_symmetry_Int_Tables_number   1
_chemical_formula_structural   CuNiC4
_chemical_formula_sum   'Cu4 Ni4 C16'
_cell_volume   481.91147093
_cell_formula_units_Z   4
loop_
 _symmetry_equiv_pos_site_id
 _symmetry_equiv_pos_as_xyz
  1  'x, y, z'
loop_
 _atom_site_type_symbol
 _atom_site_label
 _atom_site_symmetry_multiplicity
 _atom_site_fract_x
 _atom_site_fract_y
 _atom_site_fract_z
 _atom_site_occupancy
  C  C0  1  0.25000000  0.10973600  0.53915300  1
  C  C1  1  0.75000000  0.39026400  0.03915300  1
  C  C2  1  0.75000000  0.89026400  0.46084700  1
  C  C3  1  0.25000000  0.60973600  0.96084700  1
  Ni  Ni4  1  0.75000000  0.78816700  0.86872900  1
  Ni  Ni5  1  0.25000000  0.71183300  0.36872900  1
  Ni  Ni6  1  0.75000000  0.28816700  0.63127100  1
  Ni  Ni7  1  0.25000000  0.21183300  0.13127100  1
  Cu  Cu8  1  0.75000000  0.55079500  0.32015600  1
  Cu  Cu9  1  0.25000000  0.94920500  0.82015600  1
  Cu  Cu10  1  0.25000000  0.44920500  0.67984400  1
  Cu  Cu11  1  0.75000000  0.05079500  0.17984400  1
  C  C12  1  0.42510500  0.85694300  0.43277500  1
  C  C13  1  0.57489500  0.14305700  0.56722500  1
  C  C14  1  0.25000000  0.75294400  0.18391600  1
  C  C15  1  0.75000000  0.24705600  0.81608400  1
  C  C16  1  0.57489500  0.64305700  0.93277500  1
  C  C17  1  0.92510500  0.14305700  0.56722500  1
  C  C18  1  0.07489500  0.35694300  0.06722500  1
  C  C19  1  0.75000000  0.74705600  0.68391600  1
  C  C20  1  0.92510500  0.64305700  0.93277500  1
  C  C21  1  0.07489500  0.85694300  0.43277500  1
  C  C22  1  0.42510500  0.35694300  0.06722500  1
  C  C23  1  0.25000000  0.25294400  0.31608400  1
