# generated using pymatgen
data_Cu2NiC4
_symmetry_space_group_name_H-M   'P 1'
_cell_length_a   12.51248332
_cell_length_b   12.51248332
_cell_length_c   12.51248332
_cell_angle_alpha   110.09673042
_cell_angle_beta   110.09673042
_cell_angle_gamma   108.22731628
_symmetry_Int_Tables_number   1
_chemical_formula_structural   Cu2NiC4
_chemical_formula_sum   'Cu16 Ni8 C32'
_cell_volume   1507.49367833
_cell_formula_units_Z   8
loop_
 _symmetry_equiv_pos_site_id
 _symmetry_equiv_pos_as_xyz
  1  'x, y, z'
loop_
 _atom_site_type_symbol
 _atom_site_label
 _atom_site_symmetry_multiplicity
 _atom_site_fract_x
 _atom_site_fract_y
 _atom_site_fract_z
 _atom_site_occupancy
  Ni  Ni0  1  0.12083000  0.32077700  0.75199100  1
  Ni  Ni1  1  0.63116100  0.87917000  0.19994700  1
  Ni  Ni2  1  0.18121400  0.92922300  0.30005300  1
  Ni  Ni3  1  0.62917000  0.88116100  0.69994700  1
  Ni  Ni4  1  0.67922300  0.43121400  0.80005300  1
  Ni  Ni5  1  0.56878600  0.36883900  0.24800900  1
  Ni  Ni6  1  0.07077700  0.37083000  0.25199100  1
  Ni  Ni7  1  0.11883900  0.81878600  0.74800900  1
  Cu  Cu8  1  0.14393700  0.14393700  0.00000000  1
  Cu  Cu9  1  0.37500000  0.64530900  0.77030900  1
  Cu  Cu10  1  0.37500000  0.96017900  0.08517900  1
  Cu  Cu11  1  0.35469100  0.12500000  0.72969100  1
  Cu  Cu12  1  0.37500000  0.35469500  0.47969500  1
  Cu  Cu13  1  0.39530900  0.62500000  0.27030900  1
  Cu  Cu14  1  0.85606300  0.85606300  0.00000000  1
  Cu  Cu15  1  0.87500000  0.60469100  0.22969100  1
  Cu  Cu16  1  0.64530500  0.12500000  0.02030500  1
  Cu  Cu17  1  0.71017900  0.62500000  0.58517900  1
  Cu  Cu18  1  0.60606300  0.10606300  0.50000000  1
  Cu  Cu19  1  0.87500000  0.28982100  0.91482100  1
  Cu  Cu20  1  0.10469500  0.62500000  0.97969500  1
  Cu  Cu21  1  0.89393700  0.39393700  0.50000000  1
  Cu  Cu22  1  0.87500000  0.89530500  0.52030500  1
  Cu  Cu23  1  0.03982100  0.12500000  0.41482100  1
  C  C24  1  0.12643500  0.50331600  0.75138200  1
  C  C25  1  0.15050000  0.35148100  0.94858900  1
  C  C26  1  0.32159200  0.85486500  0.80068800  1
  C  C27  1  0.42840800  0.72909700  0.03327300  1
  C  C28  1  0.27090300  0.30417600  0.69931200  1
  C  C29  1  0.40289200  0.20191100  0.05141100  1
  C  C30  1  0.14513500  0.94582400  0.46672700  1
  C  C31  1  0.25331600  0.37643500  0.25138200  1
  C  C32  1  0.47909700  0.67840800  0.53327300  1
  C  C33  1  0.18167500  0.09542200  0.26695300  1
  C  C34  1  0.79808900  0.84950000  0.20098100  1
  C  C35  1  0.64851900  0.59710800  0.79901900  1
  C  C36  1  0.49668400  0.24806700  0.62311900  1
  C  C37  1  0.66472200  0.07846900  0.23304700  1
  C  C38  1  0.69582400  0.39513500  0.96672700  1
  C  C39  1  0.34710800  0.89851900  0.29901900  1
  C  C40  1  0.56832500  0.33527800  0.41374700  1
  C  C41  1  0.60486500  0.57159200  0.30068800  1
  C  C42  1  0.59950000  0.04808900  0.70098100  1
  C  C43  1  0.62356500  0.87494700  0.87688100  1
  C  C44  1  0.99806700  0.74668400  0.12311900  1
  C  C45  1  0.84542200  0.43167500  0.76695300  1
  C  C46  1  0.90457800  0.17153100  0.08625300  1
  C  C47  1  0.05417600  0.52090300  0.19931200  1
  C  C48  1  0.08527800  0.81832500  0.91374700  1
  C  C49  1  0.62494700  0.87356500  0.37688100  1
  C  C50  1  0.75193300  0.37505300  0.24861800  1
  C  C51  1  0.95191100  0.65289200  0.55141100  1
  C  C52  1  0.82846900  0.91472200  0.73304700  1
  C  C53  1  0.92153100  0.15457800  0.58625300  1
  C  C54  1  0.10148100  0.40050000  0.44858900  1
  C  C55  1  0.12505300  0.00193300  0.74861800  1
