# generated using pymatgen
data_CuNiC11
_symmetry_space_group_name_H-M   'P 1'
_cell_length_a   9.80597286
_cell_length_b   8.85085315
_cell_length_c   8.51312806
_cell_angle_alpha   68.73549248
_cell_angle_beta   57.26130516
_cell_angle_gamma   54.00320236
_symmetry_Int_Tables_number   1
_chemical_formula_structural   CuNiC11
_chemical_formula_sum   'Cu4 Ni4 C44'
_cell_volume   501.72714793
_cell_formula_units_Z   4
loop_
 _symmetry_equiv_pos_site_id
 _symmetry_equiv_pos_as_xyz
  1  'x, y, z'
loop_
 _atom_site_type_symbol
 _atom_site_label
 _atom_site_symmetry_multiplicity
 _atom_site_fract_x
 _atom_site_fract_y
 _atom_site_fract_z
 _atom_site_occupancy
  Ni  Ni0  1  0.73720400  0.28329400  0.96525100  1
  Ni  Ni1  1  0.01425100  0.96525100  0.28329400  1
  Ni  Ni2  1  0.96670600  0.51279600  0.23574900  1
  Ni  Ni3  1  0.28474900  0.23574900  0.51279600  1
  Cu  Cu4  1  0.50415100  0.76636500  0.49095300  1
  Cu  Cu5  1  0.75904700  0.01147000  0.74584900  1
  Cu  Cu6  1  0.48363500  0.74584900  0.01147000  1
  Cu  Cu7  1  0.23853000  0.49095300  0.76636500  1
  C  C8  1  0.22949600  0.71565300  0.94167700  1
  C  C9  1  0.53434700  0.02050400  0.13682600  1
  C  C10  1  0.30832300  0.13682600  0.02050400  1
  C  C11  1  0.78907200  0.55789700  0.63999300  1
  C  C12  1  0.01303800  0.63999300  0.55789700  1
  C  C13  1  0.11317400  0.94167700  0.71565300  1
  C  C14  1  0.23036600  0.02968100  0.36148900  1
  C  C15  1  0.70370000  0.88659000  0.54515100  1
  C  C16  1  0.86455800  0.54515100  0.88659000  1
  C  C17  1  0.37846400  0.36148900  0.02968100  1
  C  C18  1  0.22031900  0.01963400  0.87153600  1
  C  C19  1  0.70484900  0.38544200  0.54630000  1
  C  C20  1  0.88851100  0.87153600  0.01963400  1
  C  C21  1  0.36341000  0.54630000  0.38544200  1
  C  C22  1  0.69210300  0.46092800  0.23696200  1
  C  C23  1  0.61000700  0.23696200  0.46092800  1
  C  C24  1  0.14109200  0.07405100  0.75285200  1
  C  C25  1  0.67154300  0.23984200  0.58982100  1
  C  C26  1  0.73941400  0.56624900  0.83852000  1
  C  C27  1  0.49714800  0.21799500  0.10890800  1
  C  C28  1  0.39952900  0.99446200  0.33293500  1
  C  C29  1  0.83831600  0.49290100  0.06813100  1
  C  C30  1  0.91706500  0.97692600  0.85047100  1
  C  C31  1  0.41148000  0.39418300  0.51058600  1
  C  C32  1  0.26351500  0.13410500  0.88446200  1
  C  C33  1  0.01015800  0.57845700  0.75120500  1
  C  C34  1  0.25343100  0.74656900  0.74656900  1
  C  C35  1  0.27307400  0.33293500  0.99446200  1
  C  C36  1  0.50343100  0.99656900  0.99656900  1
  C  C37  1  0.66017900  0.75120500  0.57845700  1
  C  C38  1  0.03200500  0.75285200  0.07405100  1
  C  C39  1  0.49879500  0.58982100  0.23984200  1
  C  C40  1  0.73319500  0.26680500  0.26680500  1
  C  C41  1  0.18186900  0.64934900  0.41168400  1
  C  C42  1  0.60065100  0.06813100  0.49290100  1
  C  C43  1  0.71791800  0.88446200  0.13410500  1
  C  C44  1  0.11589500  0.98648500  0.53208200  1
  C  C45  1  0.98319500  0.51680500  0.51680500  1
  C  C46  1  0.25553800  0.85047100  0.97692600  1
  C  C47  1  0.36553800  0.53208200  0.98648500  1
  C  C48  1  0.17594900  0.10890800  0.21799500  1
  C  C49  1  0.68375100  0.51058600  0.39418300  1
  C  C50  1  0.75709900  0.41168400  0.64934900  1
  C  C51  1  0.85581700  0.83852000  0.56624900  1
