# generated using pymatgen
data_Cu3Ni4
_symmetry_space_group_name_H-M   'P 1'
_cell_length_a   7.07680400
_cell_length_b   10.78810100
_cell_length_c   12.12424400
_cell_angle_alpha   90.00000000
_cell_angle_beta   90.00000000
_cell_angle_gamma   90.00000000
_symmetry_Int_Tables_number   1
_chemical_formula_structural   Cu3Ni4
_chemical_formula_sum   'Cu12 Ni16'
_cell_volume   925.62875822
_cell_formula_units_Z   4
loop_
 _symmetry_equiv_pos_site_id
 _symmetry_equiv_pos_as_xyz
  1  'x, y, z'
loop_
 _atom_site_type_symbol
 _atom_site_label
 _atom_site_symmetry_multiplicity
 _atom_site_fract_x
 _atom_site_fract_y
 _atom_site_fract_z
 _atom_site_occupancy
  Ni  Ni0  1  0.83954700  0.75000000  0.67957700  1
  Ni  Ni1  1  0.66045300  0.75000000  0.17957700  1
  Ni  Ni2  1  0.16045300  0.25000000  0.32042300  1
  Ni  Ni3  1  0.33954700  0.25000000  0.82042300  1
  Ni  Ni4  1  0.10063900  0.75000000  0.42538700  1
  Ni  Ni5  1  0.39936100  0.75000000  0.92538700  1
  Ni  Ni6  1  0.89936100  0.25000000  0.57461300  1
  Ni  Ni7  1  0.60063900  0.25000000  0.07461300  1
  Ni  Ni8  1  0.27629900  0.63267000  0.57243900  1
  Ni  Ni9  1  0.22370100  0.86733000  0.07243900  1
  Ni  Ni10  1  0.72370100  0.13267000  0.42756100  1
  Ni  Ni11  1  0.77629900  0.36733000  0.92756100  1
  Ni  Ni12  1  0.72370100  0.36733000  0.42756100  1
  Ni  Ni13  1  0.77629900  0.13267000  0.92756100  1
  Ni  Ni14  1  0.27629900  0.86733000  0.57243900  1
  Ni  Ni15  1  0.22370100  0.63267000  0.07243900  1
  Cu  Cu16  1  0.04777500  0.59154500  0.69382400  1
  Cu  Cu17  1  0.45222500  0.90845500  0.19382400  1
  Cu  Cu18  1  0.95222500  0.09154500  0.30617600  1
  Cu  Cu19  1  0.54777500  0.40845500  0.80617600  1
  Cu  Cu20  1  0.95222500  0.40845500  0.30617600  1
  Cu  Cu21  1  0.54777500  0.09154500  0.80617600  1
  Cu  Cu22  1  0.04777500  0.90845500  0.69382400  1
  Cu  Cu23  1  0.45222500  0.59154500  0.19382400  1
  Cu  Cu24  1  0.80726200  0.75000000  0.49353800  1
  Cu  Cu25  1  0.69273800  0.75000000  0.99353800  1
  Cu  Cu26  1  0.19273800  0.25000000  0.50646200  1
  Cu  Cu27  1  0.30726200  0.25000000  0.00646200  1
