# generated using pymatgen
data_Cu5NiC3
_symmetry_space_group_name_H-M   'P 1'
_cell_length_a   20.56597900
_cell_length_b   13.24555900
_cell_length_c   15.75354411
_cell_angle_alpha   69.18469836
_cell_angle_beta   90.00000000
_cell_angle_gamma   90.00000000
_symmetry_Int_Tables_number   1
_chemical_formula_structural   Cu5NiC3
_chemical_formula_sum   'Cu80 Ni16 C48'
_cell_volume   4011.29414204
_cell_formula_units_Z   16
loop_
 _symmetry_equiv_pos_site_id
 _symmetry_equiv_pos_as_xyz
  1  'x, y, z'
loop_
 _atom_site_type_symbol
 _atom_site_label
 _atom_site_symmetry_multiplicity
 _atom_site_fract_x
 _atom_site_fract_y
 _atom_site_fract_z
 _atom_site_occupancy
  C  C0  1  0.24530100  0.97603600  0.55350700  1
  C  C1  1  0.74774200  0.52678500  0.95167100  1
  C  C2  1  0.75225800  0.52678500  0.45167100  1
  C  C3  1  0.22353200  0.80673900  0.73778400  1
  C  C4  1  0.24774200  0.47321500  0.54832900  1
  C  C5  1  0.51417100  0.55168900  0.71658900  1
  C  C6  1  0.72353200  0.19326100  0.76221600  1
  C  C7  1  0.25469900  0.97603600  0.05350700  1
  C  C8  1  0.49208600  0.73515000  0.54489500  1
  C  C9  1  0.75469900  0.02396400  0.44649300  1
  C  C10  1  0.99208600  0.26485000  0.95510500  1
  C  C11  1  0.50791400  0.26485000  0.45510500  1
  C  C12  1  0.50225900  0.79458900  0.96619000  1
  C  C13  1  0.79066800  0.68565900  0.77186400  1
  C  C14  1  0.98582900  0.55168900  0.21658900  1
  C  C15  1  0.99462000  0.03079800  0.71766700  1
  C  C16  1  0.49774100  0.20541100  0.03381000  1
  C  C17  1  0.27646800  0.80673900  0.23778400  1
  C  C18  1  0.49462000  0.96920200  0.78233300  1
  C  C19  1  0.74530100  0.02396400  0.94649300  1
  C  C20  1  0.00538000  0.96920200  0.28233300  1
  C  C21  1  0.29066800  0.31434100  0.72813600  1
  C  C22  1  0.70933200  0.68565900  0.27186400  1
  C  C23  1  0.77646800  0.19326100  0.26221600  1
  C  C24  1  0.00791400  0.73515000  0.04489500  1
  C  C25  1  0.00225900  0.20541100  0.53381000  1
  C  C26  1  0.50538000  0.03079800  0.21766700  1
  C  C27  1  0.01417100  0.44831100  0.78341100  1
  C  C28  1  0.20933200  0.31434100  0.22813600  1
  C  C29  1  0.25225800  0.47321500  0.04832900  1
  C  C30  1  0.48582900  0.44831100  0.28341100  1
  C  C31  1  0.99774100  0.79458900  0.46619000  1
  Ni  Ni32  1  0.50168400  0.09321400  0.10970400  1
  Ni  Ni33  1  0.75286600  0.12855600  0.85606700  1
  Ni  Ni34  1  0.24713400  0.87144400  0.14393300  1
  Ni  Ni35  1  0.51347200  0.33621300  0.35384500  1
  Ni  Ni36  1  0.24946400  0.37259500  0.64273800  1
  Ni  Ni37  1  0.75053600  0.62740500  0.35726200  1
  Ni  Ni38  1  0.00168400  0.90678600  0.39029600  1
  Ni  Ni39  1  0.25286600  0.87144400  0.64393300  1
  Ni  Ni40  1  0.74946400  0.62740500  0.85726200  1
  Ni  Ni41  1  0.01347200  0.66378700  0.14615500  1
  Ni  Ni42  1  0.49831600  0.90678600  0.89029600  1
  Ni  Ni43  1  0.98652800  0.33621300  0.85384500  1
  Ni  Ni44  1  0.99831600  0.09321400  0.60970400  1
  Ni  Ni45  1  0.74713400  0.12855600  0.35606700  1
  Ni  Ni46  1  0.48652800  0.66378700  0.64615500  1
  Ni  Ni47  1  0.25053600  0.37259500  0.14273800  1
  Cu  Cu48  1  0.89342700  0.58161000  0.24886300  1
  Cu  Cu49  1  0.27027300  0.60868100  0.57565100  1
  Cu  Cu50  1  0.93822700  0.90077500  0.22429000  1
  Cu  Cu51  1  0.98768300  0.81305100  0.58530300  1
  Cu  Cu52  1  0.65627200  0.03176800  0.00047400  1
  Cu  Cu53  1  0.92425500  0.81814000  0.01116700  1
  Cu  Cu54  1  0.36128200  0.73405100  0.23661400  1
  Cu  Cu55  1  0.48768300  0.18694900  0.91469700  1
  Cu  Cu56  1  0.76498200  0.89329100  0.40796600  1
  Cu  Cu57  1  0.84372800  0.03176800  0.50047400  1
  Cu  Cu58  1  0.29074200  0.88892600  0.32099600  1
  Cu  Cu59  1  0.70925800  0.11107400  0.67900400  1
  Cu  Cu60  1  0.07616600  0.29965400  0.54191200  1
  Cu  Cu61  1  0.73501800  0.89329100  0.90796600  1
  Cu  Cu62  1  0.42266400  0.84678700  0.51328800  1
  Cu  Cu63  1  0.57574500  0.81814000  0.51116700  1
  Cu  Cu64  1  0.53468100  0.46289000  0.16755800  1
  Cu  Cu65  1  0.22972700  0.60868100  0.07565100  1
  Cu  Cu66  1  0.42425500  0.18186000  0.48883300  1
  Cu  Cu67  1  0.74143500  0.81120600  0.68872600  1
  Cu  Cu68  1  0.39342700  0.41839000  0.25113700  1
  Cu  Cu69  1  0.79074200  0.11107400  0.17900400  1
  Cu  Cu70  1  0.57733600  0.15321300  0.48671200  1
  Cu  Cu71  1  0.15627200  0.96823200  0.49952600  1
  Cu  Cu72  1  0.82619300  0.54072100  0.02563100  1
  Cu  Cu73  1  0.75856500  0.81120600  0.18872600  1
  Cu  Cu74  1  0.28399600  0.68810900  0.80512900  1
  Cu  Cu75  1  0.43822700  0.09922500  0.27571000  1
  Cu  Cu76  1  0.26498200  0.10670900  0.09203400  1
  Cu  Cu77  1  0.87539000  0.74675200  0.79254100  1
  Cu  Cu78  1  0.07733600  0.84678700  0.01328800  1
  Cu  Cu79  1  0.01649000  0.65996500  0.95562900  1
  Cu  Cu80  1  0.92266400  0.15321300  0.98671200  1
  Cu  Cu81  1  0.72972700  0.39131900  0.42434900  1
  Cu  Cu82  1  0.60657300  0.58161000  0.74886300  1
  Cu  Cu83  1  0.86128200  0.26594900  0.26338600  1
  Cu  Cu84  1  0.51231700  0.81305100  0.08530300  1
  Cu  Cu85  1  0.24143500  0.18879400  0.81127400  1
  Cu  Cu86  1  0.32619300  0.45927900  0.47436900  1
  Cu  Cu87  1  0.07574500  0.18186000  0.98883300  1
  Cu  Cu88  1  0.48351000  0.65996500  0.45562900  1
  Cu  Cu89  1  0.59060400  0.07504200  0.26079000  1
  Cu  Cu90  1  0.57675000  0.29902100  0.01932700  1
  Cu  Cu91  1  0.06177300  0.09922500  0.77571000  1
  Cu  Cu92  1  0.09060400  0.92495800  0.23921000  1
  Cu  Cu93  1  0.42325000  0.70097900  0.98067300  1
  Cu  Cu94  1  0.37539000  0.25324800  0.70745900  1
  Cu  Cu95  1  0.71600400  0.31189100  0.19487100  1
  Cu  Cu96  1  0.68704100  0.59815400  0.19519300  1
  Cu  Cu97  1  0.46531900  0.53711000  0.83244200  1
  Cu  Cu98  1  0.98351000  0.34003500  0.04437100  1
  Cu  Cu99  1  0.34372800  0.96823200  0.99952600  1
  Cu  Cu100  1  0.01231700  0.18694900  0.41469700  1
  Cu  Cu101  1  0.17380700  0.45927900  0.97436900  1
  Cu  Cu102  1  0.62461000  0.74675200  0.29254100  1
  Cu  Cu103  1  0.03468100  0.53711000  0.33244200  1
  Cu  Cu104  1  0.31295900  0.40184600  0.80480700  1
  Cu  Cu105  1  0.96531900  0.46289000  0.66755800  1
  Cu  Cu106  1  0.67380700  0.54072100  0.52563100  1
  Cu  Cu107  1  0.63871800  0.26594900  0.76338600  1
  Cu  Cu108  1  0.25856500  0.18879400  0.31127400  1
  Cu  Cu109  1  0.77027300  0.39131900  0.92434900  1
  Cu  Cu110  1  0.13871800  0.73405100  0.73661400  1
  Cu  Cu111  1  0.56177300  0.90077500  0.72429000  1
  Cu  Cu112  1  0.51649000  0.34003500  0.54437100  1
  Cu  Cu113  1  0.12461000  0.25324800  0.20745900  1
  Cu  Cu114  1  0.42383400  0.29965400  0.04191200  1
  Cu  Cu115  1  0.18704100  0.40184600  0.30480700  1
  Cu  Cu116  1  0.10657300  0.41839000  0.75113700  1
  Cu  Cu117  1  0.92325000  0.29902100  0.51932700  1
  Cu  Cu118  1  0.90939600  0.07504200  0.76079000  1
  Cu  Cu119  1  0.81295900  0.59815400  0.69519300  1
  Cu  Cu120  1  0.07675000  0.70097900  0.48067300  1
  Cu  Cu121  1  0.23501800  0.10670900  0.59203400  1
  Cu  Cu122  1  0.21600400  0.68810900  0.30512900  1
  Cu  Cu123  1  0.92383400  0.70034600  0.45808800  1
  Cu  Cu124  1  0.57616600  0.70034600  0.95808800  1
  Cu  Cu125  1  0.20925800  0.88892600  0.82099600  1
  Cu  Cu126  1  0.78399600  0.31189100  0.69487100  1
  Cu  Cu127  1  0.40939600  0.92495800  0.73921000  1
  C  C128  1  0.20251200  0.99328300  0.98523700  1
  C  C129  1  0.79748800  0.00671700  0.01476300  1
  C  C130  1  0.49865300  0.91225700  0.24925700  1
  C  C131  1  0.81315200  0.51283100  0.50433000  1
  C  C132  1  0.00134700  0.91225700  0.74925700  1
  C  C133  1  0.68684800  0.51283100  0.00433000  1
  C  C134  1  0.98868100  0.45220900  0.19468300  1
  C  C135  1  0.70251200  0.00671700  0.51476300  1
  C  C136  1  0.99865300  0.08774300  0.25074300  1
  C  C137  1  0.31315200  0.48716900  0.99567000  1
  C  C138  1  0.50134700  0.08774300  0.75074300  1
  C  C139  1  0.29748800  0.99328300  0.48523700  1
  C  C140  1  0.51131900  0.45220900  0.69468300  1
  C  C141  1  0.48868100  0.54779100  0.30531700  1
  C  C142  1  0.01131900  0.54779100  0.80531700  1
  C  C143  1  0.18684800  0.48716900  0.49567000  1
