# generated using pymatgen
data_Cu(NiC3)2
_symmetry_space_group_name_H-M   'P 1'
_cell_length_a   5.13878200
_cell_length_b   5.87441300
_cell_length_c   14.59484800
_cell_angle_alpha   90.00000000
_cell_angle_beta   90.00000000
_cell_angle_gamma   90.00000000
_symmetry_Int_Tables_number   1
_chemical_formula_structural   Cu(NiC3)2
_chemical_formula_sum   'Cu4 Ni8 C24'
_cell_volume   440.57946055
_cell_formula_units_Z   4
loop_
 _symmetry_equiv_pos_site_id
 _symmetry_equiv_pos_as_xyz
  1  'x, y, z'
loop_
 _atom_site_type_symbol
 _atom_site_label
 _atom_site_symmetry_multiplicity
 _atom_site_fract_x
 _atom_site_fract_y
 _atom_site_fract_z
 _atom_site_occupancy
  Ni  Ni0  1  0.23925100  0.67511400  0.16274800  1
  Ni  Ni1  1  0.73925100  0.82488600  0.33725200  1
  Ni  Ni2  1  0.26074900  0.67511400  0.83725200  1
  Ni  Ni3  1  0.76074900  0.82488600  0.66274800  1
  Ni  Ni4  1  0.76074900  0.32488600  0.83725200  1
  Ni  Ni5  1  0.26074900  0.17511400  0.66274800  1
  Ni  Ni6  1  0.73925100  0.32488600  0.16274800  1
  Ni  Ni7  1  0.23925100  0.17511400  0.33725200  1
  Cu  Cu8  1  0.75000000  0.82906200  0.00000000  1
  Cu  Cu9  1  0.25000000  0.67093800  0.50000000  1
  Cu  Cu10  1  0.25000000  0.17093800  0.00000000  1
  Cu  Cu11  1  0.75000000  0.32906200  0.50000000  1
  C  C12  1  0.56339900  0.59890400  0.10025900  1
  C  C13  1  0.06339900  0.90109600  0.39974100  1
  C  C14  1  0.93660100  0.59890400  0.89974100  1
  C  C15  1  0.43660100  0.90109600  0.60025900  1
  C  C16  1  0.43660100  0.40109600  0.89974100  1
  C  C17  1  0.93660100  0.09890400  0.60025900  1
  C  C18  1  0.06339900  0.40109600  0.10025900  1
  C  C19  1  0.56339900  0.09890400  0.39974100  1
  C  C20  1  0.09919100  0.87963000  0.08207600  1
  C  C21  1  0.59919100  0.62037000  0.41792400  1
  C  C22  1  0.40080900  0.87963000  0.91792400  1
  C  C23  1  0.90080900  0.62037000  0.58207600  1
  C  C24  1  0.90080900  0.12037000  0.91792400  1
  C  C25  1  0.40080900  0.37963000  0.58207600  1
  C  C26  1  0.59919100  0.12037000  0.08207600  1
  C  C27  1  0.09919100  0.37963000  0.41792400  1
  C  C28  1  0.41474000  0.87037400  0.25533200  1
  C  C29  1  0.91474000  0.62962600  0.24466800  1
  C  C30  1  0.08526000  0.87037400  0.74466800  1
  C  C31  1  0.58526000  0.62962600  0.75533200  1
  C  C32  1  0.58526000  0.12962600  0.74466800  1
  C  C33  1  0.08526000  0.37037400  0.75533200  1
  C  C34  1  0.91474000  0.12962600  0.25533200  1
  C  C35  1  0.41474000  0.37037400  0.24466800  1
