# generated using pymatgen
data_CuNiC5
_symmetry_space_group_name_H-M   'P 1'
_cell_length_a   6.63951000
_cell_length_b   6.88483900
_cell_length_c   9.54909169
_cell_angle_alpha   74.93489543
_cell_angle_beta   90.00000000
_cell_angle_gamma   90.00000000
_symmetry_Int_Tables_number   1
_chemical_formula_structural   CuNiC5
_chemical_formula_sum   'Cu4 Ni4 C20'
_cell_volume   421.50538789
_cell_formula_units_Z   4
loop_
 _symmetry_equiv_pos_site_id
 _symmetry_equiv_pos_as_xyz
  1  'x, y, z'
loop_
 _atom_site_type_symbol
 _atom_site_label
 _atom_site_symmetry_multiplicity
 _atom_site_fract_x
 _atom_site_fract_y
 _atom_site_fract_z
 _atom_site_occupancy
  C  C0  1  0.09538700  0.82678000  0.23651300  1
  C  C1  1  0.59538700  0.67322000  0.76348700  1
  C  C2  1  0.90461300  0.17322000  0.76348700  1
  C  C3  1  0.40461300  0.32678000  0.23651300  1
  Ni  Ni4  1  0.05932600  0.70849100  0.64365100  1
  Ni  Ni5  1  0.55932600  0.79150900  0.35634900  1
  Ni  Ni6  1  0.44067400  0.20849100  0.64365100  1
  Ni  Ni7  1  0.94067400  0.29150900  0.35634900  1
  Cu  Cu8  1  0.13954000  0.18912300  0.03023200  1
  Cu  Cu9  1  0.36046000  0.68912300  0.03023200  1
  Cu  Cu10  1  0.63954000  0.31087700  0.96976800  1
  Cu  Cu11  1  0.86046000  0.81087700  0.96976800  1
  C  C12  1  0.42790300  0.96792300  0.27873600  1
  C  C13  1  0.07209700  0.46792300  0.27873600  1
  C  C14  1  0.94214200  0.88738300  0.65581800  1
  C  C15  1  0.24611300  0.19530800  0.71882900  1
  C  C16  1  0.41241000  0.20415900  0.49250700  1
  C  C17  1  0.05785800  0.11261700  0.34418200  1
  C  C18  1  0.44214200  0.61261700  0.34418200  1
  C  C19  1  0.25388700  0.69530800  0.71882900  1
  C  C20  1  0.91241000  0.29584100  0.50749300  1
  C  C21  1  0.58759000  0.79584100  0.50749300  1
  C  C22  1  0.55785800  0.38738300  0.65581800  1
  C  C23  1  0.57209700  0.03207700  0.72126400  1
  C  C24  1  0.92790300  0.53207700  0.72126400  1
  C  C25  1  0.08759000  0.70415900  0.49250700  1
  C  C26  1  0.74611300  0.30469200  0.28117100  1
  C  C27  1  0.75388700  0.80469200  0.28117100  1
