# generated using pymatgen
data_Cu3Ni3C8
_symmetry_space_group_name_H-M   'P 1'
_cell_length_a   11.56032700
_cell_length_b   3.81072300
_cell_length_c   11.59203055
_cell_angle_alpha   79.02083845
_cell_angle_beta   90.00000000
_cell_angle_gamma   90.00000000
_symmetry_Int_Tables_number   1
_chemical_formula_structural   Cu3Ni3C8
_chemical_formula_sum   'Cu12 Ni12 C32'
_cell_volume   501.31911770
_cell_formula_units_Z   4
loop_
 _symmetry_equiv_pos_site_id
 _symmetry_equiv_pos_as_xyz
  1  'x, y, z'
loop_
 _atom_site_type_symbol
 _atom_site_label
 _atom_site_symmetry_multiplicity
 _atom_site_fract_x
 _atom_site_fract_y
 _atom_site_fract_z
 _atom_site_occupancy
  C  C0  1  0.84643200  0.51424200  0.53483400  1
  C  C1  1  0.84858800  0.28520100  0.06345600  1
  C  C2  1  0.61911000  0.43984700  0.85063800  1
  C  C3  1  0.24250500  0.51164800  0.18540900  1
  C  C4  1  0.60192000  0.65236700  0.45217700  1
  C  C5  1  0.84021700  0.72924000  0.08942100  1
  C  C6  1  0.89808000  0.65236700  0.95217700  1
  C  C7  1  0.15978300  0.27076000  0.91057900  1
  C  C8  1  0.38089000  0.56015300  0.14936200  1
  C  C9  1  0.15356800  0.48575800  0.46516600  1
  C  C10  1  0.11911000  0.56015300  0.64936200  1
  C  C11  1  0.65978300  0.72924000  0.58942100  1
  C  C12  1  0.65141200  0.28520100  0.56345600  1
  C  C13  1  0.74250500  0.48835200  0.31459100  1
  C  C14  1  0.25749500  0.51164800  0.68540900  1
  C  C15  1  0.79637400  0.87979500  0.43528700  1
  C  C16  1  0.70362600  0.87979500  0.93528700  1
  C  C17  1  0.65356800  0.51424200  0.03483400  1
  C  C18  1  0.15141200  0.71479900  0.93654400  1
  C  C19  1  0.10192000  0.34763300  0.04782300  1
  C  C20  1  0.34643200  0.48575800  0.96516600  1
  C  C21  1  0.75749500  0.48835200  0.81459100  1
  C  C22  1  0.20362600  0.12020500  0.56471300  1
  C  C23  1  0.34021700  0.27076000  0.41057900  1
  C  C24  1  0.34858800  0.71479900  0.43654400  1
  C  C25  1  0.29637400  0.12020500  0.06471300  1
  C  C26  1  0.39808000  0.34763300  0.54782300  1
  C  C27  1  0.88089000  0.43984700  0.35063800  1
  C  C28  1  0.66530600  0.56382000  0.52208100  1
  C  C29  1  0.83469400  0.56382000  0.02208100  1
  C  C30  1  0.16530600  0.43618000  0.97791900  1
  C  C31  1  0.33469400  0.43618000  0.47791900  1
  Ni  Ni32  1  0.21708500  0.39504300  0.52962800  1
  Ni  Ni33  1  0.79804200  0.38412300  0.38201400  1
  Ni  Ni34  1  0.29804200  0.61587700  0.11798600  1
  Ni  Ni35  1  0.71708500  0.60495700  0.97037200  1
  Ni  Ni36  1  0.70195800  0.38412300  0.88201400  1
  Ni  Ni37  1  0.93283500  0.05558000  0.70062800  1
  Ni  Ni38  1  0.56716500  0.05558000  0.20062800  1
  Ni  Ni39  1  0.20195800  0.61587700  0.61798600  1
  Ni  Ni40  1  0.78291500  0.60495700  0.47037200  1
  Ni  Ni41  1  0.28291500  0.39504300  0.02962800  1
  Ni  Ni42  1  0.43283500  0.94442000  0.79937200  1
  Ni  Ni43  1  0.06716500  0.94442000  0.29937200  1
  Cu  Cu44  1  0.00533900  0.92246800  0.77716200  1
  Cu  Cu45  1  0.46367100  0.69147500  0.88360800  1
  Cu  Cu46  1  0.17102200  0.05403300  0.29605400  1
  Cu  Cu47  1  0.53632900  0.30852500  0.11639200  1
  Cu  Cu48  1  0.67102200  0.94596700  0.20394600  1
  Cu  Cu49  1  0.03632900  0.69147500  0.38360800  1
  Cu  Cu50  1  0.50533900  0.07753200  0.72283800  1
  Cu  Cu51  1  0.49466100  0.92246800  0.27716200  1
  Cu  Cu52  1  0.99466100  0.07753200  0.22283800  1
  Cu  Cu53  1  0.32897800  0.05403300  0.79605400  1
  Cu  Cu54  1  0.82897800  0.94596700  0.70394600  1
  Cu  Cu55  1  0.96367100  0.30852500  0.61639200  1
