# generated using pymatgen
data_CuNi3C11
_symmetry_space_group_name_H-M   'P 1'
_cell_length_a   5.80100500
_cell_length_b   9.98124100
_cell_length_c   14.17466905
_cell_angle_alpha   89.94284031
_cell_angle_beta   90.00000000
_cell_angle_gamma   90.00000000
_symmetry_Int_Tables_number   1
_chemical_formula_structural   CuNi3C11
_chemical_formula_sum   'Cu4 Ni12 C44'
_cell_volume   820.73034971
_cell_formula_units_Z   4
loop_
 _symmetry_equiv_pos_site_id
 _symmetry_equiv_pos_as_xyz
  1  'x, y, z'
loop_
 _atom_site_type_symbol
 _atom_site_label
 _atom_site_symmetry_multiplicity
 _atom_site_fract_x
 _atom_site_fract_y
 _atom_site_fract_z
 _atom_site_occupancy
  Ni  Ni0  1  0.53500000  0.83181300  0.41671900  1
  Ni  Ni1  1  0.54110700  0.49280900  0.75241800  1
  Ni  Ni2  1  0.96500000  0.33181300  0.41671900  1
  Ni  Ni3  1  0.46353500  0.83277300  0.91164700  1
  Ni  Ni4  1  0.53646500  0.16722700  0.08835300  1
  Ni  Ni5  1  0.04110700  0.00719100  0.24758200  1
  Ni  Ni6  1  0.03646500  0.33277300  0.91164700  1
  Ni  Ni7  1  0.95889300  0.99280900  0.75241800  1
  Ni  Ni8  1  0.46500000  0.16818700  0.58328100  1
  Ni  Ni9  1  0.03500000  0.66818700  0.58328100  1
  Ni  Ni10  1  0.45889300  0.50719100  0.24758200  1
  Ni  Ni11  1  0.96353500  0.66722700  0.08835300  1
  Cu  Cu12  1  0.50000000  0.50000000  0.00000000  1
  Cu  Cu13  1  0.00000000  0.00000000  0.50000000  1
  Cu  Cu14  1  0.50000000  0.50000000  0.50000000  1
  Cu  Cu15  1  0.00000000  0.00000000  0.00000000  1
  C  C16  1  0.50264700  0.82760900  0.66829400  1
  C  C17  1  0.99735300  0.32760900  0.66829400  1
  C  C18  1  0.49438000  0.16122200  0.83104100  1
  C  C19  1  0.00264700  0.67239100  0.33170600  1
  C  C20  1  0.00562000  0.66122200  0.83104100  1
  C  C21  1  0.49735300  0.17239100  0.33170600  1
  C  C22  1  0.50562000  0.83877800  0.16895900  1
  C  C23  1  0.99438000  0.33877800  0.16895900  1
  C  C24  1  0.01576400  0.79495400  0.92981500  1
  C  C25  1  0.80460700  0.60492000  0.43068300  1
  C  C26  1  0.76993500  0.87143200  0.59400200  1
  C  C27  1  0.78825500  0.26298000  0.77563900  1
  C  C28  1  0.78678000  0.21280100  0.24960300  1
  C  C29  1  0.19715400  0.44886200  0.09495900  1
  C  C30  1  0.69715400  0.05113800  0.90504100  1
  C  C31  1  0.51639600  0.02450600  0.72438500  1
  C  C32  1  0.71174500  0.76298000  0.77563900  1
  C  C33  1  0.23006500  0.12856800  0.40599800  1
  C  C34  1  0.69539300  0.10492000  0.43068300  1
  C  C35  1  0.01595000  0.15215600  0.61706400  1
  C  C36  1  0.98423600  0.20504600  0.07018500  1
  C  C37  1  0.72933400  0.42577800  0.11871800  1
  C  C38  1  0.01639600  0.47549400  0.27561500  1
  C  C39  1  0.48423600  0.29495400  0.92981500  1
  C  C40  1  0.98360400  0.52450600  0.72438500  1
  C  C41  1  0.71322000  0.71280100  0.24960300  1
  C  C42  1  0.30284600  0.94886200  0.09495900  1
  C  C43  1  0.27066600  0.57422200  0.88128200  1
  C  C44  1  0.28825500  0.23702000  0.22436100  1
  C  C45  1  0.51595000  0.34784400  0.38293600  1
  C  C46  1  0.21322000  0.78719900  0.75039700  1
  C  C47  1  0.21174500  0.73702000  0.22436100  1
  C  C48  1  0.51576400  0.70504600  0.07018500  1
  C  C49  1  0.77066600  0.92577800  0.11871800  1
  C  C50  1  0.48360400  0.97549400  0.27561500  1
  C  C51  1  0.19539300  0.39508000  0.56931700  1
  C  C52  1  0.48405000  0.65215600  0.61706400  1
  C  C53  1  0.73006500  0.37143200  0.59400200  1
  C  C54  1  0.98405000  0.84784400  0.38293600  1
  C  C55  1  0.26993500  0.62856800  0.40599800  1
  C  C56  1  0.28678000  0.28719900  0.75039700  1
  C  C57  1  0.22933400  0.07422200  0.88128200  1
  C  C58  1  0.30460700  0.89508000  0.56931700  1
  C  C59  1  0.80284600  0.55113800  0.90504100  1
