# generated using pymatgen
data_Cu12Ni7C29
_symmetry_space_group_name_H-M   'P 1'
_cell_length_a   11.57083939
_cell_length_b   11.57083939
_cell_length_c   11.57083939
_cell_angle_alpha   60.00000000
_cell_angle_beta   60.00000000
_cell_angle_gamma   60.00000000
_symmetry_Int_Tables_number   1
_chemical_formula_structural   Cu12Ni7C29
_chemical_formula_sum   'Cu12 Ni7 C29'
_cell_volume   1095.41730834
_cell_formula_units_Z   1
loop_
 _symmetry_equiv_pos_site_id
 _symmetry_equiv_pos_as_xyz
  1  'x, y, z'
loop_
 _atom_site_type_symbol
 _atom_site_label
 _atom_site_symmetry_multiplicity
 _atom_site_fract_x
 _atom_site_fract_y
 _atom_site_fract_z
 _atom_site_occupancy
  C  C0  1  0.36307900  0.36307900  0.36307900  1
  C  C1  1  0.34239300  0.00000000  0.00000000  1
  C  C2  1  0.36307900  0.91076300  0.36307900  1
  C  C3  1  0.63692100  0.63692100  0.63692100  1
  C  C4  1  0.36307900  0.36307900  0.91076300  1
  C  C5  1  0.00000000  0.00000000  0.65760700  1
  C  C6  1  0.00000000  0.65760700  0.00000000  1
  C  C7  1  0.63692100  0.08923700  0.63692100  1
  C  C8  1  0.34239300  0.65760700  0.00000000  1
  C  C9  1  0.08923700  0.63692100  0.63692100  1
  C  C10  1  0.91076300  0.36307900  0.36307900  1
  C  C11  1  0.00000000  0.34239300  0.65760700  1
  C  C12  1  0.65760700  0.34239300  0.00000000  1
  C  C13  1  0.34239300  0.00000000  0.65760700  1
  C  C14  1  0.63692100  0.63692100  0.08923700  1
  C  C15  1  0.00000000  0.65760700  0.34239300  1
  C  C16  1  0.65760700  0.00000000  0.00000000  1
  C  C17  1  0.65760700  0.00000000  0.34239300  1
  C  C18  1  0.50000000  0.50000000  0.50000000  1
  C  C19  1  0.00000000  0.00000000  0.34239300  1
  C  C20  1  0.00000000  0.34239300  0.00000000  1
  C  C21  1  0.19569100  0.19569100  0.19569100  1
  C  C22  1  0.41292600  0.19569100  0.19569100  1
  C  C23  1  0.80430900  0.80430900  0.58707400  1
  C  C24  1  0.19569100  0.41292600  0.19569100  1
  C  C25  1  0.19569100  0.19569100  0.41292600  1
  C  C26  1  0.80430900  0.58707400  0.80430900  1
  C  C27  1  0.58707400  0.80430900  0.80430900  1
  C  C28  1  0.80430900  0.80430900  0.80430900  1
  Ni  Ni29  1  0.71045200  0.28954800  0.28954800  1
  Ni  Ni30  1  0.28954800  0.28954800  0.71045200  1
  Ni  Ni31  1  0.28954800  0.71045200  0.71045200  1
  Ni  Ni32  1  0.71045200  0.28954800  0.71045200  1
  Ni  Ni33  1  0.28954800  0.71045200  0.28954800  1
  Ni  Ni34  1  0.00000000  0.00000000  0.00000000  1
  Ni  Ni35  1  0.71045200  0.71045200  0.28954800  1
  Cu  Cu36  1  0.39125300  0.39125300  0.10874700  1
  Cu  Cu37  1  0.60874700  0.60874700  0.89125300  1
  Cu  Cu38  1  0.39125300  0.10874700  0.10874700  1
  Cu  Cu39  1  0.10874700  0.39125300  0.10874700  1
  Cu  Cu40  1  0.89125300  0.89125300  0.60874700  1
  Cu  Cu41  1  0.89125300  0.60874700  0.89125300  1
  Cu  Cu42  1  0.10874700  0.10874700  0.39125300  1
  Cu  Cu43  1  0.39125300  0.10874700  0.39125300  1
  Cu  Cu44  1  0.60874700  0.89125300  0.89125300  1
  Cu  Cu45  1  0.60874700  0.89125300  0.60874700  1
  Cu  Cu46  1  0.10874700  0.39125300  0.39125300  1
  Cu  Cu47  1  0.89125300  0.60874700  0.60874700  1
