# generated using pymatgen
data_CuNiC8
_symmetry_space_group_name_H-M   'P 1'
_cell_length_a   5.93820649
_cell_length_b   5.93820649
_cell_length_c   10.29171961
_cell_angle_alpha   74.08059767
_cell_angle_beta   74.08059767
_cell_angle_gamma   58.68273089
_symmetry_Int_Tables_number   1
_chemical_formula_structural   CuNiC8
_chemical_formula_sum   'Cu2 Ni2 C16'
_cell_volume   294.28723752
_cell_formula_units_Z   2
loop_
 _symmetry_equiv_pos_site_id
 _symmetry_equiv_pos_as_xyz
  1  'x, y, z'
loop_
 _atom_site_type_symbol
 _atom_site_label
 _atom_site_symmetry_multiplicity
 _atom_site_fract_x
 _atom_site_fract_y
 _atom_site_fract_z
 _atom_site_occupancy
  C  C0  1  0.87230300  0.87230300  0.37540100  1
  C  C1  1  0.12769600  0.12769700  0.62459900  1
  C  C2  1  0.28575800  0.28575800  0.14548300  1
  C  C3  1  0.71424200  0.71424200  0.85451700  1
  Ni  Ni4  1  0.40419200  0.40419200  0.78428100  1
  Ni  Ni5  1  0.59580800  0.59580800  0.21571900  1
  Cu  Cu6  1  0.00000000  0.00000000  0.00000000  1
  Cu  Cu7  1  0.50000000  0.50000000  0.50000000  1
  C  C8  1  0.63419100  0.63419100  0.59687300  1
  C  C9  1  0.36580900  0.36580900  0.40312700  1
  C  C10  1  0.19007800  0.71360300  0.88578500  1
  C  C11  1  0.37461900  0.83564900  0.36951300  1
  C  C12  1  0.18557000  0.18557000  0.87431500  1
  C  C13  1  0.28639700  0.80992200  0.11421500  1
  C  C14  1  0.83564900  0.37461900  0.36951300  1
  C  C15  1  0.71360300  0.19007800  0.88578500  1
  C  C16  1  0.62538100  0.16435100  0.63048700  1
  C  C17  1  0.80992200  0.28639700  0.11421500  1
  C  C18  1  0.81443000  0.81443000  0.12568500  1
  C  C19  1  0.16435100  0.62538100  0.63048700  1
