# generated using pymatgen
data_Cu9Ni2C7
_symmetry_space_group_name_H-M   'P 1'
_cell_length_a   6.04537087
_cell_length_b   6.04537087
_cell_length_c   25.09961000
_cell_angle_alpha   90.00000000
_cell_angle_beta   90.00000000
_cell_angle_gamma   120.00000952
_symmetry_Int_Tables_number   1
_chemical_formula_structural   Cu9Ni2C7
_chemical_formula_sum   'Cu18 Ni4 C14'
_cell_volume   794.40773013
_cell_formula_units_Z   2
loop_
 _symmetry_equiv_pos_site_id
 _symmetry_equiv_pos_as_xyz
  1  'x, y, z'
loop_
 _atom_site_type_symbol
 _atom_site_label
 _atom_site_symmetry_multiplicity
 _atom_site_fract_x
 _atom_site_fract_y
 _atom_site_fract_z
 _atom_site_occupancy
  C  C0  1  0.33333300  0.66666700  0.41828600  1
  C  C1  1  0.33333300  0.66666700  0.08171400  1
  C  C2  1  0.33333300  0.66666700  0.82786700  1
  C  C3  1  0.66666700  0.33333300  0.58171400  1
  C  C4  1  0.66666700  0.33333300  0.91828600  1
  C  C5  1  0.66666700  0.33333300  0.32786700  1
  C  C6  1  0.66666700  0.33333300  0.17213300  1
  C  C7  1  0.33333300  0.66666700  0.25000000  1
  C  C8  1  0.66666700  0.33333300  0.75000000  1
  C  C9  1  0.33333300  0.66666700  0.67213300  1
  C  C10  1  0.00000000  0.00000000  0.81041100  1
  C  C11  1  0.00000000  0.00000000  0.31041100  1
  C  C12  1  0.00000000  0.00000000  0.18958900  1
  C  C13  1  0.00000000  0.00000000  0.68958900  1
  Ni  Ni14  1  0.33333300  0.66666700  0.54671100  1
  Ni  Ni15  1  0.33333300  0.66666700  0.95328900  1
  Ni  Ni16  1  0.66666700  0.33333300  0.04671100  1
  Ni  Ni17  1  0.66666700  0.33333300  0.45328900  1
  Cu  Cu18  1  0.16192100  0.32384200  0.15503300  1
  Cu  Cu19  1  0.70433600  0.85216800  0.75000000  1
  Cu  Cu20  1  0.83807900  0.67615800  0.65503300  1
  Cu  Cu21  1  0.85216800  0.14783200  0.25000000  1
  Cu  Cu22  1  0.16192100  0.83807900  0.34496700  1
  Cu  Cu23  1  0.16192100  0.83807900  0.15503300  1
  Cu  Cu24  1  0.83807900  0.16192100  0.65503300  1
  Cu  Cu25  1  0.32384200  0.16192100  0.65503300  1
  Cu  Cu26  1  0.83807900  0.16192100  0.84496700  1
  Cu  Cu27  1  0.85216800  0.70433600  0.25000000  1
  Cu  Cu28  1  0.29566400  0.14783200  0.25000000  1
  Cu  Cu29  1  0.32384200  0.16192100  0.84496700  1
  Cu  Cu30  1  0.14783200  0.29566400  0.75000000  1
  Cu  Cu31  1  0.83807900  0.67615800  0.84496700  1
  Cu  Cu32  1  0.16192100  0.32384200  0.34496700  1
  Cu  Cu33  1  0.67615800  0.83807900  0.15503300  1
  Cu  Cu34  1  0.14783200  0.85216800  0.75000000  1
  Cu  Cu35  1  0.67615800  0.83807900  0.34496700  1
