# generated using pymatgen
data_Cu4NiC29
_symmetry_space_group_name_H-M   'P 1'
_cell_length_a   10.57489100
_cell_length_b   13.47168524
_cell_length_c   16.96342350
_cell_angle_alpha   87.73804851
_cell_angle_beta   76.55582635
_cell_angle_gamma   89.14919669
_symmetry_Int_Tables_number   1
_chemical_formula_structural   Cu4NiC29
_chemical_formula_sum   'Cu16 Ni4 C116'
_cell_volume   2348.54182339
_cell_formula_units_Z   4
loop_
 _symmetry_equiv_pos_site_id
 _symmetry_equiv_pos_as_xyz
  1  'x, y, z'
loop_
 _atom_site_type_symbol
 _atom_site_label
 _atom_site_symmetry_multiplicity
 _atom_site_fract_x
 _atom_site_fract_y
 _atom_site_fract_z
 _atom_site_occupancy
  C  C0  1  0.00000000  0.00000000  0.50000000  1
  C  C1  1  0.78837300  0.73922100  0.94148100  1
  C  C2  1  0.50000000  0.50000000  0.50000000  1
  C  C3  1  0.21162700  0.26077900  0.05851900  1
  Ni  Ni4  1  0.05189200  0.49918100  0.74936500  1
  Ni  Ni5  1  0.42713100  0.96981500  0.26053800  1
  Ni  Ni6  1  0.57286900  0.03018500  0.73946200  1
  Ni  Ni7  1  0.94810800  0.50081900  0.25063500  1
  Cu  Cu8  1  0.20741500  0.55243400  0.13744800  1
  Cu  Cu9  1  0.45165100  0.17398600  0.32344100  1
  Cu  Cu10  1  0.79258500  0.44756600  0.86255200  1
  Cu  Cu11  1  0.28066900  0.48285900  0.82900600  1
  Cu  Cu12  1  0.11494600  0.37337800  0.59934000  1
  Cu  Cu13  1  0.71933100  0.51714100  0.17099400  1
  Cu  Cu14  1  0.63427000  0.17847900  0.59539200  1
  Cu  Cu15  1  0.88505400  0.62662200  0.40066000  1
  Cu  Cu16  1  0.30993200  0.07104900  0.85094600  1
  Cu  Cu17  1  0.36573000  0.82152100  0.40460800  1
  Cu  Cu18  1  0.54834900  0.82601400  0.67655900  1
  Cu  Cu19  1  0.69006800  0.92895100  0.14905400  1
  Cu  Cu20  1  0.78964100  0.05329200  0.82944200  1
  Cu  Cu21  1  0.02524800  0.71314500  0.68995100  1
  Cu  Cu22  1  0.97475200  0.28685500  0.31004900  1
  Cu  Cu23  1  0.21035900  0.94670800  0.17055800  1
  C  C24  1  0.41650500  0.49778500  0.39961300  1
  C  C25  1  0.58946000  0.73571900  0.94026200  1
  C  C26  1  0.11152300  0.03787400  0.58103700  1
  C  C27  1  0.88847700  0.96212600  0.41896300  1
  C  C28  1  0.58349500  0.50221500  0.60038700  1
  C  C29  1  0.41054000  0.26428100  0.05973800  1
  C  C30  1  0.01892100  0.23016800  0.05411400  1
  C  C31  1  0.98107900  0.76983200  0.94588600  1
  C  C32  1  0.36946800  0.49884600  0.34588300  1
  C  C33  1  0.48285900  0.73849400  0.93826100  1
  C  C34  1  0.35890600  0.94106700  0.34486100  1
  C  C35  1  0.43759100  0.06806100  0.75308900  1
  C  C36  1  0.07867500  0.54583200  0.23479900  1
  C  C37  1  0.11711400  0.48343200  0.66373000  1
  C  C38  1  0.91636300  0.20912400  0.05166200  1
  C  C39  1  0.17229800  0.05584900  0.62557700  1
  C  C40  1  0.62941400  0.07449600  0.80181600  1
  C  C41  1  0.88042300  0.54926800  0.19202600  1
  C  C42  1  0.63053200  0.50115400  0.65411700  1
  C  C43  1  0.11957700  0.45073200  0.80797400  1
  C  C44  1  0.37058600  0.92550400  0.19818400  1
  C  C45  1  0.82770200  0.94415100  0.37442300  1
  C  C46  1  0.41652400  0.07930000  0.25237500  1
  C  C47  1  0.04947400  0.60803100  0.76163900  1
  C  C48  1  0.92132500  0.45416800  0.76520100  1
  C  C49  1  0.56240900  0.93193900  0.24691100  1
  C  C50  1  0.51714100  0.26150600  0.06173900  1
  C  C51  1  0.58347600  0.92070000  0.74762500  1
  C  C52  1  0.08363700  0.79087600  0.94833800  1
  C  C53  1  0.64109400  0.05893300  0.65513900  1
  C  C54  1  0.88288600  0.51656800  0.33627000  1
  C  C55  1  0.95052600  0.39196900  0.23836100  1
  C  C56  1  0.20938400  0.58769100  0.89573900  1
  C  C57  1  0.34346100  0.55868700  0.04371400  1
  C  C58  1  0.88076400  0.52915800  0.92092800  1
  C  C59  1  0.87385900  0.75445500  0.76508600  1
  C  C60  1  0.21650000  0.96785200  0.82029600  1
  C  C61  1  0.88159300  0.20185400  0.25966500  1
  C  C62  1  0.38837400  0.79275500  0.74646400  1
  C  C63  1  0.30911400  0.63053200  0.18688800  1
  C  C64  1  0.39229100  0.97872100  0.90895700  1
  C  C65  1  0.12614100  0.24554500  0.23491400  1
  C  C66  1  0.33415400  0.57197300  0.73919100  1
  C  C67  1  0.73480700  0.93104300  0.88571100  1
  C  C68  1  0.81158400  0.20155600  0.58980300  1
  C  C69  1  0.61162600  0.20724500  0.25353600  1
  C  C70  1  0.71106500  0.56425700  0.83269300  1
  C  C71  1  0.65653900  0.44131300  0.95628600  1
  C  C72  1  0.18841600  0.79844400  0.41019700  1
  C  C73  1  0.37259800  0.27247000  0.26955500  1
  C  C74  1  0.84354100  0.54227500  0.49395200  1
  C  C75  1  0.66584600  0.42802700  0.26080900  1
  C  C76  1  0.79061600  0.41230900  0.10426100  1
  C  C77  1  0.28893500  0.43574300  0.16730700  1
  C  C78  1  0.17540000  0.07790600  0.94612100  1
  C  C79  1  0.13196200  0.01619300  0.26431600  1
  C  C80  1  0.53907500  0.83618000  0.41123500  1
  C  C81  1  0.05497800  0.96729400  0.13648100  1
  C  C82  1  0.87842600  0.73341200  0.46978500  1
  C  C83  1  0.78350000  0.03214800  0.17970400  1
  C  C84  1  0.06193500  0.61416700  0.39988600  1
  C  C85  1  0.15645900  0.45772500  0.50604800  1
  C  C86  1  0.26519300  0.06895700  0.11428900  1
  C  C87  1  0.53687800  0.08625300  0.38308000  1
  C  C88  1  0.48165600  0.27465100  0.39110300  1
  C  C89  1  0.51834400  0.72534900  0.60889700  1
  C  C90  1  0.92260900  0.64074600  0.63604000  1
  C  C91  1  0.27332800  0.87877600  0.07497400  1
  C  C92  1  0.82356100  0.31267400  0.38942600  1
  C  C93  1  0.86071900  0.17130000  0.77633100  1
  C  C94  1  0.00053700  0.17616500  0.37679200  1
  C  C95  1  0.24427100  0.39246600  0.91935500  1
  C  C96  1  0.94502200  0.03270600  0.86351900  1
  C  C97  1  0.75572900  0.60753400  0.08064500  1
  C  C98  1  0.12157400  0.26658800  0.53021500  1
  C  C99  1  0.69088600  0.36946800  0.81311200  1
  C  C100  1  0.93806500  0.38583300  0.60011400  1
  C  C101  1  0.36532000  0.70322600  0.46823800  1
  C  C102  1  0.29641800  0.35519400  0.58704500  1
  C  C103  1  0.58608300  0.25895400  0.68562100  1
  C  C104  1  0.46312200  0.91374700  0.61692000  1
  C  C105  1  0.41391700  0.74104600  0.31437900  1
  C  C106  1  0.46092500  0.16382000  0.58876500  1
  C  C107  1  0.70747300  0.84758600  0.60054400  1
  C  C108  1  0.62740200  0.72753000  0.73044500  1
  C  C109  1  0.13667900  0.66575100  0.09550400  1
  C  C110  1  0.61334500  0.82394800  0.10607200  1
  C  C111  1  0.11840700  0.79814600  0.74033500  1
  C  C112  1  0.31006800  0.88985700  0.50139200  1
  C  C113  1  0.99946300  0.82383500  0.62320800  1
  C  C114  1  0.08312100  0.27869900  0.68565400  1
  C  C115  1  0.68993200  0.11014300  0.49860800  1
  C  C116  1  0.86332100  0.33424900  0.90449600  1
  C  C117  1  0.36787700  0.38049200  0.76545400  1
  C  C118  1  0.43816600  0.50883900  0.85697300  1
  C  C119  1  0.78499300  0.83557400  0.19676400  1
  C  C120  1  0.38665500  0.17605200  0.89392800  1
  C  C121  1  0.11923600  0.47084200  0.07907200  1
  C  C122  1  0.13928100  0.82870000  0.22366900  1
  C  C123  1  0.17643900  0.68732600  0.61057400  1
  C  C124  1  0.60770900  0.02127900  0.09104300  1
  C  C125  1  0.56183400  0.49116100  0.14302700  1
  C  C126  1  0.21500700  0.16442600  0.80323600  1
  C  C127  1  0.82460000  0.92209400  0.05387900  1
  C  C128  1  0.72667200  0.12122400  0.92502600  1
  C  C129  1  0.70358200  0.64480600  0.41295500  1
  C  C130  1  0.07739100  0.35925400  0.36396000  1
  C  C131  1  0.86803800  0.98380700  0.73568400  1
  C  C132  1  0.63212300  0.61950800  0.23454600  1
  C  C133  1  0.91687900  0.72130100  0.31434600  1
  C  C134  1  0.63468000  0.29677400  0.53176200  1
  C  C135  1  0.29252700  0.15241400  0.39945600  1
