# generated using pymatgen
data_Cu2Ni5C29
_symmetry_space_group_name_H-M   'P 1'
_cell_length_a   14.55621200
_cell_length_b   7.24106500
_cell_length_c   25.23777714
_cell_angle_alpha   89.70871803
_cell_angle_beta   90.00000000
_cell_angle_gamma   90.00000000
_symmetry_Int_Tables_number   1
_chemical_formula_structural   Cu2Ni5C29
_chemical_formula_sum   'Cu8 Ni20 C116'
_cell_volume   2660.08985477
_cell_formula_units_Z   4
loop_
 _symmetry_equiv_pos_site_id
 _symmetry_equiv_pos_as_xyz
  1  'x, y, z'
loop_
 _atom_site_type_symbol
 _atom_site_label
 _atom_site_symmetry_multiplicity
 _atom_site_fract_x
 _atom_site_fract_y
 _atom_site_fract_z
 _atom_site_occupancy
  C  C0  1  0.62523300  0.49860300  0.74545000  1
  C  C1  1  0.40344100  0.00881200  0.16691100  1
  C  C2  1  0.90344100  0.49118800  0.33308900  1
  C  C3  1  0.55700900  0.01551000  0.65382000  1
  C  C4  1  0.53196700  0.50547600  0.91902500  1
  C  C5  1  0.44299100  0.98449000  0.34618000  1
  C  C6  1  0.03196700  0.99452400  0.58097500  1
  C  C7  1  0.59655900  0.99118800  0.83308900  1
  C  C8  1  0.94299100  0.51551000  0.15382000  1
  C  C9  1  0.05610500  0.99686500  0.92360300  1
  C  C10  1  0.44389500  0.49686500  0.42360300  1
  C  C11  1  0.94389500  0.00313500  0.07639700  1
  C  C12  1  0.00000000  0.50000000  0.50000000  1
  C  C13  1  0.05700900  0.48449000  0.84618000  1
  C  C14  1  0.96803300  0.00547600  0.41902500  1
  C  C15  1  0.50000000  0.00000000  0.50000000  1
  C  C16  1  0.00000000  0.50000000  0.00000000  1
  C  C17  1  0.87476700  0.99860300  0.24545000  1
  C  C18  1  0.09655900  0.50881200  0.66691100  1
  C  C19  1  0.37476700  0.50139700  0.25455000  1
  C  C20  1  0.46803300  0.49452400  0.08097500  1
  C  C21  1  0.50000000  0.00000000  0.00000000  1
  C  C22  1  0.55610500  0.50313500  0.57639700  1
  C  C23  1  0.12523300  0.00139700  0.75455000  1
  Ni  Ni24  1  0.27030300  0.67472200  0.54334900  1
  Ni  Ni25  1  0.22640500  0.16675700  0.46297000  1
  Ni  Ni26  1  0.27359500  0.66675700  0.96297000  1
  Ni  Ni27  1  0.81290600  0.32305200  0.61934000  1
  Ni  Ni28  1  0.77030300  0.82527800  0.95665100  1
  Ni  Ni29  1  0.83062900  0.81516300  0.68005200  1
  Ni  Ni30  1  0.80153700  0.31885900  0.89613400  1
  Ni  Ni31  1  0.22969700  0.17472200  0.04334900  1
  Ni  Ni32  1  0.69846300  0.81885900  0.39613400  1
  Ni  Ni33  1  0.68709400  0.82305200  0.11934000  1
  Ni  Ni34  1  0.18709400  0.67694800  0.38066000  1
  Ni  Ni35  1  0.72969700  0.32527800  0.45665100  1
  Ni  Ni36  1  0.33062900  0.68483700  0.81994800  1
  Ni  Ni37  1  0.72640500  0.33324300  0.03703000  1
  Ni  Ni38  1  0.31290600  0.17694800  0.88066000  1
  Ni  Ni39  1  0.77359500  0.83324300  0.53703000  1
  Ni  Ni40  1  0.19846300  0.68114100  0.10386600  1
  Ni  Ni41  1  0.66937100  0.31516300  0.18005200  1
  Ni  Ni42  1  0.30153700  0.18114100  0.60386600  1
  Ni  Ni43  1  0.16937100  0.18483700  0.31994800  1
  Cu  Cu44  1  0.13908200  0.17509500  0.16516300  1
  Cu  Cu45  1  0.38763000  0.18634400  0.75645600  1
  Cu  Cu46  1  0.36091800  0.67509500  0.66516300  1
  Cu  Cu47  1  0.61237000  0.81365600  0.24354400  1
  Cu  Cu48  1  0.86091800  0.82490500  0.83483700  1
  Cu  Cu49  1  0.11237000  0.68634400  0.25645600  1
  Cu  Cu50  1  0.63908200  0.32490500  0.33483700  1
  Cu  Cu51  1  0.88763000  0.31365600  0.74354400  1
  C  C52  1  0.45884200  0.68654700  0.82376800  1
  C  C53  1  0.60557800  0.32961800  0.47692500  1
  C  C54  1  0.19237500  0.36275000  0.39554000  1
  C  C55  1  0.54115800  0.31345300  0.17623200  1
  C  C56  1  0.84613100  0.49585200  0.70198500  1
  C  C57  1  0.39442200  0.67038200  0.52307500  1
  C  C58  1  0.65386900  0.99585200  0.20198500  1
  C  C59  1  0.18985700  0.18195800  0.85832900  1
  C  C60  1  0.31307900  0.69439300  0.72749000  1
  C  C61  1  0.81307900  0.80560700  0.77251000  1
  C  C62  1  0.84763300  0.12927100  0.70462800  1
  C  C63  1  0.31608300  0.49464100  0.89295700  1
  C  C64  1  0.73740000  0.64058700  0.46971200  1
  C  C65  1  0.22582800  0.68632500  0.46268400  1
  C  C66  1  0.65236700  0.62927100  0.20462800  1
  C  C67  1  0.81014300  0.81804200  0.14167100  1
  C  C68  1  0.06112200  0.66789700  0.39611400  1
  C  C69  1  0.68985700  0.31804200  0.64167100  1
  C  C70  1  0.81608300  0.00535900  0.60704300  1
  C  C71  1  0.65023800  0.84373100  0.55907300  1
  C  C72  1  0.33157600  0.86446100  0.62394300  1
  C  C73  1  0.02404400  0.15056700  0.16978800  1
  C  C74  1  0.64872700  0.82383100  0.93156400  1
  C  C75  1  0.79597200  0.30936300  0.18707500  1
  C  C76  1  0.68692100  0.30560700  0.27251000  1
  C  C77  1  0.69185500  0.50089900  0.37459000  1
  C  C78  1  0.80762500  0.63725000  0.60446000  1
  C  C79  1  0.99599700  0.68422000  0.25263300  1
  C  C80  1  0.68103300  0.32843800  0.87129200  1
  C  C81  1  0.31896700  0.67156200  0.12870800  1
  C  C82  1  0.18103300  0.17156200  0.62870800  1
  C  C83  1  0.42538900  0.19702800  0.58498000  1
  C  C84  1  0.20402800  0.69063700  0.81292500  1
  C  C85  1  0.15236700  0.87072900  0.29537200  1
  C  C86  1  0.73588300  0.00722400  0.46619900  1
  C  C87  1  0.76411700  0.50722400  0.96619900  1
  C  C88  1  0.00400300  0.31578000  0.74736700  1
  C  C89  1  0.26260000  0.35941300  0.53028800  1
  C  C90  1  0.04115800  0.18654700  0.32376800  1
  C  C91  1  0.07461100  0.69702800  0.08498000  1
  C  C92  1  0.35127300  0.17616900  0.06843600  1
  C  C93  1  0.10557800  0.17038200  0.02307500  1
  C  C94  1  0.30814500  0.49910100  0.62541000  1
  C  C95  1  0.34613100  0.00414800  0.79801500  1
  C  C96  1  0.92538900  0.30297200  0.91502000  1
  C  C97  1  0.97595600  0.84943300  0.83021200  1
  C  C98  1  0.72582800  0.81367500  0.03731600  1
  C  C99  1  0.65888400  0.82007400  0.30675700  1
  C  C100  1  0.34111600  0.17992600  0.69324300  1
  C  C101  1  0.84976200  0.34373100  0.05907300  1
  C  C102  1  0.68391700  0.50535900  0.10704300  1
  C  C103  1  0.27417200  0.18632500  0.96268400  1
  C  C104  1  0.70402800  0.80936300  0.68707500  1
  C  C105  1  0.93887800  0.33210300  0.60388600  1
  C  C106  1  0.84111600  0.32007400  0.80675700  1
  C  C107  1  0.18692100  0.19439300  0.22749000  1
  C  C108  1  0.15386900  0.50414800  0.29801500  1
  C  C109  1  0.39693800  0.66899900  0.98550100  1
  C  C110  1  0.95884200  0.81345300  0.67623200  1
  C  C111  1  0.52404400  0.34943300  0.33021200  1
  C  C112  1  0.89442200  0.82961800  0.97692500  1
  C  C113  1  0.69237500  0.13725000  0.10446000  1
  C  C114  1  0.19185500  0.99910100  0.12541000  1
  C  C115  1  0.56112200  0.83210300  0.10388600  1
  C  C116  1  0.50400300  0.18422000  0.75263300  1
  C  C117  1  0.76260000  0.14058700  0.96971200  1
  C  C118  1  0.43887800  0.16789700  0.89611400  1
  C  C119  1  0.80814500  0.00089900  0.87459000  1
  C  C120  1  0.34976200  0.15626900  0.44092700  1
  C  C121  1  0.49599700  0.81578000  0.24736700  1
  C  C122  1  0.29597200  0.19063700  0.31292500  1
  C  C123  1  0.57461100  0.80297200  0.41502000  1
  C  C124  1  0.77417200  0.31367500  0.53731600  1
  C  C125  1  0.31014300  0.68195800  0.35832900  1
  C  C126  1  0.16842400  0.36446100  0.12394300  1
  C  C127  1  0.34763300  0.37072900  0.79537200  1
  C  C128  1  0.15888400  0.67992600  0.19324300  1
  C  C129  1  0.89693800  0.83100100  0.51449900  1
  C  C130  1  0.18391700  0.99464100  0.39295700  1
  C  C131  1  0.30762500  0.86275000  0.89554000  1
  C  C132  1  0.14872700  0.67616900  0.56843600  1
  C  C133  1  0.23740000  0.85941300  0.03028800  1
  C  C134  1  0.85127300  0.32383100  0.43156400  1
  C  C135  1  0.26411700  0.99277600  0.53380100  1
  C  C136  1  0.83157600  0.63553900  0.87605700  1
  C  C137  1  0.47595600  0.65056700  0.66978800  1
  C  C138  1  0.66842400  0.13553900  0.37605700  1
  C  C139  1  0.15023800  0.65626900  0.94092700  1
  C  C140  1  0.23588300  0.49277600  0.03380100  1
  C  C141  1  0.10306200  0.16899900  0.48550100  1
  C  C142  1  0.81896700  0.82843800  0.37129200  1
  C  C143  1  0.60306200  0.33100100  0.01449900  1
