# generated using pymatgen
data_Cu(NiC3)2
_symmetry_space_group_name_H-M   'P 1'
_cell_length_a   4.19027264
_cell_length_b   4.18999905
_cell_length_c   19.42657381
_cell_angle_alpha   90.00171524
_cell_angle_beta   90.00266415
_cell_angle_gamma   89.99353392
_symmetry_Int_Tables_number   1
_chemical_formula_structural   Cu(NiC3)2
_chemical_formula_sum   'Cu2 Ni4 C12'
_cell_volume   341.07698479
_cell_formula_units_Z   2
loop_
 _symmetry_equiv_pos_site_id
 _symmetry_equiv_pos_as_xyz
  1  'x, y, z'
loop_
 _atom_site_type_symbol
 _atom_site_label
 _atom_site_symmetry_multiplicity
 _atom_site_fract_x
 _atom_site_fract_y
 _atom_site_fract_z
 _atom_site_occupancy
  C  C0  1  0.99999900  0.99999700  0.33336800  1
  C  C1  1  0.49999800  0.49999700  0.83336800  1
  C  C2  1  0.49999300  0.49999800  0.16663300  1
  C  C3  1  0.99999200  0.99999800  0.66663300  1
  C  C4  1  0.50003500  0.00000000  0.99999200  1
  C  C5  1  0.49999700  0.00001500  0.50000300  1
  C  C6  1  0.00003600  0.50000000  0.49999200  1
  C  C7  1  0.99999600  0.50001600  0.00000300  1
  Ni  Ni8  1  0.50006000  0.50006600  0.41263300  1
  Ni  Ni9  1  0.00005900  0.00006600  0.91263400  1
  Ni  Ni10  1  0.99993400  0.99993200  0.08736700  1
  Ni  Ni11  1  0.49993300  0.49993200  0.58736700  1
  Cu  Cu12  1  0.49999300  0.49999900  0.99999900  1
  Cu  Cu13  1  0.99999300  0.99999900  0.49999900  1
  C  C14  1  0.49998400  0.00000900  0.25000900  1
  C  C15  1  0.99998400  0.50000800  0.75000900  1
  C  C16  1  0.00000700  0.49998600  0.24999600  1
  C  C17  1  0.50000700  0.99998600  0.74999600  1
