# generated using pymatgen
data_Cu8NiC5
_symmetry_space_group_name_H-M   'P 1'
_cell_length_a   6.38214000
_cell_length_b   7.17106600
_cell_length_c   18.34258600
_cell_angle_alpha   90.00000000
_cell_angle_beta   90.00000000
_cell_angle_gamma   90.00000000
_symmetry_Int_Tables_number   1
_chemical_formula_structural   Cu8NiC5
_chemical_formula_sum   'Cu32 Ni4 C20'
_cell_volume   839.48049575
_cell_formula_units_Z   4
loop_
 _symmetry_equiv_pos_site_id
 _symmetry_equiv_pos_as_xyz
  1  'x, y, z'
loop_
 _atom_site_type_symbol
 _atom_site_label
 _atom_site_symmetry_multiplicity
 _atom_site_fract_x
 _atom_site_fract_y
 _atom_site_fract_z
 _atom_site_occupancy
  C  C0  1  0.87420000  0.97484900  0.59074800  1
  C  C1  1  0.62580000  0.47484900  0.59074800  1
  C  C2  1  0.12580000  0.02515100  0.09074800  1
  C  C3  1  0.12580000  0.02515100  0.40925200  1
  C  C4  1  0.38336700  0.19061600  0.75000000  1
  C  C5  1  0.88336700  0.30938400  0.25000000  1
  C  C6  1  0.37420000  0.52515100  0.09074800  1
  C  C7  1  0.37420000  0.52515100  0.40925200  1
  C  C8  1  0.61663300  0.80938400  0.25000000  1
  C  C9  1  0.11663300  0.69061600  0.75000000  1
  C  C10  1  0.62580000  0.47484900  0.90925200  1
  C  C11  1  0.87420000  0.97484900  0.90925200  1
  C  C12  1  0.12005900  0.46538900  0.59995400  1
  C  C13  1  0.37994100  0.96538900  0.90004600  1
  C  C14  1  0.87994100  0.53461100  0.09995400  1
  C  C15  1  0.62005900  0.03461100  0.40004600  1
  C  C16  1  0.37994100  0.96538900  0.59995400  1
  C  C17  1  0.62005900  0.03461100  0.09995400  1
  C  C18  1  0.87994100  0.53461100  0.40004600  1
  C  C19  1  0.12005900  0.46538900  0.90004600  1
  Ni  Ni20  1  0.76424900  0.94383500  0.75000000  1
  Ni  Ni21  1  0.23575100  0.05616500  0.25000000  1
  Ni  Ni22  1  0.26424900  0.55616500  0.25000000  1
  Ni  Ni23  1  0.73575100  0.44383500  0.75000000  1
  Cu  Cu24  1  0.04957200  0.70420900  0.09465900  1
  Cu  Cu25  1  0.97095000  0.65019300  0.61874900  1
  Cu  Cu26  1  0.21748200  0.98142500  0.53146100  1
  Cu  Cu27  1  0.95042800  0.29579100  0.59465900  1
  Cu  Cu28  1  0.27320600  0.45107100  0.82589200  1
  Cu  Cu29  1  0.27320600  0.45107100  0.67410800  1
  Cu  Cu30  1  0.22679400  0.95107100  0.82589200  1
  Cu  Cu31  1  0.72679400  0.54892900  0.17410800  1
  Cu  Cu32  1  0.52905000  0.15019300  0.61874900  1
  Cu  Cu33  1  0.54957200  0.79579100  0.59465900  1
  Cu  Cu34  1  0.71748200  0.51857500  0.46853900  1
  Cu  Cu35  1  0.45042800  0.20420900  0.40534100  1
  Cu  Cu36  1  0.28251800  0.48142500  0.53146100  1
  Cu  Cu37  1  0.28251800  0.48142500  0.96853900  1
  Cu  Cu38  1  0.54957200  0.79579100  0.90534100  1
  Cu  Cu39  1  0.52905000  0.15019300  0.88125100  1
  Cu  Cu40  1  0.47095000  0.84980700  0.38125100  1
  Cu  Cu41  1  0.97095000  0.65019300  0.88125100  1
  Cu  Cu42  1  0.22679400  0.95107100  0.67410800  1
  Cu  Cu43  1  0.77320600  0.04892900  0.17410800  1
  Cu  Cu44  1  0.77320600  0.04892900  0.32589200  1
  Cu  Cu45  1  0.02905000  0.34980700  0.38125100  1
  Cu  Cu46  1  0.71748200  0.51857500  0.03146100  1
  Cu  Cu47  1  0.47095000  0.84980700  0.11874900  1
  Cu  Cu48  1  0.78251800  0.01857500  0.03146100  1
  Cu  Cu49  1  0.95042800  0.29579100  0.90534100  1
  Cu  Cu50  1  0.21748200  0.98142500  0.96853900  1
  Cu  Cu51  1  0.04957200  0.70420900  0.40534100  1
  Cu  Cu52  1  0.78251800  0.01857500  0.46853900  1
  Cu  Cu53  1  0.72679400  0.54892900  0.32589200  1
  Cu  Cu54  1  0.45042800  0.20420900  0.09465900  1
  Cu  Cu55  1  0.02905000  0.34980700  0.11874900  1
