# generated using pymatgen
data_Cu(NiC2)2
_symmetry_space_group_name_H-M   'P 1'
_cell_length_a   7.60387200
_cell_length_b   10.87700200
_cell_length_c   17.22362900
_cell_angle_alpha   90.00000000
_cell_angle_beta   90.00000000
_cell_angle_gamma   90.00000000
_symmetry_Int_Tables_number   1
_chemical_formula_structural   Cu(NiC2)2
_chemical_formula_sum   'Cu8 Ni16 C32'
_cell_volume   1424.52038389
_cell_formula_units_Z   8
loop_
 _symmetry_equiv_pos_site_id
 _symmetry_equiv_pos_as_xyz
  1  'x, y, z'
loop_
 _atom_site_type_symbol
 _atom_site_label
 _atom_site_symmetry_multiplicity
 _atom_site_fract_x
 _atom_site_fract_y
 _atom_site_fract_z
 _atom_site_occupancy
  Ni  Ni0  1  0.71606700  0.14488000  0.07365700  1
  Ni  Ni1  1  0.86227000  0.45009600  0.39803700  1
  Ni  Ni2  1  0.63773000  0.45009600  0.89803700  1
  Ni  Ni3  1  0.28393300  0.85512000  0.92634300  1
  Ni  Ni4  1  0.71606700  0.64488000  0.42634300  1
  Ni  Ni5  1  0.78393300  0.64488000  0.92634300  1
  Ni  Ni6  1  0.36227000  0.04990400  0.39803700  1
  Ni  Ni7  1  0.13773000  0.54990400  0.60196300  1
  Ni  Ni8  1  0.21606700  0.35512000  0.07365700  1
  Ni  Ni9  1  0.86227000  0.95009600  0.10196300  1
  Ni  Ni10  1  0.78393300  0.14488000  0.57365700  1
  Ni  Ni11  1  0.28393300  0.35512000  0.57365700  1
  Ni  Ni12  1  0.36227000  0.54990400  0.10196300  1
  Ni  Ni13  1  0.63773000  0.95009600  0.60196300  1
  Ni  Ni14  1  0.21606700  0.85512000  0.42634300  1
  Ni  Ni15  1  0.13773000  0.04990400  0.89803700  1
  Cu  Cu16  1  0.79026100  0.60539200  0.26188600  1
  Cu  Cu17  1  0.20973900  0.89460800  0.76188600  1
  Cu  Cu18  1  0.29026100  0.39460800  0.23811400  1
  Cu  Cu19  1  0.70973900  0.10539200  0.73811400  1
  Cu  Cu20  1  0.70973900  0.60539200  0.76188600  1
  Cu  Cu21  1  0.79026100  0.10539200  0.23811400  1
  Cu  Cu22  1  0.29026100  0.89460800  0.26188600  1
  Cu  Cu23  1  0.20973900  0.39460800  0.73811400  1
  C  C24  1  0.37774200  0.01569200  0.29508000  1
  C  C25  1  0.87774200  0.98430800  0.20492000  1
  C  C26  1  0.20604700  0.31194700  0.17433700  1
  C  C27  1  0.29395300  0.81194700  0.82566300  1
  C  C28  1  0.70604700  0.18805300  0.17433700  1
  C  C29  1  0.70604700  0.68805300  0.32566300  1
  C  C30  1  0.79395300  0.68805300  0.82566300  1
  C  C31  1  0.29395300  0.31194700  0.67433700  1
  C  C32  1  0.20604700  0.81194700  0.32566300  1
  C  C33  1  0.62225800  0.48430800  0.79508000  1
  C  C34  1  0.12225800  0.01569200  0.79508000  1
  C  C35  1  0.79395300  0.18805300  0.67433700  1
  C  C36  1  0.12225800  0.51569200  0.70492000  1
  C  C37  1  0.87774200  0.48430800  0.29508000  1
  C  C38  1  0.62225800  0.98430800  0.70492000  1
  C  C39  1  0.37774200  0.51569200  0.20492000  1
  C  C40  1  0.32021100  0.53781900  0.93348700  1
  C  C41  1  0.89565900  0.82141200  0.61254000  1
  C  C42  1  0.67978900  0.96218100  0.43348700  1
  C  C43  1  0.39565900  0.17858800  0.88746000  1
  C  C44  1  0.17978900  0.53781900  0.43348700  1
  C  C45  1  0.17978900  0.03781900  0.06651300  1
  C  C46  1  0.60434100  0.82141200  0.11254000  1
  C  C47  1  0.32021100  0.03781900  0.56651300  1
  C  C48  1  0.82021100  0.46218100  0.56651300  1
  C  C49  1  0.39565900  0.67858800  0.61254000  1
  C  C50  1  0.10434100  0.67858800  0.11254000  1
  C  C51  1  0.60434100  0.32141200  0.38746000  1
  C  C52  1  0.82021100  0.96218100  0.93348700  1
  C  C53  1  0.10434100  0.17858800  0.38746000  1
  C  C54  1  0.67978900  0.46218100  0.06651300  1
  C  C55  1  0.89565900  0.32141200  0.88746000  1
