# generated using pymatgen
data_Cu16Ni4C5
_symmetry_space_group_name_H-M   'P 1'
_cell_length_a   10.42252000
_cell_length_b   12.76390200
_cell_length_c   19.44652400
_cell_angle_alpha   90.00000000
_cell_angle_beta   90.00000000
_cell_angle_gamma   90.00000000
_symmetry_Int_Tables_number   1
_chemical_formula_structural   Cu16Ni4C5
_chemical_formula_sum   'Cu64 Ni16 C20'
_cell_volume   2587.01044502
_cell_formula_units_Z   4
loop_
 _symmetry_equiv_pos_site_id
 _symmetry_equiv_pos_as_xyz
  1  'x, y, z'
loop_
 _atom_site_type_symbol
 _atom_site_label
 _atom_site_symmetry_multiplicity
 _atom_site_fract_x
 _atom_site_fract_y
 _atom_site_fract_z
 _atom_site_occupancy
  C  C0  1  0.21045800  0.60824200  0.22723300  1
  C  C1  1  0.11691500  0.25000000  0.00000000  1
  C  C2  1  0.61691500  0.25000000  0.50000000  1
  C  C3  1  0.21045800  0.89175800  0.77276700  1
  C  C4  1  0.28954200  0.10824200  0.27276700  1
  C  C5  1  0.28954200  0.39175800  0.72723300  1
  C  C6  1  0.71045800  0.60824200  0.27276700  1
  C  C7  1  0.71045800  0.89175800  0.72723300  1
  C  C8  1  0.38308500  0.75000000  0.50000000  1
  C  C9  1  0.88308500  0.75000000  0.00000000  1
  C  C10  1  0.78954200  0.10824200  0.22723300  1
  C  C11  1  0.78954200  0.39175800  0.77276700  1
  C  C12  1  0.62858100  0.38739200  0.07346200  1
  C  C13  1  0.87141900  0.88739200  0.42653800  1
  C  C14  1  0.12858100  0.38739200  0.42653800  1
  C  C15  1  0.37141900  0.61260800  0.92653800  1
  C  C16  1  0.62858100  0.11260800  0.92653800  1
  C  C17  1  0.12858100  0.11260800  0.57346200  1
  C  C18  1  0.37141900  0.88739200  0.07346200  1
  C  C19  1  0.87141900  0.61260800  0.57346200  1
  Ni  Ni20  1  0.99581600  0.13983200  0.39788800  1
  Ni  Ni21  1  0.43699700  0.04849800  0.63100000  1
  Ni  Ni22  1  0.06300300  0.95150200  0.13100000  1
  Ni  Ni23  1  0.49581600  0.13983200  0.10211200  1
  Ni  Ni24  1  0.93699700  0.45150200  0.13100000  1
  Ni  Ni25  1  0.00418400  0.86016800  0.60211200  1
  Ni  Ni26  1  0.49581600  0.36016800  0.89788800  1
  Ni  Ni27  1  0.06300300  0.54849800  0.86900000  1
  Ni  Ni28  1  0.50418400  0.63983200  0.10211200  1
  Ni  Ni29  1  0.56300300  0.95150200  0.36900000  1
  Ni  Ni30  1  0.43699700  0.45150200  0.36900000  1
  Ni  Ni31  1  0.99581600  0.36016800  0.60211200  1
  Ni  Ni32  1  0.00418400  0.63983200  0.39788800  1
  Ni  Ni33  1  0.93699700  0.04849800  0.86900000  1
  Ni  Ni34  1  0.50418400  0.86016800  0.89788800  1
  Ni  Ni35  1  0.56300300  0.54849800  0.63100000  1
  Cu  Cu36  1  0.99553300  0.51443900  0.33312600  1
  Cu  Cu37  1  0.67951500  0.16945300  0.06801300  1
  Cu  Cu38  1  0.38849900  0.09870400  0.01677100  1
  Cu  Cu39  1  0.11449000  0.10569900  0.85029500  1
  Cu  Cu40  1  0.38551000  0.89430100  0.35029500  1
  Cu  Cu41  1  0.11150100  0.59870400  0.48322900  1
  Cu  Cu42  1  0.61449000  0.10569900  0.64970500  1
  Cu  Cu43  1  0.56932700  0.38799600  0.64704800  1
  Cu  Cu44  1  0.61150100  0.59870400  0.01677100  1
  Cu  Cu45  1  0.82048500  0.66945300  0.43198700  1
  Cu  Cu46  1  0.29124000  0.38666000  0.30883900  1
  Cu  Cu47  1  0.00446700  0.48556100  0.66687400  1
  Cu  Cu48  1  0.93067300  0.61200400  0.14704800  1
  Cu  Cu49  1  0.12014300  0.91449000  0.03259900  1
  Cu  Cu50  1  0.70876000  0.61334000  0.69116100  1
  Cu  Cu51  1  0.79124000  0.38666000  0.19116100  1
  Cu  Cu52  1  0.87985700  0.08551000  0.96740100  1
  Cu  Cu53  1  0.56421000  0.76986200  0.15103500  1
  Cu  Cu54  1  0.79124000  0.11334000  0.80883900  1
  Cu  Cu55  1  0.93579000  0.23013800  0.65103500  1
  Cu  Cu56  1  0.38849900  0.40129600  0.98322900  1
  Cu  Cu57  1  0.29124000  0.11334000  0.69116100  1
  Cu  Cu58  1  0.88551000  0.60569900  0.85029500  1
  Cu  Cu59  1  0.88849900  0.40129600  0.51677100  1
  Cu  Cu60  1  0.99553300  0.98556100  0.66687400  1
  Cu  Cu61  1  0.49553300  0.51443900  0.16687400  1
  Cu  Cu62  1  0.88551000  0.89430100  0.14970500  1
  Cu  Cu63  1  0.17951500  0.16945300  0.43198700  1
  Cu  Cu64  1  0.43579000  0.26986200  0.15103500  1
  Cu  Cu65  1  0.37985700  0.08551000  0.53259900  1
  Cu  Cu66  1  0.00446700  0.01443900  0.33312600  1
  Cu  Cu67  1  0.43579000  0.23013800  0.84896500  1
  Cu  Cu68  1  0.61449000  0.39430100  0.35029500  1
  Cu  Cu69  1  0.87985700  0.41449000  0.03259900  1
  Cu  Cu70  1  0.20876000  0.88666000  0.19116100  1
  Cu  Cu71  1  0.62014300  0.91449000  0.46740100  1
  Cu  Cu72  1  0.62014300  0.58551000  0.53259900  1
  Cu  Cu73  1  0.50446700  0.01443900  0.16687400  1
  Cu  Cu74  1  0.11449000  0.39430100  0.14970500  1
  Cu  Cu75  1  0.88849900  0.09870400  0.48322900  1
  Cu  Cu76  1  0.37985700  0.41449000  0.46740100  1
  Cu  Cu77  1  0.06932700  0.38799600  0.85295200  1
  Cu  Cu78  1  0.06932700  0.11200400  0.14704800  1
  Cu  Cu79  1  0.56421000  0.73013800  0.84896500  1
  Cu  Cu80  1  0.93067300  0.88799600  0.85295200  1
  Cu  Cu81  1  0.49553300  0.98556100  0.83312600  1
  Cu  Cu82  1  0.50446700  0.48556100  0.83312600  1
  Cu  Cu83  1  0.43067300  0.88799600  0.64704800  1
  Cu  Cu84  1  0.61150100  0.90129600  0.98322900  1
  Cu  Cu85  1  0.32048500  0.66945300  0.06801300  1
  Cu  Cu86  1  0.06421000  0.76986200  0.34896500  1
  Cu  Cu87  1  0.38551000  0.60569900  0.64970500  1
  Cu  Cu88  1  0.43067300  0.61200400  0.35295200  1
  Cu  Cu89  1  0.82048500  0.83054700  0.56801300  1
  Cu  Cu90  1  0.32048500  0.83054700  0.93198700  1
  Cu  Cu91  1  0.17951500  0.33054700  0.56801300  1
  Cu  Cu92  1  0.12014300  0.58551000  0.96740100  1
  Cu  Cu93  1  0.06421000  0.73013800  0.65103500  1
  Cu  Cu94  1  0.93579000  0.26986200  0.34896500  1
  Cu  Cu95  1  0.67951500  0.33054700  0.93198700  1
  Cu  Cu96  1  0.20876000  0.61334000  0.80883900  1
  Cu  Cu97  1  0.70876000  0.88666000  0.30883900  1
  Cu  Cu98  1  0.56932700  0.11200400  0.35295200  1
  Cu  Cu99  1  0.11150100  0.90129600  0.51677100  1
