# generated using pymatgen
data_Cu3NiC
_symmetry_space_group_name_H-M   'P 1'
_cell_length_a   6.42837297
_cell_length_b   6.42837297
_cell_length_c   12.17196300
_cell_angle_alpha   90.00000000
_cell_angle_beta   90.00000000
_cell_angle_gamma   119.99998940
_symmetry_Int_Tables_number   1
_chemical_formula_structural   Cu3NiC
_chemical_formula_sum   'Cu12 Ni4 C4'
_cell_volume   435.60557993
_cell_formula_units_Z   4
loop_
 _symmetry_equiv_pos_site_id
 _symmetry_equiv_pos_as_xyz
  1  'x, y, z'
loop_
 _atom_site_type_symbol
 _atom_site_label
 _atom_site_symmetry_multiplicity
 _atom_site_fract_x
 _atom_site_fract_y
 _atom_site_fract_z
 _atom_site_occupancy
  C  C0  1  0.66666700  0.33333300  0.24482600  1
  C  C1  1  0.00000000  0.00000000  0.00515000  1
  C  C2  1  0.33333300  0.66666700  0.74482600  1
  C  C3  1  0.00000000  0.00000000  0.50515000  1
  Ni  Ni4  1  0.33333300  0.66666700  0.22078700  1
  Ni  Ni5  1  0.66666700  0.33333300  0.72078700  1
  Ni  Ni6  1  0.33333300  0.66666700  0.40176900  1
  Ni  Ni7  1  0.66666700  0.33333300  0.90176900  1
  Cu  Cu8  1  0.41012300  0.20506200  0.69162700  1
  Cu  Cu9  1  0.07751100  0.53875600  0.43303200  1
  Cu  Cu10  1  0.20506200  0.41012300  0.19162700  1
  Cu  Cu11  1  0.53875600  0.07751100  0.93303200  1
  Cu  Cu12  1  0.46124400  0.92248900  0.43303200  1
  Cu  Cu13  1  0.92248900  0.46124400  0.93303200  1
  Cu  Cu14  1  0.20506200  0.79493800  0.19162700  1
  Cu  Cu15  1  0.79493800  0.58987700  0.69162700  1
  Cu  Cu16  1  0.58987700  0.79493800  0.19162700  1
  Cu  Cu17  1  0.79493800  0.20506200  0.69162700  1
  Cu  Cu18  1  0.53875600  0.46124400  0.93303200  1
  Cu  Cu19  1  0.46124400  0.53875600  0.43303200  1
