# generated using pymatgen
data_Cu4NiC2
_symmetry_space_group_name_H-M   'P 1'
_cell_length_a   4.97114080
_cell_length_b   4.97114080
_cell_length_c   6.21114100
_cell_angle_alpha   90.00000000
_cell_angle_beta   90.00000000
_cell_angle_gamma   112.00974972
_symmetry_Int_Tables_number   1
_chemical_formula_structural   Cu4NiC2
_chemical_formula_sum   'Cu8 Ni2 C4'
_cell_volume   142.30478752
_cell_formula_units_Z   2
loop_
 _symmetry_equiv_pos_site_id
 _symmetry_equiv_pos_as_xyz
  1  'x, y, z'
loop_
 _atom_site_type_symbol
 _atom_site_label
 _atom_site_symmetry_multiplicity
 _atom_site_fract_x
 _atom_site_fract_y
 _atom_site_fract_z
 _atom_site_occupancy
  C  C0  1  0.50000000  0.50000000  0.50000000  1
  C  C1  1  0.17486600  0.82513400  0.25000000  1
  C  C2  1  0.50000000  0.50000000  0.00000000  1
  C  C3  1  0.82513400  0.17486600  0.75000000  1
  Ni  Ni4  1  0.14663800  0.85336200  0.75000000  1
  Ni  Ni5  1  0.85336200  0.14663800  0.25000000  1
  Cu  Cu6  1  0.74523800  0.82080400  0.25000000  1
  Cu  Cu7  1  0.17919600  0.25476200  0.25000000  1
  Cu  Cu8  1  0.74922900  0.25077100  0.44431200  1
  Cu  Cu9  1  0.25476200  0.17919600  0.75000000  1
  Cu  Cu10  1  0.74922900  0.25077100  0.05568800  1
  Cu  Cu11  1  0.82080400  0.74523800  0.75000000  1
  Cu  Cu12  1  0.25077100  0.74922900  0.55568800  1
  Cu  Cu13  1  0.25077100  0.74922900  0.94431200  1
