# generated using pymatgen
data_CuNi2C15
_symmetry_space_group_name_H-M   'P 1'
_cell_length_a   14.31293300
_cell_length_b   10.03188200
_cell_length_c   18.09003592
_cell_angle_alpha   61.85598913
_cell_angle_beta   90.00000000
_cell_angle_gamma   90.00000000
_symmetry_Int_Tables_number   1
_chemical_formula_structural   CuNi2C15
_chemical_formula_sum   'Cu4 Ni8 C60'
_cell_volume   2290.35732473
_cell_formula_units_Z   4
loop_
 _symmetry_equiv_pos_site_id
 _symmetry_equiv_pos_as_xyz
  1  'x, y, z'
loop_
 _atom_site_type_symbol
 _atom_site_label
 _atom_site_symmetry_multiplicity
 _atom_site_fract_x
 _atom_site_fract_y
 _atom_site_fract_z
 _atom_site_occupancy
  C  C0  1  0.58522900  0.35026300  0.72325700  1
  C  C1  1  0.91477100  0.35026300  0.22325700  1
  C  C2  1  0.41477100  0.64973700  0.27674300  1
  C  C3  1  0.08522900  0.64973700  0.77674300  1
  C  C4  1  0.91467400  0.72040700  0.50523600  1
  C  C5  1  0.39398000  0.83796400  0.65724900  1
  C  C6  1  0.10602000  0.83796400  0.15724900  1
  C  C7  1  0.41467400  0.27959300  0.99476400  1
  C  C8  1  0.60602000  0.16203600  0.34275100  1
  C  C9  1  0.89398000  0.16203600  0.84275100  1
  C  C10  1  0.08532600  0.27959300  0.49476400  1
  C  C11  1  0.58532600  0.72040700  0.00523600  1
  Ni  Ni12  1  0.77864900  0.71425400  0.27269900  1
  Ni  Ni13  1  0.72135100  0.71425400  0.77269900  1
  Ni  Ni14  1  0.22173500  0.92237700  0.41968700  1
  Ni  Ni15  1  0.22135100  0.28574600  0.72730100  1
  Ni  Ni16  1  0.27826500  0.92237700  0.91968700  1
  Ni  Ni17  1  0.72173500  0.07762300  0.08031300  1
  Ni  Ni18  1  0.27864900  0.28574600  0.22730100  1
  Ni  Ni19  1  0.77826500  0.07762300  0.58031300  1
  Cu  Cu20  1  0.67319400  0.38216000  0.91918700  1
  Cu  Cu21  1  0.32680600  0.61784000  0.08081300  1
  Cu  Cu22  1  0.82680600  0.38216000  0.41918700  1
  Cu  Cu23  1  0.17319400  0.61784000  0.58081300  1
  C  C24  1  0.18382800  0.01068100  0.75773100  1
  C  C25  1  0.72428800  0.82858700  0.36531700  1
  C  C26  1  0.78726700  0.57360300  0.69575700  1
  C  C27  1  0.21273300  0.42639700  0.30424300  1
  C  C28  1  0.88447300  0.85068500  0.67458400  1
  C  C29  1  0.11552700  0.14931500  0.32541600  1
  C  C30  1  0.33339300  0.15542600  0.39151000  1
  C  C31  1  0.31617200  0.01068100  0.25773100  1
  C  C32  1  0.92420800  0.09976300  0.66001000  1
  C  C33  1  0.77571200  0.82858700  0.86531700  1
  C  C34  1  0.83671700  0.10654200  0.44612300  1
  C  C35  1  0.71273300  0.57360300  0.19575700  1
  C  C36  1  0.37289600  0.51558100  0.49781300  1
  C  C37  1  0.27571200  0.17141300  0.63468300  1
  C  C38  1  0.06590800  0.39692600  0.67580100  1
  C  C39  1  0.81617200  0.98931900  0.24226900  1
  C  C40  1  0.22428800  0.17141300  0.13468300  1
  C  C41  1  0.83339300  0.84457400  0.10849000  1
  C  C42  1  0.76850100  0.34863400  0.57185500  1
  C  C43  1  0.56590800  0.60307400  0.82419900  1
  C  C44  1  0.61552700  0.85068500  0.17458400  1
  C  C45  1  0.16328300  0.89345800  0.55387700  1
  C  C46  1  0.62710400  0.48441900  0.50218700  1
  C  C47  1  0.87289600  0.48441900  0.00218700  1
  C  C48  1  0.09879400  0.90180000  0.93600400  1
  C  C49  1  0.57579200  0.09976300  0.16001000  1
  C  C50  1  0.26850100  0.65136600  0.92814500  1
  C  C51  1  0.38447300  0.14931500  0.82541600  1
  C  C52  1  0.93409200  0.60307400  0.32419900  1
  C  C53  1  0.84908200  0.50643600  0.85974800  1
  C  C54  1  0.90120600  0.09820000  0.06399600  1
  C  C55  1  0.66660700  0.84457400  0.60849000  1
  C  C56  1  0.73149900  0.34863400  0.07185500  1
  C  C57  1  0.43409200  0.39692600  0.17580100  1
  C  C58  1  0.66328300  0.10654200  0.94612300  1
  C  C59  1  0.59879400  0.09820000  0.56399600  1
  C  C60  1  0.65091800  0.50643600  0.35974800  1
  C  C61  1  0.12710400  0.51558100  0.99781300  1
  C  C62  1  0.34908200  0.49356400  0.64025200  1
  C  C63  1  0.23149900  0.65136600  0.42814500  1
  C  C64  1  0.16660700  0.15542600  0.89151000  1
  C  C65  1  0.42420800  0.90023700  0.83999000  1
  C  C66  1  0.07579200  0.90023700  0.33999000  1
  C  C67  1  0.40120600  0.90180000  0.43600400  1
  C  C68  1  0.28726700  0.42639700  0.80424300  1
  C  C69  1  0.33671700  0.89345800  0.05387700  1
  C  C70  1  0.15091800  0.49356400  0.14025200  1
  C  C71  1  0.68382800  0.98931900  0.74226900  1
