# generated using pymatgen
data_Cu3Ni10C3
_symmetry_space_group_name_H-M   'P 1'
_cell_length_a   19.57805900
_cell_length_b   8.02314000
_cell_length_c   12.91742246
_cell_angle_alpha   82.42119536
_cell_angle_beta   90.00000000
_cell_angle_gamma   90.00000000
_symmetry_Int_Tables_number   1
_chemical_formula_structural   Cu3Ni10C3
_chemical_formula_sum   'Cu12 Ni40 C12'
_cell_volume   2011.31167812
_cell_formula_units_Z   4
loop_
 _symmetry_equiv_pos_site_id
 _symmetry_equiv_pos_as_xyz
  1  'x, y, z'
loop_
 _atom_site_type_symbol
 _atom_site_label
 _atom_site_symmetry_multiplicity
 _atom_site_fract_x
 _atom_site_fract_y
 _atom_site_fract_z
 _atom_site_occupancy
  C  C0  1  0.85183000  0.66195100  0.33166900  1
  C  C1  1  0.99988800  0.74775800  0.25010600  1
  C  C2  1  0.49988800  0.25224200  0.74989400  1
  C  C3  1  0.14784800  0.82187100  0.16467400  1
  C  C4  1  0.50011200  0.74775800  0.25010600  1
  C  C5  1  0.35215200  0.82187100  0.16467400  1
  C  C6  1  0.00011200  0.25224200  0.74989400  1
  C  C7  1  0.64817000  0.66195100  0.33166900  1
  C  C8  1  0.35183000  0.33804900  0.66833100  1
  C  C9  1  0.14817000  0.33804900  0.66833100  1
  C  C10  1  0.85215200  0.17812900  0.83532600  1
  C  C11  1  0.64784800  0.17812900  0.83532600  1
  Ni  Ni12  1  0.58631900  0.95138100  0.34050800  1
  Ni  Ni13  1  0.60934000  0.71516800  0.13154600  1
  Ni  Ni14  1  0.25000000  0.10850600  0.71862400  1
  Ni  Ni15  1  0.08797100  0.98106800  0.30564700  1
  Ni  Ni16  1  0.75000000  0.89149400  0.28137600  1
  Ni  Ni17  1  0.54239700  0.96752900  0.86282200  1
  Ni  Ni18  1  0.75000000  0.14227300  0.69591400  1
  Ni  Ni19  1  0.08631900  0.04861900  0.65949200  1
  Ni  Ni20  1  0.41368100  0.04861900  0.65949200  1
  Ni  Ni21  1  0.25000000  0.23615700  0.54510200  1
  Ni  Ni22  1  0.60798000  0.45153600  0.70859100  1
  Ni  Ni23  1  0.89066000  0.71516800  0.13154600  1
  Ni  Ni24  1  0.54125500  0.72140200  0.44903400  1
  Ni  Ni25  1  0.25000000  0.05698700  0.15443600  1
  Ni  Ni26  1  0.57100700  0.41631700  0.88662000  1
  Ni  Ni27  1  0.58797100  0.01893200  0.69435300  1
  Ni  Ni28  1  0.92682300  0.46362400  0.23746700  1
  Ni  Ni29  1  0.10934000  0.28483200  0.86845400  1
  Ni  Ni30  1  0.42682300  0.53637600  0.76253300  1
  Ni  Ni31  1  0.07100700  0.58368300  0.11338000  1
  Ni  Ni32  1  0.04125500  0.27859800  0.55096600  1
  Ni  Ni33  1  0.10798000  0.54846400  0.29140900  1
  Ni  Ni34  1  0.75000000  0.94301300  0.84556400  1
  Ni  Ni35  1  0.42899300  0.58368300  0.11338000  1
  Ni  Ni36  1  0.25000000  0.85772700  0.30408600  1
  Ni  Ni37  1  0.57317700  0.46362400  0.23746700  1
  Ni  Ni38  1  0.91202900  0.01893200  0.69435300  1
  Ni  Ni39  1  0.41202900  0.98106800  0.30564700  1
  Ni  Ni40  1  0.92899300  0.41631700  0.88662000  1
  Ni  Ni41  1  0.04239700  0.03247100  0.13717800  1
  Ni  Ni42  1  0.95874500  0.72140200  0.44903400  1
  Ni  Ni43  1  0.07317700  0.53637600  0.76253300  1
  Ni  Ni44  1  0.89202000  0.45153600  0.70859100  1
  Ni  Ni45  1  0.75000000  0.76384300  0.45489800  1
  Ni  Ni46  1  0.45760300  0.03247100  0.13717800  1
  Ni  Ni47  1  0.39066000  0.28483200  0.86845400  1
  Ni  Ni48  1  0.95760300  0.96752900  0.86282200  1
  Ni  Ni49  1  0.39202000  0.54846400  0.29140900  1
  Ni  Ni50  1  0.45874500  0.27859800  0.55096600  1
  Ni  Ni51  1  0.91368100  0.95138100  0.34050800  1
  Cu  Cu52  1  0.64671700  0.38784200  0.48156300  1
  Cu  Cu53  1  0.14671700  0.61215800  0.51843700  1
  Cu  Cu54  1  0.25000000  0.61917100  0.10656600  1
  Cu  Cu55  1  0.35432600  0.90995600  0.95331800  1
  Cu  Cu56  1  0.35328300  0.61215800  0.51843700  1
  Cu  Cu57  1  0.75000000  0.47483000  0.25947100  1
  Cu  Cu58  1  0.64567400  0.09004400  0.04668200  1
  Cu  Cu59  1  0.25000000  0.52517000  0.74052900  1
  Cu  Cu60  1  0.75000000  0.38082900  0.89343400  1
  Cu  Cu61  1  0.85432600  0.09004400  0.04668200  1
  Cu  Cu62  1  0.85328300  0.38784200  0.48156300  1
  Cu  Cu63  1  0.14567400  0.90995600  0.95331800  1
