# generated using pymatgen
data_Cu3NiC10
_symmetry_space_group_name_H-M   'P 1'
_cell_length_a   12.76595404
_cell_length_b   12.76595404
_cell_length_c   12.76595404
_cell_angle_alpha   109.47122063
_cell_angle_beta   109.47122063
_cell_angle_gamma   109.47122063
_symmetry_Int_Tables_number   1
_chemical_formula_structural   Cu3NiC10
_chemical_formula_sum   'Cu24 Ni8 C80'
_cell_volume   1601.54054792
_cell_formula_units_Z   8
loop_
 _symmetry_equiv_pos_site_id
 _symmetry_equiv_pos_as_xyz
  1  'x, y, z'
loop_
 _atom_site_type_symbol
 _atom_site_label
 _atom_site_symmetry_multiplicity
 _atom_site_fract_x
 _atom_site_fract_y
 _atom_site_fract_z
 _atom_site_occupancy
  C  C0  1  0.00000000  0.78016400  0.50000000  1
  C  C1  1  0.50000000  0.00000000  0.28016400  1
  C  C2  1  0.00000000  0.28016400  0.50000000  1
  C  C3  1  0.50000000  0.00000000  0.78016400  1
  C  C4  1  0.71983600  0.71983600  0.71983600  1
  C  C5  1  0.28016400  0.50000000  0.00000000  1
  C  C6  1  0.78016400  0.50000000  0.00000000  1
  C  C7  1  0.21983600  0.21983600  0.21983600  1
  Ni  Ni8  1  0.00000000  0.03009800  0.50000000  1
  Ni  Ni9  1  0.50000000  0.00000000  0.53009800  1
  Ni  Ni10  1  0.46990200  0.46990200  0.46990200  1
  Ni  Ni11  1  0.53009800  0.50000000  0.00000000  1
  Ni  Ni12  1  0.96990200  0.96990200  0.96990200  1
  Ni  Ni13  1  0.03009800  0.50000000  0.00000000  1
  Ni  Ni14  1  0.00000000  0.53009800  0.50000000  1
  Ni  Ni15  1  0.50000000  0.00000000  0.03009800  1
  Cu  Cu16  1  0.71964700  0.50553900  0.44219700  1
  Cu  Cu17  1  0.05780300  0.56334200  0.27745000  1
  Cu  Cu18  1  0.71410800  0.93665800  0.99446100  1
  Cu  Cu19  1  0.44219700  0.71964700  0.50553900  1
  Cu  Cu20  1  0.00553900  0.21964700  0.94219700  1
  Cu  Cu21  1  0.27745000  0.05780300  0.56334200  1
  Cu  Cu22  1  0.72255000  0.28035300  0.28589200  1
  Cu  Cu23  1  0.21410800  0.49446100  0.43665800  1
  Cu  Cu24  1  0.28035300  0.28589200  0.72255000  1
  Cu  Cu25  1  0.78035300  0.22255000  0.78589200  1
  Cu  Cu26  1  0.56334200  0.27745000  0.05780300  1
  Cu  Cu27  1  0.77745000  0.06334200  0.55780300  1
  Cu  Cu28  1  0.22255000  0.78589200  0.78035300  1
  Cu  Cu29  1  0.94219700  0.00553900  0.21964700  1
  Cu  Cu30  1  0.21964700  0.94219700  0.00553900  1
  Cu  Cu31  1  0.55780300  0.77745000  0.06334200  1
  Cu  Cu32  1  0.28589200  0.72255000  0.28035300  1
  Cu  Cu33  1  0.50553900  0.44219700  0.71964700  1
  Cu  Cu34  1  0.99446100  0.71410800  0.93665800  1
  Cu  Cu35  1  0.49446100  0.43665800  0.21410800  1
  Cu  Cu36  1  0.06334200  0.55780300  0.77745000  1
  Cu  Cu37  1  0.93665800  0.99446100  0.71410800  1
  Cu  Cu38  1  0.78589200  0.78035300  0.22255000  1
  Cu  Cu39  1  0.43665800  0.21410800  0.49446100  1
  C  C40  1  0.49794500  0.13545700  0.96932100  1
  C  C41  1  0.52057400  0.32169700  0.64527500  1
  C  C42  1  0.86248800  0.83386400  0.36454300  1
  C  C43  1  0.13961700  0.22678600  0.63354800  1
  C  C44  1  0.30112300  0.12470000  0.47942600  1
  C  C45  1  0.36038300  0.99393100  0.08717000  1
  C  C46  1  0.36645200  0.00606900  0.59323900  1
  C  C47  1  0.85472500  0.17642200  0.87530000  1
  C  C48  1  0.59323900  0.36645200  0.00606900  1
  C  C49  1  0.82169700  0.02057400  0.14527500  1
  C  C50  1  0.47137600  0.50205500  0.13751200  1
  C  C51  1  0.27321400  0.41283000  0.40676100  1
  C  C52  1  0.09323900  0.50606900  0.86645200  1
  C  C53  1  0.00205500  0.97137600  0.63751200  1
  C  C54  1  0.90676100  0.91283000  0.77321400  1
  C  C55  1  0.72678600  0.63961700  0.13354800  1
  C  C56  1  0.50205500  0.13751200  0.47137600  1
  C  C57  1  0.37530000  0.67642200  0.35472500  1
  C  C58  1  0.13751200  0.47137600  0.50205500  1
  C  C59  1  0.83386400  0.36454300  0.86248800  1
  C  C60  1  0.97137600  0.63751200  0.00205500  1
  C  C61  1  0.36454300  0.86248800  0.83386400  1
  C  C62  1  0.14527500  0.82169700  0.02057400  1
  C  C63  1  0.87530000  0.85472500  0.17642200  1
  C  C64  1  0.33386400  0.36248800  0.86454300  1
  C  C65  1  0.36248800  0.86454300  0.33386400  1
  C  C66  1  0.64527500  0.52057400  0.32169700  1
  C  C67  1  0.77321400  0.90676100  0.91283000  1
  C  C68  1  0.03067900  0.02862400  0.16613600  1
  C  C69  1  0.50606900  0.86645200  0.09323900  1
  C  C70  1  0.22678600  0.63354800  0.13961700  1
  C  C71  1  0.63751200  0.00205500  0.97137600  1
  C  C72  1  0.32169700  0.64527500  0.52057400  1
  C  C73  1  0.66613600  0.52862400  0.53067900  1
  C  C74  1  0.99794500  0.46932100  0.63545700  1
  C  C75  1  0.82357800  0.19887700  0.67830300  1
  C  C76  1  0.96932100  0.49794500  0.13545700  1
  C  C77  1  0.67830300  0.82357800  0.19887700  1
  C  C78  1  0.91283000  0.77321400  0.90676100  1
  C  C79  1  0.17830300  0.69887700  0.32357800  1
  C  C80  1  0.08717000  0.36038300  0.99393100  1
  C  C81  1  0.35472500  0.37530000  0.67642200  1
  C  C82  1  0.12470000  0.47942600  0.30112300  1
  C  C83  1  0.46932100  0.63545700  0.99794500  1
  C  C84  1  0.97942600  0.62470000  0.80112300  1
  C  C85  1  0.00606900  0.59323900  0.36645200  1
  C  C86  1  0.49393100  0.86038300  0.58717000  1
  C  C87  1  0.53067900  0.66613600  0.52862400  1
  C  C88  1  0.80112300  0.97942600  0.62470000  1
  C  C89  1  0.99393100  0.08717000  0.36038300  1
  C  C90  1  0.86645200  0.09323900  0.50606900  1
  C  C91  1  0.13354800  0.72678600  0.63961700  1
  C  C92  1  0.47942600  0.30112300  0.12470000  1
  C  C93  1  0.62470000  0.80112300  0.97942600  1
  C  C94  1  0.69887700  0.32357800  0.17830300  1
  C  C95  1  0.52862400  0.53067900  0.66613600  1
  C  C96  1  0.86454300  0.33386400  0.36248800  1
  C  C97  1  0.17642200  0.87530000  0.85472500  1
  C  C98  1  0.02862400  0.16613600  0.03067900  1
  C  C99  1  0.63354800  0.13961700  0.22678600  1
  C  C100  1  0.41283000  0.40676100  0.27321400  1
  C  C101  1  0.32357800  0.17830300  0.69887700  1
  C  C102  1  0.19887700  0.67830300  0.82357800  1
  C  C103  1  0.86038300  0.58717000  0.49393100  1
  C  C104  1  0.63545700  0.99794500  0.46932100  1
  C  C105  1  0.40676100  0.27321400  0.41283000  1
  C  C106  1  0.67642200  0.35472500  0.37530000  1
  C  C107  1  0.16613600  0.03067900  0.02862400  1
  C  C108  1  0.02057400  0.14527500  0.82169700  1
  C  C109  1  0.63961700  0.13354800  0.72678600  1
  C  C110  1  0.58717000  0.49393100  0.86038300  1
  C  C111  1  0.13545700  0.96932100  0.49794500  1
