# generated using pymatgen
data_CuNiC15
_symmetry_space_group_name_H-M   'P 1'
_cell_length_a   7.06690100
_cell_length_b   8.31912200
_cell_length_c   10.11105417
_cell_angle_alpha   105.75106039
_cell_angle_beta   99.60749530
_cell_angle_gamma   114.36577466
_symmetry_Int_Tables_number   1
_chemical_formula_structural   CuNiC15
_chemical_formula_sum   'Cu2 Ni2 C30'
_cell_volume   494.08320570
_cell_formula_units_Z   2
loop_
 _symmetry_equiv_pos_site_id
 _symmetry_equiv_pos_as_xyz
  1  'x, y, z'
loop_
 _atom_site_type_symbol
 _atom_site_label
 _atom_site_symmetry_multiplicity
 _atom_site_fract_x
 _atom_site_fract_y
 _atom_site_fract_z
 _atom_site_occupancy
  Ni  Ni0  1  0.15767900  0.79919800  0.98965100  1
  Ni  Ni1  1  0.84232100  0.20080200  0.01034900  1
  Cu  Cu2  1  0.83608700  0.86244500  0.58933500  1
  Cu  Cu3  1  0.16391300  0.13755500  0.41066500  1
  C  C4  1  0.65811600  0.10643800  0.40710700  1
  C  C5  1  0.34188400  0.89356200  0.59289300  1
  C  C6  1  0.29285500  0.17651300  0.86818900  1
  C  C7  1  0.46389300  0.30013700  0.21138400  1
  C  C8  1  0.06296700  0.36389600  0.73037300  1
  C  C9  1  0.93703300  0.63610400  0.26962700  1
  C  C10  1  0.53610700  0.69986300  0.78861600  1
  C  C11  1  0.70714500  0.82348700  0.13181100  1
  C  C12  1  0.37110500  0.63835200  0.26856800  1
  C  C13  1  0.62889500  0.36164800  0.73143200  1
  C  C14  1  0.11010400  0.57621200  0.20690600  1
  C  C15  1  0.87678800  0.73829300  0.16187600  1
  C  C16  1  0.53545100  0.32450200  0.86588900  1
  C  C17  1  0.62478500  0.55245900  0.71576700  1
  C  C18  1  0.57756800  0.85668400  0.71860700  1
  C  C19  1  0.49799600  0.17595800  0.58340700  1
  C  C20  1  0.37521500  0.44754100  0.28423300  1
  C  C21  1  0.32336200  0.18723700  0.03616400  1
  C  C22  1  0.96837100  0.22559400  0.56355500  1
  C  C23  1  0.88989600  0.42378800  0.79309400  1
  C  C24  1  0.72294000  0.42688300  0.22755700  1
  C  C25  1  0.12321200  0.26170700  0.83812400  1
  C  C26  1  0.67663800  0.81276300  0.96383600  1
  C  C27  1  0.50200400  0.82404200  0.41659300  1
  C  C28  1  0.80329000  0.03800100  0.24169000  1
  C  C29  1  0.19671000  0.96199900  0.75831000  1
  C  C30  1  0.46454900  0.67549800  0.13411100  1
  C  C31  1  0.03162900  0.77440600  0.43644500  1
  C  C32  1  0.27706000  0.57311700  0.77244300  1
  C  C33  1  0.42243200  0.14331600  0.28139300  1
