# generated using pymatgen
data_CuNiC4
_symmetry_space_group_name_H-M   'P 1'
_cell_length_a   13.78871831
_cell_length_b   13.78871831
_cell_length_c   12.85213988
_cell_angle_alpha   62.66492078
_cell_angle_beta   62.66492078
_cell_angle_gamma   44.57941243
_symmetry_Int_Tables_number   1
_chemical_formula_structural   CuNiC4
_chemical_formula_sum   'Cu12 Ni12 C48'
_cell_volume   1489.01408845
_cell_formula_units_Z   12
loop_
 _symmetry_equiv_pos_site_id
 _symmetry_equiv_pos_as_xyz
  1  'x, y, z'
loop_
 _atom_site_type_symbol
 _atom_site_label
 _atom_site_symmetry_multiplicity
 _atom_site_fract_x
 _atom_site_fract_y
 _atom_site_fract_z
 _atom_site_occupancy
  Ni  Ni0  1  0.56609900  0.56609900  0.31046400  1
  Ni  Ni1  1  0.11083000  0.66354900  0.48605200  1
  Ni  Ni2  1  0.20482700  0.20482700  0.66744700  1
  Ni  Ni3  1  0.65560900  0.65560900  0.78784900  1
  Ni  Ni4  1  0.33645100  0.88917000  0.51394800  1
  Ni  Ni5  1  0.71670700  0.28329300  0.00000000  1
  Ni  Ni6  1  0.88917000  0.33645100  0.51394800  1
  Ni  Ni7  1  0.79517300  0.79517300  0.33255300  1
  Ni  Ni8  1  0.66354900  0.11083000  0.48605200  1
  Ni  Ni9  1  0.34439100  0.34439100  0.21215100  1
  Ni  Ni10  1  0.43390100  0.43390100  0.68953600  1
  Ni  Ni11  1  0.28329300  0.71670700  0.00000000  1
  Cu  Cu12  1  0.33971500  0.33971500  0.60426200  1
  Cu  Cu13  1  0.88713600  0.33171200  0.76025700  1
  Cu  Cu14  1  0.79190500  0.79190500  0.58522500  1
  Cu  Cu15  1  0.56921500  0.56921500  0.05784800  1
  Cu  Cu16  1  0.66028500  0.66028500  0.39573800  1
  Cu  Cu17  1  0.28039800  0.71960200  0.50000000  1
  Cu  Cu18  1  0.43078500  0.43078500  0.94215200  1
  Cu  Cu19  1  0.66828800  0.11286400  0.23974300  1
  Cu  Cu20  1  0.11286400  0.66828800  0.23974300  1
  Cu  Cu21  1  0.20809500  0.20809500  0.41477500  1
  Cu  Cu22  1  0.71960200  0.28039800  0.50000000  1
  Cu  Cu23  1  0.33171200  0.88713600  0.76025700  1
  C  C24  1  0.94858200  0.70794900  0.57719500  1
  C  C25  1  0.51933700  0.75661300  0.47693400  1
  C  C26  1  0.76191600  0.49066400  0.75473200  1
  C  C27  1  0.65355900  0.41275100  0.06361800  1
  C  C28  1  0.63560700  0.63560700  0.30802500  1
  C  C29  1  0.69772100  0.97489800  0.26245700  1
  C  C30  1  0.61156200  0.34082800  0.61323200  1
  C  C31  1  0.27049800  0.27049800  0.67811000  1
  C  C32  1  0.89609200  0.28676500  0.66435700  1
  C  C33  1  0.29205100  0.05141800  0.42280500  1
  C  C34  1  0.41275100  0.65355900  0.06361800  1
  C  C35  1  0.72950200  0.72950200  0.32189000  1
  C  C36  1  0.02510200  0.30227900  0.73754300  1
  C  C37  1  0.34082800  0.61156200  0.61323200  1
  C  C38  1  0.86587100  0.24531900  0.88455200  1
  C  C39  1  0.36885100  0.36885100  0.05799800  1
  C  C40  1  0.58035000  0.58035000  0.16402700  1
  C  C41  1  0.97489800  0.69772100  0.26245700  1
  C  C42  1  0.22464200  0.22464200  0.51519800  1
  C  C43  1  0.70794900  0.94858200  0.57719500  1
  C  C44  1  0.13412900  0.75468100  0.11544800  1
  C  C45  1  0.49066400  0.76191600  0.75473200  1
  C  C46  1  0.48066300  0.24338700  0.52306600  1
  C  C47  1  0.63114900  0.63114900  0.94200200  1
  C  C48  1  0.10390800  0.71323500  0.33564300  1
  C  C49  1  0.05141800  0.29205100  0.42280500  1
  C  C50  1  0.73409300  0.73409300  0.70742300  1
  C  C51  1  0.75661300  0.51933700  0.47693400  1
  C  C52  1  0.26590700  0.26590700  0.29257700  1
  C  C53  1  0.50933600  0.23808400  0.24526800  1
  C  C54  1  0.38843800  0.65917200  0.38676800  1
  C  C55  1  0.36439300  0.36439300  0.69197500  1
  C  C56  1  0.58724900  0.34644100  0.93638200  1
  C  C57  1  0.28676500  0.89609200  0.66435700  1
  C  C58  1  0.24531900  0.86587100  0.88455200  1
  C  C59  1  0.75389100  0.14430500  0.50748700  1
  C  C60  1  0.75468100  0.13412900  0.11544800  1
  C  C61  1  0.24610900  0.85569500  0.49251300  1
  C  C62  1  0.30227900  0.02510200  0.73754300  1
  C  C63  1  0.24338700  0.48066300  0.52306600  1
  C  C64  1  0.71323500  0.10390800  0.33564300  1
  C  C65  1  0.65917200  0.38843800  0.38676800  1
  C  C66  1  0.23808400  0.50933600  0.24526800  1
  C  C67  1  0.85569500  0.24610900  0.49251300  1
  C  C68  1  0.14430500  0.75389100  0.50748700  1
  C  C69  1  0.77535800  0.77535800  0.48480200  1
  C  C70  1  0.34644100  0.58724900  0.93638200  1
  C  C71  1  0.41965000  0.41965000  0.83597300  1
