# generated using pymatgen
data_Cu5NiC2
_symmetry_space_group_name_H-M   'P 1'
_cell_length_a   3.85894700
_cell_length_b   7.79802900
_cell_length_c   11.37985100
_cell_angle_alpha   90.00000000
_cell_angle_beta   90.00000000
_cell_angle_gamma   90.00000000
_symmetry_Int_Tables_number   1
_chemical_formula_structural   Cu5NiC2
_chemical_formula_sum   'Cu10 Ni2 C4'
_cell_volume   342.44453167
_cell_formula_units_Z   2
loop_
 _symmetry_equiv_pos_site_id
 _symmetry_equiv_pos_as_xyz
  1  'x, y, z'
loop_
 _atom_site_type_symbol
 _atom_site_label
 _atom_site_symmetry_multiplicity
 _atom_site_fract_x
 _atom_site_fract_y
 _atom_site_fract_z
 _atom_site_occupancy
  C  C0  1  0.50000000  0.53611700  0.82743000  1
  C  C1  1  0.50000000  0.96388300  0.32743000  1
  C  C2  1  0.50000000  0.46388300  0.17257000  1
  C  C3  1  0.50000000  0.03611700  0.67257000  1
  Ni  Ni4  1  0.00000000  0.00000000  0.00000000  1
  Ni  Ni5  1  0.00000000  0.50000000  0.50000000  1
  Cu  Cu6  1  0.00000000  0.82857300  0.80350500  1
  Cu  Cu7  1  0.00000000  0.00000000  0.50000000  1
  Cu  Cu8  1  0.00000000  0.17142700  0.19649500  1
  Cu  Cu9  1  0.00000000  0.32857300  0.69649500  1
  Cu  Cu10  1  0.50000000  0.82625800  0.09320300  1
  Cu  Cu11  1  0.50000000  0.32625800  0.40679700  1
  Cu  Cu12  1  0.00000000  0.67142700  0.30350500  1
  Cu  Cu13  1  0.50000000  0.17374200  0.90679700  1
  Cu  Cu14  1  0.00000000  0.50000000  0.00000000  1
  Cu  Cu15  1  0.50000000  0.67374200  0.59320300  1
