# generated using pymatgen
data_CuNiC7
_symmetry_space_group_name_H-M   'P 1'
_cell_length_a   8.92291100
_cell_length_b   5.37315100
_cell_length_c   10.38543543
_cell_angle_alpha   87.82755018
_cell_angle_beta   90.00000000
_cell_angle_gamma   90.00000000
_symmetry_Int_Tables_number   1
_chemical_formula_structural   CuNiC7
_chemical_formula_sum   'Cu4 Ni4 C28'
_cell_volume   497.56297925
_cell_formula_units_Z   4
loop_
 _symmetry_equiv_pos_site_id
 _symmetry_equiv_pos_as_xyz
  1  'x, y, z'
loop_
 _atom_site_type_symbol
 _atom_site_label
 _atom_site_symmetry_multiplicity
 _atom_site_fract_x
 _atom_site_fract_y
 _atom_site_fract_z
 _atom_site_occupancy
  Ni  Ni0  1  0.70837500  0.75392500  0.49663400  1
  Ni  Ni1  1  0.20837500  0.24607500  0.00336600  1
  Ni  Ni2  1  0.79162500  0.75392500  0.99663400  1
  Ni  Ni3  1  0.29162500  0.24607500  0.50336600  1
  Cu  Cu4  1  0.07877900  0.71302400  0.73995600  1
  Cu  Cu5  1  0.57877900  0.28697600  0.76004400  1
  Cu  Cu6  1  0.92122100  0.28697600  0.26004400  1
  Cu  Cu7  1  0.42122100  0.71302400  0.23995600  1
  C  C8  1  0.91530300  0.21671300  0.74059600  1
  C  C9  1  0.41530300  0.78328700  0.75940400  1
  C  C10  1  0.58469700  0.21671300  0.24059600  1
  C  C11  1  0.08469700  0.78328700  0.25940400  1
  C  C12  1  0.26505200  0.60702000  0.86098700  1
  C  C13  1  0.25560800  0.88297500  0.14891300  1
  C  C14  1  0.09299500  0.08447600  0.35761500  1
  C  C15  1  0.74439200  0.11702500  0.85108700  1
  C  C16  1  0.95166700  0.49206700  0.85966900  1
  C  C17  1  0.41889300  0.37451900  0.14616400  1
  C  C18  1  0.91889300  0.62548100  0.35383600  1
  C  C19  1  0.08110700  0.37451900  0.64616400  1
  C  C20  1  0.04833300  0.50793300  0.14033100  1
  C  C21  1  0.03846100  0.00638000  0.86115400  1
  C  C22  1  0.40700500  0.08447600  0.85761500  1
  C  C23  1  0.75560800  0.11702500  0.35108700  1
  C  C24  1  0.90700500  0.91552400  0.64238500  1
  C  C25  1  0.46153900  0.00638000  0.36115400  1
  C  C26  1  0.58110700  0.62548100  0.85383600  1
  C  C27  1  0.96153900  0.99362000  0.13884600  1
  C  C28  1  0.76505200  0.39298000  0.63901300  1
  C  C29  1  0.59299500  0.91552400  0.14238500  1
  C  C30  1  0.53846100  0.99362000  0.63884600  1
  C  C31  1  0.54833300  0.49206700  0.35966900  1
  C  C32  1  0.23494800  0.60702000  0.36098700  1
  C  C33  1  0.45166700  0.50793300  0.64033100  1
  C  C34  1  0.24439200  0.88297500  0.64891300  1
  C  C35  1  0.73494800  0.39298000  0.13901300  1
