# generated using pymatgen
data_Cu3NiC
_symmetry_space_group_name_H-M   'P 1'
_cell_length_a   6.28139600
_cell_length_b   12.70379500
_cell_length_c   18.57408200
_cell_angle_alpha   90.00000000
_cell_angle_beta   90.00000000
_cell_angle_gamma   90.00000000
_symmetry_Int_Tables_number   1
_chemical_formula_structural   Cu3NiC
_chemical_formula_sum   'Cu36 Ni12 C12'
_cell_volume   1482.16655468
_cell_formula_units_Z   12
loop_
 _symmetry_equiv_pos_site_id
 _symmetry_equiv_pos_as_xyz
  1  'x, y, z'
loop_
 _atom_site_type_symbol
 _atom_site_label
 _atom_site_symmetry_multiplicity
 _atom_site_fract_x
 _atom_site_fract_y
 _atom_site_fract_z
 _atom_site_occupancy
  C  C0  1  0.97228200  0.70074100  0.58358600  1
  C  C1  1  0.02771800  0.29925900  0.08358600  1
  C  C2  1  0.52771800  0.70074100  0.41641400  1
  C  C3  1  0.47228200  0.29925900  0.91641400  1
  C  C4  1  0.44088100  0.69451100  0.75000000  1
  C  C5  1  0.05911900  0.69451100  0.25000000  1
  C  C6  1  0.52771800  0.70074100  0.08358600  1
  C  C7  1  0.02771800  0.29925900  0.41641400  1
  C  C8  1  0.55911900  0.30548900  0.25000000  1
  C  C9  1  0.94088100  0.30548900  0.75000000  1
  C  C10  1  0.47228200  0.29925900  0.58358600  1
  C  C11  1  0.97228200  0.70074100  0.91641400  1
  Ni  Ni12  1  0.17294400  0.09906100  0.67589900  1
  Ni  Ni13  1  0.32705600  0.09906100  0.17589900  1
  Ni  Ni14  1  0.25000000  0.89767600  0.50000000  1
  Ni  Ni15  1  0.82705600  0.90093800  0.32410100  1
  Ni  Ni16  1  0.82705600  0.90093800  0.17589900  1
  Ni  Ni17  1  0.32705600  0.09906100  0.32410100  1
  Ni  Ni18  1  0.67294400  0.90093800  0.82410100  1
  Ni  Ni19  1  0.67294400  0.90093800  0.67589900  1
  Ni  Ni20  1  0.17294400  0.09906100  0.82410100  1
  Ni  Ni21  1  0.75000000  0.10232400  0.00000000  1
  Ni  Ni22  1  0.25000000  0.89767600  0.00000000  1
  Ni  Ni23  1  0.75000000  0.10232400  0.50000000  1
  Cu  Cu24  1  0.52671100  0.22416100  0.41583600  1
  Cu  Cu25  1  0.55536900  0.78008200  0.25000000  1
  Cu  Cu26  1  0.79543400  0.50352300  0.33401500  1
  Cu  Cu27  1  0.95887400  0.97423200  0.58670500  1
  Cu  Cu28  1  0.31608700  0.94310200  0.75000000  1
  Cu  Cu29  1  0.81608700  0.05689800  0.75000000  1
  Cu  Cu30  1  0.05536900  0.21991800  0.25000000  1
  Cu  Cu31  1  0.94463100  0.78008200  0.75000000  1
  Cu  Cu32  1  0.18391300  0.94310200  0.25000000  1
  Cu  Cu33  1  0.68391300  0.05689800  0.25000000  1
  Cu  Cu34  1  0.97328900  0.22416100  0.91583600  1
  Cu  Cu35  1  0.70456600  0.50352300  0.66598500  1
  Cu  Cu36  1  0.29543400  0.49647700  0.16598500  1
  Cu  Cu37  1  0.75000000  0.49626200  0.00000000  1
  Cu  Cu38  1  0.45887400  0.02576800  0.58670500  1
  Cu  Cu39  1  0.75000000  0.49626200  0.50000000  1
  Cu  Cu40  1  0.44463100  0.21991800  0.75000000  1
  Cu  Cu41  1  0.02671100  0.77583900  0.41583600  1
  Cu  Cu42  1  0.45887400  0.02576800  0.91329500  1
  Cu  Cu43  1  0.20456600  0.49647700  0.66598500  1
  Cu  Cu44  1  0.79543400  0.50352300  0.16598500  1
  Cu  Cu45  1  0.25000000  0.50373800  0.00000000  1
  Cu  Cu46  1  0.70456600  0.50352300  0.83401500  1
  Cu  Cu47  1  0.95887400  0.97423200  0.91329500  1
  Cu  Cu48  1  0.02671100  0.77583900  0.08416400  1
  Cu  Cu49  1  0.54112600  0.97423200  0.08670500  1
  Cu  Cu50  1  0.54112600  0.97423200  0.41329500  1
  Cu  Cu51  1  0.52671100  0.22416100  0.08416400  1
  Cu  Cu52  1  0.04112600  0.02576800  0.08670500  1
  Cu  Cu53  1  0.20456600  0.49647700  0.83401500  1
  Cu  Cu54  1  0.04112600  0.02576800  0.41329500  1
  Cu  Cu55  1  0.29543400  0.49647700  0.33401500  1
  Cu  Cu56  1  0.97328900  0.22416100  0.58416400  1
  Cu  Cu57  1  0.25000000  0.50373800  0.50000000  1
  Cu  Cu58  1  0.47328900  0.77583900  0.91583600  1
  Cu  Cu59  1  0.47328900  0.77583900  0.58416400  1
