# generated using pymatgen
data_Cu15Ni5C3
_symmetry_space_group_name_H-M   'P 1'
_cell_length_a   11.29777735
_cell_length_b   11.29777735
_cell_length_c   10.17580300
_cell_angle_alpha   90.00000000
_cell_angle_beta   90.00000000
_cell_angle_gamma   119.99999617
_symmetry_Int_Tables_number   1
_chemical_formula_structural   Cu15Ni5C3
_chemical_formula_sum   'Cu45 Ni15 C9'
_cell_volume   1124.82604075
_cell_formula_units_Z   3
loop_
 _symmetry_equiv_pos_site_id
 _symmetry_equiv_pos_as_xyz
  1  'x, y, z'
loop_
 _atom_site_type_symbol
 _atom_site_label
 _atom_site_symmetry_multiplicity
 _atom_site_fract_x
 _atom_site_fract_y
 _atom_site_fract_z
 _atom_site_occupancy
  C  C0  1  0.00000000  0.70500600  0.66666700  1
  C  C1  1  0.45799600  0.45799600  0.50000000  1
  C  C2  1  0.00000000  0.54200400  0.16666700  1
  C  C3  1  0.70500600  0.00000000  0.33333300  1
  C  C4  1  0.54200400  0.00000000  0.83333300  1
  C  C5  1  0.29499400  0.29499400  0.00000000  1
  C  C6  1  0.68609100  0.68609100  0.00000000  1
  C  C7  1  0.31390900  0.00000000  0.33333300  1
  C  C8  1  0.00000000  0.31390900  0.66666700  1
  Ni  Ni9  1  0.74737900  0.65467100  0.27315600  1
  Ni  Ni10  1  0.25262100  0.90729200  0.06017800  1
  Ni  Ni11  1  0.75732000  0.31638300  0.57881300  1
  Ni  Ni12  1  0.90030400  0.90030400  0.00000000  1
  Ni  Ni13  1  0.31638300  0.75732000  0.42118700  1
  Ni  Ni14  1  0.09969600  0.00000000  0.33333300  1
  Ni  Ni15  1  0.24268000  0.55906200  0.75452100  1
  Ni  Ni16  1  0.34532900  0.09270800  0.60648900  1
  Ni  Ni17  1  0.44093800  0.68361700  0.08785400  1
  Ni  Ni18  1  0.09270800  0.34532900  0.39351100  1
  Ni  Ni19  1  0.65467100  0.74737900  0.72684400  1
  Ni  Ni20  1  0.68361700  0.44093800  0.91214600  1
  Ni  Ni21  1  0.00000000  0.09969600  0.66666700  1
  Ni  Ni22  1  0.90729200  0.25262100  0.93982200  1
  Ni  Ni23  1  0.55906200  0.24268000  0.24547900  1
  Cu  Cu24  1  0.18883700  0.37724100  0.31623300  1
  Cu  Cu25  1  0.12401400  0.36207800  0.52076800  1
  Cu  Cu26  1  0.48962800  0.10780800  0.26369900  1
  Cu  Cu27  1  0.00809200  0.00809200  0.00000000  1
  Cu  Cu28  1  0.20797200  0.08848500  0.26977900  1
  Cu  Cu29  1  0.61074900  0.31582800  0.90107900  1
  Cu  Cu30  1  0.08848500  0.20797200  0.73022100  1
  Cu  Cu31  1  0.30061100  0.97190200  0.64083900  1
  Cu  Cu32  1  0.32870900  0.02809800  0.02582800  1
  Cu  Cu33  1  0.36207800  0.12401400  0.47923200  1
  Cu  Cu34  1  0.31582800  0.61074900  0.09892100  1
  Cu  Cu35  1  0.89219200  0.38182000  0.59703200  1
  Cu  Cu36  1  0.63792200  0.76193600  0.85410100  1
  Cu  Cu37  1  0.61818000  0.51037200  0.93036600  1
  Cu  Cu38  1  0.81159700  0.62275900  0.35043400  1
  Cu  Cu39  1  0.37724100  0.18883700  0.68376700  1
  Cu  Cu40  1  0.38182000  0.89219200  0.40296800  1
  Cu  Cu41  1  0.10780800  0.48962800  0.73630100  1
  Cu  Cu42  1  0.97190200  0.30061100  0.35916100  1
  Cu  Cu43  1  0.11948700  0.91151500  0.39688800  1
  Cu  Cu44  1  0.76193600  0.63792200  0.14589900  1
  Cu  Cu45  1  0.81070200  0.50473900  0.90614100  1
  Cu  Cu46  1  0.69403700  0.18929800  0.57280800  1
  Cu  Cu47  1  0.18929800  0.69403700  0.42719200  1
  Cu  Cu48  1  0.69938900  0.67129100  0.69249400  1
  Cu  Cu49  1  0.88051300  0.79202800  0.93644500  1
  Cu  Cu50  1  0.23806400  0.87598600  0.18743500  1
  Cu  Cu51  1  0.29492200  0.68417200  0.76558800  1
  Cu  Cu52  1  0.67129100  0.69938900  0.30750600  1
  Cu  Cu53  1  0.70507800  0.38925100  0.56774500  1
  Cu  Cu54  1  0.51037200  0.61818000  0.06963400  1
  Cu  Cu55  1  0.62275900  0.81159700  0.64956600  1
  Cu  Cu56  1  0.81116300  0.18840300  0.01710000  1
  Cu  Cu57  1  0.00000000  0.99190800  0.66666700  1
  Cu  Cu58  1  0.38925100  0.70507800  0.43225500  1
  Cu  Cu59  1  0.50473900  0.81070200  0.09385900  1
  Cu  Cu60  1  0.87598600  0.23806400  0.81256500  1
  Cu  Cu61  1  0.30596300  0.49526100  0.76052500  1
  Cu  Cu62  1  0.79202800  0.88051300  0.06355500  1
  Cu  Cu63  1  0.18840300  0.81116300  0.98290000  1
  Cu  Cu64  1  0.91151500  0.11948700  0.60311200  1
  Cu  Cu65  1  0.49526100  0.30596300  0.23947500  1
  Cu  Cu66  1  0.68417200  0.29492200  0.23441200  1
  Cu  Cu67  1  0.99190800  0.00000000  0.33333300  1
  Cu  Cu68  1  0.02809800  0.32870900  0.97417200  1
