# generated using pymatgen
data_CuNiC9
_symmetry_space_group_name_H-M   'P 1'
_cell_length_a   7.40563681
_cell_length_b   7.40563681
_cell_length_c   24.89941829
_cell_angle_alpha   81.72226790
_cell_angle_beta   81.72226790
_cell_angle_gamma   60.52527439
_symmetry_Int_Tables_number   1
_chemical_formula_structural   CuNiC9
_chemical_formula_sum   'Cu8 Ni8 C72'
_cell_volume   1172.19641206
_cell_formula_units_Z   8
loop_
 _symmetry_equiv_pos_site_id
 _symmetry_equiv_pos_as_xyz
  1  'x, y, z'
loop_
 _atom_site_type_symbol
 _atom_site_label
 _atom_site_symmetry_multiplicity
 _atom_site_fract_x
 _atom_site_fract_y
 _atom_site_fract_z
 _atom_site_occupancy
  C  C0  1  0.78246000  0.21754000  0.75000000  1
  C  C1  1  0.12906500  0.12244300  0.62184800  1
  C  C2  1  0.70643400  0.78904300  0.25154000  1
  C  C3  1  0.21095700  0.29356600  0.24846100  1
  C  C4  1  0.29356600  0.21095700  0.74846000  1
  C  C5  1  0.50000000  0.50000000  0.50000000  1
  C  C6  1  0.21754000  0.78246000  0.25000000  1
  C  C7  1  0.00000000  0.00000000  0.00000000  1
  C  C8  1  0.12244300  0.12906500  0.12184800  1
  C  C9  1  0.00000000  0.50000000  0.00000000  1
  C  C10  1  0.78904300  0.70643400  0.75154000  1
  C  C11  1  0.50000000  0.50000000  0.00000000  1
  C  C12  1  0.87093500  0.87755700  0.37815200  1
  C  C13  1  0.87755700  0.87093500  0.87815200  1
  C  C14  1  0.00000000  0.00000000  0.50000000  1
  C  C15  1  0.50000000  0.00000000  0.50000000  1
  Ni  Ni16  1  0.24665800  0.75334200  0.75000000  1
  Ni  Ni17  1  0.36482500  0.88947900  0.37469300  1
  Ni  Ni18  1  0.11052100  0.63517500  0.12530700  1
  Ni  Ni19  1  0.00000000  0.50000000  0.50000000  1
  Ni  Ni20  1  0.75334200  0.24665800  0.25000000  1
  Ni  Ni21  1  0.50000000  0.00000000  0.00000000  1
  Ni  Ni22  1  0.63517500  0.11052100  0.62530700  1
  Ni  Ni23  1  0.88947900  0.36482500  0.87469300  1
  Cu  Cu24  1  0.86664400  0.38746700  0.37379600  1
  Cu  Cu25  1  0.61330700  0.63006400  0.12757100  1
  Cu  Cu26  1  0.38746700  0.86664400  0.87379600  1
  Cu  Cu27  1  0.38669300  0.36993600  0.87242900  1
  Cu  Cu28  1  0.61253300  0.13335600  0.12620400  1
  Cu  Cu29  1  0.13335600  0.61253300  0.62620400  1
  Cu  Cu30  1  0.36993600  0.38669300  0.37242900  1
  Cu  Cu31  1  0.63006400  0.61330700  0.62757100  1
  C  C32  1  0.36409300  0.47487300  0.79095700  1
  C  C33  1  0.13730400  0.02587600  0.70926700  1
  C  C34  1  0.69120000  0.35710700  0.09927800  1
  C  C35  1  0.63809900  0.03223700  0.70464200  1
  C  C36  1  0.69953300  0.66305000  0.85907200  1
  C  C37  1  0.02587600  0.13730400  0.20926700  1
  C  C38  1  0.86269600  0.97412400  0.29073300  1
  C  C39  1  0.52512700  0.63590700  0.70904300  1
  C  C40  1  0.58209400  0.13543900  0.04574300  1
  C  C41  1  0.66305000  0.69953300  0.35907200  1
  C  C42  1  0.93350000  0.92388700  0.60946100  1
  C  C43  1  0.69940000  0.26990800  0.85903800  1
  C  C44  1  0.07611300  0.06650000  0.89053900  1
  C  C45  1  0.90708000  0.53627600  0.65383900  1
  C  C46  1  0.53617200  0.92363300  0.61030600  1
  C  C47  1  0.92388700  0.93350000  0.10946100  1
  C  C48  1  0.20615400  0.13159400  0.03171200  1
  C  C49  1  0.30060000  0.73009200  0.14096200  1
  C  C50  1  0.13618800  0.63518200  0.70680800  1
  C  C51  1  0.86456100  0.41790600  0.45425700  1
  C  C52  1  0.47487300  0.36409300  0.29095700  1
  C  C53  1  0.41891300  0.25849300  0.95323900  1
  C  C54  1  0.86381200  0.36481800  0.29319200  1
  C  C55  1  0.53627600  0.90708000  0.15383900  1
  C  C56  1  0.36481800  0.86381200  0.79319200  1
  C  C57  1  0.41790600  0.86456100  0.95425700  1
  C  C58  1  0.33695000  0.30046700  0.64092800  1
  C  C59  1  0.13543900  0.58209400  0.54574300  1
  C  C60  1  0.97412400  0.86269600  0.79073300  1
  C  C61  1  0.36190100  0.96776300  0.29535800  1
  C  C62  1  0.25849300  0.41891300  0.45323900  1
  C  C63  1  0.03223700  0.63809900  0.20464200  1
  C  C64  1  0.74150700  0.58108700  0.54676100  1
  C  C65  1  0.92363300  0.53617200  0.11030600  1
  C  C66  1  0.26990800  0.69940000  0.35903800  1
  C  C67  1  0.79384600  0.86840600  0.96828800  1
  C  C68  1  0.06650000  0.07611300  0.39053900  1
  C  C69  1  0.63518200  0.13618800  0.20680800  1
  C  C70  1  0.46372400  0.09292000  0.84616100  1
  C  C71  1  0.18412900  0.63578000  0.04561300  1
  C  C72  1  0.63590700  0.52512700  0.20904300  1
  C  C73  1  0.36422000  0.81587100  0.45438700  1
  C  C74  1  0.30046700  0.33695000  0.14092800  1
  C  C75  1  0.09292000  0.46372400  0.34616100  1
  C  C76  1  0.30880000  0.64289300  0.90072200  1
  C  C77  1  0.46382800  0.07636700  0.38969400  1
  C  C78  1  0.58108700  0.74150700  0.04676100  1
  C  C79  1  0.35710700  0.69120000  0.59927800  1
  C  C80  1  0.07636700  0.46382800  0.88969400  1
  C  C81  1  0.13159400  0.20615400  0.53171200  1
  C  C82  1  0.81587100  0.36422000  0.95438700  1
  C  C83  1  0.86840600  0.79384600  0.46828800  1
  C  C84  1  0.73009200  0.30060000  0.64096200  1
  C  C85  1  0.96776300  0.36190100  0.79535800  1
  C  C86  1  0.64289300  0.30880000  0.40072200  1
  C  C87  1  0.63578000  0.18412900  0.54561300  1
