# generated using pymatgen
data_CuNiC3
_symmetry_space_group_name_H-M   'P 1'
_cell_length_a   13.82585132
_cell_length_b   13.82585132
_cell_length_c   18.52876213
_cell_angle_alpha   72.95928081
_cell_angle_beta   72.95928081
_cell_angle_gamma   19.42706633
_symmetry_Int_Tables_number   1
_chemical_formula_structural   CuNiC3
_chemical_formula_sum   'Cu12 Ni12 C36'
_cell_volume   1124.77168781
_cell_formula_units_Z   12
loop_
 _symmetry_equiv_pos_site_id
 _symmetry_equiv_pos_as_xyz
  1  'x, y, z'
loop_
 _atom_site_type_symbol
 _atom_site_label
 _atom_site_symmetry_multiplicity
 _atom_site_fract_x
 _atom_site_fract_y
 _atom_site_fract_z
 _atom_site_occupancy
  Ni  Ni0  1  0.18566600  0.71858800  0.37055800  1
  Ni  Ni1  1  0.28141200  0.81433400  0.12944200  1
  Ni  Ni2  1  0.81433400  0.28141200  0.62944200  1
  Ni  Ni3  1  0.71858800  0.18566600  0.87055800  1
  Ni  Ni4  1  0.18468900  0.67562300  0.70770400  1
  Ni  Ni5  1  0.32437700  0.81531100  0.79229600  1
  Ni  Ni6  1  0.81531100  0.32437700  0.29229600  1
  Ni  Ni7  1  0.67562300  0.18468900  0.20770400  1
  Ni  Ni8  1  0.09878400  0.48423000  0.59412600  1
  Ni  Ni9  1  0.51577000  0.90121600  0.90587400  1
  Ni  Ni10  1  0.90121600  0.51577000  0.40587400  1
  Ni  Ni11  1  0.48423000  0.09878400  0.09412600  1
  Cu  Cu12  1  0.60926600  0.02217500  0.73453500  1
  Cu  Cu13  1  0.97782500  0.39073400  0.76546500  1
  Cu  Cu14  1  0.39073400  0.97782500  0.26546500  1
  Cu  Cu15  1  0.02217500  0.60926600  0.23453500  1
  Cu  Cu16  1  0.71250200  0.15661900  0.54625300  1
  Cu  Cu17  1  0.84338100  0.28749800  0.95374700  1
  Cu  Cu18  1  0.28749800  0.84338100  0.45374700  1
  Cu  Cu19  1  0.15661900  0.71250200  0.04625300  1
  Cu  Cu20  1  0.08697300  0.59290900  0.91139600  1
  Cu  Cu21  1  0.40709100  0.91302700  0.58860400  1
  Cu  Cu22  1  0.91302700  0.40709100  0.08860400  1
  Cu  Cu23  1  0.59290900  0.08697300  0.41139600  1
  C  C24  1  0.16503100  0.79102500  0.45541400  1
  C  C25  1  0.20897500  0.83496900  0.04458600  1
  C  C26  1  0.83496900  0.20897500  0.54458600  1
  C  C27  1  0.79102500  0.16503100  0.95541400  1
  C  C28  1  0.04742800  0.71701700  0.42658000  1
  C  C29  1  0.28298300  0.95257200  0.07342000  1
  C  C30  1  0.95257200  0.28298300  0.57342000  1
  C  C31  1  0.71701700  0.04742800  0.92658000  1
  C  C32  1  0.58083400  0.30677000  0.37073600  1
  C  C33  1  0.69323000  0.41916600  0.12926400  1
  C  C34  1  0.41916600  0.69323000  0.62926400  1
  C  C35  1  0.30677000  0.58083400  0.87073600  1
  C  C36  1  0.09499500  0.63189600  0.78063800  1
  C  C37  1  0.36810400  0.90500500  0.71936200  1
  C  C38  1  0.90500500  0.36810400  0.21936200  1
  C  C39  1  0.63189600  0.09499500  0.28063800  1
  C  C40  1  0.08181700  0.72905600  0.62386100  1
  C  C41  1  0.27094400  0.91818300  0.87613900  1
  C  C42  1  0.91818300  0.27094400  0.37613900  1
  C  C43  1  0.72905600  0.08181700  0.12386100  1
  C  C44  1  0.59091000  0.27899400  0.69111400  1
  C  C45  1  0.72100600  0.40909000  0.80888600  1
  C  C46  1  0.40909000  0.72100600  0.30888600  1
  C  C47  1  0.27899400  0.59091000  0.19111400  1
  C  C48  1  0.00011900  0.55561200  0.69986100  1
  C  C49  1  0.44438800  0.99988100  0.80013900  1
  C  C50  1  0.99988100  0.44438800  0.30013900  1
  C  C51  1  0.55561200  0.00011900  0.19986100  1
  C  C52  1  0.50243000  0.12779100  0.59921000  1
  C  C53  1  0.87220900  0.49757000  0.90079000  1
  C  C54  1  0.49757000  0.87220900  0.40079000  1
  C  C55  1  0.12779100  0.50243000  0.09921000  1
  C  C56  1  0.09221700  0.35053300  0.60253000  1
  C  C57  1  0.64946700  0.90778300  0.89747000  1
  C  C58  1  0.90778300  0.64946700  0.39747000  1
  C  C59  1  0.35053300  0.09221700  0.10253000  1
