# generated using pymatgen
data_Cu2NiC6
_symmetry_space_group_name_H-M   'P 1'
_cell_length_a   9.02668900
_cell_length_b   4.97852800
_cell_length_c   7.30455669
_cell_angle_alpha   69.77467571
_cell_angle_beta   90.00000000
_cell_angle_gamma   90.00000000
_symmetry_Int_Tables_number   1
_chemical_formula_structural   Cu2NiC6
_chemical_formula_sum   'Cu4 Ni2 C12'
_cell_volume   308.02337278
_cell_formula_units_Z   2
loop_
 _symmetry_equiv_pos_site_id
 _symmetry_equiv_pos_as_xyz
  1  'x, y, z'
loop_
 _atom_site_type_symbol
 _atom_site_label
 _atom_site_symmetry_multiplicity
 _atom_site_fract_x
 _atom_site_fract_y
 _atom_site_fract_z
 _atom_site_occupancy
  Ni  Ni0  1  0.50000000  0.50000000  0.50000000  1
  Ni  Ni1  1  0.00000000  0.50000000  0.00000000  1
  Cu  Cu2  1  0.65151300  0.14050800  0.18615500  1
  Cu  Cu3  1  0.34848700  0.85949200  0.81384500  1
  Cu  Cu4  1  0.84848700  0.14050800  0.68615500  1
  Cu  Cu5  1  0.15151300  0.85949200  0.31384500  1
  C  C6  1  0.94319800  0.41422000  0.72980200  1
  C  C7  1  0.15344700  0.13317500  0.08630000  1
  C  C8  1  0.83604500  0.22531600  0.20665100  1
  C  C9  1  0.66395500  0.22531600  0.70665100  1
  C  C10  1  0.44319800  0.58578000  0.77019800  1
  C  C11  1  0.05680200  0.58578000  0.27019800  1
  C  C12  1  0.55680200  0.41422000  0.22980200  1
  C  C13  1  0.33604500  0.77468400  0.29334900  1
  C  C14  1  0.16395500  0.77468400  0.79334900  1
  C  C15  1  0.65344700  0.86682500  0.41370000  1
  C  C16  1  0.34655300  0.13317500  0.58630000  1
  C  C17  1  0.84655300  0.86682500  0.91370000  1
