# generated using pymatgen
data_Cu12Ni6C5
_symmetry_space_group_name_H-M   'P 1'
_cell_length_a   8.70904473
_cell_length_b   8.70904473
_cell_length_c   8.70904471
_cell_angle_alpha   51.73121398
_cell_angle_beta   51.73121398
_cell_angle_gamma   51.73121499
_symmetry_Int_Tables_number   1
_chemical_formula_structural   Cu12Ni6C5
_chemical_formula_sum   'Cu12 Ni6 C5'
_cell_volume   376.21319293
_cell_formula_units_Z   1
loop_
 _symmetry_equiv_pos_site_id
 _symmetry_equiv_pos_as_xyz
  1  'x, y, z'
loop_
 _atom_site_type_symbol
 _atom_site_label
 _atom_site_symmetry_multiplicity
 _atom_site_fract_x
 _atom_site_fract_y
 _atom_site_fract_z
 _atom_site_occupancy
  C  C0  1  0.62097100  0.62097100  0.62097100  1
  C  C1  1  0.37902900  0.37902900  0.37902900  1
  C  C2  1  0.19252000  0.19252000  0.19252000  1
  C  C3  1  0.80748000  0.80748000  0.80748000  1
  C  C4  1  0.00000000  0.00000000  0.00000000  1
  Ni  Ni5  1  0.30759600  0.92739400  0.92803300  1
  Ni  Ni6  1  0.92803300  0.30759600  0.92739400  1
  Ni  Ni7  1  0.07260600  0.07196700  0.69240400  1
  Ni  Ni8  1  0.92739400  0.92803300  0.30759600  1
  Ni  Ni9  1  0.07196700  0.69240400  0.07260600  1
  Ni  Ni10  1  0.69240400  0.07260600  0.07196700  1
  Cu  Cu11  1  0.85796100  0.06812500  0.36717600  1
  Cu  Cu12  1  0.06812500  0.36717600  0.85796100  1
  Cu  Cu13  1  0.63282400  0.14203900  0.93187500  1
  Cu  Cu14  1  0.04330100  0.26055300  0.55761900  1
  Cu  Cu15  1  0.73944700  0.44238100  0.95669900  1
  Cu  Cu16  1  0.14203900  0.93187500  0.63282400  1
  Cu  Cu17  1  0.95669900  0.73944700  0.44238100  1
  Cu  Cu18  1  0.44238100  0.95669900  0.73944700  1
  Cu  Cu19  1  0.36717600  0.85796100  0.06812500  1
  Cu  Cu20  1  0.55761900  0.04330100  0.26055300  1
  Cu  Cu21  1  0.26055300  0.55761900  0.04330100  1
  Cu  Cu22  1  0.93187500  0.63282400  0.14203900  1
