# generated using pymatgen
data_Cu5NiC3
_symmetry_space_group_name_H-M   'P 1'
_cell_length_a   8.26551402
_cell_length_b   8.26551451
_cell_length_c   15.87241362
_cell_angle_alpha   83.55228626
_cell_angle_beta   83.55228586
_cell_angle_gamma   63.77978040
_symmetry_Int_Tables_number   1
_chemical_formula_structural   Cu5NiC3
_chemical_formula_sum   'Cu20 Ni4 C12'
_cell_volume   964.25689377
_cell_formula_units_Z   4
loop_
 _symmetry_equiv_pos_site_id
 _symmetry_equiv_pos_as_xyz
  1  'x, y, z'
loop_
 _atom_site_type_symbol
 _atom_site_label
 _atom_site_symmetry_multiplicity
 _atom_site_fract_x
 _atom_site_fract_y
 _atom_site_fract_z
 _atom_site_occupancy
  C  C0  1  0.29105270  0.99739386  0.04515160  1
  C  C1  1  0.70894730  0.00260614  0.95484840  1
  C  C2  1  0.65477897  0.91027369  0.20158907  1
  C  C3  1  0.71420470  0.54249821  0.06111288  1
  C  C4  1  0.99739386  0.29105270  0.54515160  1
  C  C5  1  0.34522103  0.08972631  0.79841093  1
  C  C6  1  0.28579530  0.45750179  0.93888712  1
  C  C7  1  0.00260614  0.70894730  0.45484840  1
  C  C8  1  0.45750179  0.28579530  0.43888712  1
  C  C9  1  0.08972631  0.34522103  0.29841093  1
  C  C10  1  0.54249821  0.71420470  0.56111288  1
  C  C11  1  0.91027369  0.65477897  0.70158907  1
  Ni  Ni12  1  0.39247603  0.14880726  0.93094052  1
  Ni  Ni13  1  0.14880726  0.39247603  0.43094052  1
  Ni  Ni14  1  0.85119274  0.60752397  0.56905948  1
  Ni  Ni15  1  0.60752397  0.85119274  0.06905948  1
  Cu  Cu16  1  0.84831403  0.09639971  0.09791691  1
  Cu  Cu17  1  0.37568331  0.09944541  0.59390999  1
  Cu  Cu18  1  0.09639971  0.84831403  0.59791691  1
  Cu  Cu19  1  0.71983483  0.01322103  0.76657200  1
  Cu  Cu20  1  0.28016517  0.98677897  0.23342800  1
  Cu  Cu21  1  0.65478232  0.37833628  0.91919870  1
  Cu  Cu22  1  0.34521768  0.62166372  0.08080130  1
  Cu  Cu23  1  0.28186564  0.46264670  0.75855928  1
  Cu  Cu24  1  0.98677897  0.28016517  0.73342800  1
  Cu  Cu25  1  0.09944541  0.37568331  0.09390999  1
  Cu  Cu26  1  0.62166372  0.34521768  0.58080130  1
  Cu  Cu27  1  0.01322103  0.71983483  0.26657200  1
  Cu  Cu28  1  0.37833628  0.65478232  0.41919870  1
  Cu  Cu29  1  0.53735330  0.71813436  0.74144072  1
  Cu  Cu30  1  0.71813436  0.53735330  0.24144072  1
  Cu  Cu31  1  0.90055459  0.62431669  0.90609001  1
  Cu  Cu32  1  0.15168597  0.90360029  0.90208309  1
  Cu  Cu33  1  0.62431669  0.90055459  0.40609001  1
  Cu  Cu34  1  0.46264670  0.28186564  0.25855928  1
  Cu  Cu35  1  0.90360029  0.15168597  0.40208309  1
