# generated using pymatgen
data_Cu19(Ni3C5)2
_symmetry_space_group_name_H-M   'P 1'
_cell_length_a   10.10427342
_cell_length_b   10.10427342
_cell_length_c   10.10427324
_cell_angle_alpha   90.80146861
_cell_angle_beta   90.80146861
_cell_angle_gamma   90.80147220
_symmetry_Int_Tables_number   1
_chemical_formula_structural   Cu19(Ni3C5)2
_chemical_formula_sum   'Cu38 Ni12 C20'
_cell_volume   1031.30369481
_cell_formula_units_Z   2
loop_
 _symmetry_equiv_pos_site_id
 _symmetry_equiv_pos_as_xyz
  1  'x, y, z'
loop_
 _atom_site_type_symbol
 _atom_site_label
 _atom_site_symmetry_multiplicity
 _atom_site_fract_x
 _atom_site_fract_y
 _atom_site_fract_z
 _atom_site_occupancy
  C  C0  1  0.32609100  0.82006800  0.97672100  1
  C  C1  1  0.67390900  0.17993200  0.02327900  1
  C  C2  1  0.85882700  0.35198300  0.46736500  1
  C  C3  1  0.97672100  0.32609100  0.82006800  1
  C  C4  1  0.64801700  0.53263500  0.14117300  1
  C  C5  1  0.14117300  0.64801700  0.53263500  1
  C  C6  1  0.82006800  0.97672100  0.32609100  1
  C  C7  1  0.35198300  0.46736500  0.85882700  1
  C  C8  1  0.53263500  0.14117300  0.64801700  1
  C  C9  1  0.46736500  0.85882700  0.35198300  1
  C  C10  1  0.02327900  0.67390900  0.17993200  1
  C  C11  1  0.17993200  0.02327900  0.67390900  1
  C  C12  1  0.68583300  0.83876700  0.62900800  1
  C  C13  1  0.37099200  0.31416700  0.16123300  1
  C  C14  1  0.15302000  0.15302000  0.15302000  1
  C  C15  1  0.62900800  0.68583300  0.83876700  1
  C  C16  1  0.84698000  0.84698000  0.84698000  1
  C  C17  1  0.83876700  0.62900800  0.68583300  1
  C  C18  1  0.31416700  0.16123300  0.37099200  1
  C  C19  1  0.16123300  0.37099200  0.31416700  1
  Ni  Ni20  1  0.02607500  0.66437900  0.86967300  1
  Ni  Ni21  1  0.78785400  0.68951500  0.43965900  1
  Ni  Ni22  1  0.68951500  0.43965900  0.78785400  1
  Ni  Ni23  1  0.21214600  0.31048500  0.56034100  1
  Ni  Ni24  1  0.31048500  0.56034100  0.21214600  1
  Ni  Ni25  1  0.13032700  0.97392500  0.33562100  1
  Ni  Ni26  1  0.56034100  0.21214600  0.31048500  1
  Ni  Ni27  1  0.86967300  0.02607500  0.66437900  1
  Ni  Ni28  1  0.97392500  0.33562100  0.13032700  1
  Ni  Ni29  1  0.33562100  0.13032700  0.97392500  1
  Ni  Ni30  1  0.66437900  0.86967300  0.02607500  1
  Ni  Ni31  1  0.43965900  0.78785400  0.68951500  1
  Cu  Cu32  1  0.87140400  0.38047200  0.07310400  1
  Cu  Cu33  1  0.79896800  0.66385400  0.31725800  1
  Cu  Cu34  1  0.20103200  0.33614600  0.68274200  1
  Cu  Cu35  1  0.38047200  0.07310400  0.87140400  1
  Cu  Cu36  1  0.25111400  0.25111400  0.25111400  1
  Cu  Cu37  1  0.52726200  0.86948300  0.63950000  1
  Cu  Cu38  1  0.04186200  0.24046900  0.07483900  1
  Cu  Cu39  1  0.33614600  0.68274200  0.20103200  1
  Cu  Cu40  1  0.23151100  0.51871300  0.30533100  1
  Cu  Cu41  1  0.24532500  0.01467800  0.38486500  1
  Cu  Cu42  1  0.31725800  0.79896800  0.66385400  1
  Cu  Cu43  1  0.07310400  0.87140400  0.38047200  1
  Cu  Cu44  1  0.30533100  0.23151100  0.51871300  1
  Cu  Cu45  1  0.07483900  0.04186200  0.24046900  1
  Cu  Cu46  1  0.51871300  0.30533100  0.23151100  1
  Cu  Cu47  1  0.13051700  0.36050000  0.47273800  1
  Cu  Cu48  1  0.48128700  0.69466900  0.76848900  1
  Cu  Cu49  1  0.76848900  0.48128700  0.69466900  1
  Cu  Cu50  1  0.86948300  0.63950000  0.52726200  1
  Cu  Cu51  1  0.75953100  0.92516100  0.95813800  1
  Cu  Cu52  1  0.61513500  0.75467500  0.98532200  1
  Cu  Cu53  1  0.69466900  0.76848900  0.48128700  1
  Cu  Cu54  1  0.61952800  0.92689600  0.12859600  1
  Cu  Cu55  1  0.92516100  0.95813800  0.75953100  1
  Cu  Cu56  1  0.74888600  0.74888600  0.74888600  1
  Cu  Cu57  1  0.36050000  0.47273800  0.13051700  1
  Cu  Cu58  1  0.95813800  0.75953100  0.92516100  1
  Cu  Cu59  1  0.92689600  0.12859600  0.61952800  1
  Cu  Cu60  1  0.12859600  0.61952800  0.92689600  1
  Cu  Cu61  1  0.01467800  0.38486500  0.24532500  1
  Cu  Cu62  1  0.98532200  0.61513500  0.75467500  1
  Cu  Cu63  1  0.24046900  0.07483900  0.04186200  1
  Cu  Cu64  1  0.47273800  0.13051700  0.36050000  1
  Cu  Cu65  1  0.38486500  0.24532500  0.01467800  1
  Cu  Cu66  1  0.68274200  0.20103200  0.33614600  1
  Cu  Cu67  1  0.63950000  0.52726200  0.86948300  1
  Cu  Cu68  1  0.66385400  0.31725800  0.79896800  1
  Cu  Cu69  1  0.75467500  0.98532200  0.61513500  1
