# generated using pymatgen
data_Cu3NiC8
_symmetry_space_group_name_H-M   'P 1'
_cell_length_a   8.50337900
_cell_length_b   8.63183800
_cell_length_c   11.41727982
_cell_angle_alpha   84.31680584
_cell_angle_beta   90.00000000
_cell_angle_gamma   90.00000000
_symmetry_Int_Tables_number   1
_chemical_formula_structural   Cu3NiC8
_chemical_formula_sum   'Cu12 Ni4 C32'
_cell_volume   833.90675794
_cell_formula_units_Z   4
loop_
 _symmetry_equiv_pos_site_id
 _symmetry_equiv_pos_as_xyz
  1  'x, y, z'
loop_
 _atom_site_type_symbol
 _atom_site_label
 _atom_site_symmetry_multiplicity
 _atom_site_fract_x
 _atom_site_fract_y
 _atom_site_fract_z
 _atom_site_occupancy
  Ni  Ni0  1  0.10481400  0.73188200  0.12663900  1
  Ni  Ni1  1  0.60481400  0.26811800  0.37336100  1
  Ni  Ni2  1  0.89518600  0.26811800  0.87336100  1
  Ni  Ni3  1  0.39518600  0.73188200  0.62663900  1
  Cu  Cu4  1  0.65049600  0.96193900  0.11349900  1
  Cu  Cu5  1  0.43140800  0.35062500  0.85867100  1
  Cu  Cu6  1  0.34950400  0.03806100  0.88650100  1
  Cu  Cu7  1  0.63081700  0.85431700  0.94442400  1
  Cu  Cu8  1  0.13081700  0.14568300  0.55557600  1
  Cu  Cu9  1  0.36918300  0.14568300  0.05557600  1
  Cu  Cu10  1  0.93140800  0.64937500  0.64132900  1
  Cu  Cu11  1  0.84950400  0.96193900  0.61349900  1
  Cu  Cu12  1  0.86918300  0.85431700  0.44442400  1
  Cu  Cu13  1  0.56859200  0.64937500  0.14132900  1
  Cu  Cu14  1  0.15049600  0.03806100  0.38650100  1
  Cu  Cu15  1  0.06859200  0.35062500  0.35867100  1
  C  C16  1  0.91281600  0.68426900  0.50335200  1
  C  C17  1  0.58718400  0.68426900  0.00335200  1
  C  C18  1  0.38961900  0.19406700  0.80502600  1
  C  C19  1  0.08718400  0.31573100  0.49664800  1
  C  C20  1  0.88961900  0.80593300  0.69497400  1
  C  C21  1  0.11038100  0.19406700  0.30502600  1
  C  C22  1  0.41281600  0.31573100  0.99664800  1
  C  C23  1  0.61038100  0.80593300  0.19497400  1
  C  C24  1  0.71883700  0.15935500  0.92207700  1
  C  C25  1  0.21883700  0.84064500  0.57792300  1
  C  C26  1  0.97950900  0.09052200  0.83694800  1
  C  C27  1  0.81272900  0.29392900  0.72981700  1
  C  C28  1  0.52049100  0.09052200  0.33694800  1
  C  C29  1  0.28116300  0.84064500  0.07792300  1
  C  C30  1  0.56607700  0.62865600  0.67704300  1
  C  C31  1  0.93392300  0.62865600  0.17704300  1
  C  C32  1  0.52848000  0.23560000  0.51652200  1
  C  C33  1  0.47152000  0.76440000  0.48347800  1
  C  C34  1  0.47950900  0.90947800  0.66305200  1
  C  C35  1  0.97152000  0.23560000  0.01652200  1
  C  C36  1  0.30162200  0.55931600  0.59323200  1
  C  C37  1  0.19837800  0.55931600  0.09323200  1
  C  C38  1  0.18727100  0.70607100  0.27018300  1
  C  C39  1  0.68727100  0.29392900  0.22981700  1
  C  C40  1  0.78116300  0.15935500  0.42207700  1
  C  C41  1  0.43392300  0.37134400  0.32295700  1
  C  C42  1  0.80162200  0.44068400  0.90676800  1
  C  C43  1  0.02848000  0.76440000  0.98347800  1
  C  C44  1  0.06607700  0.37134400  0.82295700  1
  C  C45  1  0.31272900  0.70607100  0.77018300  1
  C  C46  1  0.02049100  0.90947800  0.16305200  1
  C  C47  1  0.69837800  0.44068400  0.40676800  1
