# generated using pymatgen
data_CuNi3C11
_symmetry_space_group_name_H-M   'P 1'
_cell_length_a   5.95863451
_cell_length_b   5.95863451
_cell_length_c   14.59855900
_cell_angle_alpha   90.00000000
_cell_angle_beta   90.00000000
_cell_angle_gamma   120.00000562
_symmetry_Int_Tables_number   1
_chemical_formula_structural   CuNi3C11
_chemical_formula_sum   'Cu2 Ni6 C22'
_cell_volume   448.88396412
_cell_formula_units_Z   2
loop_
 _symmetry_equiv_pos_site_id
 _symmetry_equiv_pos_as_xyz
  1  'x, y, z'
loop_
 _atom_site_type_symbol
 _atom_site_label
 _atom_site_symmetry_multiplicity
 _atom_site_fract_x
 _atom_site_fract_y
 _atom_site_fract_z
 _atom_site_occupancy
  Ni  Ni0  1  0.00000000  0.00000000  0.25000000  1
  Ni  Ni1  1  0.00000000  0.00000000  0.75000000  1
  Ni  Ni2  1  0.33333300  0.66666700  0.90534900  1
  Ni  Ni3  1  0.66666700  0.33333300  0.40534900  1
  Ni  Ni4  1  0.66666700  0.33333300  0.09465100  1
  Ni  Ni5  1  0.33333300  0.66666700  0.59465100  1
  Cu  Cu6  1  0.00000000  0.00000000  0.00000000  1
  Cu  Cu7  1  0.00000000  0.00000000  0.50000000  1
  C  C8  1  0.33333300  0.66666700  0.16442300  1
  C  C9  1  0.66666700  0.33333300  0.66442300  1
  C  C10  1  0.66666700  0.33333300  0.83557700  1
  C  C11  1  0.33333300  0.66666700  0.33557700  1
  C  C12  1  0.49037100  0.98074300  0.25000000  1
  C  C13  1  0.50962900  0.49037100  0.75000000  1
  C  C14  1  0.98074300  0.49037100  0.75000000  1
  C  C15  1  0.01925700  0.50962900  0.25000000  1
  C  C16  1  0.49037100  0.50962900  0.25000000  1
  C  C17  1  0.50962900  0.01925700  0.75000000  1
  C  C18  1  0.17613100  0.35226200  0.41182600  1
  C  C19  1  0.82386900  0.17613100  0.91182600  1
  C  C20  1  0.35226200  0.17613100  0.91182600  1
  C  C21  1  0.64773800  0.82386900  0.41182600  1
  C  C22  1  0.17613100  0.82386900  0.41182600  1
  C  C23  1  0.82386900  0.64773800  0.58817400  1
  C  C24  1  0.82386900  0.17613100  0.58817400  1
  C  C25  1  0.82386900  0.64773800  0.91182600  1
  C  C26  1  0.35226200  0.17613100  0.58817400  1
  C  C27  1  0.64773800  0.82386900  0.08817400  1
  C  C28  1  0.17613100  0.35226200  0.08817400  1
  C  C29  1  0.17613100  0.82386900  0.08817400  1
