# generated using pymatgen
data_CuNiC12
_symmetry_space_group_name_H-M   'P 1'
_cell_length_a   9.80778200
_cell_length_b   8.02771600
_cell_length_c   12.74986733
_cell_angle_alpha   79.61769552
_cell_angle_beta   90.00000000
_cell_angle_gamma   90.00000000
_symmetry_Int_Tables_number   1
_chemical_formula_structural   CuNiC12
_chemical_formula_sum   'Cu4 Ni4 C48'
_cell_volume   987.41333686
_cell_formula_units_Z   4
loop_
 _symmetry_equiv_pos_site_id
 _symmetry_equiv_pos_as_xyz
  1  'x, y, z'
loop_
 _atom_site_type_symbol
 _atom_site_label
 _atom_site_symmetry_multiplicity
 _atom_site_fract_x
 _atom_site_fract_y
 _atom_site_fract_z
 _atom_site_occupancy
  C  C0  1  0.25070600  0.19697800  0.93346000  1
  C  C1  1  0.24929400  0.19697800  0.43346000  1
  C  C2  1  0.74929400  0.80302200  0.06654000  1
  C  C3  1  0.75070600  0.80302200  0.56654000  1
  Ni  Ni4  1  0.17407400  0.61981400  0.62699500  1
  Ni  Ni5  1  0.32592600  0.61981400  0.12699500  1
  Ni  Ni6  1  0.67407400  0.38018600  0.87300500  1
  Ni  Ni7  1  0.82592600  0.38018600  0.37300500  1
  Cu  Cu8  1  0.82278700  0.17525300  0.29994300  1
  Cu  Cu9  1  0.17721300  0.82474700  0.70005700  1
  Cu  Cu10  1  0.67721300  0.17525300  0.79994300  1
  Cu  Cu11  1  0.32278700  0.82474700  0.20005700  1
  C  C12  1  0.07017000  0.73761400  0.83022600  1
  C  C13  1  0.13070800  0.81494500  0.24770000  1
  C  C14  1  0.92983000  0.26238600  0.16977400  1
  C  C15  1  0.86929200  0.18505500  0.75230000  1
  C  C16  1  0.57017000  0.26238600  0.66977400  1
  C  C17  1  0.63070800  0.18505500  0.25230000  1
  C  C18  1  0.42983000  0.73761400  0.33022600  1
  C  C19  1  0.36929200  0.81494500  0.74770000  1
  C  C20  1  0.29490100  0.97251800  0.50862200  1
  C  C21  1  0.67129600  0.86006500  0.69345100  1
  C  C22  1  0.69888200  0.43288700  0.38113900  1
  C  C23  1  0.82870400  0.86006500  0.19345100  1
  C  C24  1  0.57836100  0.71661300  0.52921300  1
  C  C25  1  0.16968500  0.24400200  0.56190300  1
  C  C26  1  0.20509900  0.97251800  0.00862200  1
  C  C27  1  0.66968500  0.75599800  0.93809700  1
  C  C28  1  0.90303700  0.49818800  0.31599500  1
  C  C29  1  0.69950300  0.58241700  0.14132300  1
  C  C30  1  0.83031500  0.75599800  0.43809700  1
  C  C31  1  0.80111800  0.43288700  0.88113900  1
  C  C32  1  0.09696300  0.50181200  0.68400500  1
  C  C33  1  0.33031500  0.24400200  0.06190300  1
  C  C34  1  0.37965700  0.67533200  0.03139700  1
  C  C35  1  0.07836100  0.28338700  0.97078700  1
  C  C36  1  0.17129600  0.13993500  0.80654900  1
  C  C37  1  0.59696300  0.49818800  0.81599500  1
  C  C38  1  0.80049700  0.58241700  0.64132300  1
  C  C39  1  0.70509900  0.02748200  0.49137800  1
  C  C40  1  0.30111800  0.56711300  0.61886100  1
  C  C41  1  0.92347100  0.88866200  0.60714900  1
  C  C42  1  0.62034300  0.32466800  0.96860300  1
  C  C43  1  0.12034300  0.67533200  0.53139700  1
  C  C44  1  0.92163900  0.71661300  0.02921300  1
  C  C45  1  0.42347100  0.11133800  0.89285100  1
  C  C46  1  0.57652900  0.88866200  0.10714900  1
  C  C47  1  0.87965700  0.32466800  0.46860300  1
  C  C48  1  0.40303700  0.50181200  0.18400500  1
  C  C49  1  0.32870400  0.13993500  0.30654900  1
  C  C50  1  0.07652900  0.11133800  0.39285100  1
  C  C51  1  0.30049700  0.41758300  0.85867700  1
  C  C52  1  0.79490100  0.02748200  0.99137800  1
  C  C53  1  0.19950300  0.41758300  0.35867700  1
  C  C54  1  0.42163900  0.28338700  0.47078700  1
  C  C55  1  0.19888200  0.56711300  0.11886100  1
