# generated using pymatgen
data_Cu3NiC
_symmetry_space_group_name_H-M   'P 1'
_cell_length_a   5.56622400
_cell_length_b   7.42127800
_cell_length_c   8.59996000
_cell_angle_alpha   90.00000000
_cell_angle_beta   90.00000000
_cell_angle_gamma   90.00000000
_symmetry_Int_Tables_number   1
_chemical_formula_structural   Cu3NiC
_chemical_formula_sum   'Cu12 Ni4 C4'
_cell_volume   355.25141080
_cell_formula_units_Z   4
loop_
 _symmetry_equiv_pos_site_id
 _symmetry_equiv_pos_as_xyz
  1  'x, y, z'
loop_
 _atom_site_type_symbol
 _atom_site_label
 _atom_site_symmetry_multiplicity
 _atom_site_fract_x
 _atom_site_fract_y
 _atom_site_fract_z
 _atom_site_occupancy
  C  C0  1  0.99711600  0.48614200  0.49614000  1
  C  C1  1  0.49711600  0.01385800  0.49614000  1
  C  C2  1  0.50288400  0.98614200  0.99614000  1
  C  C3  1  0.00288400  0.51385800  0.99614000  1
  Ni  Ni4  1  0.02475100  0.99570100  0.75155600  1
  Ni  Ni5  1  0.52475100  0.50429900  0.75155600  1
  Ni  Ni6  1  0.47524900  0.49570100  0.25155600  1
  Ni  Ni7  1  0.97524900  0.00429900  0.25155600  1
  Cu  Cu8  1  0.19696300  0.47722700  0.74635200  1
  Cu  Cu9  1  0.59901700  0.65356700  0.91358500  1
  Cu  Cu10  1  0.11145600  0.85901900  0.58416700  1
  Cu  Cu11  1  0.61145600  0.64098100  0.58416700  1
  Cu  Cu12  1  0.90098300  0.15356700  0.41358500  1
  Cu  Cu13  1  0.09901700  0.84643300  0.91358500  1
  Cu  Cu14  1  0.40098300  0.34643300  0.41358500  1
  Cu  Cu15  1  0.30303700  0.97722700  0.24635200  1
  Cu  Cu16  1  0.80303700  0.52277300  0.24635200  1
  Cu  Cu17  1  0.69696300  0.02277300  0.74635200  1
  Cu  Cu18  1  0.88854400  0.14098100  0.08416700  1
  Cu  Cu19  1  0.38854400  0.35901900  0.08416700  1
