# generated using pymatgen
data_Cu(NiC4)2
_symmetry_space_group_name_H-M   'P 1'
_cell_length_a   8.39556200
_cell_length_b   5.41442600
_cell_length_c   14.07302028
_cell_angle_alpha   67.59011859
_cell_angle_beta   90.00000000
_cell_angle_gamma   90.00000000
_symmetry_Int_Tables_number   1
_chemical_formula_structural   Cu(NiC4)2
_chemical_formula_sum   'Cu4 Ni8 C32'
_cell_volume   591.40796594
_cell_formula_units_Z   4
loop_
 _symmetry_equiv_pos_site_id
 _symmetry_equiv_pos_as_xyz
  1  'x, y, z'
loop_
 _atom_site_type_symbol
 _atom_site_label
 _atom_site_symmetry_multiplicity
 _atom_site_fract_x
 _atom_site_fract_y
 _atom_site_fract_z
 _atom_site_occupancy
  C  C0  1  0.64911300  0.92549100  0.89505900  1
  C  C1  1  0.14911300  0.07450900  0.60494100  1
  C  C2  1  0.35088700  0.07450900  0.10494100  1
  C  C3  1  0.85088700  0.92549100  0.39505900  1
  Ni  Ni4  1  0.69939200  0.29668300  0.01936100  1
  Ni  Ni5  1  0.19939200  0.70331700  0.48063900  1
  Ni  Ni6  1  0.30060800  0.70331700  0.98063900  1
  Ni  Ni7  1  0.80060800  0.29668300  0.51936100  1
  Ni  Ni8  1  0.96360900  0.08517600  0.16552000  1
  Ni  Ni9  1  0.46360900  0.91482400  0.33448000  1
  Ni  Ni10  1  0.03639100  0.91482400  0.83448000  1
  Ni  Ni11  1  0.53639100  0.08517600  0.66552000  1
  Cu  Cu12  1  0.82890400  0.56845500  0.72215300  1
  Cu  Cu13  1  0.32890400  0.43154500  0.77784700  1
  Cu  Cu14  1  0.17109600  0.43154500  0.27784700  1
  Cu  Cu15  1  0.67109600  0.56845500  0.22215300  1
  C  C16  1  0.66793500  0.57360300  0.02197100  1
  C  C17  1  0.16793500  0.42639700  0.47802900  1
  C  C18  1  0.33206500  0.42639700  0.97802900  1
  C  C19  1  0.83206500  0.57360300  0.52197100  1
  C  C20  1  0.68874600  0.28444700  0.91222500  1
  C  C21  1  0.18874600  0.71555300  0.58777500  1
  C  C22  1  0.31125400  0.71555300  0.08777500  1
  C  C23  1  0.81125400  0.28444700  0.41222500  1
  C  C24  1  0.59657800  0.07819600  0.09923500  1
  C  C25  1  0.09657800  0.92180400  0.40076500  1
  C  C26  1  0.40342200  0.92180400  0.90076500  1
  C  C27  1  0.90342200  0.07819600  0.59923500  1
  C  C28  1  0.88427400  0.22345700  0.05284600  1
  C  C29  1  0.38427400  0.77654300  0.44715400  1
  C  C30  1  0.11572600  0.77654300  0.94715400  1
  C  C31  1  0.61572600  0.22345700  0.55284600  1
  C  C32  1  0.13906400  0.16816200  0.15248400  1
  C  C33  1  0.63906400  0.83183800  0.34751600  1
  C  C34  1  0.86093600  0.83183800  0.84751600  1
  C  C35  1  0.36093600  0.16816200  0.65248400  1
  C  C36  1  0.88218200  0.20192700  0.23773600  1
  C  C37  1  0.38218200  0.79807300  0.26226400  1
  C  C38  1  0.11781800  0.79807300  0.76226400  1
  C  C39  1  0.61781800  0.20192700  0.73773600  1
  C  C40  1  0.93854700  0.78323800  0.20095700  1
  C  C41  1  0.43854700  0.21676200  0.29904300  1
  C  C42  1  0.06145300  0.21676200  0.79904300  1
  C  C43  1  0.56145300  0.78323800  0.70095700  1
