# generated using pymatgen
data_Cu2Ni2C5
_symmetry_space_group_name_H-M   'P 1'
_cell_length_a   3.92144613
_cell_length_b   3.92144613
_cell_length_c   31.04520500
_cell_angle_alpha   90.00000000
_cell_angle_beta   90.00000000
_cell_angle_gamma   120.00000211
_symmetry_Int_Tables_number   1
_chemical_formula_structural   Cu2Ni2C5
_chemical_formula_sum   'Cu4 Ni4 C10'
_cell_volume   413.44491994
_cell_formula_units_Z   2
loop_
 _symmetry_equiv_pos_site_id
 _symmetry_equiv_pos_as_xyz
  1  'x, y, z'
loop_
 _atom_site_type_symbol
 _atom_site_label
 _atom_site_symmetry_multiplicity
 _atom_site_fract_x
 _atom_site_fract_y
 _atom_site_fract_z
 _atom_site_occupancy
  Ni  Ni0  1  0.33333300  0.66666700  0.30913800  1
  Ni  Ni1  1  0.66666700  0.33333300  0.80913800  1
  Ni  Ni2  1  0.66666700  0.33333300  0.06528900  1
  Ni  Ni3  1  0.33333300  0.66666700  0.56528900  1
  Cu  Cu4  1  0.33333300  0.66666700  0.91787200  1
  Cu  Cu5  1  0.00000000  0.00000000  0.18849100  1
  Cu  Cu6  1  0.00000000  0.00000000  0.68849100  1
  Cu  Cu7  1  0.66666700  0.33333300  0.41787200  1
  C  C8  1  0.66666700  0.33333300  0.33703200  1
  C  C9  1  0.33333300  0.66666700  0.04519200  1
  C  C10  1  0.33333300  0.66666700  0.45150100  1
  C  C11  1  0.33333300  0.66666700  0.23670600  1
  C  C12  1  0.66666700  0.33333300  0.14677800  1
  C  C13  1  0.66666700  0.33333300  0.95150100  1
  C  C14  1  0.33333300  0.66666700  0.83703200  1
  C  C15  1  0.33333300  0.66666700  0.64677800  1
  C  C16  1  0.66666700  0.33333300  0.73670600  1
  C  C17  1  0.66666700  0.33333300  0.54519200  1
