# generated using pymatgen
data_Cu5(NiC)8
_symmetry_space_group_name_H-M   'P 1'
_cell_length_a   4.02037100
_cell_length_b   12.77072000
_cell_length_c   16.48571446
_cell_angle_alpha   82.96224512
_cell_angle_beta   90.00000000
_cell_angle_gamma   90.00000000
_symmetry_Int_Tables_number   1
_chemical_formula_structural   Cu5(NiC)8
_chemical_formula_sum   'Cu10 Ni16 C16'
_cell_volume   840.04928030
_cell_formula_units_Z   2
loop_
 _symmetry_equiv_pos_site_id
 _symmetry_equiv_pos_as_xyz
  1  'x, y, z'
loop_
 _atom_site_type_symbol
 _atom_site_label
 _atom_site_symmetry_multiplicity
 _atom_site_fract_x
 _atom_site_fract_y
 _atom_site_fract_z
 _atom_site_occupancy
  C  C0  1  0.75000000  0.68004800  0.64874500  1
  C  C1  1  0.75000000  0.39590200  0.12616400  1
  C  C2  1  0.75000000  0.06815400  0.11745000  1
  C  C3  1  0.25000000  0.60409800  0.87383600  1
  C  C4  1  0.25000000  0.31995200  0.35125500  1
  C  C5  1  0.25000000  0.38482800  0.60157800  1
  C  C6  1  0.25000000  0.99841800  0.61950400  1
  C  C7  1  0.25000000  0.93184600  0.88255000  1
  C  C8  1  0.75000000  0.61517200  0.39842200  1
  C  C9  1  0.75000000  0.00158200  0.38049600  1
  C  C10  1  0.75000000  0.73089400  0.10229100  1
  C  C11  1  0.25000000  0.26910600  0.89770900  1
  C  C12  1  0.75000000  0.44112800  0.77401100  1
  C  C13  1  0.75000000  0.15333600  0.76757800  1
  C  C14  1  0.25000000  0.84666400  0.23242200  1
  C  C15  1  0.25000000  0.55887200  0.22598900  1
  Ni  Ni16  1  0.75000000  0.43032600  0.93889800  1
  Ni  Ni17  1  0.25000000  0.23557500  0.07632000  1
  Ni  Ni18  1  0.25000000  0.91341100  0.06781500  1
  Ni  Ni19  1  0.25000000  0.77440500  0.73082400  1
  Ni  Ni20  1  0.25000000  0.80447400  0.37343500  1
  Ni  Ni21  1  0.75000000  0.39207200  0.46492500  1
  Ni  Ni22  1  0.25000000  0.60792800  0.53507500  1
  Ni  Ni23  1  0.25000000  0.56967400  0.06110200  1
  Ni  Ni24  1  0.75000000  0.76442500  0.92368000  1
  Ni  Ni25  1  0.75000000  0.96934100  0.75429200  1
  Ni  Ni26  1  0.75000000  0.88662300  0.54562900  1
  Ni  Ni27  1  0.75000000  0.19552600  0.62656500  1
  Ni  Ni28  1  0.25000000  0.11337700  0.45437100  1
  Ni  Ni29  1  0.75000000  0.22559500  0.26917600  1
  Ni  Ni30  1  0.25000000  0.03065900  0.24570800  1
  Ni  Ni31  1  0.75000000  0.08658900  0.93218500  1
  Cu  Cu32  1  0.75000000  0.28714800  0.80806100  1
  Cu  Cu33  1  0.25000000  0.14960900  0.78278400  1
  Cu  Cu34  1  0.75000000  0.45281100  0.66061300  1
  Cu  Cu35  1  0.25000000  0.54718900  0.33938700  1
  Cu  Cu36  1  0.25000000  0.41541100  0.21304300  1
  Cu  Cu37  1  0.75000000  0.85039100  0.21721600  1
  Cu  Cu38  1  0.75000000  0.58458900  0.78695700  1
  Cu  Cu39  1  0.25000000  0.71285200  0.19193900  1
  Cu  Cu40  1  0.75000000  0.56689100  0.21724500  1
  Cu  Cu41  1  0.25000000  0.43310900  0.78275500  1
