# generated using pymatgen
data_Cu6Ni2C
_symmetry_space_group_name_H-M   'P 1'
_cell_length_a   8.79236621
_cell_length_b   8.79236621
_cell_length_c   8.79236621
_cell_angle_alpha   109.47122063
_cell_angle_beta   109.47122063
_cell_angle_gamma   109.47122063
_symmetry_Int_Tables_number   1
_chemical_formula_structural   Cu6Ni2C
_chemical_formula_sum   'Cu24 Ni8 C4'
_cell_volume   523.23334757
_cell_formula_units_Z   4
loop_
 _symmetry_equiv_pos_site_id
 _symmetry_equiv_pos_as_xyz
  1  'x, y, z'
loop_
 _atom_site_type_symbol
 _atom_site_label
 _atom_site_symmetry_multiplicity
 _atom_site_fract_x
 _atom_site_fract_y
 _atom_site_fract_z
 _atom_site_occupancy
  C  C0  1  0.00000000  0.00000000  0.00000000  1
  C  C1  1  0.50000000  0.50000000  0.00000000  1
  C  C2  1  0.00000000  0.50000000  0.50000000  1
  C  C3  1  0.50000000  0.00000000  0.50000000  1
  Ni  Ni4  1  0.61915500  0.61915500  0.61915500  1
  Ni  Ni5  1  0.88084500  0.50000000  0.00000000  1
  Ni  Ni6  1  0.00000000  0.88084500  0.50000000  1
  Ni  Ni7  1  0.50000000  0.00000000  0.88084500  1
  Ni  Ni8  1  0.38084500  0.38084500  0.38084500  1
  Ni  Ni9  1  0.11915500  0.50000000  0.00000000  1
  Ni  Ni10  1  0.00000000  0.11915500  0.50000000  1
  Ni  Ni11  1  0.50000000  0.00000000  0.11915500  1
  Cu  Cu12  1  0.07735500  0.05055700  0.25215900  1
  Cu  Cu13  1  0.44944300  0.52679700  0.20160100  1
  Cu  Cu14  1  0.97320300  0.42264500  0.67480400  1
  Cu  Cu15  1  0.82519600  0.24784100  0.29839900  1
  Cu  Cu16  1  0.52679700  0.20160100  0.44944300  1
  Cu  Cu17  1  0.67480400  0.97320300  0.42264500  1
  Cu  Cu18  1  0.24784100  0.29839900  0.82519600  1
  Cu  Cu19  1  0.25215900  0.07735500  0.05055700  1
  Cu  Cu20  1  0.05055700  0.25215900  0.07735500  1
  Cu  Cu21  1  0.20160100  0.44944300  0.52679700  1
  Cu  Cu22  1  0.42264500  0.67480400  0.97320300  1
  Cu  Cu23  1  0.29839900  0.82519600  0.24784100  1
  Cu  Cu24  1  0.92264500  0.94944300  0.74784100  1
  Cu  Cu25  1  0.55055700  0.47320300  0.79839900  1
  Cu  Cu26  1  0.02679700  0.57735500  0.32519600  1
  Cu  Cu27  1  0.17480400  0.75215900  0.70160100  1
  Cu  Cu28  1  0.47320300  0.79839900  0.55055700  1
  Cu  Cu29  1  0.32519600  0.02679700  0.57735500  1
  Cu  Cu30  1  0.75215900  0.70160100  0.17480400  1
  Cu  Cu31  1  0.74784100  0.92264500  0.94944300  1
  Cu  Cu32  1  0.94944300  0.74784100  0.92264500  1
  Cu  Cu33  1  0.79839900  0.55055700  0.47320300  1
  Cu  Cu34  1  0.57735500  0.32519600  0.02679700  1
  Cu  Cu35  1  0.70160100  0.17480400  0.75215900  1
