# generated using pymatgen
data_Cu2Ni6C19
_symmetry_space_group_name_H-M   'P 1'
_cell_length_a   6.02479800
_cell_length_b   8.03237100
_cell_length_c   18.63054840
_cell_angle_alpha   88.68543270
_cell_angle_beta   90.00000000
_cell_angle_gamma   90.00000000
_symmetry_Int_Tables_number   1
_chemical_formula_structural   Cu2Ni6C19
_chemical_formula_sum   'Cu4 Ni12 C38'
_cell_volume   901.35852596
_cell_formula_units_Z   2
loop_
 _symmetry_equiv_pos_site_id
 _symmetry_equiv_pos_as_xyz
  1  'x, y, z'
loop_
 _atom_site_type_symbol
 _atom_site_label
 _atom_site_symmetry_multiplicity
 _atom_site_fract_x
 _atom_site_fract_y
 _atom_site_fract_z
 _atom_site_occupancy
  Ni  Ni0  1  0.74805900  0.97343800  0.08954000  1
  Ni  Ni1  1  0.75501000  0.50111600  0.42136600  1
  Ni  Ni2  1  0.24499000  0.49888400  0.57863400  1
  Ni  Ni3  1  0.25194100  0.02656200  0.91046000  1
  Ni  Ni4  1  0.32949400  0.50000000  0.25000000  1
  Ni  Ni5  1  0.75501000  0.49888400  0.07863400  1
  Ni  Ni6  1  0.72449100  0.00000000  0.75000000  1
  Ni  Ni7  1  0.27550900  0.00000000  0.25000000  1
  Ni  Ni8  1  0.24499000  0.50111600  0.92136600  1
  Ni  Ni9  1  0.67050600  0.50000000  0.75000000  1
  Ni  Ni10  1  0.25194100  0.97343800  0.58954000  1
  Ni  Ni11  1  0.74805900  0.02656200  0.41046000  1
  Cu  Cu12  1  0.74658400  0.75250200  0.91033300  1
  Cu  Cu13  1  0.74658400  0.24749800  0.58966700  1
  Cu  Cu14  1  0.25341600  0.24749800  0.08966700  1
  Cu  Cu15  1  0.25341600  0.75250200  0.41033300  1
  C  C16  1  0.25193600  0.24592700  0.44211100  1
  C  C17  1  0.77341000  0.22998100  0.23301700  1
  C  C18  1  0.77341000  0.77001900  0.26698300  1
  C  C19  1  0.25193600  0.75407300  0.05788900  1
  C  C20  1  0.74806400  0.24592700  0.94211100  1
  C  C21  1  0.22659000  0.77001900  0.76698300  1
  C  C22  1  0.22659000  0.22998100  0.73301700  1
  C  C23  1  0.74806400  0.75407300  0.55788900  1
  C  C24  1  0.24504800  0.46867800  0.40938800  1
  C  C25  1  0.50907700  0.23421200  0.49960900  1
  C  C26  1  0.95715300  0.72529400  0.81130900  1
  C  C27  1  0.00895100  0.76545100  0.99270800  1
  C  C28  1  0.79933700  0.00000000  0.25000000  1
  C  C29  1  0.32856400  0.31246200  0.81708400  1
  C  C30  1  0.04284700  0.72529400  0.31130900  1
  C  C31  1  0.54614500  0.24874600  0.16332100  1
  C  C32  1  0.54614500  0.75125400  0.33667900  1
  C  C33  1  0.32856400  0.68753800  0.68291600  1
  C  C34  1  0.49092300  0.23421200  0.99960900  1
  C  C35  1  0.23734900  0.04559200  0.39236600  1
  C  C36  1  0.95715300  0.27470600  0.68869100  1
  C  C37  1  0.45385500  0.24874600  0.66332100  1
  C  C38  1  0.67143600  0.31246200  0.31708400  1
  C  C39  1  0.20066300  0.00000000  0.75000000  1
  C  C40  1  0.76265100  0.95440800  0.60763400  1
  C  C41  1  0.75495200  0.53132200  0.59061200  1
  C  C42  1  0.99104900  0.23454900  0.00729200  1
  C  C43  1  0.75495200  0.46867800  0.90938800  1
  C  C44  1  0.23734900  0.95440800  0.10763400  1
  C  C45  1  0.76265100  0.04559200  0.89236600  1
  C  C46  1  0.50907700  0.76578800  0.00039100  1
  C  C47  1  0.45385500  0.75125400  0.83667900  1
  C  C48  1  0.00895100  0.23454900  0.50729200  1
  C  C49  1  0.67143600  0.68753800  0.18291600  1
  C  C50  1  0.04284700  0.27470600  0.18869100  1
  C  C51  1  0.99104900  0.76545100  0.49270800  1
  C  C52  1  0.24504800  0.53132200  0.09061200  1
  C  C53  1  0.49092300  0.76578800  0.50039100  1
