# generated using pymatgen
data_Cu2Ni3C10
_symmetry_space_group_name_H-M   'P 1'
_cell_length_a   9.43779100
_cell_length_b   12.84300700
_cell_length_c   13.91783300
_cell_angle_alpha   90.00000000
_cell_angle_beta   90.00000000
_cell_angle_gamma   90.00000000
_symmetry_Int_Tables_number   1
_chemical_formula_structural   Cu2Ni3C10
_chemical_formula_sum   'Cu8 Ni12 C40'
_cell_volume   1686.97519178
_cell_formula_units_Z   4
loop_
 _symmetry_equiv_pos_site_id
 _symmetry_equiv_pos_as_xyz
  1  'x, y, z'
loop_
 _atom_site_type_symbol
 _atom_site_label
 _atom_site_symmetry_multiplicity
 _atom_site_fract_x
 _atom_site_fract_y
 _atom_site_fract_z
 _atom_site_occupancy
  C  C0  1  0.00215500  0.87186400  0.25000000  1
  C  C1  1  0.99784500  0.37186400  0.25000000  1
  C  C2  1  0.80718300  0.08217400  0.25000000  1
  C  C3  1  0.99784500  0.12813600  0.75000000  1
  C  C4  1  0.00215500  0.62813600  0.75000000  1
  C  C5  1  0.80718300  0.41782600  0.75000000  1
  C  C6  1  0.19281700  0.91782600  0.75000000  1
  C  C7  1  0.19281700  0.58217400  0.25000000  1
  C  C8  1  0.23249300  0.83060800  0.61266800  1
  C  C9  1  0.07682500  0.69583900  0.60873600  1
  C  C10  1  0.44202500  0.74512900  0.07919700  1
  C  C11  1  0.07682500  0.80416100  0.10873600  1
  C  C12  1  0.18254200  0.92434400  0.48030900  1
  C  C13  1  0.44202500  0.75487100  0.92080300  1
  C  C14  1  0.07682500  0.69583900  0.89126400  1
  C  C15  1  0.55797500  0.25487100  0.92080300  1
  C  C16  1  0.55797500  0.25487100  0.57919700  1
  C  C17  1  0.76750700  0.16939200  0.38733200  1
  C  C18  1  0.81745800  0.42434400  0.48030900  1
  C  C19  1  0.23249300  0.66939200  0.38733200  1
  C  C20  1  0.23249300  0.66939200  0.11266800  1
  C  C21  1  0.76750700  0.33060800  0.88733200  1
  C  C22  1  0.92317500  0.19583900  0.60873600  1
  C  C23  1  0.18254200  0.57565600  0.98030900  1
  C  C24  1  0.81745800  0.07565600  0.98030900  1
  C  C25  1  0.07682500  0.80416100  0.39126400  1
  C  C26  1  0.55797500  0.24512900  0.07919700  1
  C  C27  1  0.55797500  0.24512900  0.42080300  1
  C  C28  1  0.76750700  0.33060800  0.61266800  1
  C  C29  1  0.92317500  0.30416100  0.39126400  1
  C  C30  1  0.81745800  0.07565600  0.51969100  1
  C  C31  1  0.18254200  0.57565600  0.51969100  1
  C  C32  1  0.18254200  0.92434400  0.01969100  1
  C  C33  1  0.76750700  0.16939200  0.11266800  1
  C  C34  1  0.92317500  0.19583900  0.89126400  1
  C  C35  1  0.44202500  0.75487100  0.57919700  1
  C  C36  1  0.81745800  0.42434400  0.01969100  1
  C  C37  1  0.92317500  0.30416100  0.10873600  1
  C  C38  1  0.44202500  0.74512900  0.42080300  1
  C  C39  1  0.23249300  0.83060800  0.88733200  1
  Ni  Ni40  1  0.91107800  0.75000000  0.00000000  1
  Ni  Ni41  1  0.39136000  0.58337100  0.89543900  1
  Ni  Ni42  1  0.60864000  0.41662900  0.10456100  1
  Ni  Ni43  1  0.60864000  0.08337100  0.60456100  1
  Ni  Ni44  1  0.60864000  0.08337100  0.89543900  1
  Ni  Ni45  1  0.60864000  0.41662900  0.39543900  1
  Ni  Ni46  1  0.08892200  0.25000000  0.00000000  1
  Ni  Ni47  1  0.39136000  0.58337100  0.60456100  1
  Ni  Ni48  1  0.39136000  0.91662900  0.10456100  1
  Ni  Ni49  1  0.91107800  0.75000000  0.50000000  1
  Ni  Ni50  1  0.39136000  0.91662900  0.39543900  1
  Ni  Ni51  1  0.08892200  0.25000000  0.50000000  1
  Cu  Cu52  1  0.27794200  0.38782300  0.25000000  1
  Cu  Cu53  1  0.90799000  0.93014800  0.75000000  1
  Cu  Cu54  1  0.09201000  0.43014800  0.75000000  1
  Cu  Cu55  1  0.90799000  0.56985200  0.25000000  1
  Cu  Cu56  1  0.72205800  0.88782300  0.25000000  1
  Cu  Cu57  1  0.27794200  0.11217700  0.75000000  1
  Cu  Cu58  1  0.09201000  0.06985200  0.25000000  1
  Cu  Cu59  1  0.72205800  0.61217700  0.75000000  1
