# generated using pymatgen
data_Cu9NiC7
_symmetry_space_group_name_H-M   'P 1'
_cell_length_a   6.56968200
_cell_length_b   11.40592400
_cell_length_c   11.49806400
_cell_angle_alpha   90.00000000
_cell_angle_beta   90.00000000
_cell_angle_gamma   90.00000000
_symmetry_Int_Tables_number   1
_chemical_formula_structural   Cu9NiC7
_chemical_formula_sum   'Cu36 Ni4 C28'
_cell_volume   861.58780550
_cell_formula_units_Z   4
loop_
 _symmetry_equiv_pos_site_id
 _symmetry_equiv_pos_as_xyz
  1  'x, y, z'
loop_
 _atom_site_type_symbol
 _atom_site_label
 _atom_site_symmetry_multiplicity
 _atom_site_fract_x
 _atom_site_fract_y
 _atom_site_fract_z
 _atom_site_occupancy
  C  C0  1  0.33191700  0.75890600  0.97374300  1
  C  C1  1  0.49448800  0.54653400  0.24732400  1
  C  C2  1  0.99448800  0.95346600  0.74732400  1
  C  C3  1  0.99448800  0.04653400  0.25267600  1
  C  C4  1  0.49448800  0.45346600  0.75267600  1
  C  C5  1  0.83191700  0.74109400  0.47374300  1
  C  C6  1  0.83191700  0.25890600  0.52625700  1
  C  C7  1  0.33191700  0.24109400  0.02625700  1
  C  C8  1  0.19016400  0.32313500  0.27305500  1
  C  C9  1  0.33853500  0.20167100  0.68611300  1
  C  C10  1  0.96474100  0.49654200  0.25319200  1
  C  C11  1  0.29859800  0.76789000  0.53773600  1
  C  C12  1  0.79859800  0.26789000  0.96226400  1
  C  C13  1  0.46474100  0.99654200  0.24680800  1
  C  C14  1  0.96474100  0.50345800  0.74680800  1
  C  C15  1  0.83853500  0.70167100  0.81388700  1
  C  C16  1  0.33853500  0.79832900  0.31388700  1
  C  C17  1  0.83853500  0.29832900  0.18611300  1
  C  C18  1  0.02153800  0.71793800  0.20845900  1
  C  C19  1  0.02153800  0.28206200  0.79154100  1
  C  C20  1  0.46474100  0.00345800  0.75319200  1
  C  C21  1  0.69016400  0.17686500  0.77305500  1
  C  C22  1  0.19016400  0.67686500  0.72694500  1
  C  C23  1  0.52153800  0.78206200  0.70845900  1
  C  C24  1  0.69016400  0.82313500  0.22694500  1
  C  C25  1  0.29859800  0.23211000  0.46226400  1
  C  C26  1  0.79859800  0.73211000  0.03773600  1
  C  C27  1  0.52153800  0.21793800  0.29154100  1
  Ni  Ni28  1  0.88878400  0.00000000  0.50000000  1
  Ni  Ni29  1  0.13978500  0.00000000  0.00000000  1
  Ni  Ni30  1  0.63978500  0.50000000  0.50000000  1
  Ni  Ni31  1  0.38878400  0.50000000  0.00000000  1
  Cu  Cu32  1  0.64945900  0.04869100  0.78510100  1
  Cu  Cu33  1  0.14945900  0.54869100  0.71489900  1
  Cu  Cu34  1  0.23743800  0.22934800  0.57540000  1
  Cu  Cu35  1  0.48989100  0.20814800  0.42139500  1
  Cu  Cu36  1  0.48989100  0.79185200  0.57860500  1
  Cu  Cu37  1  0.31144800  0.92646400  0.28921900  1
  Cu  Cu38  1  0.73743800  0.72934800  0.92460000  1
  Cu  Cu39  1  0.42241200  0.88613100  0.76799000  1
  Cu  Cu40  1  0.14383900  0.26278500  0.38514900  1
  Cu  Cu41  1  0.24132300  0.27413400  0.77740700  1
  Cu  Cu42  1  0.64383900  0.23721500  0.88514900  1
  Cu  Cu43  1  0.92241200  0.38613100  0.73201000  1
  Cu  Cu44  1  0.90708300  0.18215500  0.74370500  1
  Cu  Cu45  1  0.24132300  0.72586600  0.22259300  1
  Cu  Cu46  1  0.90708300  0.81784500  0.25629500  1
  Cu  Cu47  1  0.23743800  0.77065200  0.42460000  1
  Cu  Cu48  1  0.31144800  0.07353600  0.71078100  1
  Cu  Cu49  1  0.81144800  0.57353600  0.78921900  1
  Cu  Cu50  1  0.64945900  0.95130900  0.21489900  1
  Cu  Cu51  1  0.14945900  0.45130900  0.28510100  1
  Cu  Cu52  1  0.55894200  0.76994900  0.31766500  1
  Cu  Cu53  1  0.74132300  0.77413400  0.72259300  1
  Cu  Cu54  1  0.98989100  0.70814800  0.07860500  1
  Cu  Cu55  1  0.73743800  0.27065200  0.07540000  1
  Cu  Cu56  1  0.40708300  0.31784500  0.24370500  1
  Cu  Cu57  1  0.64383900  0.76278500  0.11485100  1
  Cu  Cu58  1  0.05894200  0.26994900  0.18233500  1
  Cu  Cu59  1  0.55894200  0.23005100  0.68233500  1
  Cu  Cu60  1  0.40708300  0.68215500  0.75629500  1
  Cu  Cu61  1  0.81144800  0.42646400  0.21078100  1
  Cu  Cu62  1  0.05894200  0.73005100  0.81766500  1
  Cu  Cu63  1  0.74132300  0.22586600  0.27740700  1
  Cu  Cu64  1  0.14383900  0.73721500  0.61485100  1
  Cu  Cu65  1  0.42241200  0.11386900  0.23201000  1
  Cu  Cu66  1  0.98989100  0.29185200  0.92139500  1
  Cu  Cu67  1  0.92241200  0.61386900  0.26799000  1
