# generated using pymatgen
data_Cu2NiC6
_symmetry_space_group_name_H-M   'P 1'
_cell_length_a   5.48413086
_cell_length_b   5.48413086
_cell_length_c   16.64323329
_cell_angle_alpha   88.65945846
_cell_angle_beta   88.65945846
_cell_angle_gamma   89.79639930
_symmetry_Int_Tables_number   1
_chemical_formula_structural   Cu2NiC6
_chemical_formula_sum   'Cu8 Ni4 C24'
_cell_volume   500.28052216
_cell_formula_units_Z   4
loop_
 _symmetry_equiv_pos_site_id
 _symmetry_equiv_pos_as_xyz
  1  'x, y, z'
loop_
 _atom_site_type_symbol
 _atom_site_label
 _atom_site_symmetry_multiplicity
 _atom_site_fract_x
 _atom_site_fract_y
 _atom_site_fract_z
 _atom_site_occupancy
  Ni  Ni0  1  0.05410800  0.67209300  0.12047500  1
  Ni  Ni1  1  0.05725600  0.86234800  0.90129300  1
  Ni  Ni2  1  0.67209300  0.05410800  0.62047500  1
  Ni  Ni3  1  0.86234800  0.05725600  0.40129300  1
  Cu  Cu4  1  0.56418300  0.53198300  0.87701700  1
  Cu  Cu5  1  0.99433800  0.56301800  0.64624200  1
  Cu  Cu6  1  0.53198300  0.56418300  0.37701700  1
  Cu  Cu7  1  0.28887500  0.24994500  0.75958900  1
  Cu  Cu8  1  0.26931200  0.80815200  0.51143200  1
  Cu  Cu9  1  0.80815200  0.26931200  0.01143200  1
  Cu  Cu10  1  0.56301800  0.99433800  0.14624200  1
  Cu  Cu11  1  0.24994500  0.28887500  0.25958900  1
  C  C12  1  0.36137800  0.84661700  0.11302800  1
  C  C13  1  0.13404100  0.13857700  0.32598500  1
  C  C14  1  0.84661700  0.36137800  0.61302800  1
  C  C15  1  0.33264300  0.64098000  0.90931200  1
  C  C16  1  0.95825200  0.04219600  0.99874400  1
  C  C17  1  0.86901700  0.79585500  0.66799700  1
  C  C18  1  0.79585500  0.86901700  0.16799700  1
  C  C19  1  0.77782900  0.69388700  0.85946200  1
  C  C20  1  0.69388700  0.77782900  0.35946200  1
  C  C21  1  0.09664200  0.38315600  0.19239600  1
  C  C22  1  0.93432000  0.50740200  0.02509300  1
  C  C23  1  0.22207900  0.61527800  0.58425100  1
  C  C24  1  0.13524000  0.47924000  0.72533800  1
  C  C25  1  0.64098000  0.33264300  0.40931200  1
  C  C26  1  0.63382700  0.30358300  0.93570000  1
  C  C27  1  0.50740200  0.93432000  0.52509300  1
  C  C28  1  0.38888400  0.52050900  0.29526600  1
  C  C29  1  0.47924000  0.13524000  0.22533800  1
  C  C30  1  0.30358300  0.63382700  0.43570000  1
  C  C31  1  0.52050900  0.38888400  0.79526600  1
  C  C32  1  0.04219600  0.95825200  0.49874400  1
  C  C33  1  0.38315600  0.09664200  0.69239600  1
  C  C34  1  0.61527800  0.22207900  0.08425100  1
  C  C35  1  0.13857700  0.13404100  0.82598500  1
