# generated using pymatgen
data_Cu2NiC4
_symmetry_space_group_name_H-M   'P 1'
_cell_length_a   4.08546900
_cell_length_b   12.45913200
_cell_length_c   14.78588000
_cell_angle_alpha   90.00000000
_cell_angle_beta   90.00000000
_cell_angle_gamma   90.00000000
_symmetry_Int_Tables_number   1
_chemical_formula_structural   Cu2NiC4
_chemical_formula_sum   'Cu8 Ni4 C16'
_cell_volume   752.62195605
_cell_formula_units_Z   4
loop_
 _symmetry_equiv_pos_site_id
 _symmetry_equiv_pos_as_xyz
  1  'x, y, z'
loop_
 _atom_site_type_symbol
 _atom_site_label
 _atom_site_symmetry_multiplicity
 _atom_site_fract_x
 _atom_site_fract_y
 _atom_site_fract_z
 _atom_site_occupancy
  Ni  Ni0  1  0.75000000  0.74032700  0.83430500  1
  Ni  Ni1  1  0.25000000  0.25967300  0.16569500  1
  Ni  Ni2  1  0.75000000  0.24032700  0.66569500  1
  Ni  Ni3  1  0.25000000  0.75967300  0.33430500  1
  Cu  Cu4  1  0.75000000  0.08278500  0.40236200  1
  Cu  Cu5  1  0.25000000  0.91721500  0.59763800  1
  Cu  Cu6  1  0.75000000  0.58278500  0.09763800  1
  Cu  Cu7  1  0.25000000  0.41721500  0.90236200  1
  Cu  Cu8  1  0.75000000  0.06250500  0.88922600  1
  Cu  Cu9  1  0.25000000  0.93749500  0.11077400  1
  Cu  Cu10  1  0.75000000  0.56250500  0.61077400  1
  Cu  Cu11  1  0.25000000  0.43749500  0.38922600  1
  C  C12  1  0.75000000  0.29433400  0.32754400  1
  C  C13  1  0.25000000  0.70566600  0.67245600  1
  C  C14  1  0.75000000  0.79433400  0.17245600  1
  C  C15  1  0.25000000  0.20566600  0.82754400  1
  C  C16  1  0.75000000  0.36948400  0.03094900  1
  C  C17  1  0.25000000  0.63051600  0.96905100  1
  C  C18  1  0.75000000  0.86948400  0.46905100  1
  C  C19  1  0.25000000  0.13051600  0.53094900  1
  C  C20  1  0.75000000  0.97334600  0.71559300  1
  C  C21  1  0.25000000  0.02665400  0.28440700  1
  C  C22  1  0.75000000  0.47334600  0.78440700  1
  C  C23  1  0.25000000  0.52665400  0.21559300  1
  C  C24  1  0.75000000  0.09144400  0.07775800  1
  C  C25  1  0.25000000  0.90855600  0.92224200  1
  C  C26  1  0.75000000  0.59144400  0.42224200  1
  C  C27  1  0.25000000  0.40855600  0.57775800  1
