# generated using pymatgen
data_Cu2NiC4
_symmetry_space_group_name_H-M   'P 1'
_cell_length_a   8.66893200
_cell_length_b   8.66893200
_cell_length_c   6.08141100
_cell_angle_alpha   90.00000000
_cell_angle_beta   90.00000000
_cell_angle_gamma   90.00000000
_symmetry_Int_Tables_number   1
_chemical_formula_structural   Cu2NiC4
_chemical_formula_sum   'Cu8 Ni4 C16'
_cell_volume   457.02035987
_cell_formula_units_Z   4
loop_
 _symmetry_equiv_pos_site_id
 _symmetry_equiv_pos_as_xyz
  1  'x, y, z'
loop_
 _atom_site_type_symbol
 _atom_site_label
 _atom_site_symmetry_multiplicity
 _atom_site_fract_x
 _atom_site_fract_y
 _atom_site_fract_z
 _atom_site_occupancy
  Ni  Ni0  1  0.50000000  0.00000000  0.25000000  1
  Ni  Ni1  1  0.00000000  0.50000000  0.75000000  1
  Ni  Ni2  1  0.50000000  0.00000000  0.75000000  1
  Ni  Ni3  1  0.00000000  0.50000000  0.25000000  1
  Cu  Cu4  1  0.83587100  0.82029500  0.00000000  1
  Cu  Cu5  1  0.82029500  0.16412900  0.50000000  1
  Cu  Cu6  1  0.17970500  0.83587100  0.50000000  1
  Cu  Cu7  1  0.16412900  0.17970500  0.00000000  1
  Cu  Cu8  1  0.33587100  0.67970500  0.00000000  1
  Cu  Cu9  1  0.66412900  0.32029500  0.00000000  1
  Cu  Cu10  1  0.67970500  0.66412900  0.50000000  1
  Cu  Cu11  1  0.32029500  0.33587100  0.50000000  1
  C  C12  1  0.40597000  0.86165100  0.50000000  1
  C  C13  1  0.59403000  0.13834900  0.50000000  1
  C  C14  1  0.13834900  0.40597000  0.00000000  1
  C  C15  1  0.86165100  0.59403000  0.00000000  1
  C  C16  1  0.36165100  0.90597000  0.00000000  1
  C  C17  1  0.90597000  0.63834900  0.50000000  1
  C  C18  1  0.09403000  0.36165100  0.50000000  1
  C  C19  1  0.63834900  0.09403000  0.00000000  1
  C  C20  1  0.18138100  0.68138100  0.75000000  1
  C  C21  1  0.68138100  0.81861900  0.25000000  1
  C  C22  1  0.31861900  0.18138100  0.25000000  1
  C  C23  1  0.81861900  0.31861900  0.75000000  1
  C  C24  1  0.18138100  0.68138100  0.25000000  1
  C  C25  1  0.68138100  0.81861900  0.75000000  1
  C  C26  1  0.31861900  0.18138100  0.75000000  1
  C  C27  1  0.81861900  0.31861900  0.25000000  1
