# generated using pymatgen
data_Cu3(Ni2C)8
_symmetry_space_group_name_H-M   'P 1'
_cell_length_a   10.05749374
_cell_length_b   10.05749374
_cell_length_c   6.05895700
_cell_angle_alpha   90.00000000
_cell_angle_beta   90.00000000
_cell_angle_gamma   119.99999828
_symmetry_Int_Tables_number   1
_chemical_formula_structural   Cu3(Ni2C)8
_chemical_formula_sum   'Cu6 Ni32 C16'
_cell_volume   530.77205740
_cell_formula_units_Z   2
loop_
 _symmetry_equiv_pos_site_id
 _symmetry_equiv_pos_as_xyz
  1  'x, y, z'
loop_
 _atom_site_type_symbol
 _atom_site_label
 _atom_site_symmetry_multiplicity
 _atom_site_fract_x
 _atom_site_fract_y
 _atom_site_fract_z
 _atom_site_occupancy
  Ni  Ni0  1  0.85567800  0.97959000  0.97034500  1
  Ni  Ni1  1  0.81146000  0.61627600  0.42843300  1
  Ni  Ni2  1  0.19518400  0.81146000  0.92843300  1
  Ni  Ni3  1  0.80481600  0.18854000  0.42843300  1
  Ni  Ni4  1  0.90699100  0.48189700  0.00957100  1
  Ni  Ni5  1  0.38372400  0.19518400  0.42843300  1
  Ni  Ni6  1  0.33333300  0.66666700  0.68381000  1
  Ni  Ni7  1  0.14432200  0.02041000  0.47034500  1
  Ni  Ni8  1  0.97959000  0.12391300  0.47034500  1
  Ni  Ni9  1  0.51810300  0.42509400  0.00957100  1
  Ni  Ni10  1  0.15443200  0.71903200  0.49490500  1
  Ni  Ni11  1  0.28096800  0.43540000  0.49490500  1
  Ni  Ni12  1  0.82667500  0.37792500  0.75791000  1
  Ni  Ni13  1  0.57490600  0.09300900  0.00957100  1
  Ni  Ni14  1  0.48189700  0.57490600  0.50957100  1
  Ni  Ni15  1  0.02041000  0.87608700  0.97034500  1
  Ni  Ni16  1  0.42509400  0.90699100  0.50957100  1
  Ni  Ni17  1  0.71903200  0.56460000  0.99490500  1
  Ni  Ni18  1  0.18854000  0.38372400  0.92843300  1
  Ni  Ni19  1  0.66666700  0.33333300  0.18381000  1
  Ni  Ni20  1  0.17332500  0.62207500  0.25791000  1
  Ni  Ni21  1  0.62207500  0.44875000  0.75791000  1
  Ni  Ni22  1  0.61627600  0.80481600  0.92843300  1
  Ni  Ni23  1  0.37792500  0.55125000  0.25791000  1
  Ni  Ni24  1  0.43540000  0.15443200  0.99490500  1
  Ni  Ni25  1  0.84556800  0.28096800  0.99490500  1
  Ni  Ni26  1  0.55125000  0.17332500  0.75791000  1
  Ni  Ni27  1  0.12391300  0.14432200  0.97034500  1
  Ni  Ni28  1  0.87608700  0.85567800  0.47034500  1
  Ni  Ni29  1  0.56460000  0.84556800  0.49490500  1
  Ni  Ni30  1  0.44875000  0.82667500  0.25791000  1
  Ni  Ni31  1  0.09300900  0.51810300  0.50957100  1
  Cu  Cu32  1  0.62862500  0.45209000  0.93838900  1
  Cu  Cu33  1  0.54791000  0.17653500  0.93838900  1
  Cu  Cu34  1  0.82346500  0.37137500  0.93838900  1
  Cu  Cu35  1  0.45209000  0.82346500  0.43838900  1
  Cu  Cu36  1  0.17653500  0.62862500  0.43838900  1
  Cu  Cu37  1  0.37137500  0.54791000  0.43838900  1
  C  C38  1  0.33333300  0.66666700  0.51304900  1
  C  C39  1  0.66666700  0.33333300  0.01304900  1
  C  C40  1  0.78233800  0.74925600  0.45808600  1
  C  C41  1  0.00000000  0.00000000  0.48811600  1
  C  C42  1  0.00000000  0.00000000  0.98811600  1
  C  C43  1  0.52865500  0.70225200  0.90676900  1
  C  C44  1  0.29774800  0.82640200  0.90676900  1
  C  C45  1  0.96691800  0.21766200  0.45808600  1
  C  C46  1  0.70225200  0.17359800  0.40676900  1
  C  C47  1  0.74925600  0.96691800  0.95808600  1
  C  C48  1  0.21766200  0.25074400  0.95808600  1
  C  C49  1  0.03308200  0.78233800  0.95808600  1
  C  C50  1  0.82640200  0.52865500  0.40676900  1
  C  C51  1  0.47134500  0.29774800  0.40676900  1
  C  C52  1  0.17359800  0.47134500  0.90676900  1
  C  C53  1  0.25074400  0.03308200  0.45808600  1
