# generated using pymatgen
data_Cu8NiC
_symmetry_space_group_name_H-M   'P 1'
_cell_length_a   11.19623000
_cell_length_b   11.40269500
_cell_length_c   16.23096300
_cell_angle_alpha   90.00000000
_cell_angle_beta   90.00000000
_cell_angle_gamma   90.00000000
_symmetry_Int_Tables_number   1
_chemical_formula_structural   Cu8NiC
_chemical_formula_sum   'Cu32 Ni4 C4'
_cell_volume   2072.16153199
_cell_formula_units_Z   4
loop_
 _symmetry_equiv_pos_site_id
 _symmetry_equiv_pos_as_xyz
  1  'x, y, z'
loop_
 _atom_site_type_symbol
 _atom_site_label
 _atom_site_symmetry_multiplicity
 _atom_site_fract_x
 _atom_site_fract_y
 _atom_site_fract_z
 _atom_site_occupancy
  C  C0  1  0.99220600  0.92020100  0.66226700  1
  C  C1  1  0.49220600  0.57979900  0.16226700  1
  C  C2  1  0.00779400  0.07979900  0.16226700  1
  C  C3  1  0.50779400  0.42020100  0.66226700  1
  Ni  Ni4  1  0.01499200  0.45798700  0.44932100  1
  Ni  Ni5  1  0.51499200  0.04201300  0.94932100  1
  Ni  Ni6  1  0.98500800  0.54201300  0.94932100  1
  Ni  Ni7  1  0.48500800  0.95798700  0.44932100  1
  Cu  Cu8  1  0.48704200  0.60622000  0.74516500  1
  Cu  Cu9  1  0.62962700  0.96881700  0.82960400  1
  Cu  Cu10  1  0.53876600  0.54675600  0.00699200  1
  Cu  Cu11  1  0.95850500  0.75429600  0.97493000  1
  Cu  Cu12  1  0.54149500  0.25429600  0.97493000  1
  Cu  Cu13  1  0.03876600  0.95324400  0.50699200  1
  Cu  Cu14  1  0.87037300  0.46881700  0.82960400  1
  Cu  Cu15  1  0.30197800  0.01434900  0.92542200  1
  Cu  Cu16  1  0.64688700  0.73266700  0.21388000  1
  Cu  Cu17  1  0.51295800  0.39378000  0.24516500  1
  Cu  Cu18  1  0.85311300  0.23266700  0.21388000  1
  Cu  Cu19  1  0.98704200  0.89378000  0.24516500  1
  Cu  Cu20  1  0.35311300  0.26733300  0.71388000  1
  Cu  Cu21  1  0.69802200  0.98565100  0.42542200  1
  Cu  Cu22  1  0.19802200  0.51434900  0.92542200  1
  Cu  Cu23  1  0.37037300  0.03118300  0.32960400  1
  Cu  Cu24  1  0.42752800  0.07946300  0.57011000  1
  Cu  Cu25  1  0.71797500  0.33006100  0.67578000  1
  Cu  Cu26  1  0.45850500  0.74570400  0.47493000  1
  Cu  Cu27  1  0.57247200  0.92053700  0.07011000  1
  Cu  Cu28  1  0.78202500  0.83006100  0.67578000  1
  Cu  Cu29  1  0.92752800  0.42053700  0.07011000  1
  Cu  Cu30  1  0.01295800  0.10622000  0.74516500  1
  Cu  Cu31  1  0.14688700  0.76733300  0.71388000  1
  Cu  Cu32  1  0.12962700  0.53118300  0.32960400  1
  Cu  Cu33  1  0.46123400  0.45324400  0.50699200  1
  Cu  Cu34  1  0.21797500  0.16993900  0.17578000  1
  Cu  Cu35  1  0.80197800  0.48565100  0.42542200  1
  Cu  Cu36  1  0.07247200  0.57946300  0.57011000  1
  Cu  Cu37  1  0.28202500  0.66993900  0.17578000  1
  Cu  Cu38  1  0.04149500  0.24570400  0.47493000  1
  Cu  Cu39  1  0.96123400  0.04675600  0.00699200  1
