# generated using pymatgen
data_Cu4NiC2
_symmetry_space_group_name_H-M   'P 1'
_cell_length_a   8.75913997
_cell_length_b   8.75913997
_cell_length_c   10.88117169
_cell_angle_alpha   82.36608218
_cell_angle_beta   82.36608218
_cell_angle_gamma   51.83163371
_symmetry_Int_Tables_number   1
_chemical_formula_structural   Cu4NiC2
_chemical_formula_sum   'Cu16 Ni4 C8'
_cell_volume   649.14445162
_cell_formula_units_Z   4
loop_
 _symmetry_equiv_pos_site_id
 _symmetry_equiv_pos_as_xyz
  1  'x, y, z'
loop_
 _atom_site_type_symbol
 _atom_site_label
 _atom_site_symmetry_multiplicity
 _atom_site_fract_x
 _atom_site_fract_y
 _atom_site_fract_z
 _atom_site_occupancy
  C  C0  1  0.67695600  0.92537500  0.68313300  1
  C  C1  1  0.38141200  0.61858800  0.75000000  1
  C  C2  1  0.61858800  0.38141200  0.25000000  1
  C  C3  1  0.32304400  0.07462500  0.31686700  1
  C  C4  1  0.92537500  0.67695600  0.18313300  1
  C  C5  1  0.07462500  0.32304400  0.81686700  1
  Ni  Ni6  1  0.69404600  0.62359800  0.47257100  1
  Ni  Ni7  1  0.37640200  0.30595400  0.02742900  1
  Ni  Ni8  1  0.62359800  0.69404600  0.97257100  1
  Ni  Ni9  1  0.30595400  0.37640200  0.52742900  1
  Cu  Cu10  1  0.59534700  0.27153600  0.54231500  1
  Cu  Cu11  1  0.25911600  0.44722600  0.33469000  1
  Cu  Cu12  1  0.28599200  0.14662800  0.58657800  1
  Cu  Cu13  1  0.14662800  0.28599200  0.08657800  1
  Cu  Cu14  1  0.39191700  0.89639400  0.85606700  1
  Cu  Cu15  1  0.85337200  0.71400800  0.91342200  1
  Cu  Cu16  1  0.44722600  0.25911600  0.83469000  1
  Cu  Cu17  1  0.89639400  0.39191700  0.35606700  1
  Cu  Cu18  1  0.55277400  0.74088400  0.16531000  1
  Cu  Cu19  1  0.72846400  0.40465300  0.95768500  1
  Cu  Cu20  1  0.74088400  0.55277400  0.66531000  1
  Cu  Cu21  1  0.71400800  0.85337200  0.41342200  1
  Cu  Cu22  1  0.10360600  0.60808300  0.64393300  1
  Cu  Cu23  1  0.40465300  0.72846400  0.45768500  1
  Cu  Cu24  1  0.27153600  0.59534700  0.04231500  1
  Cu  Cu25  1  0.60808300  0.10360600  0.14393300  1
  C  C26  1  0.99371000  0.00629000  0.75000000  1
  C  C27  1  0.00629000  0.99371000  0.25000000  1
