# generated using pymatgen
data_Cu2Ni2C7
_symmetry_space_group_name_H-M   'P 1'
_cell_length_a   8.81518280
_cell_length_b   7.27290530
_cell_length_c   6.74717240
_cell_angle_alpha   77.81674129
_cell_angle_beta   53.75159845
_cell_angle_gamma   48.43166026
_symmetry_Int_Tables_number   1
_chemical_formula_structural   Cu2Ni2C7
_chemical_formula_sum   'Cu4 Ni4 C14'
_cell_volume   248.94105399
_cell_formula_units_Z   2
loop_
 _symmetry_equiv_pos_site_id
 _symmetry_equiv_pos_as_xyz
  1  'x, y, z'
loop_
 _atom_site_type_symbol
 _atom_site_label
 _atom_site_symmetry_multiplicity
 _atom_site_fract_x
 _atom_site_fract_y
 _atom_site_fract_z
 _atom_site_occupancy
  C  C0  1  0.25000000  0.25000000  0.25000000  1
  C  C1  1  0.00000000  0.00000000  0.00000000  1
  Ni  Ni2  1  0.40747100  0.40747100  0.59252900  1
  Ni  Ni3  1  0.84252900  0.84252900  0.65747100  1
  Ni  Ni4  1  0.65747100  0.65747100  0.84252900  1
  Ni  Ni5  1  0.59252900  0.59252900  0.40747100  1
  Cu  Cu6  1  0.28592100  0.71407900  0.28592100  1
  Cu  Cu7  1  0.53592100  0.96407900  0.53592100  1
  Cu  Cu8  1  0.71407900  0.28592100  0.71407900  1
  Cu  Cu9  1  0.96407900  0.53592100  0.96407900  1
  C  C10  1  0.59734800  0.40265200  0.59734800  1
  C  C11  1  0.15640900  0.52123900  0.88795900  1
  C  C12  1  0.72876100  0.09359100  0.81560700  1
  C  C13  1  0.43439300  0.88795900  0.52123900  1
  C  C14  1  0.09359100  0.72876100  0.36204100  1
  C  C15  1  0.88795900  0.43439300  0.15640900  1
  C  C16  1  0.40265200  0.59734800  0.40265200  1
  C  C17  1  0.84734800  0.65265200  0.84734800  1
  C  C18  1  0.81560700  0.36204100  0.72876100  1
  C  C19  1  0.36204100  0.81560700  0.09359100  1
  C  C20  1  0.65265200  0.84734800  0.65265200  1
  C  C21  1  0.52123900  0.15640900  0.43439300  1
