# generated using pymatgen
data_Cu3Ni3C5
_symmetry_space_group_name_H-M   'P 1'
_cell_length_a   9.47532734
_cell_length_b   9.47532734
_cell_length_c   7.03242600
_cell_angle_alpha   90.00000000
_cell_angle_beta   90.00000000
_cell_angle_gamma   119.99999542
_symmetry_Int_Tables_number   1
_chemical_formula_structural   Cu3Ni3C5
_chemical_formula_sum   'Cu6 Ni6 C10'
_cell_volume   546.79466379
_cell_formula_units_Z   2
loop_
 _symmetry_equiv_pos_site_id
 _symmetry_equiv_pos_as_xyz
  1  'x, y, z'
loop_
 _atom_site_type_symbol
 _atom_site_label
 _atom_site_symmetry_multiplicity
 _atom_site_fract_x
 _atom_site_fract_y
 _atom_site_fract_z
 _atom_site_occupancy
  C  C0  1  0.20137400  0.40274900  0.25066800  1
  C  C1  1  0.20137400  0.79862600  0.25066800  1
  C  C2  1  0.33333300  0.66666700  0.71083500  1
  C  C3  1  0.79862600  0.20137400  0.75066800  1
  C  C4  1  0.40274900  0.20137400  0.75066800  1
  C  C5  1  0.79862600  0.59725100  0.75066800  1
  C  C6  1  0.59725100  0.79862600  0.25066800  1
  C  C7  1  0.66666700  0.33333300  0.21083500  1
  Ni  Ni8  1  0.46826300  0.53173700  0.97170100  1
  Ni  Ni9  1  0.46826300  0.93652600  0.97170100  1
  Ni  Ni10  1  0.53173700  0.06347400  0.47170100  1
  Ni  Ni11  1  0.53173700  0.46826300  0.47170100  1
  Ni  Ni12  1  0.93652600  0.46826300  0.47170100  1
  Ni  Ni13  1  0.06347400  0.53173700  0.97170100  1
  C  C14  1  0.33333300  0.66666700  0.36547100  1
  C  C15  1  0.66666700  0.33333300  0.86547100  1
  Cu  Cu16  1  0.86808900  0.73617800  0.14209600  1
  Cu  Cu17  1  0.13191100  0.86808900  0.64209600  1
  Cu  Cu18  1  0.86808900  0.13191100  0.14209600  1
  Cu  Cu19  1  0.13191100  0.26382200  0.64209600  1
  Cu  Cu20  1  0.26382200  0.13191100  0.14209600  1
  Cu  Cu21  1  0.73617800  0.86808900  0.64209600  1
