# generated using pymatgen
data_Cu2Ni2C11
_symmetry_space_group_name_H-M   'P 1'
_cell_length_a   8.76965600
_cell_length_b   10.20701600
_cell_length_c   10.52291400
_cell_angle_alpha   61.34246020
_cell_angle_beta   90.00000000
_cell_angle_gamma   90.00000000
_symmetry_Int_Tables_number   1
_chemical_formula_structural   Cu2Ni2C11
_chemical_formula_sum   'Cu8 Ni8 C44'
_cell_volume   826.54288494
_cell_formula_units_Z   4
loop_
 _symmetry_equiv_pos_site_id
 _symmetry_equiv_pos_as_xyz
  1  'x, y, z'
loop_
 _atom_site_type_symbol
 _atom_site_label
 _atom_site_symmetry_multiplicity
 _atom_site_fract_x
 _atom_site_fract_y
 _atom_site_fract_z
 _atom_site_occupancy
  C  C0  1  0.31312400  0.28423400  0.19580400  1
  C  C1  1  0.81312400  0.71576600  0.30419600  1
  C  C2  1  0.68687600  0.71576600  0.80419600  1
  C  C3  1  0.18687600  0.28423400  0.69580400  1
  C  C4  1  0.66071700  0.23548400  0.53294700  1
  C  C5  1  0.16071700  0.76451600  0.96705300  1
  C  C6  1  0.33928300  0.76451600  0.46705300  1
  C  C7  1  0.83928300  0.23548400  0.03294700  1
  Ni  Ni8  1  0.98447800  0.22333200  0.43108100  1
  Ni  Ni9  1  0.48447800  0.77666800  0.06891900  1
  Ni  Ni10  1  0.01552200  0.77666800  0.56891900  1
  Ni  Ni11  1  0.51552200  0.22333200  0.93108100  1
  Ni  Ni12  1  0.01585100  0.10145100  0.59179000  1
  Ni  Ni13  1  0.51585100  0.89854900  0.90821000  1
  Ni  Ni14  1  0.98414900  0.89854900  0.40821000  1
  Ni  Ni15  1  0.48414900  0.10145100  0.09179000  1
  Cu  Cu16  1  0.31621600  0.98188600  0.61035600  1
  Cu  Cu17  1  0.81621600  0.01811400  0.88964400  1
  Cu  Cu18  1  0.68378400  0.01811400  0.38964400  1
  Cu  Cu19  1  0.18378400  0.98188600  0.11035600  1
  Cu  Cu20  1  0.87008100  0.45188300  0.17585100  1
  Cu  Cu21  1  0.37008100  0.54811700  0.32414900  1
  Cu  Cu22  1  0.12991900  0.54811700  0.82414900  1
  Cu  Cu23  1  0.62991900  0.45188300  0.67585100  1
  C  C24  1  0.96136400  0.19614700  0.53236400  1
  C  C25  1  0.46136400  0.80385300  0.96763600  1
  C  C26  1  0.03863600  0.80385300  0.46763600  1
  C  C27  1  0.53863600  0.19614700  0.03236400  1
  C  C28  1  0.39070900  0.83218000  0.66710500  1
  C  C29  1  0.89070900  0.16782000  0.83289500  1
  C  C30  1  0.60929100  0.16782000  0.33289500  1
  C  C31  1  0.10929100  0.83218000  0.16710500  1
  C  C32  1  0.75924000  0.45327500  0.06682000  1
  C  C33  1  0.25924000  0.54672500  0.43318000  1
  C  C34  1  0.24076000  0.54672500  0.93318000  1
  C  C35  1  0.74076000  0.45327500  0.56682000  1
  C  C36  1  0.97553800  0.32314400  0.21125900  1
  C  C37  1  0.47553800  0.67685600  0.28874100  1
  C  C38  1  0.02446200  0.67685600  0.78874100  1
  C  C39  1  0.52446200  0.32314400  0.71125900  1
  C  C40  1  0.95293200  0.59624000  0.11439500  1
  C  C41  1  0.45293200  0.40376000  0.38560500  1
  C  C42  1  0.04706800  0.40376000  0.88560500  1
  C  C43  1  0.54706800  0.59624000  0.61439500  1
  C  C44  1  0.79003300  0.43200300  0.30826800  1
  C  C45  1  0.29003300  0.56799700  0.19173200  1
  C  C46  1  0.20996700  0.56799700  0.69173200  1
  C  C47  1  0.70996700  0.43200300  0.80826800  1
  C  C48  1  0.18533800  0.97069900  0.70687500  1
  C  C49  1  0.68533800  0.02930100  0.79312500  1
  C  C50  1  0.81466200  0.02930100  0.29312500  1
  C  C51  1  0.31466200  0.97069900  0.20687500  1
  C  C52  1  0.26047100  0.02411500  0.46245400  1
  C  C53  1  0.76047100  0.97588500  0.03754600  1
  C  C54  1  0.73952900  0.97588500  0.53754600  1
  C  C55  1  0.23952900  0.02411500  0.96245400  1
  C  C56  1  0.42330100  0.09423300  0.61019300  1
  C  C57  1  0.92330100  0.90576700  0.88980700  1
  C  C58  1  0.57669900  0.90576700  0.38980700  1
  C  C59  1  0.07669900  0.09423300  0.11019300  1
