# generated using pymatgen
data_Cu2NiC16
_symmetry_space_group_name_H-M   'P 1'
_cell_length_a   5.79976097
_cell_length_b   10.04548219
_cell_length_c   9.83887753
_cell_angle_alpha   99.79748790
_cell_angle_beta   72.85823662
_cell_angle_gamma   89.99999537
_symmetry_Int_Tables_number   1
_chemical_formula_structural   Cu2NiC16
_chemical_formula_sum   'Cu4 Ni2 C32'
_cell_volume   539.00798738
_cell_formula_units_Z   2
loop_
 _symmetry_equiv_pos_site_id
 _symmetry_equiv_pos_as_xyz
  1  'x, y, z'
loop_
 _atom_site_type_symbol
 _atom_site_label
 _atom_site_symmetry_multiplicity
 _atom_site_fract_x
 _atom_site_fract_y
 _atom_site_fract_z
 _atom_site_occupancy
  C  C0  1  0.29786000  0.56738000  0.40428000  1
  C  C1  1  0.79786000  0.06738000  0.40428000  1
  C  C2  1  0.20214000  0.93262000  0.59572000  1
  C  C3  1  0.70214000  0.43262000  0.59572000  1
  C  C4  1  0.06030400  0.64656500  0.87939200  1
  C  C5  1  0.56030400  0.14656500  0.87939200  1
  C  C6  1  0.43969600  0.85343500  0.12060800  1
  C  C7  1  0.93969600  0.35343500  0.12060800  1
  Ni  Ni8  1  0.50000000  0.50000000  0.00000000  1
  Ni  Ni9  1  0.00000000  0.00000000  0.00000000  1
  Cu  Cu10  1  0.37227100  0.20924300  0.25545800  1
  Cu  Cu11  1  0.62772900  0.79075700  0.74454200  1
  Cu  Cu12  1  0.87227100  0.70924300  0.25545800  1
  Cu  Cu13  1  0.12772900  0.29075700  0.74454200  1
  C  C14  1  0.42636000  0.69140000  0.64784100  1
  C  C15  1  0.92636000  0.19140000  0.64784100  1
  C  C16  1  0.07364000  0.80860000  0.35215900  1
  C  C17  1  0.57364000  0.30860000  0.35215900  1
  C  C18  1  0.67607900  0.94112000  0.64784100  1
  C  C19  1  0.17607900  0.44112000  0.64784100  1
  C  C20  1  0.92579900  0.69140000  0.64784100  1
  C  C21  1  0.42579900  0.19140000  0.64784100  1
  C  C22  1  0.82392100  0.55888000  0.35215900  1
  C  C23  1  0.32392100  0.05888000  0.35215900  1
  C  C24  1  0.57420100  0.80860000  0.35215900  1
  C  C25  1  0.07420100  0.30860000  0.35215900  1
  C  C26  1  0.32975900  0.89008000  0.88547700  1
  C  C27  1  0.82975900  0.39008000  0.88547700  1
  C  C28  1  0.78476400  0.89008000  0.88547700  1
  C  C29  1  0.28476400  0.39008000  0.88547700  1
  C  C30  1  0.94273900  0.83742200  0.11452300  1
  C  C31  1  0.44273900  0.33742200  0.11452300  1
  C  C32  1  0.71523600  0.60992000  0.11452300  1
  C  C33  1  0.21523600  0.10992000  0.11452300  1
  C  C34  1  0.17024100  0.60992000  0.11452300  1
  C  C35  1  0.67024100  0.10992000  0.11452300  1
  C  C36  1  0.55726100  0.66257800  0.88547700  1
  C  C37  1  0.05726100  0.16257800  0.88547700  1
