# generated using pymatgen
data_Cu4NiC
_symmetry_space_group_name_H-M   'P 1'
_cell_length_a   12.58954367
_cell_length_b   12.58954367
_cell_length_c   12.58954367
_cell_angle_alpha   127.24321453
_cell_angle_beta   127.24321453
_cell_angle_gamma   77.85423921
_symmetry_Int_Tables_number   1
_chemical_formula_structural   Cu4NiC
_chemical_formula_sum   'Cu32 Ni8 C8'
_cell_volume   1225.70731311
_cell_formula_units_Z   8
loop_
 _symmetry_equiv_pos_site_id
 _symmetry_equiv_pos_as_xyz
  1  'x, y, z'
loop_
 _atom_site_type_symbol
 _atom_site_label
 _atom_site_symmetry_multiplicity
 _atom_site_fract_x
 _atom_site_fract_y
 _atom_site_fract_z
 _atom_site_occupancy
  C  C0  1  0.25000000  0.25000000  0.00000000  1
  C  C1  1  0.75000000  0.75000000  0.00000000  1
  C  C2  1  0.75000000  0.25000000  0.50000000  1
  C  C3  1  0.25000000  0.75000000  0.50000000  1
  C  C4  1  0.00000000  0.00000000  0.00000000  1
  C  C5  1  0.50000000  0.50000000  0.00000000  1
  C  C6  1  0.00000000  0.50000000  0.50000000  1
  C  C7  1  0.50000000  0.00000000  0.50000000  1
  Ni  Ni8  1  0.08902700  0.87500000  0.71402700  1
  Ni  Ni9  1  0.16097300  0.37500000  0.28597300  1
  Ni  Ni10  1  0.58902700  0.87500000  0.21402700  1
  Ni  Ni11  1  0.66097300  0.37500000  0.78597300  1
  Ni  Ni12  1  0.12500000  0.83902700  0.21402700  1
  Ni  Ni13  1  0.12500000  0.33902700  0.71402700  1
  Ni  Ni14  1  0.62500000  0.91097300  0.78597300  1
  Ni  Ni15  1  0.62500000  0.41097300  0.28597300  1
  Cu  Cu16  1  0.49172400  0.72163400  0.96068500  1
  Cu  Cu17  1  0.97163400  0.24172400  0.46068500  1
  Cu  Cu18  1  0.47153100  0.28980500  0.68450700  1
  Cu  Cu19  1  0.78103900  0.51095000  0.53931500  1
  Cu  Cu20  1  0.99172400  0.03103900  0.77008900  1
  Cu  Cu21  1  0.27836600  0.23905000  0.77008900  1
  Cu  Cu22  1  0.64470200  0.46019500  0.68172600  1
  Cu  Cu23  1  0.53980500  0.22153100  0.18450700  1
  Cu  Cu24  1  0.96896100  0.73905000  0.96068500  1
  Cu  Cu25  1  0.46896100  0.50827600  0.22991100  1
  Cu  Cu26  1  0.03980500  0.85529800  0.31827400  1
  Cu  Cu27  1  0.27846900  0.96019500  0.81549300  1
  Cu  Cu28  1  0.10529800  0.78980500  0.81827400  1
  Cu  Cu29  1  0.26095000  0.22163400  0.22991100  1
  Cu  Cu30  1  0.48905000  0.02836600  0.27008900  1
  Cu  Cu31  1  0.98905000  0.71896100  0.46068500  1
  Cu  Cu32  1  0.14470200  0.46297700  0.18450700  1
  Cu  Cu33  1  0.21019500  0.02846900  0.31549300  1
  Cu  Cu34  1  0.71297700  0.89470200  0.68450700  1
  Cu  Cu35  1  0.77836600  0.00827600  0.03931500  1
  Cu  Cu36  1  0.28103900  0.74172400  0.27008900  1
  Cu  Cu37  1  0.60529800  0.78702300  0.31549300  1
  Cu  Cu38  1  0.47163400  0.01095000  0.72991100  1
  Cu  Cu39  1  0.03702300  0.35529800  0.81549300  1
  Cu  Cu40  1  0.97153100  0.28702300  0.18172600  1
  Cu  Cu41  1  0.77846900  0.96297700  0.31827400  1
  Cu  Cu42  1  0.76095000  0.53103900  0.03931500  1
  Cu  Cu43  1  0.75827600  0.21896100  0.72991100  1
  Cu  Cu44  1  0.53702300  0.72153100  0.68172600  1
  Cu  Cu45  1  0.21297700  0.52846900  0.81827400  1
  Cu  Cu46  1  0.71019500  0.39470200  0.18172600  1
  Cu  Cu47  1  0.25827600  0.52836600  0.53931500  1
