# generated using pymatgen
data_Cu13NiC10
_symmetry_space_group_name_H-M   'P 1'
_cell_length_a   8.77641000
_cell_length_b   8.77834200
_cell_length_c   12.43100500
_cell_angle_alpha   90.00000000
_cell_angle_beta   90.00000000
_cell_angle_gamma   90.00000000
_symmetry_Int_Tables_number   1
_chemical_formula_structural   Cu13NiC10
_chemical_formula_sum   'Cu52 Ni4 C40'
_cell_volume   957.71357095
_cell_formula_units_Z   4
loop_
 _symmetry_equiv_pos_site_id
 _symmetry_equiv_pos_as_xyz
  1  'x, y, z'
loop_
 _atom_site_type_symbol
 _atom_site_label
 _atom_site_symmetry_multiplicity
 _atom_site_fract_x
 _atom_site_fract_y
 _atom_site_fract_z
 _atom_site_occupancy
  C  C0  1  0.48082700  0.53578200  0.49909800  1
  C  C1  1  0.76119700  0.25229900  0.21956600  1
  C  C2  1  0.98082700  0.46421800  0.49909800  1
  C  C3  1  0.73880300  0.25229900  0.71956600  1
  C  C4  1  0.98223000  0.03613800  0.50313400  1
  C  C5  1  0.26119700  0.74770100  0.21956600  1
  C  C6  1  0.51917300  0.46421800  0.99909800  1
  C  C7  1  0.01917300  0.53578200  0.99909800  1
  C  C8  1  0.51777000  0.03613800  0.00313400  1
  C  C9  1  0.23880300  0.74770100  0.71956600  1
  C  C10  1  0.48223000  0.96386200  0.50313400  1
  C  C11  1  0.01777000  0.96386200  0.00313400  1
  C  C12  1  0.75350500  0.59914400  0.66870900  1
  C  C13  1  0.00294900  0.50471100  0.24880800  1
  C  C14  1  0.45851400  0.24918400  0.35153600  1
  C  C15  1  0.25778600  0.24683700  0.49607700  1
  C  C16  1  0.00204100  0.99660600  0.25041600  1
  C  C17  1  0.50204100  0.00339400  0.25041600  1
  C  C18  1  0.90471700  0.75004300  0.81985600  1
  C  C19  1  0.24649500  0.40085600  0.16870900  1
  C  C20  1  0.24611800  0.09788000  0.16959700  1
  C  C21  1  0.04148600  0.24918400  0.85153600  1
  C  C22  1  0.59528300  0.75004300  0.31985600  1
  C  C23  1  0.54148600  0.75081600  0.85153600  1
  C  C24  1  0.25388200  0.09788000  0.66959700  1
  C  C25  1  0.75778600  0.75316300  0.49607700  1
  C  C26  1  0.75388200  0.90212000  0.66959700  1
  C  C27  1  0.74649500  0.59914400  0.16870900  1
  C  C28  1  0.99795900  0.00339400  0.75041600  1
  C  C29  1  0.25350500  0.40085600  0.66870900  1
  C  C30  1  0.95851400  0.75081600  0.35153600  1
  C  C31  1  0.50294900  0.49528900  0.24880800  1
  C  C32  1  0.24221400  0.24683700  0.99607700  1
  C  C33  1  0.99705100  0.49528900  0.74880800  1
  C  C34  1  0.49705100  0.50471100  0.74880800  1
  C  C35  1  0.40471700  0.24995700  0.81985600  1
  C  C36  1  0.09528300  0.24995700  0.31985600  1
  C  C37  1  0.74611800  0.90212000  0.16959700  1
  C  C38  1  0.74221400  0.75316300  0.99607700  1
  C  C39  1  0.49795900  0.99660600  0.75041600  1
  Ni  Ni40  1  0.77356500  0.25015400  0.51064400  1
  Ni  Ni41  1  0.22643500  0.74984600  0.01064400  1
  Ni  Ni42  1  0.27356500  0.74984600  0.51064400  1
  Ni  Ni43  1  0.72643500  0.25015400  0.01064400  1
  Cu  Cu44  1  0.61510200  0.67680600  0.93475100  1
  Cu  Cu45  1  0.47002900  0.84170200  0.27416700  1
  Cu  Cu46  1  0.97002900  0.15829800  0.27416700  1
  Cu  Cu47  1  0.81515600  0.63695700  0.06487500  1
  Cu  Cu48  1  0.88489800  0.67680600  0.43475100  1
  Cu  Cu49  1  0.64321300  0.81777400  0.42217300  1
  Cu  Cu50  1  0.66036200  0.48788800  0.72629700  1
  Cu  Cu51  1  0.53239900  0.90771200  0.85138000  1
  Cu  Cu52  1  0.04167100  0.66741000  0.27770400  1
  Cu  Cu53  1  0.52997100  0.15829800  0.77416700  1
  Cu  Cu54  1  0.17941500  0.12433800  0.06290100  1
  Cu  Cu55  1  0.38489800  0.32319400  0.43475100  1
  Cu  Cu56  1  0.59303200  0.53519500  0.15311700  1
  Cu  Cu57  1  0.83597800  0.02382200  0.72417500  1
  Cu  Cu58  1  0.40696800  0.46480500  0.65311700  1
  Cu  Cu59  1  0.90696800  0.53519500  0.65311700  1
  Cu  Cu60  1  0.82058500  0.87566200  0.56290100  1
  Cu  Cu61  1  0.35678700  0.18222600  0.92217300  1
  Cu  Cu62  1  0.04596900  0.40610800  0.33902700  1
  Cu  Cu63  1  0.33963800  0.51211200  0.22629700  1
  Cu  Cu64  1  0.45403100  0.40610800  0.83902700  1
  Cu  Cu65  1  0.66402200  0.02382200  0.22417500  1
  Cu  Cu66  1  0.02997100  0.84170200  0.77416700  1
  Cu  Cu67  1  0.11510200  0.32319400  0.93475100  1
  Cu  Cu68  1  0.31515600  0.36304300  0.06487500  1
  Cu  Cu69  1  0.46760100  0.09228800  0.35138000  1
  Cu  Cu70  1  0.96760100  0.90771200  0.35138000  1
  Cu  Cu71  1  0.95403100  0.59389200  0.83902700  1
  Cu  Cu72  1  0.18484400  0.36304300  0.56487500  1
  Cu  Cu73  1  0.27223300  0.25003800  0.73567300  1
  Cu  Cu74  1  0.59223100  0.94287600  0.65932000  1
  Cu  Cu75  1  0.68484400  0.63695700  0.56487500  1
  Cu  Cu76  1  0.67941500  0.87566200  0.06290100  1
  Cu  Cu77  1  0.09223100  0.05712400  0.65932000  1
  Cu  Cu78  1  0.54596900  0.59389200  0.33902700  1
  Cu  Cu79  1  0.33597800  0.97617800  0.72417500  1
  Cu  Cu80  1  0.09303200  0.46480500  0.15311700  1
  Cu  Cu81  1  0.45832900  0.66741000  0.77770400  1
  Cu  Cu82  1  0.83963800  0.48788800  0.22629700  1
  Cu  Cu83  1  0.54167100  0.33259000  0.27770400  1
  Cu  Cu84  1  0.72776700  0.74996200  0.23567300  1
  Cu  Cu85  1  0.40776900  0.05712400  0.15932000  1
  Cu  Cu86  1  0.95832900  0.33259000  0.77770400  1
  Cu  Cu87  1  0.16036200  0.51211200  0.72629700  1
  Cu  Cu88  1  0.22776700  0.25003800  0.23567300  1
  Cu  Cu89  1  0.32058500  0.12433800  0.56290100  1
  Cu  Cu90  1  0.03239900  0.09228800  0.85138000  1
  Cu  Cu91  1  0.16402200  0.97617800  0.22417500  1
  Cu  Cu92  1  0.77223300  0.74996200  0.73567300  1
  Cu  Cu93  1  0.90776900  0.94287600  0.15932000  1
  Cu  Cu94  1  0.14321300  0.18222600  0.42217300  1
  Cu  Cu95  1  0.85678700  0.81777400  0.92217300  1
