# generated using pymatgen
data_Cu5Ni7C5
_symmetry_space_group_name_H-M   'P 1'
_cell_length_a   9.65668465
_cell_length_b   9.65668465
_cell_length_c   11.31733892
_cell_angle_alpha   69.91254741
_cell_angle_beta   69.91254741
_cell_angle_gamma   55.54566694
_symmetry_Int_Tables_number   1
_chemical_formula_structural   Cu5Ni7C5
_chemical_formula_sum   'Cu10 Ni14 C10'
_cell_volume   801.98906823
_cell_formula_units_Z   2
loop_
 _symmetry_equiv_pos_site_id
 _symmetry_equiv_pos_as_xyz
  1  'x, y, z'
loop_
 _atom_site_type_symbol
 _atom_site_label
 _atom_site_symmetry_multiplicity
 _atom_site_fract_x
 _atom_site_fract_y
 _atom_site_fract_z
 _atom_site_occupancy
  C  C0  1  0.82981800  0.76123100  0.85671800  1
  C  C1  1  0.23876900  0.17018200  0.64328200  1
  C  C2  1  0.76123100  0.82981800  0.35671800  1
  C  C3  1  0.17018200  0.23876900  0.14328200  1
  C  C4  1  0.78552100  0.20868800  0.97289800  1
  C  C5  1  0.20868800  0.78552100  0.47289800  1
  C  C6  1  0.21447900  0.79131200  0.02710200  1
  C  C7  1  0.53701300  0.46298700  0.25000000  1
  C  C8  1  0.46298700  0.53701300  0.75000000  1
  C  C9  1  0.79131200  0.21447900  0.52710200  1
  Ni  Ni10  1  0.06170200  0.63398200  0.13403900  1
  Ni  Ni11  1  0.36601800  0.93829800  0.36596100  1
  Ni  Ni12  1  0.36301400  0.95051200  0.95377300  1
  Ni  Ni13  1  0.63398200  0.06170200  0.63403900  1
  Ni  Ni14  1  0.27296800  0.42307000  0.83867900  1
  Ni  Ni15  1  0.90982400  0.09017600  0.75000000  1
  Ni  Ni16  1  0.04948800  0.63698600  0.54622700  1
  Ni  Ni17  1  0.63698600  0.04948800  0.04622700  1
  Ni  Ni18  1  0.57693000  0.72703200  0.66132100  1
  Ni  Ni19  1  0.95051200  0.36301400  0.45377300  1
  Ni  Ni20  1  0.09017600  0.90982400  0.25000000  1
  Ni  Ni21  1  0.72703200  0.57693000  0.16132100  1
  Ni  Ni22  1  0.42307000  0.27296800  0.33867900  1
  Ni  Ni23  1  0.93829800  0.36601800  0.86596100  1
  Cu  Cu24  1  0.39660200  0.59885700  0.37459300  1
  Cu  Cu25  1  0.28887500  0.71562600  0.87897400  1
  Cu  Cu26  1  0.28437400  0.71112500  0.62102600  1
  Cu  Cu27  1  0.71112500  0.28437400  0.12102600  1
  Cu  Cu28  1  0.60339800  0.40114300  0.62540700  1
  Cu  Cu29  1  0.00000000  0.00000000  0.00000000  1
  Cu  Cu30  1  0.71562600  0.28887500  0.37897400  1
  Cu  Cu31  1  0.59885700  0.39660200  0.87459300  1
  Cu  Cu32  1  0.40114300  0.60339800  0.12540700  1
  Cu  Cu33  1  0.00000000  0.00000000  0.50000000  1
