# generated using pymatgen
data_CuNiC4
_symmetry_space_group_name_H-M   'P 1'
_cell_length_a   18.77271800
_cell_length_b   5.06503700
_cell_length_c   11.35227414
_cell_angle_alpha   80.44175386
_cell_angle_beta   90.00000000
_cell_angle_gamma   90.00000000
_symmetry_Int_Tables_number   1
_chemical_formula_structural   CuNiC4
_chemical_formula_sum   'Cu8 Ni8 C32'
_cell_volume   1064.44010601
_cell_formula_units_Z   8
loop_
 _symmetry_equiv_pos_site_id
 _symmetry_equiv_pos_as_xyz
  1  'x, y, z'
loop_
 _atom_site_type_symbol
 _atom_site_label
 _atom_site_symmetry_multiplicity
 _atom_site_fract_x
 _atom_site_fract_y
 _atom_site_fract_z
 _atom_site_occupancy
  Ni  Ni0  1  0.90465500  0.70189200  0.16922700  1
  Ni  Ni1  1  0.90305800  0.08241300  0.60675000  1
  Ni  Ni2  1  0.59694200  0.08241300  0.10675000  1
  Ni  Ni3  1  0.40305800  0.91758700  0.89325000  1
  Ni  Ni4  1  0.09694200  0.91758700  0.39325000  1
  Ni  Ni5  1  0.59534500  0.70189200  0.66922700  1
  Ni  Ni6  1  0.40465500  0.29810800  0.33077300  1
  Ni  Ni7  1  0.09534500  0.29810800  0.83077300  1
  Cu  Cu8  1  0.85112500  0.87453500  0.89615500  1
  Cu  Cu9  1  0.24635100  0.62503100  0.35742000  1
  Cu  Cu10  1  0.74635100  0.37496900  0.14258000  1
  Cu  Cu11  1  0.64887500  0.87453500  0.39615500  1
  Cu  Cu12  1  0.25364900  0.62503100  0.85742000  1
  Cu  Cu13  1  0.35112500  0.12546500  0.60384500  1
  Cu  Cu14  1  0.75364900  0.37496900  0.64258000  1
  Cu  Cu15  1  0.14887500  0.12546500  0.10384500  1
  C  C16  1  0.84729200  0.66543900  0.08179900  1
  C  C17  1  0.34506100  0.88753100  0.80559700  1
  C  C18  1  0.65493900  0.11246900  0.19440300  1
  C  C19  1  0.34729200  0.33456100  0.41820100  1
  C  C20  1  0.15493900  0.88753100  0.30559700  1
  C  C21  1  0.84506100  0.11246900  0.69440300  1
  C  C22  1  0.15270800  0.33456100  0.91820100  1
  C  C23  1  0.65270800  0.66543900  0.58179900  1
  C  C24  1  0.40091000  0.41638200  0.20837500  1
  C  C25  1  0.09909000  0.41638200  0.70837500  1
  C  C26  1  0.46268100  0.08736800  0.86101900  1
  C  C27  1  0.90091000  0.58361800  0.29162500  1
  C  C28  1  0.03731900  0.08736800  0.36101900  1
  C  C29  1  0.96268100  0.91263200  0.63898100  1
  C  C30  1  0.59909000  0.58361800  0.79162500  1
  C  C31  1  0.53731900  0.91263200  0.13898100  1
  C  C32  1  0.56849200  0.36657500  0.04566800  1
  C  C33  1  0.06849200  0.63342500  0.45433200  1
  C  C34  1  0.57640300  0.01064900  0.66192100  1
  C  C35  1  0.37089500  0.98491200  0.01403500  1
  C  C36  1  0.62910500  0.01508800  0.98596500  1
  C  C37  1  0.93150800  0.36657500  0.54566800  1
  C  C38  1  0.48104000  0.36530500  0.37980500  1
  C  C39  1  0.51896000  0.63469500  0.62019500  1
  C  C40  1  0.07640300  0.98935100  0.83807900  1
  C  C41  1  0.42359700  0.98935100  0.33807900  1
  C  C42  1  0.87089500  0.01508800  0.48596500  1
  C  C43  1  0.43150800  0.63342500  0.95433200  1
  C  C44  1  0.98104000  0.63469500  0.12019500  1
  C  C45  1  0.12910500  0.98491200  0.51403500  1
  C  C46  1  0.01896000  0.36530500  0.87980500  1
  C  C47  1  0.92359700  0.01064900  0.16192100  1
