# generated using pymatgen
data_CuNiC7
_symmetry_space_group_name_H-M   'P 1'
_cell_length_a   5.84194100
_cell_length_b   6.42386400
_cell_length_c   7.08613695
_cell_angle_alpha   66.98865324
_cell_angle_beta   90.00000000
_cell_angle_gamma   90.00000000
_symmetry_Int_Tables_number   1
_chemical_formula_structural   CuNiC7
_chemical_formula_sum   'Cu2 Ni2 C14'
_cell_volume   244.76685663
_cell_formula_units_Z   2
loop_
 _symmetry_equiv_pos_site_id
 _symmetry_equiv_pos_as_xyz
  1  'x, y, z'
loop_
 _atom_site_type_symbol
 _atom_site_label
 _atom_site_symmetry_multiplicity
 _atom_site_fract_x
 _atom_site_fract_y
 _atom_site_fract_z
 _atom_site_occupancy
  Ni  Ni0  1  0.25000000  0.57139700  0.79544000  1
  Ni  Ni1  1  0.75000000  0.42860300  0.20456000  1
  Cu  Cu2  1  0.25000000  0.88810800  0.18023500  1
  Cu  Cu3  1  0.75000000  0.11189200  0.81976500  1
  C  C4  1  0.25000000  0.26689500  0.46404800  1
  C  C5  1  0.75000000  0.73310500  0.53595200  1
  C  C6  1  0.25000000  0.48861900  0.26263900  1
  C  C7  1  0.53446300  0.73273600  0.40454500  1
  C  C8  1  0.46553700  0.26726400  0.59545500  1
  C  C9  1  0.50152300  0.82179100  0.96523300  1
  C  C10  1  0.49847700  0.17820900  0.03476700  1
  C  C11  1  0.00152300  0.17820900  0.03476700  1
  C  C12  1  0.99847700  0.82179100  0.96523300  1
  C  C13  1  0.75000000  0.94278300  0.59116400  1
  C  C14  1  0.96553700  0.73273600  0.40454500  1
  C  C15  1  0.03446300  0.26726400  0.59545500  1
  C  C16  1  0.25000000  0.05721700  0.40883600  1
  C  C17  1  0.75000000  0.51138100  0.73736100  1
