# generated using pymatgen
data_CuNiC3
_symmetry_space_group_name_H-M   'P 1'
_cell_length_a   4.00735800
_cell_length_b   16.53377800
_cell_length_c   21.46153500
_cell_angle_alpha   90.00000000
_cell_angle_beta   90.00000000
_cell_angle_gamma   90.00000000
_symmetry_Int_Tables_number   1
_chemical_formula_structural   CuNiC3
_chemical_formula_sum   'Cu12 Ni12 C36'
_cell_volume   1421.97193551
_cell_formula_units_Z   12
loop_
 _symmetry_equiv_pos_site_id
 _symmetry_equiv_pos_as_xyz
  1  'x, y, z'
loop_
 _atom_site_type_symbol
 _atom_site_label
 _atom_site_symmetry_multiplicity
 _atom_site_fract_x
 _atom_site_fract_y
 _atom_site_fract_z
 _atom_site_occupancy
  Ni  Ni0  1  0.75000000  0.16996500  0.41262500  1
  Ni  Ni1  1  0.75000000  0.34003300  0.25443500  1
  Ni  Ni2  1  0.25000000  0.65996700  0.74556500  1
  Ni  Ni3  1  0.25000000  0.83003500  0.58737500  1
  Ni  Ni4  1  0.75000000  0.30567700  0.57854100  1
  Ni  Ni5  1  0.75000000  0.84003300  0.24556500  1
  Ni  Ni6  1  0.25000000  0.69432300  0.42145900  1
  Ni  Ni7  1  0.25000000  0.33003500  0.91262500  1
  Ni  Ni8  1  0.75000000  0.66996500  0.08737500  1
  Ni  Ni9  1  0.75000000  0.80567700  0.92145900  1
  Ni  Ni10  1  0.25000000  0.15996700  0.75443500  1
  Ni  Ni11  1  0.25000000  0.19432300  0.07854100  1
  Cu  Cu12  1  0.25000000  0.09484600  0.24989900  1
  Cu  Cu13  1  0.75000000  0.55675800  0.56924800  1
  Cu  Cu14  1  0.25000000  0.56597700  0.92052600  1
  Cu  Cu15  1  0.25000000  0.06597700  0.57947400  1
  Cu  Cu16  1  0.25000000  0.59484600  0.25010100  1
  Cu  Cu17  1  0.25000000  0.94324200  0.06924800  1
  Cu  Cu18  1  0.75000000  0.05675800  0.93075200  1
  Cu  Cu19  1  0.75000000  0.90515400  0.75010100  1
  Cu  Cu20  1  0.25000000  0.44324200  0.43075200  1
  Cu  Cu21  1  0.75000000  0.93402300  0.42052600  1
  Cu  Cu22  1  0.75000000  0.43402300  0.07947400  1
  Cu  Cu23  1  0.75000000  0.40515400  0.74989900  1
  C  C24  1  0.25000000  0.15888900  0.93676500  1
  C  C25  1  0.25000000  0.70894000  0.98311500  1
  C  C26  1  0.25000000  0.20894000  0.51688500  1
  C  C27  1  0.25000000  0.94039400  0.94184400  1
  C  C28  1  0.75000000  0.14600800  0.64846100  1
  C  C29  1  0.75000000  0.55243100  0.69374900  1
  C  C30  1  0.75000000  0.55960600  0.44184400  1
  C  C31  1  0.25000000  0.82315100  0.81570500  1
  C  C32  1  0.75000000  0.03693800  0.31795300  1
  C  C33  1  0.75000000  0.95686200  0.55225400  1
  C  C34  1  0.75000000  0.67684900  0.31570500  1
  C  C35  1  0.75000000  0.05243100  0.80625100  1
  C  C36  1  0.25000000  0.46306200  0.81795300  1
  C  C37  1  0.75000000  0.77003700  0.67845900  1
  C  C38  1  0.75000000  0.17684900  0.18429500  1
  C  C39  1  0.25000000  0.96306200  0.68204700  1
  C  C40  1  0.75000000  0.27003700  0.82154100  1
  C  C41  1  0.25000000  0.22996300  0.32154100  1
  C  C42  1  0.75000000  0.84111100  0.06323500  1
  C  C43  1  0.25000000  0.54313800  0.05225400  1
  C  C44  1  0.75000000  0.64600800  0.85153900  1
  C  C45  1  0.75000000  0.45686200  0.94774600  1
  C  C46  1  0.25000000  0.72996300  0.17845900  1
  C  C47  1  0.25000000  0.94756900  0.19374900  1
  C  C48  1  0.25000000  0.44039400  0.55815600  1
  C  C49  1  0.75000000  0.53693800  0.18204700  1
  C  C50  1  0.25000000  0.32315100  0.68429500  1
  C  C51  1  0.75000000  0.29106000  0.01688500  1
  C  C52  1  0.25000000  0.04313800  0.44774600  1
  C  C53  1  0.25000000  0.65888900  0.56323500  1
  C  C54  1  0.75000000  0.34111100  0.43676500  1
  C  C55  1  0.75000000  0.79106000  0.48311500  1
  C  C56  1  0.25000000  0.44756900  0.30625100  1
  C  C57  1  0.75000000  0.05960600  0.05815600  1
  C  C58  1  0.25000000  0.85399200  0.35153900  1
  C  C59  1  0.25000000  0.35399200  0.14846100  1
