# generated using pymatgen
data_Cu2Ni3C
_symmetry_space_group_name_H-M   'P 1'
_cell_length_a   6.90212200
_cell_length_b   6.90212200
_cell_length_c   6.90212200
_cell_angle_alpha   90.00000000
_cell_angle_beta   90.00000000
_cell_angle_gamma   90.00000000
_symmetry_Int_Tables_number   1
_chemical_formula_structural   Cu2Ni3C
_chemical_formula_sum   'Cu8 Ni12 C4'
_cell_volume   328.81217848
_cell_formula_units_Z   4
loop_
 _symmetry_equiv_pos_site_id
 _symmetry_equiv_pos_as_xyz
  1  'x, y, z'
loop_
 _atom_site_type_symbol
 _atom_site_label
 _atom_site_symmetry_multiplicity
 _atom_site_fract_x
 _atom_site_fract_y
 _atom_site_fract_z
 _atom_site_occupancy
  Ni  Ni0  1  0.62500000  0.70082100  0.95082100  1
  Ni  Ni1  1  0.45082100  0.87500000  0.29917900  1
  Ni  Ni2  1  0.70082100  0.95082100  0.62500000  1
  Ni  Ni3  1  0.54917900  0.37500000  0.20082100  1
  Ni  Ni4  1  0.37500000  0.20082100  0.54917900  1
  Ni  Ni5  1  0.20082100  0.54917900  0.37500000  1
  Ni  Ni6  1  0.87500000  0.29917900  0.45082100  1
  Ni  Ni7  1  0.04917900  0.12500000  0.79917900  1
  Ni  Ni8  1  0.29917900  0.45082100  0.87500000  1
  Ni  Ni9  1  0.12500000  0.79917900  0.04917900  1
  Ni  Ni10  1  0.79917900  0.04917900  0.12500000  1
  Ni  Ni11  1  0.95082100  0.62500000  0.70082100  1
  Cu  Cu12  1  0.19277600  0.19277600  0.19277600  1
  Cu  Cu13  1  0.30722400  0.80722400  0.69277600  1
  Cu  Cu14  1  0.44277600  0.05722400  0.94277600  1
  Cu  Cu15  1  0.80722400  0.69277600  0.30722400  1
  Cu  Cu16  1  0.69277600  0.30722400  0.80722400  1
  Cu  Cu17  1  0.55722400  0.55722400  0.55722400  1
  Cu  Cu18  1  0.05722400  0.94277600  0.44277600  1
  Cu  Cu19  1  0.94277600  0.44277600  0.05722400  1
  C  C20  1  0.37500000  0.62500000  0.12500000  1
  C  C21  1  0.87500000  0.87500000  0.87500000  1
  C  C22  1  0.12500000  0.37500000  0.62500000  1
  C  C23  1  0.62500000  0.12500000  0.37500000  1
