# generated using pymatgen
data_Cu2Ni12C
_symmetry_space_group_name_H-M   'P 1'
_cell_length_a   6.91006530
_cell_length_b   6.91006530
_cell_length_c   6.91006530
_cell_angle_alpha   132.05232454
_cell_angle_beta   109.90264851
_cell_angle_gamma   89.41373888
_symmetry_Int_Tables_number   1
_chemical_formula_structural   Cu2Ni12C
_chemical_formula_sum   'Cu4 Ni24 C2'
_cell_volume   218.87057652
_cell_formula_units_Z   2
loop_
 _symmetry_equiv_pos_site_id
 _symmetry_equiv_pos_as_xyz
  1  'x, y, z'
loop_
 _atom_site_type_symbol
 _atom_site_label
 _atom_site_symmetry_multiplicity
 _atom_site_fract_x
 _atom_site_fract_y
 _atom_site_fract_z
 _atom_site_occupancy
  C  C0  1  0.38880500  0.75000000  0.63880500  1
  C  C1  1  0.61119500  0.25000000  0.36119500  1
  Ni  Ni2  1  0.63712100  0.84579300  0.31280100  1
  Ni  Ni3  1  0.22471100  0.40629500  0.81841500  1
  Ni  Ni4  1  0.77571000  0.77464100  0.67803500  1
  Ni  Ni5  1  0.03299300  0.82432000  0.68719900  1
  Ni  Ni6  1  0.36287900  0.67568000  0.20867200  1
  Ni  Ni7  1  0.96700700  0.17568000  0.31280100  1
  Ni  Ni8  1  0.40339400  0.40232500  0.67803500  1
  Ni  Ni9  1  0.77528900  0.59370500  0.18158500  1
  Ni  Ni10  1  0.36287900  0.15420700  0.68719900  1
  Ni  Ni11  1  0.35382000  0.33315900  0.02066100  1
  Ni  Ni12  1  0.59660600  0.59767500  0.32196500  1
  Ni  Ni13  1  0.81249700  0.83315900  0.97933900  1
  Ni  Ni14  1  0.96700700  0.65420700  0.79132800  1
  Ni  Ni15  1  0.08788000  0.90629500  0.18158500  1
  Ni  Ni16  1  0.59660600  0.27464100  0.99893100  1
  Ni  Ni17  1  0.63712100  0.32432000  0.79132800  1
  Ni  Ni18  1  0.40339400  0.72535900  0.00106900  1
  Ni  Ni19  1  0.77571000  0.09767500  0.00106900  1
  Ni  Ni20  1  0.22429000  0.90232500  0.99893100  1
  Ni  Ni21  1  0.91212000  0.09370500  0.81841500  1
  Ni  Ni22  1  0.64618000  0.66684100  0.97933900  1
  Ni  Ni23  1  0.22429000  0.22535900  0.32196500  1
  Ni  Ni24  1  0.18750300  0.16684100  0.02066100  1
  Ni  Ni25  1  0.03299300  0.34579300  0.20867200  1
  Cu  Cu26  1  0.96671600  0.33758100  0.62913500  1
  Cu  Cu27  1  0.20844600  0.83758100  0.37086500  1
  Cu  Cu28  1  0.79155400  0.16241900  0.62913500  1
  Cu  Cu29  1  0.03328400  0.66241900  0.37086500  1
