# generated using pymatgen
data_Cu5Ni3C16
_symmetry_space_group_name_H-M   'P 1'
_cell_length_a   6.35390800
_cell_length_b   7.28245595
_cell_length_c   7.97645737
_cell_angle_alpha   80.93016464
_cell_angle_beta   70.90255885
_cell_angle_gamma   79.37315749
_symmetry_Int_Tables_number   1
_chemical_formula_structural   Cu5Ni3C16
_chemical_formula_sum   'Cu5 Ni3 C16'
_cell_volume   340.90556694
_cell_formula_units_Z   1
loop_
 _symmetry_equiv_pos_site_id
 _symmetry_equiv_pos_as_xyz
  1  'x, y, z'
loop_
 _atom_site_type_symbol
 _atom_site_label
 _atom_site_symmetry_multiplicity
 _atom_site_fract_x
 _atom_site_fract_y
 _atom_site_fract_z
 _atom_site_occupancy
  C  C0  1  0.72249200  0.48595500  0.16083900  1
  C  C1  1  0.27750800  0.51404500  0.83916100  1
  Ni  Ni2  1  0.34423900  0.02812600  0.67071300  1
  Ni  Ni3  1  0.00000000  0.00000000  0.00000000  1
  Ni  Ni4  1  0.65576100  0.97187400  0.32928700  1
  Cu  Cu5  1  0.17173100  0.73054500  0.30407600  1
  Cu  Cu6  1  0.82826900  0.26945500  0.69592400  1
  Cu  Cu7  1  0.78950900  0.73777200  0.68541600  1
  Cu  Cu8  1  0.21049100  0.26222800  0.31458400  1
  Cu  Cu9  1  0.50000000  0.00000000  0.00000000  1
  C  C10  1  0.92104700  0.27626700  0.45551100  1
  C  C11  1  0.42566800  0.82612400  0.21884700  1
  C  C12  1  0.26723000  0.49811300  0.23670100  1
  C  C13  1  0.23178300  0.17714900  0.11471500  1
  C  C14  1  0.60037000  0.83807100  0.56522400  1
  C  C15  1  0.05564800  0.18284000  0.78144700  1
  C  C16  1  0.39963000  0.16192900  0.43477600  1
  C  C17  1  0.07895300  0.72373300  0.54448900  1
  C  C18  1  0.94435200  0.81716000  0.21855300  1
  C  C19  1  0.76821700  0.82285100  0.88528500  1
  C  C20  1  0.57433200  0.17387600  0.78115300  1
  C  C21  1  0.73277000  0.50188700  0.76329900  1
  C  C22  1  0.68431000  0.10191700  0.09361200  1
  C  C23  1  0.31569000  0.89808300  0.90638800  1
