# generated using pymatgen
data_Cu4NiC3
_symmetry_space_group_name_H-M   'P 1'
_cell_length_a   6.25514056
_cell_length_b   6.25514056
_cell_length_c   11.71879300
_cell_angle_alpha   90.00000000
_cell_angle_beta   90.00000000
_cell_angle_gamma   141.69542925
_symmetry_Int_Tables_number   1
_chemical_formula_structural   Cu4NiC3
_chemical_formula_sum   'Cu8 Ni2 C6'
_cell_volume   284.20896560
_cell_formula_units_Z   2
loop_
 _symmetry_equiv_pos_site_id
 _symmetry_equiv_pos_as_xyz
  1  'x, y, z'
loop_
 _atom_site_type_symbol
 _atom_site_label
 _atom_site_symmetry_multiplicity
 _atom_site_fract_x
 _atom_site_fract_y
 _atom_site_fract_z
 _atom_site_occupancy
  C  C0  1  0.31427200  0.68572800  0.10309700  1
  C  C1  1  0.68572800  0.31427200  0.89690300  1
  C  C2  1  0.68572800  0.31427200  0.60309700  1
  C  C3  1  0.31427200  0.68572800  0.39690300  1
  C  C4  1  0.61865300  0.38134700  0.25000000  1
  C  C5  1  0.38134700  0.61865300  0.75000000  1
  Ni  Ni6  1  0.00000000  0.00000000  0.00000000  1
  Ni  Ni7  1  0.00000000  0.00000000  0.50000000  1
  Cu  Cu8  1  0.19101100  0.80898900  0.25000000  1
  Cu  Cu9  1  0.26980300  0.73019700  0.58952600  1
  Cu  Cu10  1  0.26980300  0.73019700  0.91047400  1
  Cu  Cu11  1  0.80898900  0.19101100  0.75000000  1
  Cu  Cu12  1  0.73019700  0.26980300  0.41047400  1
  Cu  Cu13  1  0.43391600  0.56608400  0.25000000  1
  Cu  Cu14  1  0.56608400  0.43391600  0.75000000  1
  Cu  Cu15  1  0.73019700  0.26980300  0.08952600  1
