# generated using pymatgen
data_Cu(NiC11)2
_symmetry_space_group_name_H-M   'P 1'
_cell_length_a   9.98604454
_cell_length_b   9.98604454
_cell_length_c   7.27649475
_cell_angle_alpha   70.27804607
_cell_angle_beta   70.27804607
_cell_angle_gamma   33.75718640
_symmetry_Int_Tables_number   1
_chemical_formula_structural   Cu(NiC11)2
_chemical_formula_sum   'Cu1 Ni2 C22'
_cell_volume   377.30492172
_cell_formula_units_Z   1
loop_
 _symmetry_equiv_pos_site_id
 _symmetry_equiv_pos_as_xyz
  1  'x, y, z'
loop_
 _atom_site_type_symbol
 _atom_site_label
 _atom_site_symmetry_multiplicity
 _atom_site_fract_x
 _atom_site_fract_y
 _atom_site_fract_z
 _atom_site_occupancy
  C  C0  1  0.52444200  0.51979800  0.20110700  1
  C  C1  1  0.89028600  0.92489500  0.45741100  1
  C  C2  1  0.83573900  0.83261700  0.99476100  1
  C  C3  1  0.68387200  0.68828400  0.71125100  1
  C  C4  1  0.48020200  0.47555800  0.79889300  1
  C  C5  1  0.16738300  0.16426100  0.00523900  1
  C  C6  1  0.07510500  0.10971400  0.54258900  1
  C  C7  1  0.31171600  0.31612800  0.28874900  1
  Ni  Ni8  1  0.30917500  0.34796500  0.70550400  1
  Ni  Ni9  1  0.65203500  0.69082500  0.29449600  1
  Cu  Cu10  1  0.00336800  0.99663200  0.00000000  1
  C  C11  1  0.01181400  0.59634200  0.70051500  1
  C  C12  1  0.32212300  0.83815200  0.85973000  1
  C  C13  1  0.43751500  0.38728000  0.54023200  1
  C  C14  1  0.96961700  0.95496600  0.75873400  1
  C  C15  1  0.36530500  0.28755200  0.92872900  1
  C  C16  1  0.71244800  0.63469500  0.07127100  1
  C  C17  1  0.16184800  0.67787700  0.14027000  1
  C  C18  1  0.88083700  0.58312200  0.34614000  1
  C  C19  1  0.40365800  0.98818600  0.29948500  1
  C  C20  1  0.68269200  0.15632700  0.14228900  1
  C  C21  1  0.04503400  0.03038300  0.24126600  1
  C  C22  1  0.84367300  0.31730800  0.85771100  1
  C  C23  1  0.41687800  0.11916300  0.65386000  1
  C  C24  1  0.61272000  0.56248500  0.45976800  1
