# generated using pymatgen
data_Cu12Ni4C33
_symmetry_space_group_name_H-M   'P 1'
_cell_length_a   7.41822000
_cell_length_b   7.41822000
_cell_length_c   7.41822000
_cell_angle_alpha   90.00000000
_cell_angle_beta   90.00000000
_cell_angle_gamma   90.00000000
_symmetry_Int_Tables_number   1
_chemical_formula_structural   Cu12Ni4C33
_chemical_formula_sum   'Cu12 Ni4 C33'
_cell_volume   408.22455735
_cell_formula_units_Z   1
loop_
 _symmetry_equiv_pos_site_id
 _symmetry_equiv_pos_as_xyz
  1  'x, y, z'
loop_
 _atom_site_type_symbol
 _atom_site_label
 _atom_site_symmetry_multiplicity
 _atom_site_fract_x
 _atom_site_fract_y
 _atom_site_fract_z
 _atom_site_occupancy
  C  C0  1  0.00000000  0.00000000  0.00000000  1
  C  C1  1  0.73986900  0.73986900  0.73986900  1
  C  C2  1  0.26013100  0.73986900  0.26013100  1
  C  C3  1  0.26013100  0.26013100  0.73986900  1
  C  C4  1  0.73986900  0.26013100  0.26013100  1
  Ni  Ni5  1  0.36036500  0.36036500  0.36036500  1
  Ni  Ni6  1  0.63963500  0.36036500  0.63963500  1
  Ni  Ni7  1  0.63963500  0.63963500  0.36036500  1
  Ni  Ni8  1  0.36036500  0.63963500  0.63963500  1
  Cu  Cu9  1  0.24949400  0.50000000  0.00000000  1
  Cu  Cu10  1  0.75050600  0.00000000  0.50000000  1
  Cu  Cu11  1  0.00000000  0.50000000  0.24949400  1
  Cu  Cu12  1  0.00000000  0.50000000  0.75050600  1
  Cu  Cu13  1  0.50000000  0.75050600  0.00000000  1
  Cu  Cu14  1  0.50000000  0.24949400  0.00000000  1
  Cu  Cu15  1  0.00000000  0.24949400  0.50000000  1
  Cu  Cu16  1  0.50000000  0.00000000  0.24949400  1
  Cu  Cu17  1  0.00000000  0.75050600  0.50000000  1
  Cu  Cu18  1  0.50000000  0.00000000  0.75050600  1
  Cu  Cu19  1  0.75050600  0.50000000  0.00000000  1
  Cu  Cu20  1  0.24949400  0.00000000  0.50000000  1
  C  C21  1  0.61844400  0.61844400  0.61844400  1
  C  C22  1  0.38155600  0.61844400  0.38155600  1
  C  C23  1  0.38155600  0.38155600  0.61844400  1
  C  C24  1  0.61844400  0.38155600  0.38155600  1
  C  C25  1  0.36208900  0.36208900  0.09516300  1
  C  C26  1  0.63791100  0.09516300  0.63791100  1
  C  C27  1  0.63791100  0.90483700  0.36208900  1
  C  C28  1  0.90483700  0.63791100  0.36208900  1
  C  C29  1  0.09516300  0.63791100  0.63791100  1
  C  C30  1  0.36208900  0.63791100  0.90483700  1
  C  C31  1  0.63791100  0.36208900  0.90483700  1
  C  C32  1  0.09516300  0.36208900  0.36208900  1
  C  C33  1  0.36208900  0.09516300  0.36208900  1
  C  C34  1  0.90483700  0.36208900  0.63791100  1
  C  C35  1  0.36208900  0.90483700  0.63791100  1
  C  C36  1  0.63791100  0.63791100  0.09516300  1
  C  C37  1  0.13702800  0.13702800  0.59639900  1
  C  C38  1  0.86297200  0.59639900  0.86297200  1
  C  C39  1  0.86297200  0.40360100  0.13702800  1
  C  C40  1  0.40360100  0.86297200  0.13702800  1
  C  C41  1  0.59639900  0.86297200  0.86297200  1
  C  C42  1  0.13702800  0.86297200  0.40360100  1
  C  C43  1  0.86297200  0.13702800  0.40360100  1
  C  C44  1  0.59639900  0.13702800  0.13702800  1
  C  C45  1  0.13702800  0.59639900  0.13702800  1
  C  C46  1  0.40360100  0.13702800  0.86297200  1
  C  C47  1  0.13702800  0.40360100  0.86297200  1
  C  C48  1  0.86297200  0.86297200  0.59639900  1
