# generated using pymatgen
data_Cu(NiC)4
_symmetry_space_group_name_H-M   'P 1'
_cell_length_a   7.87690489
_cell_length_b   7.87690489
_cell_length_c   10.34961700
_cell_angle_alpha   90.00000000
_cell_angle_beta   90.00000000
_cell_angle_gamma   120.00000751
_symmetry_Int_Tables_number   1
_chemical_formula_structural   Cu(NiC)4
_chemical_formula_sum   'Cu2 Ni8 C8'
_cell_volume   556.11688441
_cell_formula_units_Z   2
loop_
 _symmetry_equiv_pos_site_id
 _symmetry_equiv_pos_as_xyz
  1  'x, y, z'
loop_
 _atom_site_type_symbol
 _atom_site_label
 _atom_site_symmetry_multiplicity
 _atom_site_fract_x
 _atom_site_fract_y
 _atom_site_fract_z
 _atom_site_occupancy
  C  C0  1  0.49967900  0.50032100  0.23848200  1
  C  C1  1  0.50032100  0.00064100  0.73848200  1
  C  C2  1  0.50032100  0.49967900  0.73848200  1
  C  C3  1  0.00064100  0.50032100  0.23848200  1
  C  C4  1  0.49967900  0.99935900  0.23848200  1
  C  C5  1  0.99935900  0.49967900  0.73848200  1
  C  C6  1  0.00000000  0.00000000  0.23331900  1
  C  C7  1  0.00000000  0.00000000  0.73331900  1
  Ni  Ni8  1  0.84899300  0.69798600  0.36046000  1
  Ni  Ni9  1  0.33333300  0.66666700  0.11114600  1
  Ni  Ni10  1  0.15100700  0.84899300  0.86046000  1
  Ni  Ni11  1  0.15100700  0.30201400  0.86046000  1
  Ni  Ni12  1  0.69798600  0.84899300  0.86046000  1
  Ni  Ni13  1  0.84899300  0.15100700  0.36046000  1
  Ni  Ni14  1  0.66666700  0.33333300  0.61114600  1
  Ni  Ni15  1  0.30201400  0.15100700  0.36046000  1
  Cu  Cu16  1  0.33333300  0.66666700  0.54280900  1
  Cu  Cu17  1  0.66666700  0.33333300  0.04280900  1
