# generated using pymatgen
data_Cu5Ni2C5
_symmetry_space_group_name_H-M   'P 1'
_cell_length_a   5.51451319
_cell_length_b   5.51433479
_cell_length_c   12.09564347
_cell_angle_alpha   90.00003567
_cell_angle_beta   76.82243354
_cell_angle_gamma   90.00007109
_symmetry_Int_Tables_number   1
_chemical_formula_structural   Cu5Ni2C5
_chemical_formula_sum   'Cu10 Ni4 C10'
_cell_volume   358.12965927
_cell_formula_units_Z   2
loop_
 _symmetry_equiv_pos_site_id
 _symmetry_equiv_pos_as_xyz
  1  'x, y, z'
loop_
 _atom_site_type_symbol
 _atom_site_label
 _atom_site_symmetry_multiplicity
 _atom_site_fract_x
 _atom_site_fract_y
 _atom_site_fract_z
 _atom_site_occupancy
  C  C0  1  0.50000100  0.00000000  0.00000000  1
  C  C1  1  0.99999900  0.50000000  0.00000000  1
  C  C2  1  0.15251100  0.50000000  0.69498200  1
  C  C3  1  0.65251100  0.99999900  0.69498200  1
  C  C4  1  0.34749000  0.00000000  0.30501800  1
  C  C5  1  0.84748900  0.50000100  0.30501700  1
  C  C6  1  0.41872000  0.50000000  0.16257100  1
  C  C7  1  0.08127900  0.00000000  0.83742900  1
  C  C8  1  0.91872700  0.99999800  0.16255800  1
  C  C9  1  0.58127400  0.50000100  0.83744200  1
  Ni  Ni10  1  0.29775800  0.50000100  0.40449600  1
  Ni  Ni11  1  0.79775700  0.00000000  0.40449800  1
  Ni  Ni12  1  0.20224200  0.00000100  0.59550500  1
  Ni  Ni13  1  0.70224400  0.50000000  0.59550200  1
  Cu  Cu14  1  0.49999500  0.50000000  0.00000800  1
  Cu  Cu15  1  0.00000400  0.00000000  0.99999200  1
  Cu  Cu16  1  0.34219700  0.24999800  0.81563200  1
  Cu  Cu17  1  0.84219400  0.74999600  0.81563300  1
  Cu  Cu18  1  0.84219400  0.25000300  0.81563200  1
  Cu  Cu19  1  0.34219600  0.75000100  0.81563200  1
  Cu  Cu20  1  0.15780300  0.25000200  0.18436800  1
  Cu  Cu21  1  0.65780500  0.75000400  0.18436800  1
  Cu  Cu22  1  0.65780600  0.24999700  0.18436700  1
  Cu  Cu23  1  0.15780400  0.74999800  0.18436800  1
