# generated using pymatgen
data_Cu2NiC4
_symmetry_space_group_name_H-M   'P 1'
_cell_length_a   3.29406400
_cell_length_b   9.78229900
_cell_length_c   11.57723500
_cell_angle_alpha   90.00000000
_cell_angle_beta   90.00000000
_cell_angle_gamma   90.00000000
_symmetry_Int_Tables_number   1
_chemical_formula_structural   Cu2NiC4
_chemical_formula_sum   'Cu8 Ni4 C16'
_cell_volume   373.05925168
_cell_formula_units_Z   4
loop_
 _symmetry_equiv_pos_site_id
 _symmetry_equiv_pos_as_xyz
  1  'x, y, z'
loop_
 _atom_site_type_symbol
 _atom_site_label
 _atom_site_symmetry_multiplicity
 _atom_site_fract_x
 _atom_site_fract_y
 _atom_site_fract_z
 _atom_site_occupancy
  Ni  Ni0  1  0.75000000  0.25405500  0.85127800  1
  Ni  Ni1  1  0.25000000  0.74594500  0.14872200  1
  Ni  Ni2  1  0.75000000  0.75405500  0.64872200  1
  Ni  Ni3  1  0.25000000  0.24594500  0.35127800  1
  Cu  Cu4  1  0.75000000  0.92080400  0.39006600  1
  Cu  Cu5  1  0.25000000  0.07919600  0.60993400  1
  Cu  Cu6  1  0.75000000  0.42080400  0.10993400  1
  Cu  Cu7  1  0.25000000  0.57919600  0.89006600  1
  Cu  Cu8  1  0.75000000  0.92534600  0.88612600  1
  Cu  Cu9  1  0.25000000  0.07465400  0.11387400  1
  Cu  Cu10  1  0.75000000  0.42534600  0.61387400  1
  Cu  Cu11  1  0.25000000  0.57465400  0.38612600  1
  C  C12  1  0.75000000  0.71025700  0.32047100  1
  C  C13  1  0.25000000  0.28974300  0.67952900  1
  C  C14  1  0.75000000  0.21025700  0.17952900  1
  C  C15  1  0.25000000  0.78974300  0.82047100  1
  C  C16  1  0.75000000  0.62809800  0.02286500  1
  C  C17  1  0.25000000  0.37190200  0.97713500  1
  C  C18  1  0.75000000  0.12809800  0.47713500  1
  C  C19  1  0.25000000  0.87190200  0.52286500  1
  C  C20  1  0.75000000  0.01739300  0.71577600  1
  C  C21  1  0.25000000  0.98260700  0.28422400  1
  C  C22  1  0.75000000  0.51739300  0.78422400  1
  C  C23  1  0.25000000  0.48260700  0.21577600  1
  C  C24  1  0.75000000  0.92115000  0.07792000  1
  C  C25  1  0.25000000  0.07885000  0.92208000  1
  C  C26  1  0.75000000  0.42115000  0.42208000  1
  C  C27  1  0.25000000  0.57885000  0.57792000  1
