# generated using pymatgen
data_Cu2Ni2C9
_symmetry_space_group_name_H-M   'P 1'
_cell_length_a   9.80093881
_cell_length_b   9.80093881
_cell_length_c   9.02411909
_cell_angle_alpha   82.20669063
_cell_angle_beta   82.20669063
_cell_angle_gamma   88.87195032
_symmetry_Int_Tables_number   1
_chemical_formula_structural   Cu2Ni2C9
_chemical_formula_sum   'Cu8 Ni8 C36'
_cell_volume   850.90279327
_cell_formula_units_Z   4
loop_
 _symmetry_equiv_pos_site_id
 _symmetry_equiv_pos_as_xyz
  1  'x, y, z'
loop_
 _atom_site_type_symbol
 _atom_site_label
 _atom_site_symmetry_multiplicity
 _atom_site_fract_x
 _atom_site_fract_y
 _atom_site_fract_z
 _atom_site_occupancy
  C  C0  1  0.93274200  0.43343900  0.79225300  1
  C  C1  1  0.56656100  0.06725800  0.70774700  1
  C  C2  1  0.06725800  0.56656100  0.20774700  1
  C  C3  1  0.43343900  0.93274200  0.29225300  1
  Ni  Ni4  1  0.20193300  0.06733300  0.61427500  1
  Ni  Ni5  1  0.93266700  0.79806700  0.88572500  1
  Ni  Ni6  1  0.79806700  0.93266700  0.38572500  1
  Ni  Ni7  1  0.06733300  0.20193300  0.11427500  1
  Ni  Ni8  1  0.70367500  0.44854600  0.47301800  1
  Ni  Ni9  1  0.55145400  0.29632500  0.02698200  1
  Ni  Ni10  1  0.29632500  0.55145400  0.52698200  1
  Ni  Ni11  1  0.44854600  0.70367500  0.97301800  1
  Cu  Cu12  1  0.71194000  0.57160300  0.10315000  1
  Cu  Cu13  1  0.42839700  0.28806000  0.39685000  1
  Cu  Cu14  1  0.28806000  0.42839700  0.89685000  1
  Cu  Cu15  1  0.57160300  0.71194000  0.60315000  1
  Cu  Cu16  1  0.21168200  0.94205200  0.98066300  1
  Cu  Cu17  1  0.05794800  0.78831800  0.51933700  1
  Cu  Cu18  1  0.78831800  0.05794800  0.01933700  1
  Cu  Cu19  1  0.94205200  0.21168200  0.48066300  1
  C  C20  1  0.87232300  0.63011800  0.99720600  1
  C  C21  1  0.36988200  0.12767700  0.50279400  1
  C  C22  1  0.12767700  0.36988200  0.00279400  1
  C  C23  1  0.63011800  0.87232300  0.49720600  1
  C  C24  1  0.85223300  0.35473100  0.54765400  1
  C  C25  1  0.64526900  0.14776700  0.95234600  1
  C  C26  1  0.14776700  0.64526900  0.45234600  1
  C  C27  1  0.35473100  0.85223300  0.04765400  1
  C  C28  1  0.77119500  0.52166700  0.27858000  1
  C  C29  1  0.47833300  0.22880500  0.22142000  1
  C  C30  1  0.22880500  0.47833300  0.72142000  1
  C  C31  1  0.52166700  0.77119500  0.77858000  1
  C  C32  1  0.26789500  0.02620100  0.79778500  1
  C  C33  1  0.97379900  0.73210500  0.70221500  1
  C  C34  1  0.73210500  0.97379900  0.20221500  1
  C  C35  1  0.02620100  0.26789500  0.29778500  1
  C  C36  1  0.57403100  0.68763500  0.11143500  1
  C  C37  1  0.31236500  0.42596900  0.38856500  1
  C  C38  1  0.42596900  0.31236500  0.88856500  1
  C  C39  1  0.68763500  0.57403100  0.61143500  1
  C  C40  1  0.05509000  0.18498900  0.61961900  1
  C  C41  1  0.81501100  0.94491000  0.88038100  1
  C  C42  1  0.94491000  0.81501100  0.38038100  1
  C  C43  1  0.18498900  0.05509000  0.11961900  1
  C  C44  1  0.67919200  0.43572700  0.00135200  1
  C  C45  1  0.56427300  0.32080800  0.49864800  1
  C  C46  1  0.32080800  0.56427300  0.99864800  1
  C  C47  1  0.43572700  0.67919200  0.50135200  1
  C  C48  1  0.17864200  0.92162500  0.50766300  1
  C  C49  1  0.07837500  0.82135800  0.99233700  1
  C  C50  1  0.82135800  0.07837500  0.49233700  1
  C  C51  1  0.92162500  0.17864200  0.00766300  1
