# generated using pymatgen
data_Cu2Ni2C
_symmetry_space_group_name_H-M   'P 1'
_cell_length_a   4.22939000
_cell_length_b   4.22939000
_cell_length_c   6.10483950
_cell_angle_alpha   110.26706628
_cell_angle_beta   110.26706628
_cell_angle_gamma   90.00000000
_symmetry_Int_Tables_number   1
_chemical_formula_structural   Cu2Ni2C
_chemical_formula_sum   'Cu2 Ni2 C1'
_cell_volume   95.20109113
_cell_formula_units_Z   1
loop_
 _symmetry_equiv_pos_site_id
 _symmetry_equiv_pos_as_xyz
  1  'x, y, z'
loop_
 _atom_site_type_symbol
 _atom_site_label
 _atom_site_symmetry_multiplicity
 _atom_site_fract_x
 _atom_site_fract_y
 _atom_site_fract_z
 _atom_site_occupancy
  C  C0  1  0.00000000  0.00000000  0.00000000  1
  Ni  Ni1  1  0.36642300  0.36642300  0.73284600  1
  Ni  Ni2  1  0.63357700  0.63357700  0.26715400  1
  Cu  Cu3  1  0.25000000  0.75000000  0.50000000  1
  Cu  Cu4  1  0.75000000  0.25000000  0.50000000  1
