# generated using pymatgen
data_Cu12Ni3C
_symmetry_space_group_name_H-M   'P 1'
_cell_length_a   10.87267400
_cell_length_b   10.87267400
_cell_length_c   10.87267400
_cell_angle_alpha   90.00000000
_cell_angle_beta   90.00000000
_cell_angle_gamma   90.00000000
_symmetry_Int_Tables_number   1
_chemical_formula_structural   Cu12Ni3C
_chemical_formula_sum   'Cu96 Ni24 C8'
_cell_volume   1285.31359084
_cell_formula_units_Z   8
loop_
 _symmetry_equiv_pos_site_id
 _symmetry_equiv_pos_as_xyz
  1  'x, y, z'
loop_
 _atom_site_type_symbol
 _atom_site_label
 _atom_site_symmetry_multiplicity
 _atom_site_fract_x
 _atom_site_fract_y
 _atom_site_fract_z
 _atom_site_occupancy
  C  C0  1  0.78307500  0.71692500  0.28307500  1
  C  C1  1  0.71692500  0.21692500  0.28307500  1
  C  C2  1  0.28307500  0.71692500  0.21692500  1
  C  C3  1  0.21692500  0.21692500  0.21692500  1
  C  C4  1  0.21692500  0.28307500  0.71692500  1
  C  C5  1  0.28307500  0.78307500  0.71692500  1
  C  C6  1  0.78307500  0.78307500  0.78307500  1
  C  C7  1  0.71692500  0.28307500  0.78307500  1
  Ni  Ni8  1  0.25255900  0.03279000  0.69216400  1
  Ni  Ni9  1  0.24744100  0.96721000  0.19216400  1
  Ni  Ni10  1  0.25255900  0.46721000  0.19216400  1
  Ni  Ni11  1  0.46721000  0.30783600  0.75255900  1
  Ni  Ni12  1  0.80783600  0.74744100  0.53279000  1
  Ni  Ni13  1  0.03279000  0.80783600  0.75255900  1
  Ni  Ni14  1  0.74744100  0.96721000  0.30783600  1
  Ni  Ni15  1  0.03279000  0.69216400  0.25255900  1
  Ni  Ni16  1  0.75255900  0.46721000  0.30783600  1
  Ni  Ni17  1  0.96721000  0.30783600  0.74744100  1
  Ni  Ni18  1  0.24744100  0.53279000  0.69216400  1
  Ni  Ni19  1  0.53279000  0.80783600  0.74744100  1
  Ni  Ni20  1  0.69216400  0.24744100  0.53279000  1
  Ni  Ni21  1  0.96721000  0.19216400  0.24744100  1
  Ni  Ni22  1  0.19216400  0.25255900  0.46721000  1
  Ni  Ni23  1  0.74744100  0.53279000  0.80783600  1
  Ni  Ni24  1  0.19216400  0.24744100  0.96721000  1
  Ni  Ni25  1  0.53279000  0.69216400  0.24744100  1
  Ni  Ni26  1  0.30783600  0.74744100  0.96721000  1
  Ni  Ni27  1  0.30783600  0.75255900  0.46721000  1
  Ni  Ni28  1  0.69216400  0.25255900  0.03279000  1
  Ni  Ni29  1  0.46721000  0.19216400  0.25255900  1
  Ni  Ni30  1  0.80783600  0.75255900  0.03279000  1
  Ni  Ni31  1  0.75255900  0.03279000  0.80783600  1
  Cu  Cu32  1  0.27519800  0.53364500  0.10329200  1
  Cu  Cu33  1  0.33739800  0.10703000  0.70130500  1
  Cu  Cu34  1  0.91873500  0.32623000  0.84783100  1
  Cu  Cu35  1  0.32623000  0.84783100  0.91873500  1
  Cu  Cu36  1  0.82623000  0.65216900  0.08126500  1
  Cu  Cu37  1  0.74615100  0.52342300  0.20990500  1
  Cu  Cu38  1  0.08126500  0.67377000  0.15216900  1
  Cu  Cu39  1  0.72480200  0.46635500  0.89670800  1
  Cu  Cu40  1  0.72480200  0.03364500  0.39670800  1
  Cu  Cu41  1  0.16260200  0.89297000  0.20130500  1
  Cu  Cu42  1  0.91873500  0.17377000  0.34783100  1
  Cu  Cu43  1  0.70130500  0.16260200  0.60703000  1
  Cu  Cu44  1  0.67377000  0.15216900  0.08126500  1
  Cu  Cu45  1  0.08126500  0.82623000  0.65216900  1
  Cu  Cu46  1  0.41873500  0.32623000  0.65216900  1
  Cu  Cu47  1  0.24615100  0.52342300  0.29009500  1
  Cu  Cu48  1  0.29009500  0.25384900  0.02342300  1
  Cu  Cu49  1  0.10703000  0.70130500  0.33739800  1
  Cu  Cu50  1  0.34783100  0.58126500  0.67377000  1
  Cu  Cu51  1  0.79009500  0.24615100  0.97657700  1
  Cu  Cu52  1  0.29009500  0.24615100  0.52342300  1
  Cu  Cu53  1  0.89670800  0.72480200  0.46635500  1
  Cu  Cu54  1  0.39670800  0.72480200  0.03364500  1
  Cu  Cu55  1  0.79869500  0.83739800  0.10703000  1
  Cu  Cu56  1  0.60703000  0.79869500  0.66260200  1
  Cu  Cu57  1  0.75384900  0.02342300  0.20990500  1
  Cu  Cu58  1  0.47657700  0.79009500  0.25384900  1
  Cu  Cu59  1  0.52342300  0.29009500  0.24615100  1
  Cu  Cu60  1  0.15216900  0.08126500  0.67377000  1
  Cu  Cu61  1  0.16260200  0.60703000  0.70130500  1
  Cu  Cu62  1  0.24615100  0.97657700  0.79009500  1
  Cu  Cu63  1  0.15216900  0.41873500  0.17377000  1
  Cu  Cu64  1  0.53364500  0.39670800  0.77519800  1
  Cu  Cu65  1  0.20130500  0.33739800  0.39297000  1
  Cu  Cu66  1  0.25384900  0.47657700  0.79009500  1
  Cu  Cu67  1  0.70130500  0.33739800  0.10703000  1
  Cu  Cu68  1  0.65216900  0.08126500  0.82623000  1
  Cu  Cu69  1  0.83739800  0.10703000  0.79869500  1
  Cu  Cu70  1  0.96635500  0.89670800  0.77519800  1
  Cu  Cu71  1  0.32623000  0.65216900  0.41873500  1
  Cu  Cu72  1  0.77519800  0.53364500  0.39670800  1
  Cu  Cu73  1  0.75384900  0.47657700  0.70990500  1
  Cu  Cu74  1  0.52342300  0.20990500  0.74615100  1
  Cu  Cu75  1  0.58126500  0.67377000  0.34783100  1
  Cu  Cu76  1  0.66260200  0.89297000  0.29869500  1
  Cu  Cu77  1  0.25384900  0.02342300  0.29009500  1
  Cu  Cu78  1  0.53364500  0.10329200  0.27519800  1
  Cu  Cu79  1  0.46635500  0.89670800  0.72480200  1
  Cu  Cu80  1  0.60329200  0.27519800  0.96635500  1
  Cu  Cu81  1  0.70990500  0.74615100  0.97657700  1
  Cu  Cu82  1  0.89297000  0.20130500  0.16260200  1
  Cu  Cu83  1  0.22480200  0.46635500  0.60329200  1
  Cu  Cu84  1  0.66260200  0.60703000  0.79869500  1
  Cu  Cu85  1  0.03364500  0.10329200  0.22480200  1
  Cu  Cu86  1  0.10703000  0.79869500  0.83739800  1
  Cu  Cu87  1  0.84783100  0.91873500  0.32623000  1
  Cu  Cu88  1  0.60329200  0.22480200  0.46635500  1
  Cu  Cu89  1  0.10329200  0.22480200  0.03364500  1
  Cu  Cu90  1  0.77519800  0.96635500  0.89670800  1
  Cu  Cu91  1  0.70990500  0.75384900  0.47657700  1
  Cu  Cu92  1  0.84783100  0.58126500  0.82623000  1
  Cu  Cu93  1  0.39297000  0.20130500  0.33739800  1
  Cu  Cu94  1  0.79869500  0.66260200  0.60703000  1
  Cu  Cu95  1  0.41873500  0.17377000  0.15216900  1
  Cu  Cu96  1  0.96635500  0.60329200  0.27519800  1
  Cu  Cu97  1  0.02342300  0.29009500  0.25384900  1
  Cu  Cu98  1  0.02342300  0.20990500  0.75384900  1
  Cu  Cu99  1  0.20130500  0.16260200  0.89297000  1
  Cu  Cu100  1  0.39670800  0.77519800  0.53364500  1
  Cu  Cu101  1  0.97657700  0.79009500  0.24615100  1
  Cu  Cu102  1  0.74615100  0.97657700  0.70990500  1
  Cu  Cu103  1  0.65216900  0.41873500  0.32623000  1
  Cu  Cu104  1  0.58126500  0.82623000  0.84783100  1
  Cu  Cu105  1  0.29869500  0.66260200  0.89297000  1
  Cu  Cu106  1  0.10329200  0.27519800  0.53364500  1
  Cu  Cu107  1  0.29869500  0.83739800  0.39297000  1
  Cu  Cu108  1  0.82623000  0.84783100  0.58126500  1
  Cu  Cu109  1  0.79009500  0.25384900  0.47657700  1
  Cu  Cu110  1  0.46635500  0.60329200  0.22480200  1
  Cu  Cu111  1  0.20990500  0.75384900  0.02342300  1
  Cu  Cu112  1  0.97657700  0.70990500  0.74615100  1
  Cu  Cu113  1  0.60703000  0.70130500  0.16260200  1
  Cu  Cu114  1  0.22480200  0.03364500  0.10329200  1
  Cu  Cu115  1  0.20990500  0.74615100  0.52342300  1
  Cu  Cu116  1  0.34783100  0.91873500  0.17377000  1
  Cu  Cu117  1  0.39297000  0.29869500  0.83739800  1
  Cu  Cu118  1  0.89297000  0.29869500  0.66260200  1
  Cu  Cu119  1  0.47657700  0.70990500  0.75384900  1
  Cu  Cu120  1  0.27519800  0.96635500  0.60329200  1
  Cu  Cu121  1  0.83739800  0.39297000  0.29869500  1
  Cu  Cu122  1  0.17377000  0.34783100  0.91873500  1
  Cu  Cu123  1  0.67377000  0.34783100  0.58126500  1
  Cu  Cu124  1  0.89670800  0.77519800  0.96635500  1
  Cu  Cu125  1  0.17377000  0.15216900  0.41873500  1
  Cu  Cu126  1  0.33739800  0.39297000  0.20130500  1
  Cu  Cu127  1  0.03364500  0.39670800  0.72480200  1
