# generated using pymatgen
data_Cu3Ni2C5
_symmetry_space_group_name_H-M   'P 1'
_cell_length_a   7.05627700
_cell_length_b   8.74823100
_cell_length_c   9.03444200
_cell_angle_alpha   90.00000000
_cell_angle_beta   90.00000000
_cell_angle_gamma   90.00000000
_symmetry_Int_Tables_number   1
_chemical_formula_structural   Cu3Ni2C5
_chemical_formula_sum   'Cu12 Ni8 C20'
_cell_volume   557.69557340
_cell_formula_units_Z   4
loop_
 _symmetry_equiv_pos_site_id
 _symmetry_equiv_pos_as_xyz
  1  'x, y, z'
loop_
 _atom_site_type_symbol
 _atom_site_label
 _atom_site_symmetry_multiplicity
 _atom_site_fract_x
 _atom_site_fract_y
 _atom_site_fract_z
 _atom_site_occupancy
  Ni  Ni0  1  0.00000000  0.24327400  0.75433000  1
  Ni  Ni1  1  0.00000000  0.75672600  0.24567000  1
  Ni  Ni2  1  0.50000000  0.74327400  0.74567000  1
  Ni  Ni3  1  0.50000000  0.25672600  0.25433000  1
  Ni  Ni4  1  0.25948500  0.00000000  0.00000000  1
  Ni  Ni5  1  0.24051500  0.50000000  0.50000000  1
  Ni  Ni6  1  0.74051500  0.00000000  0.00000000  1
  Ni  Ni7  1  0.75948500  0.50000000  0.50000000  1
  Cu  Cu8  1  0.23748500  0.01778500  0.36537000  1
  Cu  Cu9  1  0.23748500  0.98221500  0.63463000  1
  Cu  Cu10  1  0.26251500  0.51778500  0.13463000  1
  Cu  Cu11  1  0.26251500  0.48221500  0.86537000  1
  Cu  Cu12  1  0.76251500  0.98221500  0.63463000  1
  Cu  Cu13  1  0.76251500  0.01778500  0.36537000  1
  Cu  Cu14  1  0.73748500  0.48221500  0.86537000  1
  Cu  Cu15  1  0.73748500  0.51778500  0.13463000  1
  Cu  Cu16  1  0.00000000  0.20527900  0.42182900  1
  Cu  Cu17  1  0.00000000  0.79472100  0.57817100  1
  Cu  Cu18  1  0.50000000  0.70527900  0.07817100  1
  Cu  Cu19  1  0.50000000  0.29472100  0.92182900  1
  C  C20  1  0.00000000  0.28551000  0.13766900  1
  C  C21  1  0.00000000  0.71449000  0.86233100  1
  C  C22  1  0.50000000  0.78551000  0.36233100  1
  C  C23  1  0.50000000  0.21449000  0.63766900  1
  C  C24  1  0.23480800  0.30204400  0.01890700  1
  C  C25  1  0.23480800  0.69795600  0.98109300  1
  C  C26  1  0.26519200  0.80204400  0.48109300  1
  C  C27  1  0.26519200  0.19795600  0.51890700  1
  C  C28  1  0.76519200  0.69795600  0.98109300  1
  C  C29  1  0.76519200  0.30204400  0.01890700  1
  C  C30  1  0.73480800  0.19795600  0.51890700  1
  C  C31  1  0.73480800  0.80204400  0.48109300  1
  C  C32  1  0.00000000  0.07212200  0.22109900  1
  C  C33  1  0.00000000  0.92787800  0.77890100  1
  C  C34  1  0.50000000  0.57212200  0.27890100  1
  C  C35  1  0.50000000  0.42787800  0.72109900  1
  C  C36  1  0.00000000  0.45333000  0.28440500  1
  C  C37  1  0.00000000  0.54667000  0.71559500  1
  C  C38  1  0.50000000  0.95333000  0.21559500  1
  C  C39  1  0.50000000  0.04667000  0.78440500  1
