# generated using pymatgen
data_Cu(NiC3)3
_symmetry_space_group_name_H-M   'P 1'
_cell_length_a   5.40083800
_cell_length_b   9.45824800
_cell_length_c   13.23271700
_cell_angle_alpha   90.00000000
_cell_angle_beta   90.00000000
_cell_angle_gamma   90.00000000
_symmetry_Int_Tables_number   1
_chemical_formula_structural   Cu(NiC3)3
_chemical_formula_sum   'Cu4 Ni12 C36'
_cell_volume   675.95980581
_cell_formula_units_Z   4
loop_
 _symmetry_equiv_pos_site_id
 _symmetry_equiv_pos_as_xyz
  1  'x, y, z'
loop_
 _atom_site_type_symbol
 _atom_site_label
 _atom_site_symmetry_multiplicity
 _atom_site_fract_x
 _atom_site_fract_y
 _atom_site_fract_z
 _atom_site_occupancy
  Ni  Ni0  1  0.01635800  0.34634000  0.40714300  1
  Ni  Ni1  1  0.98364200  0.65366000  0.90714300  1
  Ni  Ni2  1  0.51635800  0.15366000  0.59285700  1
  Ni  Ni3  1  0.98272600  0.98073600  0.75000000  1
  Ni  Ni4  1  0.48364200  0.84634000  0.09285700  1
  Ni  Ni5  1  0.48272600  0.51926400  0.25000000  1
  Ni  Ni6  1  0.01635800  0.34634000  0.09285700  1
  Ni  Ni7  1  0.51635800  0.15366000  0.90714300  1
  Ni  Ni8  1  0.48364200  0.84634000  0.40714300  1
  Ni  Ni9  1  0.51727400  0.48073600  0.75000000  1
  Ni  Ni10  1  0.98364200  0.65366000  0.59285700  1
  Ni  Ni11  1  0.01727400  0.01926400  0.25000000  1
  Cu  Cu12  1  0.50000000  0.50000000  0.00000000  1
  Cu  Cu13  1  0.00000000  0.00000000  0.50000000  1
  Cu  Cu14  1  0.00000000  0.00000000  0.00000000  1
  Cu  Cu15  1  0.50000000  0.50000000  0.50000000  1
  C  C16  1  0.51329400  0.17553800  0.13162200  1
  C  C17  1  0.01329400  0.32446200  0.63162200  1
  C  C18  1  0.51329400  0.17553800  0.36837800  1
  C  C19  1  0.48670600  0.82446200  0.86837800  1
  C  C20  1  0.48670600  0.82446200  0.63162200  1
  C  C21  1  0.98670600  0.67553800  0.13162200  1
  C  C22  1  0.01329400  0.32446200  0.86837800  1
  C  C23  1  0.98670600  0.67553800  0.36837800  1
  C  C24  1  0.47438700  0.34600500  0.11928400  1
  C  C25  1  0.31890100  0.08929800  0.43997700  1
  C  C26  1  0.68109900  0.91070200  0.56002300  1
  C  C27  1  0.20116400  0.87173500  0.60722400  1
  C  C28  1  0.31890100  0.08929800  0.06002300  1
  C  C29  1  0.47438700  0.34600500  0.38071600  1
  C  C30  1  0.29883600  0.37173500  0.60722400  1
  C  C31  1  0.18109900  0.58929800  0.43997700  1
  C  C32  1  0.97438700  0.15399500  0.61928400  1
  C  C33  1  0.52561300  0.65399500  0.61928400  1
  C  C34  1  0.02561300  0.84600500  0.38071600  1
  C  C35  1  0.02561300  0.84600500  0.11928400  1
  C  C36  1  0.18109900  0.58929800  0.06002300  1
  C  C37  1  0.79883600  0.12826500  0.39277600  1
  C  C38  1  0.79883600  0.12826500  0.10722400  1
  C  C39  1  0.29883600  0.37173500  0.89277600  1
  C  C40  1  0.55851000  0.87495600  0.75000000  1
  C  C41  1  0.52561300  0.65399500  0.88071600  1
  C  C42  1  0.44149000  0.12504400  0.25000000  1
  C  C43  1  0.97438700  0.15399500  0.88071600  1
  C  C44  1  0.20116400  0.87173500  0.89277600  1
  C  C45  1  0.68109900  0.91070200  0.93997700  1
  C  C46  1  0.70116400  0.62826500  0.10722400  1
  C  C47  1  0.70116400  0.62826500  0.39277600  1
  C  C48  1  0.81890100  0.41070200  0.93997700  1
  C  C49  1  0.94149000  0.37495600  0.75000000  1
  C  C50  1  0.05851000  0.62504400  0.25000000  1
  C  C51  1  0.81890100  0.41070200  0.56002300  1
