# generated using pymatgen
data_Cu4Ni4C7
_symmetry_space_group_name_H-M   'P 1'
_cell_length_a   5.34350100
_cell_length_b   8.74748141
_cell_length_c   9.25290287
_cell_angle_alpha   81.93755936
_cell_angle_beta   84.17016171
_cell_angle_gamma   87.12170016
_symmetry_Int_Tables_number   1
_chemical_formula_structural   Cu4Ni4C7
_chemical_formula_sum   'Cu8 Ni8 C14'
_cell_volume   425.72695459
_cell_formula_units_Z   2
loop_
 _symmetry_equiv_pos_site_id
 _symmetry_equiv_pos_as_xyz
  1  'x, y, z'
loop_
 _atom_site_type_symbol
 _atom_site_label
 _atom_site_symmetry_multiplicity
 _atom_site_fract_x
 _atom_site_fract_y
 _atom_site_fract_z
 _atom_site_occupancy
  C  C0  1  0.32039100  0.53544300  0.44293500  1
  C  C1  1  0.67960900  0.46455700  0.55706500  1
  Ni  Ni2  1  0.45582900  0.75660800  0.62276000  1
  Ni  Ni3  1  0.54417100  0.24339200  0.37724000  1
  Ni  Ni4  1  0.22755500  0.35956600  0.73517500  1
  Ni  Ni5  1  0.77244500  0.64043400  0.26482500  1
  Ni  Ni6  1  0.06840600  0.28357200  0.87363200  1
  Ni  Ni7  1  0.93159400  0.71642800  0.12636800  1
  Ni  Ni8  1  0.42438200  0.90243600  0.70160500  1
  Ni  Ni9  1  0.57561800  0.09756400  0.29839500  1
  Cu  Cu10  1  0.28778300  0.73684600  0.54030500  1
  Cu  Cu11  1  0.71221700  0.26315400  0.45969500  1
  Cu  Cu12  1  0.10575800  0.42224400  0.62803200  1
  Cu  Cu13  1  0.89424200  0.57775600  0.37196800  1
  Cu  Cu14  1  0.53678500  0.64347800  0.26333100  1
  Cu  Cu15  1  0.46321500  0.35652200  0.73666900  1
  Cu  Cu16  1  0.35587900  0.33278200  0.34834400  1
  Cu  Cu17  1  0.64412100  0.66721800  0.65165600  1
  C  C18  1  0.29251100  0.01783400  0.62453000  1
  C  C19  1  0.70748900  0.98216600  0.37547000  1
  C  C20  1  0.64883800  0.95624600  0.72120600  1
  C  C21  1  0.35116200  0.04375400  0.27879400  1
  C  C22  1  0.93658400  0.16712700  0.84008700  1
  C  C23  1  0.06341600  0.83287300  0.15991300  1
  C  C24  1  0.90123500  0.39068400  0.92446500  1
  C  C25  1  0.09876500  0.60931600  0.07553500  1
  C  C26  1  0.29456600  0.86694200  0.83542700  1
  C  C27  1  0.70543400  0.13305800  0.16457300  1
  C  C28  1  0.21425300  0.22709300  0.98054000  1
  C  C29  1  0.78574700  0.77290700  0.01946000  1
