# generated using pymatgen
data_Cu5(NiC2)2
_symmetry_space_group_name_H-M   'P 1'
_cell_length_a   12.96756100
_cell_length_b   14.24839200
_cell_length_c   15.06802332
_cell_angle_alpha   87.90774039
_cell_angle_beta   90.00000000
_cell_angle_gamma   90.00000000
_symmetry_Int_Tables_number   1
_chemical_formula_structural   Cu5(NiC2)2
_chemical_formula_sum   'Cu40 Ni16 C32'
_cell_volume   2782.21580107
_cell_formula_units_Z   8
loop_
 _symmetry_equiv_pos_site_id
 _symmetry_equiv_pos_as_xyz
  1  'x, y, z'
loop_
 _atom_site_type_symbol
 _atom_site_label
 _atom_site_symmetry_multiplicity
 _atom_site_fract_x
 _atom_site_fract_y
 _atom_site_fract_z
 _atom_site_occupancy
  C  C0  1  0.91101600  0.19687600  0.86071800  1
  C  C1  1  0.87723100  0.90486100  0.95181600  1
  C  C2  1  0.08898400  0.80312400  0.13928200  1
  C  C3  1  0.12276900  0.09513900  0.04818400  1
  C  C4  1  0.09276100  0.49248200  0.27036800  1
  C  C5  1  0.12184500  0.90307300  0.44003700  1
  C  C6  1  0.36477700  0.42234900  0.42757600  1
  C  C7  1  0.41101600  0.80312400  0.63928200  1
  C  C8  1  0.36505200  0.61785100  0.03403200  1
  C  C9  1  0.59276100  0.50751800  0.22963200  1
  C  C10  1  0.86477700  0.57765100  0.07242400  1
  C  C11  1  0.58898400  0.19687600  0.36071800  1
  C  C12  1  0.63494800  0.38214900  0.96596800  1
  C  C13  1  0.87815500  0.09692700  0.55996300  1
  C  C14  1  0.13494800  0.61785100  0.53403200  1
  C  C15  1  0.15621300  0.01272200  0.76513100  1
  C  C16  1  0.14277100  0.28959900  0.65185700  1
  C  C17  1  0.37815500  0.90307300  0.94003700  1
  C  C18  1  0.85722900  0.71040100  0.34814300  1
  C  C19  1  0.62184500  0.09692700  0.05996300  1
  C  C20  1  0.84378700  0.98727800  0.23486900  1
  C  C21  1  0.63522300  0.57765100  0.57242400  1
  C  C22  1  0.40723900  0.49248200  0.77036800  1
  C  C23  1  0.34378700  0.01272200  0.26513100  1
  C  C24  1  0.37723100  0.09513900  0.54818400  1
  C  C25  1  0.64277100  0.71040100  0.84814300  1
  C  C26  1  0.62276900  0.90486100  0.45181600  1
  C  C27  1  0.90723900  0.50751800  0.72963200  1
  C  C28  1  0.35722900  0.28959900  0.15185700  1
  C  C29  1  0.13522300  0.42234900  0.92757600  1
  C  C30  1  0.86505200  0.38214900  0.46596800  1
  C  C31  1  0.65621300  0.98727800  0.73486900  1
  Ni  Ni32  1  0.40852300  0.72217500  0.40915000  1
  Ni  Ni33  1  0.65963100  0.77874300  0.08680600  1
  Ni  Ni34  1  0.94213500  0.82419100  0.70896600  1
  Ni  Ni35  1  0.19278700  0.68115700  0.78630100  1
  Ni  Ni36  1  0.69278700  0.31884300  0.71369900  1
  Ni  Ni37  1  0.59147700  0.27782500  0.59085000  1
  Ni  Ni38  1  0.09147700  0.72217500  0.90915000  1
  Ni  Ni39  1  0.90852300  0.27782500  0.09085000  1
  Ni  Ni40  1  0.34036900  0.22125700  0.91319400  1
  Ni  Ni41  1  0.84036900  0.77874300  0.58680600  1
  Ni  Ni42  1  0.80721300  0.31884300  0.21369900  1
  Ni  Ni43  1  0.44213500  0.17580900  0.79103400  1
  Ni  Ni44  1  0.05786500  0.17580900  0.29103400  1
  Ni  Ni45  1  0.55786500  0.82419100  0.20896600  1
  Ni  Ni46  1  0.15963100  0.22125700  0.41319400  1
  Ni  Ni47  1  0.30721300  0.68115700  0.28630100  1
  Cu  Cu48  1  0.87235500  0.89659800  0.46109400  1
  Cu  Cu49  1  0.37757400  0.70787600  0.82956300  1
  Cu  Cu50  1  0.62764500  0.89659800  0.96109400  1
  Cu  Cu51  1  0.40443800  0.01001700  0.75203100  1
  Cu  Cu52  1  0.63480600  0.19270000  0.83399900  1
  Cu  Cu53  1  0.59167700  0.70620500  0.34022100  1
  Cu  Cu54  1  0.87757400  0.29212400  0.67043700  1
  Cu  Cu55  1  0.15845100  0.51903600  0.73466400  1
  Cu  Cu56  1  0.84154900  0.48096400  0.26533600  1
  Cu  Cu57  1  0.87167500  0.11158100  0.05091900  1
  Cu  Cu58  1  0.40832300  0.29379500  0.65977900  1
  Cu  Cu59  1  0.37235500  0.10340200  0.03890600  1
  Cu  Cu60  1  0.88467900  0.61551100  0.53956400  1
  Cu  Cu61  1  0.12764500  0.10340200  0.53890600  1
  Cu  Cu62  1  0.34166000  0.21383900  0.35262300  1
  Cu  Cu63  1  0.36519400  0.80730000  0.16600100  1
  Cu  Cu64  1  0.11610900  0.60946200  0.03784200  1
  Cu  Cu65  1  0.61532100  0.61551100  0.03956400  1
  Cu  Cu66  1  0.59556200  0.98998300  0.24796900  1
  Cu  Cu67  1  0.15834000  0.21383900  0.85262300  1
  Cu  Cu68  1  0.61610900  0.39053800  0.46215800  1
  Cu  Cu69  1  0.11532100  0.38448900  0.46043600  1
  Cu  Cu70  1  0.38389100  0.60946200  0.53784200  1
  Cu  Cu71  1  0.34154900  0.51903600  0.23466400  1
  Cu  Cu72  1  0.90832300  0.70620500  0.84022100  1
  Cu  Cu73  1  0.86519400  0.19270000  0.33399900  1
  Cu  Cu74  1  0.62242600  0.29212400  0.17043700  1
  Cu  Cu75  1  0.62832500  0.11158100  0.55091900  1
  Cu  Cu76  1  0.90443800  0.98998300  0.74796900  1
  Cu  Cu77  1  0.65834000  0.78616100  0.64737700  1
  Cu  Cu78  1  0.12832500  0.88841900  0.94908100  1
  Cu  Cu79  1  0.37167500  0.88841900  0.44908100  1
  Cu  Cu80  1  0.38467900  0.38448900  0.96043600  1
  Cu  Cu81  1  0.88389100  0.39053800  0.96215800  1
  Cu  Cu82  1  0.09556200  0.01001700  0.25203100  1
  Cu  Cu83  1  0.13480600  0.80730000  0.66600100  1
  Cu  Cu84  1  0.12242600  0.70787600  0.32956300  1
  Cu  Cu85  1  0.65845100  0.48096400  0.76533600  1
  Cu  Cu86  1  0.84166000  0.78616100  0.14737700  1
  Cu  Cu87  1  0.09167700  0.29379500  0.15977900  1
