# generated using pymatgen
data_Cu4Ni2C
_symmetry_space_group_name_H-M   'P 1'
_cell_length_a   15.22744884
_cell_length_b   12.56546816
_cell_length_c   12.52617592
_cell_angle_alpha   74.72734382
_cell_angle_beta   52.75383414
_cell_angle_gamma   52.51882204
_symmetry_Int_Tables_number   1
_chemical_formula_structural   Cu4Ni2C
_chemical_formula_sum   'Cu32 Ni16 C8'
_cell_volume   1493.02580309
_cell_formula_units_Z   8
loop_
 _symmetry_equiv_pos_site_id
 _symmetry_equiv_pos_as_xyz
  1  'x, y, z'
loop_
 _atom_site_type_symbol
 _atom_site_label
 _atom_site_symmetry_multiplicity
 _atom_site_fract_x
 _atom_site_fract_y
 _atom_site_fract_z
 _atom_site_occupancy
  C  C0  1  0.62191500  0.62191500  0.12808500  1
  C  C1  1  0.37808500  0.37808500  0.87191500  1
  C  C2  1  0.12808500  0.12808500  0.62191500  1
  C  C3  1  0.87191500  0.87191500  0.37808500  1
  C  C4  1  0.87500000  0.87500000  0.87500000  1
  C  C5  1  0.12500000  0.12500000  0.12500000  1
  C  C6  1  0.37500000  0.37500000  0.37500000  1
  C  C7  1  0.62500000  0.62500000  0.62500000  1
  Ni  Ni8  1  0.11594200  0.38847600  0.86348800  1
  Ni  Ni9  1  0.38847600  0.11594200  0.13209400  1
  Ni  Ni10  1  0.47066700  0.02843900  0.63942300  1
  Ni  Ni11  1  0.86348800  0.13209400  0.11594200  1
  Ni  Ni12  1  0.52933300  0.97156100  0.36057700  1
  Ni  Ni13  1  0.13209400  0.86348800  0.38847600  1
  Ni  Ni14  1  0.63852800  0.36057700  0.97156100  1
  Ni  Ni15  1  0.36147200  0.63942300  0.02843900  1
  Ni  Ni16  1  0.63942300  0.36147200  0.47066700  1
  Ni  Ni17  1  0.88405800  0.61152400  0.13651200  1
  Ni  Ni18  1  0.36057700  0.63852800  0.52933300  1
  Ni  Ni19  1  0.86790600  0.13651200  0.61152400  1
  Ni  Ni20  1  0.02843900  0.47066700  0.36147200  1
  Ni  Ni21  1  0.13651200  0.86790600  0.88405800  1
  Ni  Ni22  1  0.61152400  0.88405800  0.86790600  1
  Ni  Ni23  1  0.97156100  0.52933300  0.63852800  1
  Cu  Cu24  1  0.31910700  0.18381600  0.84811000  1
  Cu  Cu25  1  0.40730100  0.92049300  0.08934100  1
  Cu  Cu26  1  0.41406400  0.41295700  0.58247300  1
  Cu  Cu27  1  0.92049300  0.40730100  0.08286500  1
  Cu  Cu28  1  0.58704300  0.58593600  0.90949300  1
  Cu  Cu29  1  0.16132600  0.34250800  0.65334100  1
  Cu  Cu30  1  0.14896800  0.84811000  0.18381600  1
  Cu  Cu31  1  0.58593600  0.58704300  0.41752700  1
  Cu  Cu32  1  0.34250800  0.16132600  0.34282500  1
  Cu  Cu33  1  0.91713500  0.91065900  0.07950700  1
  Cu  Cu34  1  0.07950700  0.59269900  0.91713500  1
  Cu  Cu35  1  0.81618400  0.68089300  0.85103200  1
  Cu  Cu36  1  0.34665900  0.65717500  0.83867400  1
  Cu  Cu37  1  0.65334100  0.34282500  0.16132600  1
  Cu  Cu38  1  0.09050700  0.58247300  0.41295700  1
  Cu  Cu39  1  0.08286500  0.08934100  0.92049300  1
  Cu  Cu40  1  0.85103200  0.15189000  0.81618400  1
  Cu  Cu41  1  0.65749200  0.83867400  0.65717500  1
  Cu  Cu42  1  0.68089300  0.81618400  0.15189000  1
  Cu  Cu43  1  0.18381600  0.31910700  0.14896800  1
  Cu  Cu44  1  0.08934100  0.08286500  0.40730100  1
  Cu  Cu45  1  0.59269900  0.07950700  0.91065900  1
  Cu  Cu46  1  0.84811000  0.14896800  0.31910700  1
  Cu  Cu47  1  0.65717500  0.34665900  0.65749200  1
  Cu  Cu48  1  0.83867400  0.65749200  0.34665900  1
  Cu  Cu49  1  0.90949300  0.41752700  0.58704300  1
  Cu  Cu50  1  0.91065900  0.91713500  0.59269900  1
  Cu  Cu51  1  0.58247300  0.09050700  0.41406400  1
  Cu  Cu52  1  0.15189000  0.85103200  0.68089300  1
  Cu  Cu53  1  0.41295700  0.41406400  0.09050700  1
  Cu  Cu54  1  0.34282500  0.65334100  0.34250800  1
  Cu  Cu55  1  0.41752700  0.90949300  0.58593600  1
