# generated using pymatgen
data_Cu2Ni3C20
_symmetry_space_group_name_H-M   'P 1'
_cell_length_a   10.41221300
_cell_length_b   12.74290700
_cell_length_c   19.43586900
_cell_angle_alpha   90.00000000
_cell_angle_beta   90.00000000
_cell_angle_gamma   90.00000000
_symmetry_Int_Tables_number   1
_chemical_formula_structural   Cu2Ni3C20
_chemical_formula_sum   'Cu8 Ni12 C80'
_cell_volume   2578.78728702
_cell_formula_units_Z   4
loop_
 _symmetry_equiv_pos_site_id
 _symmetry_equiv_pos_as_xyz
  1  'x, y, z'
loop_
 _atom_site_type_symbol
 _atom_site_label
 _atom_site_symmetry_multiplicity
 _atom_site_fract_x
 _atom_site_fract_y
 _atom_site_fract_z
 _atom_site_occupancy
  Ni  Ni0  1  0.78981600  0.10806600  0.22705400  1
  Ni  Ni1  1  0.11673200  0.25000000  0.00000000  1
  Ni  Ni2  1  0.71018400  0.89193400  0.72705400  1
  Ni  Ni3  1  0.88326800  0.75000000  0.00000000  1
  Ni  Ni4  1  0.38326800  0.75000000  0.50000000  1
  Ni  Ni5  1  0.28981600  0.39193400  0.72705400  1
  Ni  Ni6  1  0.21018400  0.89193400  0.77294600  1
  Ni  Ni7  1  0.78981600  0.39193400  0.77294600  1
  Ni  Ni8  1  0.71018400  0.60806600  0.27294600  1
  Ni  Ni9  1  0.28981600  0.10806600  0.27294600  1
  Ni  Ni10  1  0.21018400  0.60806600  0.22705400  1
  Ni  Ni11  1  0.61673200  0.25000000  0.50000000  1
  Cu  Cu12  1  0.62838800  0.38736100  0.07333500  1
  Cu  Cu13  1  0.62838800  0.11263900  0.92666500  1
  Cu  Cu14  1  0.37161200  0.61263900  0.92666500  1
  Cu  Cu15  1  0.87161200  0.88736100  0.42666500  1
  Cu  Cu16  1  0.37161200  0.88736100  0.07333500  1
  Cu  Cu17  1  0.87161200  0.61263900  0.57333500  1
  Cu  Cu18  1  0.12838800  0.38736100  0.42666500  1
  Cu  Cu19  1  0.12838800  0.11263900  0.57333500  1
  C  C20  1  0.49565300  0.36010700  0.89812200  1
  C  C21  1  0.93623900  0.45142800  0.13096000  1
  C  C22  1  0.43623900  0.45142800  0.36904000  1
  C  C23  1  0.93623900  0.04857200  0.86904000  1
  C  C24  1  0.06376100  0.54857200  0.86904000  1
  C  C25  1  0.56376100  0.95142800  0.36904000  1
  C  C26  1  0.50434700  0.86010700  0.89812200  1
  C  C27  1  0.49565300  0.13989300  0.10187800  1
  C  C28  1  0.00434700  0.86010700  0.60187800  1
  C  C29  1  0.56376100  0.54857200  0.63096000  1
  C  C30  1  0.99565300  0.36010700  0.60187800  1
  C  C31  1  0.99565300  0.13989300  0.39812200  1
  C  C32  1  0.00434700  0.63989300  0.39812200  1
  C  C33  1  0.50434700  0.63989300  0.10187800  1
  C  C34  1  0.06376100  0.95142800  0.13096000  1
  C  C35  1  0.43623900  0.04857200  0.63096000  1
  C  C36  1  0.00423400  0.48586000  0.66652900  1
  C  C37  1  0.12112200  0.58533000  0.96748400  1
  C  C38  1  0.93004600  0.61215200  0.14718600  1
  C  C39  1  0.70985800  0.61377800  0.69085400  1
  C  C40  1  0.88614800  0.89402600  0.14964200  1
  C  C41  1  0.43577900  0.27021600  0.15078100  1
  C  C42  1  0.93004600  0.88784800  0.85281400  1
  C  C43  1  0.11154800  0.59834900  0.48348800  1
  C  C44  1  0.67935400  0.16993400  0.06775200  1
  C  C45  1  0.62112200  0.91467000  0.46748400  1
  C  C46  1  0.49576600  0.98586000  0.83347100  1
  C  C47  1  0.06995400  0.11215200  0.14718600  1
  C  C48  1  0.11385200  0.10597400  0.85035800  1
  C  C49  1  0.87887800  0.41467000  0.03251600  1
  C  C50  1  0.06422100  0.77021600  0.34921900  1
  C  C51  1  0.32064600  0.83006600  0.93224800  1
  C  C52  1  0.56422100  0.77021600  0.15078100  1
  C  C53  1  0.29014200  0.38622200  0.30914600  1
  C  C54  1  0.50423400  0.01414000  0.16652900  1
  C  C55  1  0.37887800  0.41467000  0.46748400  1
  C  C56  1  0.17935400  0.16993400  0.43224800  1
  C  C57  1  0.43004600  0.88784800  0.64718600  1
  C  C58  1  0.82064600  0.66993400  0.43224800  1
  C  C59  1  0.43004600  0.61215200  0.35281400  1
  C  C60  1  0.67935400  0.33006600  0.93224800  1
  C  C61  1  0.38845200  0.40165100  0.98348800  1
  C  C62  1  0.79014200  0.11377800  0.80914600  1
  C  C63  1  0.38614800  0.89402600  0.35035800  1
  C  C64  1  0.88845200  0.09834900  0.48348800  1
  C  C65  1  0.06422100  0.72978400  0.65078100  1
  C  C66  1  0.43577900  0.22978400  0.84921900  1
  C  C67  1  0.38845200  0.09834900  0.01651200  1
  C  C68  1  0.93577900  0.27021600  0.34921900  1
  C  C69  1  0.29014200  0.11377800  0.69085400  1
  C  C70  1  0.17935400  0.33006600  0.56775200  1
  C  C71  1  0.00423400  0.01414000  0.33347100  1
  C  C72  1  0.38614800  0.60597400  0.64964200  1
  C  C73  1  0.93577900  0.22978400  0.65078100  1
  C  C74  1  0.99576600  0.51414000  0.33347100  1
  C  C75  1  0.56995400  0.11215200  0.35281400  1
  C  C76  1  0.56422100  0.72978400  0.84921900  1
  C  C77  1  0.82064600  0.83006600  0.56775200  1
  C  C78  1  0.11154800  0.90165100  0.51651200  1
  C  C79  1  0.62112200  0.58533000  0.53251600  1
  C  C80  1  0.12112200  0.91467000  0.03251600  1
  C  C81  1  0.79014200  0.38622200  0.19085400  1
  C  C82  1  0.49576600  0.51414000  0.16652900  1
  C  C83  1  0.37887800  0.08533000  0.53251600  1
  C  C84  1  0.88845200  0.40165100  0.51651200  1
  C  C85  1  0.88614800  0.60597400  0.85035800  1
  C  C86  1  0.20985800  0.88622200  0.19085400  1
  C  C87  1  0.61385200  0.10597400  0.64964200  1
  C  C88  1  0.70985800  0.88622200  0.30914600  1
  C  C89  1  0.20985800  0.61377800  0.80914600  1
  C  C90  1  0.61385200  0.39402600  0.35035800  1
  C  C91  1  0.56995400  0.38784800  0.64718600  1
  C  C92  1  0.50423400  0.48586000  0.83347100  1
  C  C93  1  0.06995400  0.38784800  0.85281400  1
  C  C94  1  0.61154800  0.90165100  0.98348800  1
  C  C95  1  0.32064600  0.66993400  0.06775200  1
  C  C96  1  0.99576600  0.98586000  0.66652900  1
  C  C97  1  0.11385200  0.39402600  0.14964200  1
  C  C98  1  0.87887800  0.08533000  0.96748400  1
  C  C99  1  0.61154800  0.59834900  0.01651200  1
