# generated using pymatgen
data_Cu3NiC12
_symmetry_space_group_name_H-M   'P 1'
_cell_length_a   9.14982600
_cell_length_b   9.53760300
_cell_length_c   12.45827903
_cell_angle_alpha   85.16849556
_cell_angle_beta   90.00000000
_cell_angle_gamma   90.00000000
_symmetry_Int_Tables_number   1
_chemical_formula_structural   Cu3NiC12
_chemical_formula_sum   'Cu12 Ni4 C48'
_cell_volume   1083.33856170
_cell_formula_units_Z   4
loop_
 _symmetry_equiv_pos_site_id
 _symmetry_equiv_pos_as_xyz
  1  'x, y, z'
loop_
 _atom_site_type_symbol
 _atom_site_label
 _atom_site_symmetry_multiplicity
 _atom_site_fract_x
 _atom_site_fract_y
 _atom_site_fract_z
 _atom_site_occupancy
  C  C0  1  0.87678700  0.99684900  0.14662300  1
  C  C1  1  0.37678700  0.50315100  0.85337700  1
  C  C2  1  0.12321300  0.00315100  0.85337700  1
  C  C3  1  0.62321300  0.49684900  0.14662300  1
  C  C4  1  0.89248300  0.23805200  0.45844700  1
  C  C5  1  0.39248300  0.26194800  0.54155300  1
  C  C6  1  0.10751700  0.76194800  0.54155300  1
  C  C7  1  0.60751700  0.73805200  0.45844700  1
  Ni  Ni8  1  0.85102900  0.64507800  0.85289100  1
  Ni  Ni9  1  0.35102900  0.85492200  0.14710900  1
  Ni  Ni10  1  0.14897100  0.35492200  0.14710900  1
  Ni  Ni11  1  0.64897100  0.14507800  0.85289100  1
  Cu  Cu12  1  0.91604900  0.32228600  0.95193200  1
  Cu  Cu13  1  0.41604900  0.17771400  0.04806800  1
  Cu  Cu14  1  0.08395100  0.67771400  0.04806800  1
  Cu  Cu15  1  0.58395100  0.82228600  0.95193200  1
  Cu  Cu16  1  0.97101500  0.57696200  0.25946700  1
  Cu  Cu17  1  0.47101500  0.92303800  0.74053300  1
  Cu  Cu18  1  0.02898500  0.42303800  0.74053300  1
  Cu  Cu19  1  0.52898500  0.07696200  0.25946700  1
  Cu  Cu20  1  0.78883500  0.93315500  0.69561300  1
  Cu  Cu21  1  0.28883500  0.56684500  0.30438700  1
  Cu  Cu22  1  0.21116500  0.06684500  0.30438700  1
  Cu  Cu23  1  0.71116500  0.43315500  0.69561300  1
  C  C24  1  0.86432400  0.81612300  0.76734600  1
  C  C25  1  0.36432400  0.68387700  0.23265400  1
  C  C26  1  0.13567600  0.18387700  0.23265400  1
  C  C27  1  0.63567600  0.31612300  0.76734600  1
  C  C28  1  0.69163400  0.70306800  0.93703700  1
  C  C29  1  0.19163400  0.79693200  0.06296300  1
  C  C30  1  0.30836600  0.29693200  0.06296300  1
  C  C31  1  0.80836600  0.20306800  0.93703700  1
  C  C32  1  0.72087500  0.56879300  0.75346400  1
  C  C33  1  0.22087500  0.93120700  0.24653600  1
  C  C34  1  0.27912500  0.43120700  0.24653600  1
  C  C35  1  0.77912500  0.06879300  0.75346400  1
  C  C36  1  0.99253500  0.71737800  0.94801400  1
  C  C37  1  0.49253500  0.78262200  0.05198600  1
  C  C38  1  0.00746500  0.28262200  0.05198600  1
  C  C39  1  0.50746500  0.21737800  0.94801400  1
  C  C40  1  0.84722300  0.46811000  0.94448400  1
  C  C41  1  0.34722300  0.03189000  0.05551600  1
  C  C42  1  0.15277700  0.53189000  0.05551600  1
  C  C43  1  0.65277700  0.96811000  0.94448400  1
  C  C44  1  0.01416500  0.57341600  0.77184200  1
  C  C45  1  0.51416500  0.92658400  0.22815800  1
  C  C46  1  0.98583500  0.42658400  0.22815800  1
  C  C47  1  0.48583500  0.07341600  0.77184200  1
  C  C48  1  0.03380500  0.32032200  0.85145100  1
  C  C49  1  0.53380500  0.17967800  0.14854900  1
  C  C50  1  0.96619500  0.67967800  0.14854900  1
  C  C51  1  0.46619500  0.82032200  0.85145100  1
  C  C52  1  0.84069200  0.61042600  0.32428100  1
  C  C53  1  0.34069200  0.88957400  0.67571900  1
  C  C54  1  0.15930800  0.38957400  0.67571900  1
  C  C55  1  0.65930800  0.11042600  0.32428100  1
  C  C56  1  0.11653700  0.62106200  0.31901100  1
  C  C57  1  0.61653700  0.87893800  0.68098900  1
  C  C58  1  0.88346300  0.37893800  0.68098900  1
  C  C59  1  0.38346300  0.12106200  0.31901100  1
  C  C60  1  0.84806800  0.95122600  0.58291700  1
  C  C61  1  0.34806800  0.54877400  0.41708300  1
  C  C62  1  0.15193200  0.04877400  0.41708300  1
  C  C63  1  0.65193200  0.45122600  0.58291700  1
