# generated using pymatgen
data_Cu3(NiC2)2
_symmetry_space_group_name_H-M   'P 1'
_cell_length_a   7.18037300
_cell_length_b   7.45144100
_cell_length_c   14.13553800
_cell_angle_alpha   90.00000000
_cell_angle_beta   90.00000000
_cell_angle_gamma   90.00000000
_symmetry_Int_Tables_number   1
_chemical_formula_structural   Cu3(NiC2)2
_chemical_formula_sum   'Cu12 Ni8 C16'
_cell_volume   756.30960294
_cell_formula_units_Z   4
loop_
 _symmetry_equiv_pos_site_id
 _symmetry_equiv_pos_as_xyz
  1  'x, y, z'
loop_
 _atom_site_type_symbol
 _atom_site_label
 _atom_site_symmetry_multiplicity
 _atom_site_fract_x
 _atom_site_fract_y
 _atom_site_fract_z
 _atom_site_occupancy
  Ni  Ni0  1  0.98860100  0.17215400  0.09676100  1
  Ni  Ni1  1  0.48860100  0.32784600  0.40323900  1
  Ni  Ni2  1  0.51139900  0.67215400  0.90323900  1
  Ni  Ni3  1  0.01139900  0.82784600  0.59676100  1
  Ni  Ni4  1  0.01139900  0.82784600  0.90323900  1
  Ni  Ni5  1  0.51139900  0.67215400  0.59676100  1
  Ni  Ni6  1  0.48860100  0.32784600  0.09676100  1
  Ni  Ni7  1  0.98860100  0.17215400  0.40323900  1
  Cu  Cu8  1  0.66224600  0.00543500  0.25000000  1
  Cu  Cu9  1  0.16224600  0.49456500  0.25000000  1
  Cu  Cu10  1  0.83775400  0.50543500  0.75000000  1
  Cu  Cu11  1  0.33775400  0.99456500  0.75000000  1
  Cu  Cu12  1  0.82925200  0.67602800  0.12412400  1
  Cu  Cu13  1  0.32925200  0.82397200  0.37587600  1
  Cu  Cu14  1  0.67074800  0.17602800  0.87587600  1
  Cu  Cu15  1  0.17074800  0.32397200  0.62412400  1
  Cu  Cu16  1  0.17074800  0.32397200  0.87587600  1
  Cu  Cu17  1  0.67074800  0.17602800  0.62412400  1
  Cu  Cu18  1  0.32925200  0.82397200  0.12412400  1
  Cu  Cu19  1  0.82925200  0.67602800  0.37587600  1
  C  C20  1  0.78725900  0.37726300  0.25000000  1
  C  C21  1  0.28725900  0.12273700  0.25000000  1
  C  C22  1  0.71274100  0.87726300  0.75000000  1
  C  C23  1  0.21274100  0.62273700  0.75000000  1
  C  C24  1  0.03430600  0.87959500  0.25000000  1
  C  C25  1  0.53430600  0.62040500  0.25000000  1
  C  C26  1  0.46569400  0.37959500  0.75000000  1
  C  C27  1  0.96569400  0.12040500  0.75000000  1
  C  C28  1  0.84502000  0.46481100  0.96081400  1
  C  C29  1  0.34502000  0.03518900  0.53918600  1
  C  C30  1  0.65498000  0.96481100  0.03918600  1
  C  C31  1  0.15498000  0.53518900  0.46081400  1
  C  C32  1  0.15498000  0.53518900  0.03918600  1
  C  C33  1  0.65498000  0.96481100  0.46081400  1
  C  C34  1  0.34502000  0.03518900  0.96081400  1
  C  C35  1  0.84502000  0.46481100  0.53918600  1
