# generated using pymatgen
data_Cu2Ni2C
_symmetry_space_group_name_H-M   'P 1'
_cell_length_a   4.70149600
_cell_length_b   5.43396800
_cell_length_c   6.13303400
_cell_angle_alpha   90.00000000
_cell_angle_beta   90.00000000
_cell_angle_gamma   90.00000000
_symmetry_Int_Tables_number   1
_chemical_formula_structural   Cu2Ni2C
_chemical_formula_sum   'Cu8 Ni8 C4'
_cell_volume   156.68539610
_cell_formula_units_Z   4
loop_
 _symmetry_equiv_pos_site_id
 _symmetry_equiv_pos_as_xyz
  1  'x, y, z'
loop_
 _atom_site_type_symbol
 _atom_site_label
 _atom_site_symmetry_multiplicity
 _atom_site_fract_x
 _atom_site_fract_y
 _atom_site_fract_z
 _atom_site_occupancy
  C  C0  1  0.18362700  0.50000000  0.79668400  1
  C  C1  1  0.18362700  0.50000000  0.20331600  1
  C  C2  1  0.81637300  0.00000000  0.70331600  1
  C  C3  1  0.81637300  0.00000000  0.29668400  1
  Ni  Ni4  1  0.47856400  0.00000000  0.50000000  1
  Ni  Ni5  1  0.99177200  0.74833100  0.50000000  1
  Ni  Ni6  1  0.49928400  0.00000000  0.00000000  1
  Ni  Ni7  1  0.52143600  0.50000000  0.00000000  1
  Ni  Ni8  1  0.99177200  0.25166900  0.50000000  1
  Ni  Ni9  1  0.00822800  0.24833100  0.00000000  1
  Ni  Ni10  1  0.50071600  0.50000000  0.50000000  1
  Ni  Ni11  1  0.00822800  0.75166900  0.00000000  1
  Cu  Cu12  1  0.33982900  0.25682300  0.00000000  1
  Cu  Cu13  1  0.33982900  0.74317700  0.00000000  1
  Cu  Cu14  1  0.66017100  0.75682300  0.50000000  1
  Cu  Cu15  1  0.16600000  0.50000000  0.50000000  1
  Cu  Cu16  1  0.83400000  0.00000000  0.00000000  1
  Cu  Cu17  1  0.85533100  0.50000000  0.00000000  1
  Cu  Cu18  1  0.66017100  0.24317700  0.50000000  1
  Cu  Cu19  1  0.14466900  0.00000000  0.50000000  1
