# generated using pymatgen
data_Cu21Ni8
_symmetry_space_group_name_H-M   'P 1'
_cell_length_a   10.68141370
_cell_length_b   10.68141370
_cell_length_c   10.68141370
_cell_angle_alpha   103.10482070
_cell_angle_beta   103.10482070
_cell_angle_gamma   123.12951951
_symmetry_Int_Tables_number   1
_chemical_formula_structural   Cu21Ni8
_chemical_formula_sum   'Cu42 Ni16'
_cell_volume   897.43529867
_cell_formula_units_Z   2
loop_
 _symmetry_equiv_pos_site_id
 _symmetry_equiv_pos_as_xyz
  1  'x, y, z'
loop_
 _atom_site_type_symbol
 _atom_site_label
 _atom_site_symmetry_multiplicity
 _atom_site_fract_x
 _atom_site_fract_y
 _atom_site_fract_z
 _atom_site_occupancy
  Ni  Ni0  1  0.02786400  0.30848100  0.52818600  1
  Ni  Ni1  1  0.25547300  0.14889100  0.30044700  1
  Ni  Ni2  1  0.69151900  0.21970400  0.71938300  1
  Ni  Ni3  1  0.22213600  0.44151900  0.97181400  1
  Ni  Ni4  1  0.40155500  0.79497300  0.80044700  1
  Ni  Ni5  1  0.04497300  0.74452700  0.89341800  1
  Ni  Ni6  1  0.20502700  0.00547300  0.60658200  1
  Ni  Ni7  1  0.84844500  0.95502700  0.69955300  1
  Ni  Ni8  1  0.39889100  0.59844500  0.39341800  1
  Ni  Ni9  1  0.74967900  0.77786400  0.21938300  1
  Ni  Ni10  1  0.99452700  0.60110900  0.19955300  1
  Ni  Ni11  1  0.85110900  0.15155500  0.10658200  1
  Ni  Ni12  1  0.55848100  0.53029600  0.78061700  1
  Ni  Ni13  1  0.78029600  0.49967900  0.47181400  1
  Ni  Ni14  1  0.46970400  0.25032100  0.02818600  1
  Ni  Ni15  1  0.50032100  0.97213600  0.28061700  1
  Cu  Cu16  1  0.20135000  0.85752200  0.16242200  1
  Cu  Cu17  1  0.56170400  0.04385700  0.07590400  1
  Cu  Cu18  1  0.29385700  0.71795300  0.98215300  1
  Cu  Cu19  1  0.96795300  0.48580000  0.92409600  1
  Cu  Cu20  1  0.14247800  0.30490000  0.34382800  1
  Cu  Cu21  1  0.50243400  0.26901300  0.79370600  1
  Cu  Cu22  1  0.40695700  0.94161300  0.64293000  1
  Cu  Cu23  1  0.77469200  0.04127100  0.29370600  1
  Cu  Cu24  1  0.05838700  0.70131700  0.46534300  1
  Cu  Cu25  1  0.82905400  0.63883100  0.02415400  1
  Cu  Cu26  1  0.74756600  0.48098700  0.70629400  1
  Cu  Cu27  1  0.05490000  0.57905400  0.69022300  1
  Cu  Cu28  1  0.88883100  0.36467700  0.30977700  1
  Cu  Cu29  1  0.51420000  0.43829600  0.48215300  1
  Cu  Cu30  1  0.63532300  0.94510000  0.52415400  1
  Cu  Cu31  1  0.95131700  0.98597300  0.14293000  1
  Cu  Cu32  1  0.23597300  0.59304300  0.53465700  1
  Cu  Cu33  1  0.28892800  0.95135000  0.84382800  1
  Cu  Cu34  1  0.04865000  0.89247800  0.33757800  1
  Cu  Cu35  1  0.73098700  0.52469200  0.23342100  1
  Cu  Cu36  1  0.42094600  0.11116900  0.47584600  1
  Cu  Cu37  1  0.51901300  0.22530800  0.26657900  1
  Cu  Cu38  1  0.01402700  0.15695700  0.96534300  1
  Cu  Cu39  1  0.95614300  0.03204700  0.51784700  1
  Cu  Cu40  1  0.84304300  0.80838700  0.85707000  1
  Cu  Cu41  1  0.28204700  0.26420000  0.57590400  1
  Cu  Cu42  1  0.69510000  0.03892800  0.83757800  1
  Cu  Cu43  1  0.55490000  0.71107200  0.66242200  1
  Cu  Cu44  1  0.75000000  0.25000000  0.50000000  1
  Cu  Cu45  1  0.47530800  0.70872900  0.20629400  1
  Cu  Cu46  1  0.29127100  0.49756600  0.76657900  1
  Cu  Cu47  1  0.19510000  0.17094600  0.80977700  1
  Cu  Cu48  1  0.73580000  0.31170400  0.01784700  1
  Cu  Cu49  1  0.95872900  0.25243400  0.73342100  1
  Cu  Cu50  1  0.61467700  0.80490000  0.97584600  1
  Cu  Cu51  1  0.29868300  0.76402700  0.35707000  1
  Cu  Cu52  1  0.96107200  0.79865000  0.65617200  1
  Cu  Cu53  1  0.68829600  0.70614300  0.42409600  1
  Cu  Cu54  1  0.10752200  0.44510000  0.15617200  1
  Cu  Cu55  1  0.50000000  0.50000000  0.00000000  1
  Cu  Cu56  1  0.36116900  0.38532300  0.19022300  1
  Cu  Cu57  1  0.19161300  0.04868300  0.03465700  1
