# generated using pymatgen
data_Cu3Ni2C13
_symmetry_space_group_name_H-M   'P 1'
_cell_length_a   8.63126868
_cell_length_b   8.63126868
_cell_length_c   11.45370162
_cell_angle_alpha   86.79981323
_cell_angle_beta   86.79981323
_cell_angle_gamma   35.04946962
_symmetry_Int_Tables_number   1
_chemical_formula_structural   Cu3Ni2C13
_chemical_formula_sum   'Cu6 Ni4 C26'
_cell_volume   489.18821849
_cell_formula_units_Z   2
loop_
 _symmetry_equiv_pos_site_id
 _symmetry_equiv_pos_as_xyz
  1  'x, y, z'
loop_
 _atom_site_type_symbol
 _atom_site_label
 _atom_site_symmetry_multiplicity
 _atom_site_fract_x
 _atom_site_fract_y
 _atom_site_fract_z
 _atom_site_occupancy
  Ni  Ni0  1  0.81280600  0.27520200  0.03437400  1
  Ni  Ni1  1  0.27520200  0.81280600  0.53437400  1
  Ni  Ni2  1  0.72479800  0.18719400  0.46562600  1
  Ni  Ni3  1  0.18719400  0.72479800  0.96562600  1
  Cu  Cu4  1  0.38761300  0.91698000  0.79312900  1
  Cu  Cu5  1  0.91698000  0.38761300  0.29312900  1
  Cu  Cu6  1  0.50000000  0.00000000  0.50000000  1
  Cu  Cu7  1  0.08302000  0.61238700  0.70687100  1
  Cu  Cu8  1  0.61238700  0.08302000  0.20687100  1
  Cu  Cu9  1  0.00000000  0.50000000  0.00000000  1
  C  C10  1  0.20258600  0.79741400  0.25000000  1
  C  C11  1  0.79741400  0.20258600  0.75000000  1
  C  C12  1  0.46316400  0.83960400  0.10365000  1
  C  C13  1  0.83960400  0.46316400  0.60365000  1
  C  C14  1  0.53683600  0.16039600  0.89635000  1
  C  C15  1  0.16039600  0.53683600  0.39635000  1
  C  C16  1  0.84353200  0.84381000  0.89051900  1
  C  C17  1  0.29692200  0.42098900  0.52583500  1
  C  C18  1  0.00731900  0.07880600  0.84895300  1
  C  C19  1  0.92119400  0.99268100  0.65104700  1
  C  C20  1  0.34533500  0.51888700  0.31341900  1
  C  C21  1  0.70307800  0.57901100  0.47416500  1
  C  C22  1  0.65466500  0.48111300  0.68658100  1
  C  C23  1  0.42098900  0.29692200  0.02583500  1
  C  C24  1  0.57901100  0.70307800  0.97416500  1
  C  C25  1  0.15619000  0.15646800  0.60948100  1
  C  C26  1  0.07880600  0.00731900  0.34895300  1
  C  C27  1  0.76209700  0.69190800  0.66184500  1
  C  C28  1  0.15646800  0.15619000  0.10948100  1
  C  C29  1  0.84381000  0.84353200  0.39051900  1
  C  C30  1  0.48111300  0.65466500  0.18658100  1
  C  C31  1  0.30809200  0.23790300  0.83815500  1
  C  C32  1  0.69190800  0.76209700  0.16184500  1
  C  C33  1  0.99268100  0.92119400  0.15104700  1
  C  C34  1  0.51888700  0.34533500  0.81341900  1
  C  C35  1  0.23790300  0.30809200  0.33815500  1
