# generated using pymatgen
data_CuNiC10
_symmetry_space_group_name_H-M   'P 1'
_cell_length_a   7.53044134
_cell_length_b   7.53044134
_cell_length_c   7.59894660
_cell_angle_alpha   66.26646158
_cell_angle_beta   66.26646158
_cell_angle_gamma   92.76554452
_symmetry_Int_Tables_number   1
_chemical_formula_structural   CuNiC10
_chemical_formula_sum   'Cu2 Ni2 C20'
_cell_volume   349.56257274
_cell_formula_units_Z   2
loop_
 _symmetry_equiv_pos_site_id
 _symmetry_equiv_pos_as_xyz
  1  'x, y, z'
loop_
 _atom_site_type_symbol
 _atom_site_label
 _atom_site_symmetry_multiplicity
 _atom_site_fract_x
 _atom_site_fract_y
 _atom_site_fract_z
 _atom_site_occupancy
  Ni  Ni0  1  0.68897800  0.68897800  0.47342300  1
  Ni  Ni1  1  0.31102200  0.31102200  0.52657700  1
  Cu  Cu2  1  0.30109000  0.69891000  0.00000000  1
  Cu  Cu3  1  0.69891000  0.30109000  0.00000000  1
  C  C4  1  0.83764400  0.16235600  0.50000000  1
  C  C5  1  0.20403900  0.20403900  0.05665100  1
  C  C6  1  0.79596100  0.79596100  0.94334900  1
  C  C7  1  0.16235600  0.83764400  0.50000000  1
  C  C8  1  0.21785000  0.69041200  0.35395500  1
  C  C9  1  0.42607200  0.42607200  0.89230700  1
  C  C10  1  0.34666200  0.09356400  0.26053200  1
  C  C11  1  0.98365500  0.98365500  0.34420500  1
  C  C12  1  0.30958800  0.78215000  0.64604500  1
  C  C13  1  0.65333800  0.90643600  0.73946800  1
  C  C14  1  0.95964200  0.70460000  0.06468200  1
  C  C15  1  0.01634500  0.01634500  0.65579500  1
  C  C16  1  0.90643600  0.65333800  0.73946800  1
  C  C17  1  0.78215000  0.30958800  0.64604500  1
  C  C18  1  0.09356400  0.34666200  0.26053200  1
  C  C19  1  0.57392800  0.57392800  0.10769300  1
  C  C20  1  0.04035800  0.29540000  0.93531800  1
  C  C21  1  0.70460000  0.95964200  0.06468200  1
  C  C22  1  0.29540000  0.04035800  0.93531800  1
  C  C23  1  0.69041200  0.21785000  0.35395500  1
