# generated using pymatgen
data_Cu2Ni5
_symmetry_space_group_name_H-M   'P 1'
_cell_length_a   8.68477048
_cell_length_b   8.68477048
_cell_length_c   8.68477048
_cell_angle_alpha   137.91550487
_cell_angle_beta   129.16165766
_cell_angle_gamma   68.05800092
_symmetry_Int_Tables_number   1
_chemical_formula_structural   Cu2Ni5
_chemical_formula_sum   'Cu4 Ni10'
_cell_volume   334.67316018
_cell_formula_units_Z   2
loop_
 _symmetry_equiv_pos_site_id
 _symmetry_equiv_pos_as_xyz
  1  'x, y, z'
loop_
 _atom_site_type_symbol
 _atom_site_label
 _atom_site_symmetry_multiplicity
 _atom_site_fract_x
 _atom_site_fract_y
 _atom_site_fract_z
 _atom_site_occupancy
  Ni  Ni0  1  0.07492400  0.91548500  0.15943900  1
  Ni  Ni1  1  0.73420600  0.98420600  0.25000000  1
  Ni  Ni2  1  0.50000000  0.75000000  0.25000000  1
  Ni  Ni3  1  0.24395400  0.58451500  0.65943900  1
  Ni  Ni4  1  0.92507600  0.08451500  0.84056100  1
  Ni  Ni5  1  0.26579400  0.01579400  0.75000000  1
  Ni  Ni6  1  0.26579400  0.51579400  0.25000000  1
  Ni  Ni7  1  0.73420600  0.48420600  0.75000000  1
  Ni  Ni8  1  0.75604600  0.41548500  0.34056100  1
  Ni  Ni9  1  0.50000000  0.25000000  0.75000000  1
  Cu  Cu10  1  0.35709300  0.12293800  0.23415500  1
  Cu  Cu11  1  0.11121700  0.37706200  0.73415500  1
  Cu  Cu12  1  0.88878300  0.62293800  0.26584500  1
  Cu  Cu13  1  0.64290700  0.87706200  0.76584500  1
