# generated using pymatgen
data_Cu2NiC7
_symmetry_space_group_name_H-M   'P 1'
_cell_length_a   5.30419400
_cell_length_b   9.05167200
_cell_length_c   18.53401800
_cell_angle_alpha   90.00000000
_cell_angle_beta   90.00000000
_cell_angle_gamma   90.00000000
_symmetry_Int_Tables_number   1
_chemical_formula_structural   Cu2NiC7
_chemical_formula_sum   'Cu16 Ni8 C56'
_cell_volume   889.85201602
_cell_formula_units_Z   8
loop_
 _symmetry_equiv_pos_site_id
 _symmetry_equiv_pos_as_xyz
  1  'x, y, z'
loop_
 _atom_site_type_symbol
 _atom_site_label
 _atom_site_symmetry_multiplicity
 _atom_site_fract_x
 _atom_site_fract_y
 _atom_site_fract_z
 _atom_site_occupancy
  Ni  Ni0  1  0.61703300  0.15383000  0.37530800  1
  Ni  Ni1  1  0.38296700  0.84617000  0.62469200  1
  Ni  Ni2  1  0.61703300  0.65383000  0.12469200  1
  Ni  Ni3  1  0.11703300  0.84617000  0.12469200  1
  Ni  Ni4  1  0.88296700  0.15383000  0.87530800  1
  Ni  Ni5  1  0.38296700  0.34617000  0.87530800  1
  Ni  Ni6  1  0.11703300  0.34617000  0.37530800  1
  Ni  Ni7  1  0.88296700  0.65383000  0.62469200  1
  C  C8  1  0.37713000  0.98641400  0.87699100  1
  C  C9  1  0.62287000  0.01358600  0.12300900  1
  C  C10  1  0.87713000  0.01358600  0.62300900  1
  C  C11  1  0.12287000  0.98641400  0.37699100  1
  C  C12  1  0.37713000  0.48641400  0.62300900  1
  C  C13  1  0.62287000  0.51358600  0.37699100  1
  C  C14  1  0.87713000  0.51358600  0.87699100  1
  C  C15  1  0.12287000  0.48641400  0.12300900  1
  Cu  Cu16  1  0.56216300  0.66048800  0.77189300  1
  Cu  Cu17  1  0.71050500  0.83606300  0.47471300  1
  Cu  Cu18  1  0.78949500  0.83606300  0.97471300  1
  Cu  Cu19  1  0.93783700  0.16048800  0.22810700  1
  Cu  Cu20  1  0.06216300  0.33951200  0.72810700  1
  Cu  Cu21  1  0.43783700  0.83951200  0.27189300  1
  Cu  Cu22  1  0.21050500  0.66393700  0.47471300  1
  Cu  Cu23  1  0.71050500  0.33606300  0.02528700  1
  Cu  Cu24  1  0.78949500  0.33606300  0.52528700  1
  Cu  Cu25  1  0.93783700  0.66048800  0.27189300  1
  Cu  Cu26  1  0.43783700  0.33951200  0.22810700  1
  Cu  Cu27  1  0.56216300  0.16048800  0.72810700  1
  Cu  Cu28  1  0.28949500  0.16393700  0.52528700  1
  Cu  Cu29  1  0.06216300  0.83951200  0.77189300  1
  Cu  Cu30  1  0.28949500  0.66393700  0.97471300  1
  Cu  Cu31  1  0.21050500  0.16393700  0.02528700  1
  C  C32  1  0.93627900  0.50137200  0.31171500  1
  C  C33  1  0.29684700  0.01397400  0.06594200  1
  C  C34  1  0.06372100  0.49862800  0.68828500  1
  C  C35  1  0.70962700  0.33567500  0.93695400  1
  C  C36  1  0.20962700  0.16432500  0.93695400  1
  C  C37  1  0.91730400  0.20641000  0.05196200  1
  C  C38  1  0.94426700  0.66390100  0.18396400  1
  C  C39  1  0.05573300  0.83609900  0.68396400  1
  C  C40  1  0.70962700  0.83567500  0.56304600  1
  C  C41  1  0.94426700  0.16390100  0.31603600  1
  C  C42  1  0.43627900  0.49862800  0.18828500  1
  C  C43  1  0.79037300  0.33567500  0.43695400  1
  C  C44  1  0.70315300  0.98602600  0.93405800  1
  C  C45  1  0.44426700  0.83609900  0.18396400  1
  C  C46  1  0.56372100  0.00137200  0.68828500  1
  C  C47  1  0.29684700  0.51397400  0.43405800  1
  C  C48  1  0.43627900  0.99862800  0.31171500  1
  C  C49  1  0.16746800  0.76777900  0.30255000  1
  C  C50  1  0.33253200  0.76777900  0.80255000  1
  C  C51  1  0.58269600  0.70641000  0.94803800  1
  C  C52  1  0.79037300  0.83567500  0.06304600  1
  C  C53  1  0.55573300  0.66390100  0.68396400  1
  C  C54  1  0.79684700  0.48602600  0.06594200  1
  C  C55  1  0.16746800  0.26777900  0.19745000  1
  C  C56  1  0.29037300  0.16432500  0.43695400  1
  C  C57  1  0.55573300  0.16390100  0.81603600  1
  C  C58  1  0.70315300  0.48602600  0.56594200  1
  C  C59  1  0.20962700  0.66432500  0.56304600  1
  C  C60  1  0.20315300  0.51397400  0.93405800  1
  C  C61  1  0.66746800  0.73222100  0.30255000  1
  C  C62  1  0.06372100  0.99862800  0.81171500  1
  C  C63  1  0.83253200  0.73222100  0.80255000  1
  C  C64  1  0.83253200  0.23222100  0.69745000  1
  C  C65  1  0.79684700  0.98602600  0.43405800  1
  C  C66  1  0.29037300  0.66432500  0.06304600  1
  C  C67  1  0.20315300  0.01397400  0.56594200  1
  C  C68  1  0.33253200  0.26777900  0.69745000  1
  C  C69  1  0.08269600  0.79359000  0.94803800  1
  C  C70  1  0.41730400  0.79359000  0.44803800  1
  C  C71  1  0.66746800  0.23222100  0.19745000  1
  C  C72  1  0.41730400  0.29359000  0.05196200  1
  C  C73  1  0.58269600  0.20641000  0.55196200  1
  C  C74  1  0.08269600  0.29359000  0.55196200  1
  C  C75  1  0.44426700  0.33609900  0.31603600  1
  C  C76  1  0.56372100  0.50137200  0.81171500  1
  C  C77  1  0.91730400  0.70641000  0.44803800  1
  C  C78  1  0.05573300  0.33609900  0.81603600  1
  C  C79  1  0.93627900  0.00137200  0.18828500  1
