# generated using pymatgen
data_CuNiC14
_symmetry_space_group_name_H-M   'P 1'
_cell_length_a   15.46279100
_cell_length_b   7.45725200
_cell_length_c   9.47173816
_cell_angle_alpha   65.54981989
_cell_angle_beta   90.00000000
_cell_angle_gamma   90.00000000
_symmetry_Int_Tables_number   1
_chemical_formula_structural   CuNiC14
_chemical_formula_sum   'Cu4 Ni4 C56'
_cell_volume   994.23991514
_cell_formula_units_Z   4
loop_
 _symmetry_equiv_pos_site_id
 _symmetry_equiv_pos_as_xyz
  1  'x, y, z'
loop_
 _atom_site_type_symbol
 _atom_site_label
 _atom_site_symmetry_multiplicity
 _atom_site_fract_x
 _atom_site_fract_y
 _atom_site_fract_z
 _atom_site_occupancy
  C  C0  1  0.38847600  0.90048900  0.69256600  1
  C  C1  1  0.88847600  0.09951100  0.80743400  1
  C  C2  1  0.61152400  0.09951100  0.30743400  1
  C  C3  1  0.11152400  0.90048900  0.19256600  1
  C  C4  1  0.09174000  0.59958100  0.83333200  1
  C  C5  1  0.59174000  0.40041900  0.66666800  1
  C  C6  1  0.90826000  0.40041900  0.16666800  1
  C  C7  1  0.40826000  0.59958100  0.33333200  1
  C  C8  1  0.67622500  0.54335900  0.58260900  1
  C  C9  1  0.37594900  0.83245100  0.25796200  1
  C  C10  1  0.45286800  0.55410000  0.19179000  1
  C  C11  1  0.54713200  0.44590000  0.80821000  1
  C  C12  1  0.04713200  0.55410000  0.69179000  1
  C  C13  1  0.87594900  0.16754900  0.24203800  1
  C  C14  1  0.32377500  0.45664100  0.41739100  1
  C  C15  1  0.17622500  0.45664100  0.91739100  1
  C  C16  1  0.62405100  0.16754900  0.74203800  1
  C  C17  1  0.82377500  0.54335900  0.08260900  1
  C  C18  1  0.12405100  0.83245100  0.75796200  1
  C  C19  1  0.95286800  0.44590000  0.30821000  1
  Ni  Ni20  1  0.47960300  0.58345900  0.46142900  1
  Ni  Ni21  1  0.97960300  0.41654100  0.03857100  1
  Ni  Ni22  1  0.52039700  0.41654100  0.53857100  1
  Ni  Ni23  1  0.02039700  0.58345900  0.96142900  1
  Cu  Cu24  1  0.99888700  0.26857900  0.00728100  1
  Cu  Cu25  1  0.49888700  0.73142100  0.49271900  1
  Cu  Cu26  1  0.50111300  0.26857900  0.50728100  1
  Cu  Cu27  1  0.00111300  0.73142100  0.99271900  1
  C  C28  1  0.81933800  0.72113400  0.09352400  1
  C  C29  1  0.75473500  0.45433600  0.64162600  1
  C  C30  1  0.92217900  0.32102100  0.45364700  1
  C  C31  1  0.81440900  0.12614000  0.35726500  1
  C  C32  1  0.18066200  0.27886600  0.90647600  1
  C  C33  1  0.24526500  0.54566400  0.35837400  1
  C  C34  1  0.16252900  0.89085100  0.86416400  1
  C  C35  1  0.83747100  0.10914900  0.13583600  1
  C  C36  1  0.55859600  0.03494500  0.81094800  1
  C  C37  1  0.55878000  0.63054800  0.80316500  1
  C  C38  1  0.25473500  0.54566400  0.85837400  1
  C  C39  1  0.05859600  0.96505500  0.68905200  1
  C  C40  1  0.31992600  0.41157500  0.57420600  1
  C  C41  1  0.05878000  0.36945200  0.69683500  1
  C  C42  1  0.57782100  0.32102100  0.95364700  1
  C  C43  1  0.95879900  0.58439800  0.68390000  1
  C  C44  1  0.18007400  0.41157500  0.07420600  1
  C  C45  1  0.18559100  0.87386000  0.64273500  1
  C  C46  1  0.66252900  0.10914900  0.63583600  1
  C  C47  1  0.42217900  0.67897900  0.04635300  1
  C  C48  1  0.68066200  0.72113400  0.59352400  1
  C  C49  1  0.74526500  0.45433600  0.14162600  1
  C  C50  1  0.81992600  0.58842500  0.92579400  1
  C  C51  1  0.31933800  0.27886600  0.40647600  1
  C  C52  1  0.07782100  0.67897900  0.54635300  1
  C  C53  1  0.33747100  0.89085100  0.36416400  1
  C  C54  1  0.54120100  0.58439800  0.18390000  1
  C  C55  1  0.68007400  0.58842500  0.42579400  1
  C  C56  1  0.44122000  0.36945200  0.19683500  1
  C  C57  1  0.94122000  0.63054800  0.30316500  1
  C  C58  1  0.68559100  0.12614000  0.85726500  1
  C  C59  1  0.04120100  0.41560200  0.31610000  1
  C  C60  1  0.94140400  0.03494500  0.31094800  1
  C  C61  1  0.44140400  0.96505500  0.18905200  1
  C  C62  1  0.45879900  0.41560200  0.81610000  1
  C  C63  1  0.31440900  0.87386000  0.14273500  1
