# generated using pymatgen
data_Cu8Ni3C38
_symmetry_space_group_name_H-M   'P 1'
_cell_length_a   9.78115327
_cell_length_b   9.78115327
_cell_length_c   13.74601400
_cell_angle_alpha   90.00000000
_cell_angle_beta   90.00000000
_cell_angle_gamma   119.99999507
_symmetry_Int_Tables_number   1
_chemical_formula_structural   Cu8Ni3C38
_chemical_formula_sum   'Cu16 Ni6 C76'
_cell_volume   1138.90516859
_cell_formula_units_Z   2
loop_
 _symmetry_equiv_pos_site_id
 _symmetry_equiv_pos_as_xyz
  1  'x, y, z'
loop_
 _atom_site_type_symbol
 _atom_site_label
 _atom_site_symmetry_multiplicity
 _atom_site_fract_x
 _atom_site_fract_y
 _atom_site_fract_z
 _atom_site_occupancy
  C  C0  1  0.23504000  0.89818000  0.43654500  1
  C  C1  1  0.89818000  0.66314000  0.56345500  1
  C  C2  1  0.10182000  0.76496000  0.93654500  1
  C  C3  1  0.76496000  0.10182000  0.56345500  1
  C  C4  1  0.33333300  0.66666700  0.61971400  1
  C  C5  1  0.76496000  0.66314000  0.06345500  1
  C  C6  1  0.23504000  0.33686000  0.93654500  1
  C  C7  1  0.33686000  0.23504000  0.56345500  1
  C  C8  1  0.66666700  0.33333300  0.88028600  1
  C  C9  1  0.33686000  0.10182000  0.06345500  1
  C  C10  1  0.00000000  0.00000000  0.50000000  1
  C  C11  1  0.89818000  0.23504000  0.06345500  1
  C  C12  1  0.66666700  0.33333300  0.38028600  1
  C  C13  1  0.66314000  0.76496000  0.43654500  1
  C  C14  1  0.66314000  0.89818000  0.93654500  1
  C  C15  1  0.10182000  0.33686000  0.43654500  1
  C  C16  1  0.33333300  0.66666700  0.11971400  1
  C  C17  1  0.00000000  0.00000000  0.00000000  1
  Ni  Ni18  1  0.00000000  0.56509200  0.75000000  1
  Ni  Ni19  1  0.43490800  0.43490800  0.75000000  1
  Ni  Ni20  1  0.56509200  0.00000000  0.75000000  1
  Ni  Ni21  1  0.43490800  0.00000000  0.25000000  1
  Ni  Ni22  1  0.00000000  0.43490800  0.25000000  1
  Ni  Ni23  1  0.56509200  0.56509200  0.25000000  1
  Cu  Cu24  1  0.66666700  0.33333300  0.12536200  1
  Cu  Cu25  1  0.77351500  0.68193400  0.84365000  1
  Cu  Cu26  1  0.68193400  0.77351500  0.65635000  1
  Cu  Cu27  1  0.66666700  0.33333300  0.62536200  1
  Cu  Cu28  1  0.31806600  0.09158100  0.84365000  1
  Cu  Cu29  1  0.22648500  0.90841900  0.65635000  1
  Cu  Cu30  1  0.77351500  0.09158100  0.34365000  1
  Cu  Cu31  1  0.33333300  0.66666700  0.37463800  1
  Cu  Cu32  1  0.90841900  0.22648500  0.84365000  1
  Cu  Cu33  1  0.09158100  0.31806600  0.65635000  1
  Cu  Cu34  1  0.33333300  0.66666700  0.87463800  1
  Cu  Cu35  1  0.09158100  0.77351500  0.15635000  1
  Cu  Cu36  1  0.68193400  0.90841900  0.15635000  1
  Cu  Cu37  1  0.22648500  0.31806600  0.15635000  1
  Cu  Cu38  1  0.90841900  0.68193400  0.34365000  1
  Cu  Cu39  1  0.31806600  0.22648500  0.34365000  1
  C  C40  1  0.00000000  0.78662800  0.25000000  1
  C  C41  1  0.81264200  0.32433200  0.16352100  1
  C  C42  1  0.51168900  0.18735800  0.16352100  1
  C  C43  1  0.62662000  0.10956900  0.33285100  1
  C  C44  1  0.51168900  0.32433200  0.66352100  1
  C  C45  1  0.48831100  0.81264200  0.83647900  1
  C  C46  1  0.22686400  0.99952700  0.93321100  1
  C  C47  1  0.89043100  0.51705100  0.33285100  1
  C  C48  1  0.78662800  0.78662800  0.75000000  1
  C  C49  1  0.25474000  0.33149600  0.65663400  1
  C  C50  1  0.10956900  0.62662000  0.16714900  1
  C  C51  1  0.33149600  0.25474000  0.84336600  1
  C  C52  1  0.67566800  0.18735800  0.66352100  1
  C  C53  1  0.18735800  0.67566800  0.83647900  1
  C  C54  1  0.18735800  0.51168900  0.33647900  1
  C  C55  1  0.37338000  0.89043100  0.66714900  1
  C  C56  1  0.92324400  0.25474000  0.34336600  1
  C  C57  1  0.78662800  0.00000000  0.25000000  1
  C  C58  1  0.22733700  0.00047300  0.56678900  1
  C  C59  1  0.66666700  0.33333300  0.51510100  1
  C  C60  1  0.10956900  0.48294900  0.66714900  1
  C  C61  1  0.21337200  0.00000000  0.75000000  1
  C  C62  1  0.67566800  0.48831100  0.16352100  1
  C  C63  1  0.33149600  0.07675600  0.34336600  1
  C  C64  1  0.51705100  0.89043100  0.16714900  1
  C  C65  1  0.99952700  0.22686400  0.56678900  1
  C  C66  1  0.00000000  0.21337200  0.75000000  1
  C  C67  1  0.33333300  0.66666700  0.48489900  1
  C  C68  1  0.22733700  0.22686400  0.06678900  1
  C  C69  1  0.77313600  0.00047300  0.06678900  1
  C  C70  1  0.48831100  0.67566800  0.33647900  1
  C  C71  1  0.62662000  0.51705100  0.83285100  1
  C  C72  1  0.77266300  0.99952700  0.43321100  1
  C  C73  1  0.66850400  0.74526000  0.15663400  1
  C  C74  1  0.99952700  0.77266300  0.06678900  1
  C  C75  1  0.77266300  0.77313600  0.93321100  1
  C  C76  1  0.48294900  0.10956900  0.83285100  1
  C  C77  1  0.32433200  0.51168900  0.83647900  1
  C  C78  1  0.51705100  0.62662000  0.66714900  1
  C  C79  1  0.74526000  0.66850400  0.34336600  1
  C  C80  1  0.66850400  0.92324400  0.65663400  1
  C  C81  1  0.25474000  0.92324400  0.15663400  1
  C  C82  1  0.00047300  0.77313600  0.43321100  1
  C  C83  1  0.32433200  0.81264200  0.33647900  1
  C  C84  1  0.81264200  0.48831100  0.66352100  1
  C  C85  1  0.92324400  0.66850400  0.84336600  1
  C  C86  1  0.37338000  0.48294900  0.16714900  1
  C  C87  1  0.66666700  0.33333300  0.01510100  1
  C  C88  1  0.07675600  0.33149600  0.15663400  1
  C  C89  1  0.07675600  0.74526000  0.65663400  1
  C  C90  1  0.48294900  0.37338000  0.33285100  1
  C  C91  1  0.77313600  0.77266300  0.56678900  1
  C  C92  1  0.33333300  0.66666700  0.98489900  1
  C  C93  1  0.89043100  0.37338000  0.83285100  1
  C  C94  1  0.22686400  0.22733700  0.43321100  1
  C  C95  1  0.00047300  0.22733700  0.93321100  1
  C  C96  1  0.74526000  0.07675600  0.84336600  1
  C  C97  1  0.21337200  0.21337200  0.25000000  1
