# generated using pymatgen
data_Cu3Ni13C10
_symmetry_space_group_name_H-M   'P 1'
_cell_length_a   7.95007000
_cell_length_b   14.52291400
_cell_length_c   24.58028300
_cell_angle_alpha   90.00000000
_cell_angle_beta   90.00000000
_cell_angle_gamma   90.00000000
_symmetry_Int_Tables_number   1
_chemical_formula_structural   Cu3Ni13C10
_chemical_formula_sum   'Cu12 Ni52 C40'
_cell_volume   2837.99481045
_cell_formula_units_Z   4
loop_
 _symmetry_equiv_pos_site_id
 _symmetry_equiv_pos_as_xyz
  1  'x, y, z'
loop_
 _atom_site_type_symbol
 _atom_site_label
 _atom_site_symmetry_multiplicity
 _atom_site_fract_x
 _atom_site_fract_y
 _atom_site_fract_z
 _atom_site_occupancy
  C  C0  1  0.60700400  0.25000000  0.44955900  1
  C  C1  1  0.76173400  0.75000000  0.84353800  1
  C  C2  1  0.40315900  0.91760400  0.72527300  1
  C  C3  1  0.90315900  0.41760400  0.77472700  1
  C  C4  1  0.59684100  0.08239600  0.27472700  1
  C  C5  1  0.76717800  0.98410900  0.58272700  1
  C  C6  1  0.76717800  0.51589100  0.58272700  1
  C  C7  1  0.26173400  0.25000000  0.65646200  1
  C  C8  1  0.39299600  0.75000000  0.55044100  1
  C  C9  1  0.73826600  0.75000000  0.34353800  1
  C  C10  1  0.23282200  0.01589100  0.41727300  1
  C  C11  1  0.09684100  0.58239600  0.22527300  1
  C  C12  1  0.73282200  0.98410900  0.08272700  1
  C  C13  1  0.10700400  0.75000000  0.05044100  1
  C  C14  1  0.26717800  0.48410900  0.91727300  1
  C  C15  1  0.23826600  0.25000000  0.15646200  1
  C  C16  1  0.09684100  0.91760400  0.22527300  1
  C  C17  1  0.90315900  0.08239600  0.77472700  1
  C  C18  1  0.40315900  0.58239600  0.72527300  1
  C  C19  1  0.23282200  0.48410900  0.41727300  1
  C  C20  1  0.89299600  0.25000000  0.94955900  1
  C  C21  1  0.26717800  0.01589100  0.91727300  1
  C  C22  1  0.73282200  0.51589100  0.08272700  1
  C  C23  1  0.59684100  0.41760400  0.27472700  1
  C  C24  1  0.78425800  0.49613000  0.91621500  1
  C  C25  1  0.10297000  0.25000000  0.32992000  1
  C  C26  1  0.72132100  0.25000000  0.16401000  1
  C  C27  1  0.21574200  0.99613000  0.08378500  1
  C  C28  1  0.60297000  0.75000000  0.17008000  1
  C  C29  1  0.89703000  0.75000000  0.67008000  1
  C  C30  1  0.39703000  0.25000000  0.82992000  1
  C  C31  1  0.22132100  0.75000000  0.33599000  1
  C  C32  1  0.28425800  0.99613000  0.58378500  1
  C  C33  1  0.21574200  0.50387000  0.08378500  1
  C  C34  1  0.78425800  0.00387000  0.91621500  1
  C  C35  1  0.71574200  0.49613000  0.41621500  1
  C  C36  1  0.71574200  0.00387000  0.41621500  1
  C  C37  1  0.77867900  0.25000000  0.66401000  1
  C  C38  1  0.27867900  0.75000000  0.83599000  1
  C  C39  1  0.28425800  0.50387000  0.58378500  1
  Ni  Ni40  1  0.12124600  0.04125900  0.65718600  1
  Ni  Ni41  1  0.10240200  0.75000000  0.41927800  1
  Ni  Ni42  1  0.38050200  0.61789800  0.32098200  1
  Ni  Ni43  1  0.62124600  0.95874100  0.84281400  1
  Ni  Ni44  1  0.70596000  0.75000000  0.08379100  1
  Ni  Ni45  1  0.37771300  0.59106800  0.02716700  1
  Ni  Ni46  1  0.09437500  0.38377200  0.03790300  1
  Ni  Ni47  1  0.37771300  0.90893200  0.02716700  1
  Ni  Ni48  1  0.59437500  0.61622800  0.46209700  1
  Ni  Ni49  1  0.88050200  0.38210200  0.17901800  1
  Ni  Ni50  1  0.38050200  0.88210200  0.32098200  1
  Ni  Ni51  1  0.40562500  0.11622800  0.53790300  1
  Ni  Ni52  1  0.81245700  0.25000000  0.33160800  1
  Ni  Ni53  1  0.29404000  0.25000000  0.91620900  1
  Ni  Ni54  1  0.87771300  0.40893200  0.47283300  1
  Ni  Ni55  1  0.29742800  0.12031200  0.78755600  1
  Ni  Ni56  1  0.12124600  0.45874100  0.65718600  1
  Ni  Ni57  1  0.20257200  0.12031200  0.28755600  1
  Ni  Ni58  1  0.11949800  0.88210200  0.82098200  1
  Ni  Ni59  1  0.62228700  0.40893200  0.97283300  1
  Ni  Ni60  1  0.61949800  0.38210200  0.67901800  1
  Ni  Ni61  1  0.20596000  0.25000000  0.41620900  1
  Ni  Ni62  1  0.18754300  0.75000000  0.66839200  1
  Ni  Ni63  1  0.11949800  0.61789800  0.82098200  1
  Ni  Ni64  1  0.39759800  0.75000000  0.91927800  1
  Ni  Ni65  1  0.90562500  0.61622800  0.96209700  1
  Ni  Ni66  1  0.89759800  0.25000000  0.58072200  1
  Ni  Ni67  1  0.70257200  0.62031200  0.21244400  1
  Ni  Ni68  1  0.12228700  0.59106800  0.52716700  1
  Ni  Ni69  1  0.12228700  0.90893200  0.52716700  1
  Ni  Ni70  1  0.37875400  0.45874100  0.15718600  1
  Ni  Ni71  1  0.87771300  0.09106800  0.47283300  1
  Ni  Ni72  1  0.88050200  0.11789800  0.17901800  1
  Ni  Ni73  1  0.79404000  0.75000000  0.58379100  1
  Ni  Ni74  1  0.90562500  0.88377200  0.96209700  1
  Ni  Ni75  1  0.59437500  0.88377200  0.46209700  1
  Ni  Ni76  1  0.68754300  0.25000000  0.83160800  1
  Ni  Ni77  1  0.09437500  0.11622800  0.03790300  1
  Ni  Ni78  1  0.20257200  0.37968800  0.28755600  1
  Ni  Ni79  1  0.40562500  0.38377200  0.53790300  1
  Ni  Ni80  1  0.37875400  0.04125900  0.15718600  1
  Ni  Ni81  1  0.79742800  0.62031200  0.71244400  1
  Ni  Ni82  1  0.61949800  0.11789800  0.67901800  1
  Ni  Ni83  1  0.60240200  0.25000000  0.08072200  1
  Ni  Ni84  1  0.62228700  0.09106800  0.97283300  1
  Ni  Ni85  1  0.87875400  0.54125900  0.34281400  1
  Ni  Ni86  1  0.70257200  0.87968800  0.21244400  1
  Ni  Ni87  1  0.31245700  0.75000000  0.16839200  1
  Ni  Ni88  1  0.29742800  0.37968800  0.78755600  1
  Ni  Ni89  1  0.87875400  0.95874100  0.34281400  1
  Ni  Ni90  1  0.62124600  0.54125900  0.84281400  1
  Ni  Ni91  1  0.79742800  0.87968800  0.71244400  1
  Cu  Cu92  1  0.54723700  0.25000000  0.21414800  1
  Cu  Cu93  1  0.45196300  0.58128800  0.60929800  1
  Cu  Cu94  1  0.45276300  0.75000000  0.78585200  1
  Cu  Cu95  1  0.45196300  0.91871200  0.60929800  1
  Cu  Cu96  1  0.54803700  0.41871200  0.39070200  1
  Cu  Cu97  1  0.04803700  0.58128800  0.10929800  1
  Cu  Cu98  1  0.95196300  0.08128800  0.89070200  1
  Cu  Cu99  1  0.04723700  0.75000000  0.28585200  1
  Cu  Cu100  1  0.95196300  0.41871200  0.89070200  1
  Cu  Cu101  1  0.04803700  0.91871200  0.10929800  1
  Cu  Cu102  1  0.95276300  0.25000000  0.71414800  1
  Cu  Cu103  1  0.54803700  0.08128800  0.39070200  1
