# generated using pymatgen
data_CuNi2C3
_symmetry_space_group_name_H-M   'P 1'
_cell_length_a   3.85269000
_cell_length_b   3.85269000
_cell_length_c   5.81412069
_cell_angle_alpha   109.34902373
_cell_angle_beta   109.34902373
_cell_angle_gamma   90.00000000
_symmetry_Int_Tables_number   1
_chemical_formula_structural   CuNi2C3
_chemical_formula_sum   'Cu1 Ni2 C3'
_cell_volume   76.24040471
_cell_formula_units_Z   1
loop_
 _symmetry_equiv_pos_site_id
 _symmetry_equiv_pos_as_xyz
  1  'x, y, z'
loop_
 _atom_site_type_symbol
 _atom_site_label
 _atom_site_symmetry_multiplicity
 _atom_site_fract_x
 _atom_site_fract_y
 _atom_site_fract_z
 _atom_site_occupancy
  C  C0  1  0.00000000  0.00000000  0.00000000  1
  Ni  Ni1  1  0.64575200  0.64575200  0.29150400  1
  Ni  Ni2  1  0.35424800  0.35424800  0.70849600  1
  C  C3  1  0.75000000  0.25000000  0.50000000  1
  C  C4  1  0.25000000  0.75000000  0.50000000  1
  Cu  Cu5  1  0.50000000  0.50000000  0.00000000  1
