# generated using pymatgen
data_Cu(NiC4)5
_symmetry_space_group_name_H-M   'P 1'
_cell_length_a   10.05847759
_cell_length_b   10.05847759
_cell_length_c   10.05847759
_cell_angle_alpha   109.43631699
_cell_angle_beta   109.43631699
_cell_angle_gamma   109.54105050
_symmetry_Int_Tables_number   1
_chemical_formula_structural   Cu(NiC4)5
_chemical_formula_sum   'Cu2 Ni10 C40'
_cell_volume   783.38343416
_cell_formula_units_Z   2
loop_
 _symmetry_equiv_pos_site_id
 _symmetry_equiv_pos_as_xyz
  1  'x, y, z'
loop_
 _atom_site_type_symbol
 _atom_site_label
 _atom_site_symmetry_multiplicity
 _atom_site_fract_x
 _atom_site_fract_y
 _atom_site_fract_z
 _atom_site_occupancy
  Ni  Ni0  1  0.40397600  0.07828000  0.91725500  1
  Ni  Ni1  1  0.84602400  0.67172000  0.58274500  1
  Ni  Ni2  1  0.25000000  0.75000000  0.50000000  1
  Ni  Ni3  1  0.51327900  0.59602400  0.67430400  1
  Ni  Ni4  1  0.73672100  0.15397600  0.82569600  1
  Ni  Ni5  1  0.16102500  0.48672100  0.08274500  1
  Ni  Ni6  1  0.32828000  0.91102500  0.17430400  1
  Ni  Ni7  1  0.08897500  0.26327900  0.41725500  1
  Ni  Ni8  1  0.92172000  0.83897500  0.32569600  1
  Ni  Ni9  1  0.00000000  0.00000000  0.00000000  1
  Cu  Cu10  1  0.50000000  0.50000000  0.00000000  1
  Cu  Cu11  1  0.75000000  0.25000000  0.50000000  1
  C  C12  1  0.41653500  0.33001300  0.27446100  1
  C  C13  1  0.66998700  0.94444800  0.08652200  1
  C  C14  1  0.83346500  0.41998700  0.22553900  1
  C  C15  1  0.85792500  0.58346500  0.91347800  1
  C  C16  1  0.19444800  0.60792500  0.77446100  1
  C  C17  1  0.05555200  0.14207500  0.72553900  1
  C  C18  1  0.39207500  0.16653500  0.58652200  1
  C  C19  1  0.58001300  0.80555200  0.41347800  1
  C  C20  1  0.32055700  0.36001200  0.39249500  1
  C  C21  1  0.97608600  0.52639900  0.67223400  1
  C  C22  1  0.95285900  0.63077300  0.38170000  1
  C  C23  1  0.25837400  0.52369700  0.90350100  1
  C  C24  1  0.36922700  0.75092700  0.32208600  1
  C  C25  1  0.29714100  0.11922700  0.11830000  1
  C  C26  1  0.64512600  0.74162600  0.26532200  1
  C  C27  1  0.92944300  0.38998800  0.10750500  1
  C  C28  1  0.27391400  0.22360100  0.82776600  1
  C  C29  1  0.62019600  0.35487400  0.09649900  1
  C  C30  1  0.47630300  0.37980400  0.73467800  1
  C  C31  1  0.77369700  0.37019600  0.76532200  1
  C  C32  1  0.99162600  0.22630300  0.59649900  1
  C  C33  1  0.62980400  0.39512600  0.40350100  1
  C  C34  1  0.69614800  0.02391400  0.55031300  1
  C  C35  1  0.82115900  0.70285900  0.82208600  1
  C  C36  1  0.61001200  0.71751700  0.53945500  1
  C  C37  1  0.47360100  0.14583500  0.44968700  1
  C  C38  1  0.77639900  0.60416500  0.05031300  1
  C  C39  1  0.39583500  0.44614800  0.17223400  1
  C  C40  1  0.42884100  0.04714100  0.67791400  1
  C  C41  1  0.17806200  0.07055700  0.46054500  1
  C  C42  1  0.88077300  0.99907300  0.17791400  1
  C  C43  1  0.55385200  0.72608600  0.94968700  1
  C  C44  1  0.00092700  0.17884100  0.88170000  1
  C  C45  1  0.07193800  0.67944300  0.03945500  1
  C  C46  1  0.60487400  0.00837400  0.23467800  1
  C  C47  1  0.28248300  0.82193800  0.89249500  1
  C  C48  1  0.96751700  0.92806200  0.60750500  1
  C  C49  1  0.63998800  0.03248300  0.96054500  1
  C  C50  1  0.24907300  0.57115900  0.61830000  1
  C  C51  1  0.85416500  0.30385200  0.32776600  1
