# generated using pymatgen
data_Cu9Ni2C7
_symmetry_space_group_name_H-M   'P 1'
_cell_length_a   5.93661577
_cell_length_b   5.93661577
_cell_length_c   25.92824800
_cell_angle_alpha   90.00000000
_cell_angle_beta   90.00000000
_cell_angle_gamma   119.99999741
_symmetry_Int_Tables_number   1
_chemical_formula_structural   Cu9Ni2C7
_chemical_formula_sum   'Cu18 Ni4 C14'
_cell_volume   791.37385374
_cell_formula_units_Z   2
loop_
 _symmetry_equiv_pos_site_id
 _symmetry_equiv_pos_as_xyz
  1  'x, y, z'
loop_
 _atom_site_type_symbol
 _atom_site_label
 _atom_site_symmetry_multiplicity
 _atom_site_fract_x
 _atom_site_fract_y
 _atom_site_fract_z
 _atom_site_occupancy
  C  C0  1  0.33333300  0.66666700  0.91370600  1
  C  C1  1  0.66666700  0.33333300  0.41370600  1
  C  C2  1  0.66666700  0.33333300  0.08629400  1
  C  C3  1  0.33333300  0.66666700  0.17350700  1
  C  C4  1  0.66666700  0.33333300  0.67350700  1
  C  C5  1  0.33333300  0.66666700  0.32649300  1
  C  C6  1  0.66666700  0.33333300  0.82649300  1
  C  C7  1  0.66666700  0.33333300  0.25000000  1
  C  C8  1  0.33333300  0.66666700  0.58629400  1
  C  C9  1  0.33333300  0.66666700  0.75000000  1
  C  C10  1  0.00000000  0.00000000  0.80511900  1
  C  C11  1  0.00000000  0.00000000  0.30511900  1
  C  C12  1  0.00000000  0.00000000  0.69488100  1
  C  C13  1  0.00000000  0.00000000  0.19488100  1
  Ni  Ni14  1  0.33333300  0.66666700  0.45401900  1
  Ni  Ni15  1  0.33333300  0.66666700  0.04598100  1
  Ni  Ni16  1  0.66666700  0.33333300  0.54598100  1
  Ni  Ni17  1  0.66666700  0.33333300  0.95401900  1
  Cu  Cu18  1  0.15984600  0.84015400  0.65794600  1
  Cu  Cu19  1  0.68030900  0.84015400  0.84205400  1
  Cu  Cu20  1  0.15984600  0.31969100  0.65794600  1
  Cu  Cu21  1  0.84905900  0.15094100  0.75000000  1
  Cu  Cu22  1  0.30188200  0.15094100  0.75000000  1
  Cu  Cu23  1  0.15094100  0.30188200  0.25000000  1
  Cu  Cu24  1  0.15094100  0.84905900  0.25000000  1
  Cu  Cu25  1  0.69811800  0.84905900  0.25000000  1
  Cu  Cu26  1  0.84015400  0.15984600  0.34205400  1
  Cu  Cu27  1  0.31969100  0.15984600  0.15794600  1
  Cu  Cu28  1  0.84905900  0.69811800  0.75000000  1
  Cu  Cu29  1  0.84015400  0.68030900  0.15794600  1
  Cu  Cu30  1  0.31969100  0.15984600  0.34205400  1
  Cu  Cu31  1  0.84015400  0.15984600  0.15794600  1
  Cu  Cu32  1  0.15984600  0.31969100  0.84205400  1
  Cu  Cu33  1  0.84015400  0.68030900  0.34205400  1
  Cu  Cu34  1  0.68030900  0.84015400  0.65794600  1
  Cu  Cu35  1  0.15984600  0.84015400  0.84205400  1
