# generated using pymatgen
data_Cu8NiC18
_symmetry_space_group_name_H-M   'P 1'
_cell_length_a   8.46693900
_cell_length_b   6.29770500
_cell_length_c   10.28877229
_cell_angle_alpha   89.56444023
_cell_angle_beta   90.00000000
_cell_angle_gamma   90.00000000
_symmetry_Int_Tables_number   1
_chemical_formula_structural   Cu8NiC18
_chemical_formula_sum   'Cu16 Ni2 C36'
_cell_volume   548.60498665
_cell_formula_units_Z   2
loop_
 _symmetry_equiv_pos_site_id
 _symmetry_equiv_pos_as_xyz
  1  'x, y, z'
loop_
 _atom_site_type_symbol
 _atom_site_label
 _atom_site_symmetry_multiplicity
 _atom_site_fract_x
 _atom_site_fract_y
 _atom_site_fract_z
 _atom_site_occupancy
  C  C0  1  0.01099600  0.49267100  0.81794500  1
  C  C1  1  0.51099600  0.00732900  0.18205500  1
  C  C2  1  0.48900400  0.99267100  0.81794500  1
  C  C3  1  0.98900400  0.50732900  0.18205500  1
  Ni  Ni4  1  0.50000000  0.00000000  0.50000000  1
  Ni  Ni5  1  0.00000000  0.50000000  0.50000000  1
  Cu  Cu6  1  0.00560300  0.99185800  0.80622900  1
  Cu  Cu7  1  0.80668300  0.87847700  0.62910600  1
  Cu  Cu8  1  0.68145000  0.61043500  0.99929700  1
  Cu  Cu9  1  0.49439700  0.49185800  0.80622900  1
  Cu  Cu10  1  0.81855000  0.11043500  0.99929700  1
  Cu  Cu11  1  0.30668300  0.62152300  0.37089400  1
  Cu  Cu12  1  0.68877400  0.38630700  0.38469600  1
  Cu  Cu13  1  0.31122600  0.61369300  0.61530400  1
  Cu  Cu14  1  0.99439700  0.00814200  0.19377100  1
  Cu  Cu15  1  0.50560300  0.50814200  0.19377100  1
  Cu  Cu16  1  0.69331700  0.37847700  0.62910600  1
  Cu  Cu17  1  0.81122600  0.88630700  0.38469600  1
  Cu  Cu18  1  0.31855000  0.38956500  0.00070300  1
  Cu  Cu19  1  0.18877400  0.11369300  0.61530400  1
  Cu  Cu20  1  0.18145000  0.88956500  0.00070300  1
  Cu  Cu21  1  0.19331700  0.12152300  0.37089400  1
  C  C22  1  0.65928400  0.94388100  0.36517500  1
  C  C23  1  0.40399900  0.65866400  0.26271100  1
  C  C24  1  0.62464000  0.34958300  0.50739100  1
  C  C25  1  0.61776900  0.65138400  0.12337700  1
  C  C26  1  0.09600100  0.15866400  0.26271100  1
  C  C27  1  0.91986500  0.13839800  0.89345400  1
  C  C28  1  0.59600100  0.34133600  0.73728900  1
  C  C29  1  0.15928400  0.55611900  0.63482500  1
  C  C30  1  0.83541300  0.55689200  0.98834700  1
  C  C31  1  0.65470200  0.93714800  0.64455300  1
  C  C32  1  0.38223100  0.34861600  0.87662300  1
  C  C33  1  0.34529800  0.06285200  0.35544700  1
  C  C34  1  0.34071600  0.05611900  0.63482500  1
  C  C35  1  0.41986500  0.36160200  0.10654600  1
  C  C36  1  0.58856100  0.35529300  0.27873600  1
  C  C37  1  0.87536000  0.84958300  0.50739100  1
  C  C38  1  0.11776900  0.84861600  0.87662300  1
  C  C39  1  0.08856100  0.14470700  0.72126400  1
  C  C40  1  0.15470200  0.56285200  0.35544700  1
  C  C41  1  0.37536000  0.65041700  0.49260900  1
  C  C42  1  0.12464000  0.15041700  0.49260900  1
  C  C43  1  0.84529800  0.43714800  0.64455300  1
  C  C44  1  0.84071600  0.44388100  0.36517500  1
  C  C45  1  0.41143900  0.64470700  0.72126400  1
  C  C46  1  0.58013500  0.63839800  0.89345400  1
  C  C47  1  0.16458700  0.44310800  0.01165300  1
  C  C48  1  0.08013500  0.86160200  0.10654600  1
  C  C49  1  0.33541300  0.94310800  0.01165300  1
  C  C50  1  0.88223100  0.15138400  0.12337700  1
  C  C51  1  0.66458700  0.05689200  0.98834700  1
  C  C52  1  0.91143900  0.85529300  0.27873600  1
  C  C53  1  0.90399900  0.84133600  0.73728900  1
