# generated using pymatgen
data_Cu3(NiC4)2
_symmetry_space_group_name_H-M   'P 1'
_cell_length_a   6.31316675
_cell_length_b   6.31316675
_cell_length_c   9.42398800
_cell_angle_alpha   90.00000000
_cell_angle_beta   90.00000000
_cell_angle_gamma   120.00000786
_symmetry_Int_Tables_number   1
_chemical_formula_structural   Cu3(NiC4)2
_chemical_formula_sum   'Cu6 Ni4 C16'
_cell_volume   325.28185858
_cell_formula_units_Z   2
loop_
 _symmetry_equiv_pos_site_id
 _symmetry_equiv_pos_as_xyz
  1  'x, y, z'
loop_
 _atom_site_type_symbol
 _atom_site_label
 _atom_site_symmetry_multiplicity
 _atom_site_fract_x
 _atom_site_fract_y
 _atom_site_fract_z
 _atom_site_occupancy
  Ni  Ni0  1  0.33333300  0.66666700  0.91732700  1
  Ni  Ni1  1  0.66666700  0.33333300  0.41732700  1
  Ni  Ni2  1  0.33333300  0.66666700  0.54088100  1
  Ni  Ni3  1  0.66666700  0.33333300  0.04088100  1
  Cu  Cu4  1  0.16471100  0.32942200  0.24591400  1
  Cu  Cu5  1  0.83528900  0.16471100  0.74591400  1
  Cu  Cu6  1  0.32942200  0.16471100  0.74591400  1
  Cu  Cu7  1  0.67057800  0.83528900  0.24591400  1
  Cu  Cu8  1  0.16471100  0.83528900  0.24591400  1
  Cu  Cu9  1  0.83528900  0.67057800  0.74591400  1
  C  C10  1  0.82484800  0.64969600  0.14277500  1
  C  C11  1  0.17515200  0.82484800  0.64277500  1
  C  C12  1  0.64969600  0.82484800  0.64277500  1
  C  C13  1  0.35030400  0.17515200  0.14277500  1
  C  C14  1  0.82484800  0.17515200  0.14277500  1
  C  C15  1  0.17515200  0.35030400  0.64277500  1
  C  C16  1  0.51192800  0.02385700  0.88438900  1
  C  C17  1  0.48807200  0.51192800  0.38438900  1
  C  C18  1  0.02385700  0.51192800  0.38438900  1
  C  C19  1  0.97614300  0.48807200  0.88438900  1
  C  C20  1  0.00000000  0.00000000  0.35292300  1
  C  C21  1  0.00000000  0.00000000  0.85292300  1
  C  C22  1  0.33333300  0.66666700  0.12203400  1
  C  C23  1  0.51192800  0.48807200  0.88438900  1
  C  C24  1  0.48807200  0.97614300  0.38438900  1
  C  C25  1  0.66666700  0.33333300  0.62203400  1
