# generated using pymatgen
data_Cu3NiC
_symmetry_space_group_name_H-M   'P 1'
_cell_length_a   14.95890600
_cell_length_b   4.23187900
_cell_length_c   16.62162559
_cell_angle_alpha   87.28020478
_cell_angle_beta   90.00000000
_cell_angle_gamma   90.00000000
_symmetry_Int_Tables_number   1
_chemical_formula_structural   Cu3NiC
_chemical_formula_sum   'Cu24 Ni8 C8'
_cell_volume   1051.03475975
_cell_formula_units_Z   8
loop_
 _symmetry_equiv_pos_site_id
 _symmetry_equiv_pos_as_xyz
  1  'x, y, z'
loop_
 _atom_site_type_symbol
 _atom_site_label
 _atom_site_symmetry_multiplicity
 _atom_site_fract_x
 _atom_site_fract_y
 _atom_site_fract_z
 _atom_site_occupancy
  C  C0  1  0.28873400  0.74386000  0.67000600  1
  C  C1  1  0.78873400  0.25614000  0.82999400  1
  C  C2  1  0.71126600  0.25614000  0.32999400  1
  C  C3  1  0.21126600  0.74386000  0.17000600  1
  C  C4  1  0.12581700  0.70524000  0.90623600  1
  C  C5  1  0.62581700  0.29476000  0.59376400  1
  C  C6  1  0.37418300  0.70524000  0.40623600  1
  C  C7  1  0.87418300  0.29476000  0.09376400  1
  Ni  Ni8  1  0.47855900  0.24203700  0.20030200  1
  Ni  Ni9  1  0.52144100  0.75796300  0.79969800  1
  Ni  Ni10  1  0.12781900  0.26293000  0.47014400  1
  Ni  Ni11  1  0.02144100  0.24203700  0.70030200  1
  Ni  Ni12  1  0.97855900  0.75796300  0.29969800  1
  Ni  Ni13  1  0.37218100  0.26293000  0.97014400  1
  Ni  Ni14  1  0.87218100  0.73707000  0.52985600  1
  Ni  Ni15  1  0.62781900  0.73707000  0.02985600  1
  Cu  Cu16  1  0.96333800  0.68139500  0.79769200  1
  Cu  Cu17  1  0.70700400  0.76478200  0.48034900  1
  Cu  Cu18  1  0.20700400  0.23521800  0.01965100  1
  Cu  Cu19  1  0.08361500  0.70533500  0.58915700  1
  Cu  Cu20  1  0.98813300  0.15780900  0.94977900  1
  Cu  Cu21  1  0.91638500  0.29466500  0.41084300  1
  Cu  Cu22  1  0.82704800  0.77671000  0.21781900  1
  Cu  Cu23  1  0.48813300  0.84219100  0.55022100  1
  Cu  Cu24  1  0.67295200  0.77671000  0.71781900  1
  Cu  Cu25  1  0.01186700  0.84219100  0.05022100  1
  Cu  Cu26  1  0.17295200  0.22329000  0.78218100  1
  Cu  Cu27  1  0.58361500  0.29466500  0.91084300  1
  Cu  Cu28  1  0.41638500  0.70533500  0.08915700  1
  Cu  Cu29  1  0.51186700  0.15780900  0.44977900  1
  Cu  Cu30  1  0.16944700  0.75253000  0.36921800  1
  Cu  Cu31  1  0.03666200  0.31860500  0.20230800  1
  Cu  Cu32  1  0.29299600  0.23521800  0.51965100  1
  Cu  Cu33  1  0.46333800  0.31860500  0.70230800  1
  Cu  Cu34  1  0.33055300  0.75253000  0.86921800  1
  Cu  Cu35  1  0.79299600  0.76478200  0.98034900  1
  Cu  Cu36  1  0.66944700  0.24747000  0.13078200  1
  Cu  Cu37  1  0.32704800  0.22329000  0.28218100  1
  Cu  Cu38  1  0.83055300  0.24747000  0.63078200  1
  Cu  Cu39  1  0.53666200  0.68139500  0.29769200  1
