# generated using pymatgen
data_Cu6Ni2C17
_symmetry_space_group_name_H-M   'P 1'
_cell_length_a   8.64212432
_cell_length_b   8.64212476
_cell_length_c   11.62144600
_cell_angle_alpha   90.00000000
_cell_angle_beta   90.00000000
_cell_angle_gamma   127.88915947
_symmetry_Int_Tables_number   1
_chemical_formula_structural   Cu6Ni2C17
_chemical_formula_sum   'Cu12 Ni4 C34'
_cell_volume   684.99665122
_cell_formula_units_Z   2
loop_
 _symmetry_equiv_pos_site_id
 _symmetry_equiv_pos_as_xyz
  1  'x, y, z'
loop_
 _atom_site_type_symbol
 _atom_site_label
 _atom_site_symmetry_multiplicity
 _atom_site_fract_x
 _atom_site_fract_y
 _atom_site_fract_z
 _atom_site_occupancy
  C  C0  1  0.90268400  0.09731600  0.39846600  1
  C  C1  1  0.20732800  0.79267200  0.62279100  1
  C  C2  1  0.79267200  0.20732800  0.12279100  1
  C  C3  1  0.09731600  0.90268400  0.89846600  1
  Ni  Ni4  1  0.46888700  0.22801600  0.75479600  1
  Ni  Ni5  1  0.53111300  0.77198400  0.25479600  1
  Ni  Ni6  1  0.22801600  0.46888700  0.25479600  1
  Ni  Ni7  1  0.77198400  0.53111300  0.75479600  1
  Cu  Cu8  1  0.35188900  0.64811100  0.01906100  1
  Cu  Cu9  1  0.44868400  0.55131600  0.48185900  1
  Cu  Cu10  1  0.25860900  0.15111800  0.17029800  1
  Cu  Cu11  1  0.84888200  0.74139100  0.17029800  1
  Cu  Cu12  1  0.41697200  0.00112800  0.35090400  1
  Cu  Cu13  1  0.74139100  0.84888200  0.67029800  1
  Cu  Cu14  1  0.00112800  0.41697200  0.85090400  1
  Cu  Cu15  1  0.99887200  0.58302800  0.35090400  1
  Cu  Cu16  1  0.64811100  0.35188900  0.51906100  1
  Cu  Cu17  1  0.55131600  0.44868300  0.98185900  1
  Cu  Cu18  1  0.15111800  0.25860900  0.67029800  1
  Cu  Cu19  1  0.58302800  0.99887200  0.85090400  1
  C  C20  1  0.55204400  0.44795600  0.46495700  1
  C  C21  1  0.07112300  0.92887700  0.12738000  1
  C  C22  1  0.96734600  0.56231700  0.79302700  1
  C  C23  1  0.73074400  0.81655000  0.21513000  1
  C  C24  1  0.18345000  0.26925600  0.21513000  1
  C  C25  1  0.26925600  0.18345000  0.71513000  1
  C  C26  1  0.48330600  0.87613700  0.97276700  1
  C  C27  1  0.59809400  0.75675500  0.55473400  1
  C  C28  1  0.87613700  0.48330600  0.47276700  1
  C  C29  1  0.64811100  0.35188900  0.65796000  1
  C  C30  1  0.92887700  0.07112300  0.62738000  1
  C  C31  1  0.44795600  0.55204400  0.96495700  1
  C  C32  1  0.62058400  0.87188900  0.76833000  1
  C  C33  1  0.59650700  0.40349300  0.85660000  1
  C  C34  1  0.56231700  0.96734600  0.29302700  1
  C  C35  1  0.24324500  0.40190600  0.55473400  1
  C  C36  1  0.75675500  0.59809400  0.05473400  1
  C  C37  1  0.12386300  0.51669400  0.97276700  1
  C  C38  1  0.20224400  0.79775600  0.39035500  1
  C  C39  1  0.43768300  0.03265400  0.79302700  1
  C  C40  1  0.81655000  0.73074400  0.71513000  1
  C  C41  1  0.40349300  0.59650700  0.35660000  1
  C  C42  1  0.87188900  0.62058400  0.26833000  1
  C  C43  1  0.40190600  0.24324500  0.05473400  1
  C  C44  1  0.79775600  0.20224400  0.89035500  1
  C  C45  1  0.35188900  0.64811100  0.15796000  1
  C  C46  1  0.51669400  0.12386300  0.47276700  1
  C  C47  1  0.37941600  0.12811100  0.26833000  1
  C  C48  1  0.12811100  0.37941600  0.76833000  1
  C  C49  1  0.03265400  0.43768300  0.29302700  1
