# generated using pymatgen
data_Cu4NiC2
_symmetry_space_group_name_H-M   'P 1'
_cell_length_a   10.18507800
_cell_length_b   13.57520900
_cell_length_c   18.65016795
_cell_angle_alpha   78.39450221
_cell_angle_beta   90.00000000
_cell_angle_gamma   90.00000000
_symmetry_Int_Tables_number   1
_chemical_formula_structural   Cu4NiC2
_chemical_formula_sum   'Cu48 Ni12 C24'
_cell_volume   2525.93911593
_cell_formula_units_Z   12
loop_
 _symmetry_equiv_pos_site_id
 _symmetry_equiv_pos_as_xyz
  1  'x, y, z'
loop_
 _atom_site_type_symbol
 _atom_site_label
 _atom_site_symmetry_multiplicity
 _atom_site_fract_x
 _atom_site_fract_y
 _atom_site_fract_z
 _atom_site_occupancy
  C  C0  1  0.66396500  0.19610800  0.71694300  1
  C  C1  1  0.18180400  0.48073400  0.12928600  1
  C  C2  1  0.81819600  0.51926600  0.87071400  1
  C  C3  1  0.38422600  0.15376600  0.19255700  1
  C  C4  1  0.16396500  0.80389200  0.78305700  1
  C  C5  1  0.11577400  0.15376600  0.69255700  1
  C  C6  1  0.14476000  0.14776100  0.45070500  1
  C  C7  1  0.61577400  0.84623400  0.80744300  1
  C  C8  1  0.11880100  0.48519600  0.37449800  1
  C  C9  1  0.88422600  0.84623400  0.30744300  1
  C  C10  1  0.61880100  0.51480400  0.12550200  1
  C  C11  1  0.64476000  0.85223900  0.04929500  1
  C  C12  1  0.88119900  0.51480400  0.62550200  1
  C  C13  1  0.35524000  0.14776100  0.95070500  1
  C  C14  1  0.85524000  0.85223900  0.54929500  1
  C  C15  1  0.33603500  0.80389200  0.28305700  1
  C  C16  1  0.83603500  0.19610800  0.21694300  1
  C  C17  1  0.68180400  0.51926600  0.37071400  1
  C  C18  1  0.31819600  0.48073400  0.62928600  1
  C  C19  1  0.38119900  0.48519600  0.87449800  1
  C  C20  1  0.60041100  0.18261400  0.46383400  1
  C  C21  1  0.89958900  0.18261400  0.96383400  1
  C  C22  1  0.10041100  0.81738600  0.03616600  1
  C  C23  1  0.39958900  0.81738600  0.53616600  1
  Ni  Ni24  1  0.08882100  0.03002200  0.13132400  1
  Ni  Ni25  1  0.09988700  0.35345000  0.82057500  1
  Ni  Ni26  1  0.40011300  0.35345000  0.32057500  1
  Ni  Ni27  1  0.63594000  0.28342700  0.01836100  1
  Ni  Ni28  1  0.59988700  0.64655000  0.67942500  1
  Ni  Ni29  1  0.13594000  0.71657300  0.48163900  1
  Ni  Ni30  1  0.91117900  0.96997800  0.86867600  1
  Ni  Ni31  1  0.36406000  0.71657300  0.98163900  1
  Ni  Ni32  1  0.86406000  0.28342700  0.51836100  1
  Ni  Ni33  1  0.90011300  0.64655000  0.17942500  1
  Ni  Ni34  1  0.41117900  0.03002200  0.63132400  1
  Ni  Ni35  1  0.58882100  0.96997800  0.36867600  1
  Cu  Cu36  1  0.30526000  0.64668400  0.45799900  1
  Cu  Cu37  1  0.03595600  0.33826700  0.54692200  1
  Cu  Cu38  1  0.08868300  0.02291800  0.23968600  1
  Cu  Cu39  1  0.69474000  0.35331600  0.54200100  1
  Cu  Cu40  1  0.90055200  0.66112400  0.06619600  1
  Cu  Cu41  1  0.96404400  0.66173300  0.45307800  1
  Cu  Cu42  1  0.66885600  0.13419500  0.06584600  1
  Cu  Cu43  1  0.40421100  0.17824400  0.57719800  1
  Cu  Cu44  1  0.59944800  0.66112400  0.56619600  1
  Cu  Cu45  1  0.41488100  0.49990900  0.26987800  1
  Cu  Cu46  1  0.19474000  0.64668400  0.95799900  1
  Cu  Cu47  1  0.53595600  0.66173300  0.95307800  1
  Cu  Cu48  1  0.46404400  0.33826700  0.04692200  1
  Cu  Cu49  1  0.85013800  0.28868600  0.40715600  1
  Cu  Cu50  1  0.93251000  0.27066900  0.80698100  1
  Cu  Cu51  1  0.25163000  0.95541600  0.10228600  1
  Cu  Cu52  1  0.16885600  0.86580500  0.43415400  1
  Cu  Cu53  1  0.91488100  0.50009100  0.23012200  1
  Cu  Cu54  1  0.35013800  0.71131400  0.09284400  1
  Cu  Cu55  1  0.83114400  0.13419500  0.56584600  1
  Cu  Cu56  1  0.09944800  0.33887600  0.93380400  1
  Cu  Cu57  1  0.24837000  0.95541600  0.60228600  1
  Cu  Cu58  1  0.73214800  0.70613100  0.21136600  1
  Cu  Cu59  1  0.57210500  0.97010700  0.58650800  1
  Cu  Cu60  1  0.64986200  0.28868600  0.90715600  1
  Cu  Cu61  1  0.90421100  0.82175600  0.92280200  1
  Cu  Cu62  1  0.41131700  0.02291800  0.73968600  1
  Cu  Cu63  1  0.06749000  0.72933100  0.19301900  1
  Cu  Cu64  1  0.42789500  0.02989300  0.41349200  1
  Cu  Cu65  1  0.09578900  0.17824400  0.07719800  1
  Cu  Cu66  1  0.91131700  0.97708200  0.76031400  1
  Cu  Cu67  1  0.08511900  0.49990900  0.76987800  1
  Cu  Cu68  1  0.33114400  0.86580500  0.93415400  1
  Cu  Cu69  1  0.92789500  0.97010700  0.08650800  1
  Cu  Cu70  1  0.58868300  0.97708200  0.26031400  1
  Cu  Cu71  1  0.75163000  0.04458400  0.39771400  1
  Cu  Cu72  1  0.59578900  0.82175600  0.42280200  1
  Cu  Cu73  1  0.07210500  0.02989300  0.91349200  1
  Cu  Cu74  1  0.40055200  0.33887600  0.43380400  1
  Cu  Cu75  1  0.74837000  0.04458400  0.89771400  1
  Cu  Cu76  1  0.43251000  0.72933100  0.69301900  1
  Cu  Cu77  1  0.23214800  0.29386900  0.28863400  1
  Cu  Cu78  1  0.76785200  0.70613100  0.71136600  1
  Cu  Cu79  1  0.14986200  0.71131400  0.59284400  1
  Cu  Cu80  1  0.56749000  0.27066900  0.30698100  1
  Cu  Cu81  1  0.80526000  0.35331600  0.04200100  1
  Cu  Cu82  1  0.58511900  0.50009100  0.73012200  1
  Cu  Cu83  1  0.26785200  0.29386900  0.78863400  1
