# generated using pymatgen
data_CuNiC3
_symmetry_space_group_name_H-M   'P 1'
_cell_length_a   6.20942900
_cell_length_b   6.31405700
_cell_length_c   8.84176700
_cell_angle_alpha   90.00000000
_cell_angle_beta   90.00000000
_cell_angle_gamma   90.00000000
_symmetry_Int_Tables_number   1
_chemical_formula_structural   CuNiC3
_chemical_formula_sum   'Cu4 Ni4 C12'
_cell_volume   346.65640583
_cell_formula_units_Z   4
loop_
 _symmetry_equiv_pos_site_id
 _symmetry_equiv_pos_as_xyz
  1  'x, y, z'
loop_
 _atom_site_type_symbol
 _atom_site_label
 _atom_site_symmetry_multiplicity
 _atom_site_fract_x
 _atom_site_fract_y
 _atom_site_fract_z
 _atom_site_occupancy
  Ni  Ni0  1  0.49148500  0.03845000  0.25000000  1
  Ni  Ni1  1  0.99148500  0.46155000  0.75000000  1
  Ni  Ni2  1  0.00851500  0.53845000  0.25000000  1
  Ni  Ni3  1  0.50851500  0.96155000  0.75000000  1
  Cu  Cu4  1  0.00000000  0.00000000  0.00000000  1
  Cu  Cu5  1  0.50000000  0.50000000  0.00000000  1
  Cu  Cu6  1  0.50000000  0.50000000  0.50000000  1
  Cu  Cu7  1  0.00000000  0.00000000  0.50000000  1
  C  C8  1  0.20712800  0.29140900  0.45796800  1
  C  C9  1  0.70712800  0.20859100  0.54203200  1
  C  C10  1  0.29287200  0.79140900  0.04203200  1
  C  C11  1  0.79287200  0.70859100  0.95796800  1
  C  C12  1  0.79287200  0.70859100  0.54203200  1
  C  C13  1  0.29287200  0.79140900  0.45796800  1
  C  C14  1  0.70712800  0.20859100  0.95796800  1
  C  C15  1  0.20712800  0.29140900  0.04203200  1
  C  C16  1  0.92031900  0.97252200  0.25000000  1
  C  C17  1  0.42031900  0.52747800  0.75000000  1
  C  C18  1  0.57968100  0.47252200  0.25000000  1
  C  C19  1  0.07968100  0.02747800  0.75000000  1
