# generated using pymatgen
data_Cu8NiC5
_symmetry_space_group_name_H-M   'P 1'
_cell_length_a   5.54644300
_cell_length_b   5.61040500
_cell_length_c   29.89981000
_cell_angle_alpha   90.00000000
_cell_angle_beta   90.00000000
_cell_angle_gamma   90.00000000
_symmetry_Int_Tables_number   1
_chemical_formula_structural   Cu8NiC5
_chemical_formula_sum   'Cu32 Ni4 C20'
_cell_volume   930.41605465
_cell_formula_units_Z   4
loop_
 _symmetry_equiv_pos_site_id
 _symmetry_equiv_pos_as_xyz
  1  'x, y, z'
loop_
 _atom_site_type_symbol
 _atom_site_label
 _atom_site_symmetry_multiplicity
 _atom_site_fract_x
 _atom_site_fract_y
 _atom_site_fract_z
 _atom_site_occupancy
  C  C0  1  0.50000000  0.51603600  0.25000000  1
  C  C1  1  0.50000000  0.48396400  0.75000000  1
  C  C2  1  0.00000000  0.01603600  0.25000000  1
  C  C3  1  0.00000000  0.98396400  0.75000000  1
  C  C4  1  0.52489000  0.05645300  0.65885200  1
  C  C5  1  0.99171000  0.01150600  0.92759100  1
  C  C6  1  0.02489000  0.44354700  0.34114800  1
  C  C7  1  0.52489000  0.94354700  0.15885200  1
  C  C8  1  0.02489000  0.55645300  0.84114800  1
  C  C9  1  0.00829000  0.01150600  0.57240900  1
  C  C10  1  0.49171000  0.48849400  0.07240900  1
  C  C11  1  0.47511000  0.05645300  0.84114800  1
  C  C12  1  0.50829000  0.51150600  0.92759100  1
  C  C13  1  0.97511000  0.55645300  0.65885200  1
  C  C14  1  0.00829000  0.98849400  0.07240900  1
  C  C15  1  0.47511000  0.94354700  0.34114800  1
  C  C16  1  0.97511000  0.44354700  0.15885200  1
  C  C17  1  0.50829000  0.48849400  0.42759100  1
  C  C18  1  0.49171000  0.51150600  0.57240900  1
  C  C19  1  0.99171000  0.98849400  0.42759100  1
  Ni  Ni20  1  0.00000000  0.50000000  0.50000000  1
  Ni  Ni21  1  0.00000000  0.50000000  0.00000000  1
  Ni  Ni22  1  0.50000000  0.00000000  0.00000000  1
  Ni  Ni23  1  0.50000000  0.00000000  0.50000000  1
  Cu  Cu24  1  0.25689400  0.25784100  0.60973900  1
  Cu  Cu25  1  0.90416400  0.93203700  0.68624700  1
  Cu  Cu26  1  0.74932700  0.75243000  0.60828100  1
  Cu  Cu27  1  0.74743300  0.20243500  0.76467100  1
  Cu  Cu28  1  0.24310600  0.75784100  0.60973900  1
  Cu  Cu29  1  0.59583600  0.43203700  0.68624700  1
  Cu  Cu30  1  0.75689400  0.24215900  0.39026100  1
  Cu  Cu31  1  0.74932700  0.24757000  0.10828100  1
  Cu  Cu32  1  0.09583600  0.93203700  0.81375300  1
  Cu  Cu33  1  0.75067300  0.25243000  0.60828100  1
  Cu  Cu34  1  0.75256700  0.70243500  0.76467100  1
  Cu  Cu35  1  0.25256700  0.20243500  0.73532900  1
  Cu  Cu36  1  0.24743300  0.70243500  0.73532900  1
  Cu  Cu37  1  0.74310600  0.25784100  0.89026100  1
  Cu  Cu38  1  0.74743300  0.79756500  0.26467100  1
  Cu  Cu39  1  0.75067300  0.74757000  0.10828100  1
  Cu  Cu40  1  0.24932700  0.74757000  0.39171900  1
  Cu  Cu41  1  0.24310600  0.24215900  0.10973900  1
  Cu  Cu42  1  0.25256700  0.79756500  0.23532900  1
  Cu  Cu43  1  0.40416400  0.56796300  0.31375300  1
  Cu  Cu44  1  0.40416400  0.43203700  0.81375300  1
  Cu  Cu45  1  0.09583600  0.06796300  0.31375300  1
  Cu  Cu46  1  0.24932700  0.25243000  0.89171900  1
  Cu  Cu47  1  0.59583600  0.56796300  0.18624700  1
  Cu  Cu48  1  0.25689400  0.74215900  0.10973900  1
  Cu  Cu49  1  0.90416400  0.06796300  0.18624700  1
  Cu  Cu50  1  0.24743300  0.29756500  0.23532900  1
  Cu  Cu51  1  0.75689400  0.75784100  0.89026100  1
  Cu  Cu52  1  0.25067300  0.24757000  0.39171900  1
  Cu  Cu53  1  0.74310600  0.74215900  0.39026100  1
  Cu  Cu54  1  0.25067300  0.75243000  0.89171900  1
  Cu  Cu55  1  0.75256700  0.29756500  0.26467100  1
