# generated using pymatgen
data_CuNi2C5
_symmetry_space_group_name_H-M   'P 1'
_cell_length_a   3.33743000
_cell_length_b   11.12896600
_cell_length_c   12.44361600
_cell_angle_alpha   90.00000000
_cell_angle_beta   90.00000000
_cell_angle_gamma   90.00000000
_symmetry_Int_Tables_number   1
_chemical_formula_structural   CuNi2C5
_chemical_formula_sum   'Cu4 Ni8 C20'
_cell_volume   462.18258976
_cell_formula_units_Z   4
loop_
 _symmetry_equiv_pos_site_id
 _symmetry_equiv_pos_as_xyz
  1  'x, y, z'
loop_
 _atom_site_type_symbol
 _atom_site_label
 _atom_site_symmetry_multiplicity
 _atom_site_fract_x
 _atom_site_fract_y
 _atom_site_fract_z
 _atom_site_occupancy
  Ni  Ni0  1  0.75000000  0.40323600  0.26557000  1
  Ni  Ni1  1  0.25000000  0.59676400  0.73443000  1
  Ni  Ni2  1  0.75000000  0.90323600  0.23443000  1
  Ni  Ni3  1  0.25000000  0.09676400  0.76557000  1
  Ni  Ni4  1  0.75000000  0.15610000  0.09842600  1
  Ni  Ni5  1  0.25000000  0.84390000  0.90157400  1
  Ni  Ni6  1  0.75000000  0.65610000  0.40157400  1
  Ni  Ni7  1  0.25000000  0.34390000  0.59842600  1
  Cu  Cu8  1  0.75000000  0.15421200  0.32772400  1
  Cu  Cu9  1  0.25000000  0.84578800  0.67227600  1
  Cu  Cu10  1  0.75000000  0.65421200  0.17227600  1
  Cu  Cu11  1  0.25000000  0.34578800  0.82772400  1
  C  C12  1  0.75000000  0.43273900  0.46435100  1
  C  C13  1  0.25000000  0.56726100  0.53564900  1
  C  C14  1  0.75000000  0.93273900  0.03564900  1
  C  C15  1  0.25000000  0.06726100  0.96435100  1
  C  C16  1  0.75000000  0.42726600  0.72947500  1
  C  C17  1  0.25000000  0.57273400  0.27052500  1
  C  C18  1  0.75000000  0.92726600  0.77052500  1
  C  C19  1  0.25000000  0.07273400  0.22947500  1
  C  C20  1  0.75000000  0.21787000  0.88733600  1
  C  C21  1  0.25000000  0.78213000  0.11266400  1
  C  C22  1  0.75000000  0.71787000  0.61266400  1
  C  C23  1  0.25000000  0.28213000  0.38733600  1
  C  C24  1  0.75000000  0.17617200  0.62609900  1
  C  C25  1  0.25000000  0.82382800  0.37390100  1
  C  C26  1  0.75000000  0.67617200  0.87390100  1
  C  C27  1  0.25000000  0.32382800  0.12609900  1
  C  C28  1  0.75000000  0.06247300  0.48176900  1
  C  C29  1  0.25000000  0.93752700  0.51823100  1
  C  C30  1  0.75000000  0.56247300  0.01823100  1
  C  C31  1  0.25000000  0.43752700  0.98176900  1
