# generated using pymatgen
data_CuNi9C8
_symmetry_space_group_name_H-M   'P 1'
_cell_length_a   11.13887000
_cell_length_b   11.87026800
_cell_length_c   13.83084800
_cell_angle_alpha   90.00000000
_cell_angle_beta   90.00000000
_cell_angle_gamma   90.00000000
_symmetry_Int_Tables_number   1
_chemical_formula_structural   CuNi9C8
_chemical_formula_sum   'Cu8 Ni72 C64'
_cell_volume   1828.73370010
_cell_formula_units_Z   8
loop_
 _symmetry_equiv_pos_site_id
 _symmetry_equiv_pos_as_xyz
  1  'x, y, z'
loop_
 _atom_site_type_symbol
 _atom_site_label
 _atom_site_symmetry_multiplicity
 _atom_site_fract_x
 _atom_site_fract_y
 _atom_site_fract_z
 _atom_site_occupancy
  C  C0  1  0.74758300  0.33824500  0.24408300  1
  C  C1  1  0.25241700  0.16175500  0.74408300  1
  C  C2  1  0.24170700  0.66754400  0.99783600  1
  C  C3  1  0.24758300  0.66175500  0.25591700  1
  C  C4  1  0.51246800  0.24976400  0.12517000  1
  C  C5  1  0.75829300  0.33245600  0.00216400  1
  C  C6  1  0.50000000  0.00000000  0.00000000  1
  C  C7  1  0.24719100  0.42263000  0.87542600  1
  C  C8  1  0.24170700  0.16754400  0.50216400  1
  C  C9  1  0.98753200  0.24976400  0.62517000  1
  C  C10  1  0.48753200  0.25023600  0.62517000  1
  C  C11  1  0.75241700  0.33824500  0.74408300  1
  C  C12  1  0.50000000  0.50000000  0.00000000  1
  C  C13  1  0.25829300  0.66754400  0.49783600  1
  C  C14  1  0.48753200  0.75023600  0.87483000  1
  C  C15  1  0.75280900  0.07737000  0.37542600  1
  C  C16  1  0.74719100  0.57737000  0.62457400  1
  C  C17  1  0.01246800  0.75023600  0.37483000  1
  C  C18  1  0.74758300  0.83824500  0.25591700  1
  C  C19  1  0.74170700  0.33245600  0.50216400  1
  C  C20  1  0.00000000  0.00000000  0.50000000  1
  C  C21  1  0.74170700  0.83245600  0.99783600  1
  C  C22  1  0.24758300  0.16175500  0.24408300  1
  C  C23  1  0.74719100  0.07737000  0.87542600  1
  C  C24  1  0.25280900  0.42263000  0.37542600  1
  C  C25  1  0.75280900  0.57737000  0.12457400  1
  C  C26  1  0.01246800  0.25023600  0.12517000  1
  C  C27  1  0.51246800  0.74976400  0.37483000  1
  C  C28  1  0.00000000  0.50000000  0.00000000  1
  C  C29  1  0.00000000  0.50000000  0.50000000  1
  C  C30  1  0.50000000  0.00000000  0.50000000  1
  C  C31  1  0.50000000  0.50000000  0.50000000  1
  C  C32  1  0.25241700  0.66175500  0.75591700  1
  C  C33  1  0.75241700  0.83824500  0.75591700  1
  C  C34  1  0.25280900  0.92263000  0.12457400  1
  C  C35  1  0.25829300  0.16754400  0.00216400  1
  C  C36  1  0.00000000  0.00000000  0.00000000  1
  C  C37  1  0.24719100  0.92263000  0.62457400  1
  C  C38  1  0.98753200  0.74976400  0.87483000  1
  C  C39  1  0.75829300  0.83245600  0.49783600  1
  C  C40  1  0.48681200  0.00254800  0.73573900  1
  C  C41  1  0.51318800  0.49745200  0.23573900  1
  C  C42  1  0.48681200  0.50254800  0.76426100  1
  C  C43  1  0.98681200  0.99745200  0.76426100  1
  C  C44  1  0.01318800  0.50254800  0.26426100  1
  C  C45  1  0.98681200  0.49745200  0.73573900  1
  C  C46  1  0.01318800  0.00254800  0.23573900  1
  C  C47  1  0.51318800  0.99745200  0.26426100  1
  C  C48  1  0.51447500  0.74459100  0.62931000  1
  C  C49  1  0.98552500  0.74459100  0.12931000  1
  C  C50  1  0.01447500  0.75540900  0.62931000  1
  C  C51  1  0.24893800  0.42265400  0.12688500  1
  C  C52  1  0.48552500  0.25540900  0.37069000  1
  C  C53  1  0.74893800  0.07734600  0.12688500  1
  C  C54  1  0.74893800  0.57734600  0.37311500  1
  C  C55  1  0.25106200  0.42265400  0.62688500  1
  C  C56  1  0.98552500  0.24459100  0.37069000  1
  C  C57  1  0.51447500  0.24459100  0.87069000  1
  C  C58  1  0.75106200  0.07734600  0.62688500  1
  C  C59  1  0.01447500  0.25540900  0.87069000  1
  C  C60  1  0.24893800  0.92265400  0.37311500  1
  C  C61  1  0.25106200  0.92265400  0.87311500  1
  C  C62  1  0.75106200  0.57734600  0.87311500  1
  C  C63  1  0.48552500  0.75540900  0.12931000  1
  Ni  Ni64  1  0.95872200  0.63529200  0.64997200  1
  Ni  Ni65  1  0.96319900  0.79872000  0.53326800  1
  Ni  Ni66  1  0.77001000  0.20484000  0.62749200  1
  Ni  Ni67  1  0.38663700  0.94817700  0.35720600  1
  Ni  Ni68  1  0.84762100  0.25258900  0.37106500  1
  Ni  Ni69  1  0.88663700  0.05182300  0.14279400  1
  Ni  Ni70  1  0.03680100  0.70128000  0.03326800  1
  Ni  Ni71  1  0.15237900  0.24741100  0.87106500  1
  Ni  Ni72  1  0.77001000  0.70484000  0.87250800  1
  Ni  Ni73  1  0.31794400  0.97780300  0.78433500  1
  Ni  Ni74  1  0.96319900  0.29872000  0.96673200  1
  Ni  Ni75  1  0.79176100  0.02172300  0.53275800  1
  Ni  Ni76  1  0.61336300  0.05182300  0.64279400  1
  Ni  Ni77  1  0.68205600  0.52219700  0.28433500  1
  Ni  Ni78  1  0.72999000  0.70484000  0.37250800  1
  Ni  Ni79  1  0.54127800  0.63529200  0.14997200  1
  Ni  Ni80  1  0.95872200  0.13529200  0.85002800  1
  Ni  Ni81  1  0.52719200  0.33432800  0.28457000  1
  Ni  Ni82  1  0.31794400  0.47780300  0.71566500  1
  Ni  Ni83  1  0.18205600  0.47780300  0.21566500  1
  Ni  Ni84  1  0.97280800  0.83432800  0.71543000  1
  Ni  Ni85  1  0.20823900  0.47827700  0.03275800  1
  Ni  Ni86  1  0.52719200  0.83432800  0.21543000  1
  Ni  Ni87  1  0.53680100  0.29872000  0.46673200  1
  Ni  Ni88  1  0.11336300  0.44817700  0.64279400  1
  Ni  Ni89  1  0.20823900  0.97827700  0.46724200  1
  Ni  Ni90  1  0.57046400  0.44298300  0.67352500  1
  Ni  Ni91  1  0.57046400  0.94298300  0.82647500  1
  Ni  Ni92  1  0.42953600  0.05701700  0.17352500  1
  Ni  Ni93  1  0.38663700  0.44817700  0.14279400  1
  Ni  Ni94  1  0.70823900  0.02172300  0.03275800  1
  Ni  Ni95  1  0.45872200  0.36470800  0.85002800  1
  Ni  Ni96  1  0.04127800  0.36470800  0.35002800  1
  Ni  Ni97  1  0.02719200  0.66567200  0.21543000  1
  Ni  Ni98  1  0.61336300  0.55182300  0.85720600  1
  Ni  Ni99  1  0.45872200  0.86470800  0.64997200  1
  Ni  Ni100  1  0.47280800  0.66567200  0.71543000  1
  Ni  Ni101  1  0.02719200  0.16567200  0.28457000  1
  Ni  Ni102  1  0.18205600  0.97780300  0.28433500  1
  Ni  Ni103  1  0.04127800  0.86470800  0.14997200  1
  Ni  Ni104  1  0.47280800  0.16567200  0.78457000  1
  Ni  Ni105  1  0.29176100  0.97827700  0.96724200  1
  Ni  Ni106  1  0.27001000  0.29516000  0.62749200  1
  Ni  Ni107  1  0.72999000  0.20484000  0.12749200  1
  Ni  Ni108  1  0.54127800  0.13529200  0.35002800  1
  Ni  Ni109  1  0.15237900  0.74741100  0.62893500  1
  Ni  Ni110  1  0.65237900  0.25258900  0.87106500  1
  Ni  Ni111  1  0.81794400  0.02219700  0.71566500  1
  Ni  Ni112  1  0.68205600  0.02219700  0.21566500  1
  Ni  Ni113  1  0.34762100  0.24741100  0.37106500  1
  Ni  Ni114  1  0.03680100  0.20128000  0.46673200  1
  Ni  Ni115  1  0.46319900  0.20128000  0.96673200  1
  Ni  Ni116  1  0.65237900  0.75258900  0.62893500  1
  Ni  Ni117  1  0.84762100  0.75258900  0.12893500  1
  Ni  Ni118  1  0.34762100  0.74741100  0.12893500  1
  Ni  Ni119  1  0.22999000  0.79516000  0.37250800  1
  Ni  Ni120  1  0.46319900  0.70128000  0.53326800  1
  Ni  Ni121  1  0.29176100  0.47827700  0.53275800  1
  Ni  Ni122  1  0.97280800  0.33432800  0.78457000  1
  Ni  Ni123  1  0.88663700  0.55182300  0.35720600  1
  Ni  Ni124  1  0.53680100  0.79872000  0.03326800  1
  Ni  Ni125  1  0.22999000  0.29516000  0.12749200  1
  Ni  Ni126  1  0.92953600  0.94298300  0.32647500  1
  Ni  Ni127  1  0.81794400  0.52219700  0.78433500  1
  Ni  Ni128  1  0.11336300  0.94817700  0.85720600  1
  Ni  Ni129  1  0.07046400  0.05701700  0.67352500  1
  Ni  Ni130  1  0.42953600  0.55701700  0.32647500  1
  Ni  Ni131  1  0.70823900  0.52172300  0.46724200  1
  Ni  Ni132  1  0.07046400  0.55701700  0.82647500  1
  Ni  Ni133  1  0.92953600  0.44298300  0.17352500  1
  Ni  Ni134  1  0.79176100  0.52172300  0.96724200  1
  Ni  Ni135  1  0.27001000  0.79516000  0.87250800  1
  Cu  Cu136  1  0.87744100  0.42117900  0.61484600  1
  Cu  Cu137  1  0.62255900  0.92117900  0.38515400  1
  Cu  Cu138  1  0.62255900  0.42117900  0.11484600  1
  Cu  Cu139  1  0.37744100  0.57882100  0.88515400  1
  Cu  Cu140  1  0.12255900  0.57882100  0.38515400  1
  Cu  Cu141  1  0.87744100  0.92117900  0.88515400  1
  Cu  Cu142  1  0.12255900  0.07882100  0.11484600  1
  Cu  Cu143  1  0.37744100  0.07882100  0.61484600  1
