# generated using pymatgen
data_CuNiC5
_symmetry_space_group_name_H-M   'P 1'
_cell_length_a   5.02410600
_cell_length_b   6.05707800
_cell_length_c   10.77110800
_cell_angle_alpha   90.00000000
_cell_angle_beta   90.00000000
_cell_angle_gamma   90.00000000
_symmetry_Int_Tables_number   1
_chemical_formula_structural   CuNiC5
_chemical_formula_sum   'Cu4 Ni4 C20'
_cell_volume   327.77991670
_cell_formula_units_Z   4
loop_
 _symmetry_equiv_pos_site_id
 _symmetry_equiv_pos_as_xyz
  1  'x, y, z'
loop_
 _atom_site_type_symbol
 _atom_site_label
 _atom_site_symmetry_multiplicity
 _atom_site_fract_x
 _atom_site_fract_y
 _atom_site_fract_z
 _atom_site_occupancy
  Ni  Ni0  1  0.00000000  0.00000000  0.00000000  1
  Ni  Ni1  1  0.50000000  0.00000000  0.50000000  1
  Ni  Ni2  1  0.00000000  0.50000000  0.00000000  1
  Ni  Ni3  1  0.50000000  0.50000000  0.50000000  1
  Cu  Cu4  1  0.99624100  0.75000000  0.27184500  1
  Cu  Cu5  1  0.49624100  0.25000000  0.22815500  1
  Cu  Cu6  1  0.00375900  0.25000000  0.72815500  1
  Cu  Cu7  1  0.50375900  0.75000000  0.77184500  1
  C  C8  1  0.55030700  0.75000000  0.09006800  1
  C  C9  1  0.05030700  0.25000000  0.40993200  1
  C  C10  1  0.44969300  0.25000000  0.90993200  1
  C  C11  1  0.94969300  0.75000000  0.59006800  1
  C  C12  1  0.20362900  0.75000000  0.09715000  1
  C  C13  1  0.70362900  0.25000000  0.40285000  1
  C  C14  1  0.79637100  0.25000000  0.90285000  1
  C  C15  1  0.29637100  0.75000000  0.59715000  1
  C  C16  1  0.80047400  0.75000000  0.44187900  1
  C  C17  1  0.30047400  0.25000000  0.05812100  1
  C  C18  1  0.19952600  0.25000000  0.55812100  1
  C  C19  1  0.69952600  0.75000000  0.94187900  1
  C  C20  1  0.71493800  0.97023400  0.17312100  1
  C  C21  1  0.21493800  0.02976600  0.32687900  1
  C  C22  1  0.28506200  0.47023400  0.82687900  1
  C  C23  1  0.78506200  0.52976600  0.67312100  1
  C  C24  1  0.28506200  0.02976600  0.82687900  1
  C  C25  1  0.78506200  0.97023400  0.67312100  1
  C  C26  1  0.71493800  0.52976600  0.17312100  1
  C  C27  1  0.21493800  0.47023400  0.32687900  1
