# generated using pymatgen
data_CuNiC4
_symmetry_space_group_name_H-M   'P 1'
_cell_length_a   7.12221900
_cell_length_b   7.37168500
_cell_length_c   8.97909000
_cell_angle_alpha   90.00000000
_cell_angle_beta   90.00000000
_cell_angle_gamma   90.00000000
_symmetry_Int_Tables_number   1
_chemical_formula_structural   CuNiC4
_chemical_formula_sum   'Cu4 Ni4 C16'
_cell_volume   471.42696211
_cell_formula_units_Z   4
loop_
 _symmetry_equiv_pos_site_id
 _symmetry_equiv_pos_as_xyz
  1  'x, y, z'
loop_
 _atom_site_type_symbol
 _atom_site_label
 _atom_site_symmetry_multiplicity
 _atom_site_fract_x
 _atom_site_fract_y
 _atom_site_fract_z
 _atom_site_occupancy
  C  C0  1  0.25000000  0.10819100  0.53973500  1
  C  C1  1  0.75000000  0.39180900  0.03973500  1
  C  C2  1  0.75000000  0.89180900  0.46026500  1
  C  C3  1  0.25000000  0.60819100  0.96026500  1
  Ni  Ni4  1  0.75000000  0.28931400  0.63193500  1
  Ni  Ni5  1  0.75000000  0.78931400  0.86806500  1
  Ni  Ni6  1  0.25000000  0.21068600  0.13193500  1
  Ni  Ni7  1  0.25000000  0.71068600  0.36806500  1
  Cu  Cu8  1  0.75000000  0.55415900  0.31882900  1
  Cu  Cu9  1  0.25000000  0.94584100  0.81882900  1
  Cu  Cu10  1  0.75000000  0.05415900  0.18117100  1
  Cu  Cu11  1  0.25000000  0.44584100  0.68117100  1
  C  C12  1  0.92605100  0.64286400  0.93259400  1
  C  C13  1  0.92605100  0.14286400  0.56740600  1
  C  C14  1  0.75000000  0.74766400  0.68156400  1
  C  C15  1  0.57394900  0.14286400  0.56740600  1
  C  C16  1  0.75000000  0.24766400  0.81843600  1
  C  C17  1  0.42605100  0.35713600  0.06740600  1
  C  C18  1  0.07394900  0.35713600  0.06740600  1
  C  C19  1  0.07394900  0.85713600  0.43259400  1
  C  C20  1  0.42605100  0.85713600  0.43259400  1
  C  C21  1  0.25000000  0.25233600  0.31843600  1
  C  C22  1  0.25000000  0.75233600  0.18156400  1
  C  C23  1  0.57394900  0.64286400  0.93259400  1
