# generated using pymatgen
data_CuNi2C5
_symmetry_space_group_name_H-M   'P 1'
_cell_length_a   6.33711000
_cell_length_b   7.74026700
_cell_length_c   8.53815800
_cell_angle_alpha   90.00000000
_cell_angle_beta   90.00000000
_cell_angle_gamma   90.00000000
_symmetry_Int_Tables_number   1
_chemical_formula_structural   CuNi2C5
_chemical_formula_sum   'Cu4 Ni8 C20'
_cell_volume   418.80453411
_cell_formula_units_Z   4
loop_
 _symmetry_equiv_pos_site_id
 _symmetry_equiv_pos_as_xyz
  1  'x, y, z'
loop_
 _atom_site_type_symbol
 _atom_site_label
 _atom_site_symmetry_multiplicity
 _atom_site_fract_x
 _atom_site_fract_y
 _atom_site_fract_z
 _atom_site_occupancy
  Ni  Ni0  1  0.73856300  0.50000000  0.00000000  1
  Ni  Ni1  1  0.00000000  0.75884500  0.24152200  1
  Ni  Ni2  1  0.50000000  0.25884500  0.25847800  1
  Ni  Ni3  1  0.23856300  0.00000000  0.50000000  1
  Ni  Ni4  1  0.76143700  0.00000000  0.50000000  1
  Ni  Ni5  1  0.50000000  0.74115500  0.74152200  1
  Ni  Ni6  1  0.00000000  0.24115500  0.75847800  1
  Ni  Ni7  1  0.26143700  0.50000000  0.00000000  1
  Cu  Cu8  1  0.50000000  0.83825000  0.08492500  1
  Cu  Cu9  1  0.00000000  0.33825000  0.41507500  1
  Cu  Cu10  1  0.00000000  0.66175000  0.58492500  1
  Cu  Cu11  1  0.50000000  0.16175000  0.91507500  1
  C  C12  1  0.00000000  0.21086900  0.13139400  1
  C  C13  1  0.50000000  0.71086900  0.36860600  1
  C  C14  1  0.50000000  0.28913100  0.63139400  1
  C  C15  1  0.00000000  0.78913100  0.86860600  1
  C  C16  1  0.75566700  0.20121100  0.03477700  1
  C  C17  1  0.24433300  0.20121100  0.03477700  1
  C  C18  1  0.50000000  0.58058800  0.20286800  1
  C  C19  1  0.00000000  0.42516600  0.19893400  1
  C  C20  1  0.50000000  0.92516600  0.30106600  1
  C  C21  1  0.00000000  0.08058800  0.29713200  1
  C  C22  1  0.25566700  0.70121100  0.46522300  1
  C  C23  1  0.74433300  0.70121100  0.46522300  1
  C  C24  1  0.74433300  0.29878900  0.53477700  1
  C  C25  1  0.25566700  0.29878900  0.53477700  1
  C  C26  1  0.00000000  0.91941200  0.70286800  1
  C  C27  1  0.50000000  0.07483400  0.69893400  1
  C  C28  1  0.00000000  0.57483400  0.80106600  1
  C  C29  1  0.50000000  0.41941200  0.79713200  1
  C  C30  1  0.75566700  0.79878900  0.96522300  1
  C  C31  1  0.24433300  0.79878900  0.96522300  1
