# generated using pymatgen
data_Cu7Ni2C3
_symmetry_space_group_name_H-M   'P 1'
_cell_length_a   3.99610900
_cell_length_b   11.40130500
_cell_length_c   12.66061800
_cell_angle_alpha   90.00000000
_cell_angle_beta   90.00000000
_cell_angle_gamma   90.00000000
_symmetry_Int_Tables_number   1
_chemical_formula_structural   Cu7Ni2C3
_chemical_formula_sum   'Cu14 Ni4 C6'
_cell_volume   576.82861284
_cell_formula_units_Z   2
loop_
 _symmetry_equiv_pos_site_id
 _symmetry_equiv_pos_as_xyz
  1  'x, y, z'
loop_
 _atom_site_type_symbol
 _atom_site_label
 _atom_site_symmetry_multiplicity
 _atom_site_fract_x
 _atom_site_fract_y
 _atom_site_fract_z
 _atom_site_occupancy
  C  C0  1  0.00000000  0.00000000  0.50000000  1
  C  C1  1  0.00000000  0.50000000  0.00000000  1
  C  C2  1  0.00000000  0.38312300  0.65179900  1
  C  C3  1  0.00000000  0.61687700  0.34820100  1
  C  C4  1  0.00000000  0.88312300  0.84820100  1
  C  C5  1  0.00000000  0.11687700  0.15179900  1
  Ni  Ni6  1  0.50000000  0.28693200  0.39103100  1
  Ni  Ni7  1  0.50000000  0.71306800  0.60896900  1
  Ni  Ni8  1  0.50000000  0.78693200  0.10896900  1
  Ni  Ni9  1  0.50000000  0.21306800  0.89103100  1
  Cu  Cu10  1  0.00000000  0.35501700  0.28719700  1
  Cu  Cu11  1  0.00000000  0.64498300  0.71280300  1
  Cu  Cu12  1  0.00000000  0.85501700  0.21280300  1
  Cu  Cu13  1  0.00000000  0.14498300  0.78719700  1
  Cu  Cu14  1  0.50000000  0.29772200  0.06976500  1
  Cu  Cu15  1  0.50000000  0.70227800  0.93023500  1
  Cu  Cu16  1  0.50000000  0.79772200  0.43023500  1
  Cu  Cu17  1  0.50000000  0.20227800  0.56976500  1
  Cu  Cu18  1  0.50000000  0.08041200  0.32135400  1
  Cu  Cu19  1  0.50000000  0.91958800  0.67864600  1
  Cu  Cu20  1  0.50000000  0.58041200  0.17864600  1
  Cu  Cu21  1  0.50000000  0.41958800  0.82135400  1
  Cu  Cu22  1  0.50000000  0.00000000  0.00000000  1
  Cu  Cu23  1  0.50000000  0.50000000  0.50000000  1
