# generated using pymatgen
data_CuNiC7
_symmetry_space_group_name_H-M   'P 1'
_cell_length_a   8.37181900
_cell_length_b   6.46090900
_cell_length_c   8.75851042
_cell_angle_alpha   66.21537591
_cell_angle_beta   90.00000000
_cell_angle_gamma   90.00000000
_symmetry_Int_Tables_number   1
_chemical_formula_structural   CuNiC7
_chemical_formula_sum   'Cu4 Ni4 C28'
_cell_volume   433.50792424
_cell_formula_units_Z   4
loop_
 _symmetry_equiv_pos_site_id
 _symmetry_equiv_pos_as_xyz
  1  'x, y, z'
loop_
 _atom_site_type_symbol
 _atom_site_label
 _atom_site_symmetry_multiplicity
 _atom_site_fract_x
 _atom_site_fract_y
 _atom_site_fract_z
 _atom_site_occupancy
  C  C0  1  0.84261200  0.59504500  0.93314800  1
  C  C1  1  0.47731500  0.94986300  0.65237000  1
  C  C2  1  0.29503800  0.51398200  0.17939800  1
  C  C3  1  0.65738800  0.59504500  0.43314800  1
  C  C4  1  0.20496200  0.51398200  0.67939800  1
  C  C5  1  0.97731500  0.05013700  0.84763000  1
  C  C6  1  0.70496200  0.48601800  0.82060200  1
  C  C7  1  0.34261200  0.40495500  0.56685200  1
  C  C8  1  0.77427100  0.14586800  0.80283200  1
  C  C9  1  0.72572900  0.14586800  0.30283200  1
  C  C10  1  0.27427100  0.85413200  0.69716800  1
  C  C11  1  0.79503800  0.48601800  0.32060200  1
  C  C12  1  0.15738800  0.40495500  0.06685200  1
  C  C13  1  0.93198700  0.29189400  0.65997800  1
  C  C14  1  0.02268500  0.94986300  0.15237000  1
  C  C15  1  0.06801300  0.70810600  0.34002200  1
  C  C16  1  0.52268500  0.05013700  0.34763000  1
  C  C17  1  0.56801300  0.29189400  0.15997800  1
  C  C18  1  0.22572900  0.85413200  0.19716800  1
  C  C19  1  0.43198700  0.70810600  0.84002200  1
  C  C20  1  0.90027600  0.19871800  0.79219400  1
  C  C21  1  0.32973300  0.47839100  0.65899100  1
  C  C22  1  0.17026700  0.47839100  0.15899100  1
  C  C23  1  0.82973300  0.52160900  0.84100900  1
  C  C24  1  0.59972400  0.19871800  0.29219400  1
  C  C25  1  0.09972400  0.80128200  0.20780600  1
  C  C26  1  0.67026700  0.52160900  0.34100900  1
  C  C27  1  0.40027600  0.80128200  0.70780600  1
  Ni  Ni28  1  0.61226700  0.75410800  0.13909400  1
  Ni  Ni29  1  0.88773300  0.75410800  0.63909400  1
  Ni  Ni30  1  0.11226700  0.24589200  0.36090600  1
  Ni  Ni31  1  0.38773300  0.24589200  0.86090600  1
  Cu  Cu32  1  0.42813900  0.66334300  0.61562100  1
  Cu  Cu33  1  0.57186100  0.33665700  0.38437900  1
  Cu  Cu34  1  0.92813900  0.33665700  0.88437900  1
  Cu  Cu35  1  0.07186100  0.66334300  0.11562100  1
