# generated using pymatgen
data_CuNiC14
_symmetry_space_group_name_H-M   'P 1'
_cell_length_a   9.30495300
_cell_length_b   9.30495300
_cell_length_c   10.82662400
_cell_angle_alpha   90.00000000
_cell_angle_beta   90.00000000
_cell_angle_gamma   90.00000000
_symmetry_Int_Tables_number   1
_chemical_formula_structural   CuNiC14
_chemical_formula_sum   'Cu4 Ni4 C56'
_cell_volume   937.39238676
_cell_formula_units_Z   4
loop_
 _symmetry_equiv_pos_site_id
 _symmetry_equiv_pos_as_xyz
  1  'x, y, z'
loop_
 _atom_site_type_symbol
 _atom_site_label
 _atom_site_symmetry_multiplicity
 _atom_site_fract_x
 _atom_site_fract_y
 _atom_site_fract_z
 _atom_site_occupancy
  C  C0  1  0.99846300  0.71252400  0.04394800  1
  C  C1  1  0.28747600  0.00153700  0.45605200  1
  C  C2  1  0.78747600  0.49846300  0.29394800  1
  C  C3  1  0.50153700  0.21252400  0.20605200  1
  C  C4  1  0.49846300  0.78747600  0.70605200  1
  C  C5  1  0.00153700  0.28747600  0.54394800  1
  C  C6  1  0.71252400  0.99846300  0.95605200  1
  C  C7  1  0.21252400  0.50153700  0.79394800  1
  Ni  Ni8  1  0.63566200  0.63566200  0.00000000  1
  Ni  Ni9  1  0.86433800  0.13566200  0.25000000  1
  Ni  Ni10  1  0.36433800  0.36433800  0.50000000  1
  Ni  Ni11  1  0.13566200  0.86433800  0.75000000  1
  C  C12  1  0.32975800  0.82278800  0.00217000  1
  C  C13  1  0.67721200  0.82975800  0.25217000  1
  C  C14  1  0.17721200  0.67024200  0.49783000  1
  C  C15  1  0.67024200  0.17721200  0.50217000  1
  C  C16  1  0.82975800  0.67721200  0.74783000  1
  C  C17  1  0.82278800  0.32975800  0.99783000  1
  C  C18  1  0.32278800  0.17024200  0.75217000  1
  C  C19  1  0.17024200  0.32278800  0.24783000  1
  Cu  Cu20  1  0.11149400  0.11149400  0.00000000  1
  Cu  Cu21  1  0.88850600  0.88850600  0.50000000  1
  Cu  Cu22  1  0.61149400  0.38850600  0.75000000  1
  Cu  Cu23  1  0.38850600  0.61149400  0.25000000  1
  C  C24  1  0.45617000  0.49298900  0.36899200  1
  C  C25  1  0.78129000  0.76065600  0.62885800  1
  C  C26  1  0.25563800  0.26255000  0.35765200  1
  C  C27  1  0.21871000  0.23934400  0.12885800  1
  C  C28  1  0.21734600  0.48420000  0.22097000  1
  C  C29  1  0.71734600  0.01580000  0.52903000  1
  C  C30  1  0.23745000  0.75563700  0.60765200  1
  C  C31  1  0.98420000  0.28265400  0.97097000  1
  C  C32  1  0.78265400  0.51580000  0.72097000  1
  C  C33  1  0.73934400  0.28129000  0.87885800  1
  C  C34  1  0.31677200  0.00832800  0.73211400  1
  C  C35  1  0.50701100  0.54383000  0.13100800  1
  C  C36  1  0.26255000  0.25563800  0.64234800  1
  C  C37  1  0.28265400  0.98420000  0.02903000  1
  C  C38  1  0.95617000  0.00701100  0.38100800  1
  C  C39  1  0.49298900  0.45617000  0.63100800  1
  C  C40  1  0.71871000  0.26065600  0.62114200  1
  C  C41  1  0.76255000  0.24436200  0.10765200  1
  C  C42  1  0.49167200  0.81677200  0.98211400  1
  C  C43  1  0.04383000  0.99298900  0.88100800  1
  C  C44  1  0.00701100  0.95617000  0.61899200  1
  C  C45  1  0.48420000  0.21734600  0.77903000  1
  C  C46  1  0.68322800  0.99167200  0.23211400  1
  C  C47  1  0.54383000  0.50701100  0.86899200  1
  C  C48  1  0.01580000  0.71734600  0.47097000  1
  C  C49  1  0.75563700  0.23745000  0.39234800  1
  C  C50  1  0.26065600  0.71871000  0.37885800  1
  C  C51  1  0.18322800  0.50832800  0.51788600  1
  C  C52  1  0.81677200  0.49167200  0.01788600  1
  C  C53  1  0.76065600  0.78129000  0.37114200  1
  C  C54  1  0.28129000  0.73934400  0.12114200  1
  C  C55  1  0.99167200  0.68322800  0.76788600  1
  C  C56  1  0.51580000  0.78265400  0.27903000  1
  C  C57  1  0.99298900  0.04383000  0.11899200  1
  C  C58  1  0.24436200  0.76255000  0.89234800  1
  C  C59  1  0.23934400  0.21871000  0.87114200  1
  C  C60  1  0.74436300  0.73745000  0.85765200  1
  C  C61  1  0.73745000  0.74436300  0.14234800  1
  C  C62  1  0.00832800  0.31677200  0.26788600  1
  C  C63  1  0.50832800  0.18322800  0.48211400  1
