# generated using pymatgen
data_Cu(NiC6)2
_symmetry_space_group_name_H-M   'P 1'
_cell_length_a   7.45563482
_cell_length_b   10.61600846
_cell_length_c   10.61574167
_cell_angle_alpha   90.06864306
_cell_angle_beta   110.43262957
_cell_angle_gamma   110.42642410
_symmetry_Int_Tables_number   1
_chemical_formula_structural   Cu(NiC6)2
_chemical_formula_sum   'Cu4 Ni8 C48'
_cell_volume   730.57551057
_cell_formula_units_Z   4
loop_
 _symmetry_equiv_pos_site_id
 _symmetry_equiv_pos_as_xyz
  1  'x, y, z'
loop_
 _atom_site_type_symbol
 _atom_site_label
 _atom_site_symmetry_multiplicity
 _atom_site_fract_x
 _atom_site_fract_y
 _atom_site_fract_z
 _atom_site_occupancy
  Ni  Ni0  1  0.97211200  0.49229800  0.21587800  1
  Ni  Ni1  1  0.97222100  0.99235700  0.71589600  1
  Ni  Ni2  1  0.02789000  0.50770300  0.78412200  1
  Ni  Ni3  1  0.02778200  0.00764400  0.28410600  1
  Ni  Ni4  1  0.47207900  0.21585400  0.99226800  1
  Ni  Ni5  1  0.47212100  0.71588400  0.49229000  1
  Ni  Ni6  1  0.52792000  0.78414500  0.00773200  1
  Ni  Ni7  1  0.52787900  0.28411700  0.50771100  1
  Cu  Cu8  1  0.00000900  0.50000600  0.50000200  1
  Cu  Cu9  1  0.50003800  0.00000800  0.49999300  1
  Cu  Cu10  1  0.99996200  0.99998200  0.00000300  1
  Cu  Cu11  1  0.49996100  0.49999300  0.99997500  1
  C  C12  1  0.25004900  0.31011000  0.69203200  1
  C  C13  1  0.25005900  0.81010100  0.19200400  1
  C  C14  1  0.75005900  0.69202500  0.81013400  1
  C  C15  1  0.75003100  0.19201500  0.31009200  1
  C  C16  1  0.74995000  0.68989200  0.30796900  1
  C  C17  1  0.74994200  0.18989900  0.80799700  1
  C  C18  1  0.24994200  0.30797500  0.18986600  1
  C  C19  1  0.24996900  0.80798400  0.68990800  1
  C  C20  1  0.36850600  0.82810100  0.09611200  1
  C  C21  1  0.36853300  0.32808000  0.59613400  1
  C  C22  1  0.63149400  0.17189800  0.90389000  1
  C  C23  1  0.63146800  0.67192000  0.40386600  1
  C  C24  1  0.13145900  0.40386800  0.17189200  1
  C  C25  1  0.13147200  0.90387800  0.67192300  1
  C  C26  1  0.86854200  0.59613300  0.82811000  1
  C  C27  1  0.86853000  0.09612400  0.32807800  1
  C  C28  1  0.73585900  0.42255700  0.08078600  1
  C  C29  1  0.73587700  0.92251100  0.58084200  1
  C  C30  1  0.76406600  0.91916200  0.07758300  1
  C  C31  1  0.76416400  0.41918900  0.57748900  1
  C  C32  1  0.23593500  0.08083800  0.92241900  1
  C  C33  1  0.23583600  0.58081000  0.42251100  1
  C  C34  1  0.26414200  0.57744500  0.91921600  1
  C  C35  1  0.26412400  0.07748900  0.41915900  1
  C  C36  1  0.39970300  0.33701400  0.84312900  1
  C  C37  1  0.39971200  0.83705900  0.34314200  1
  C  C38  1  0.89969300  0.34312600  0.33702400  1
  C  C39  1  0.89978200  0.84313500  0.83719300  1
  C  C40  1  0.60029900  0.66298600  0.15687200  1
  C  C41  1  0.60028800  0.16293900  0.65685900  1
  C  C42  1  0.10030900  0.65687400  0.66297800  1
  C  C43  1  0.10021800  0.15686500  0.16280800  1
  C  C44  1  0.64684200  0.67032400  0.91628900  1
  C  C45  1  0.64679000  0.17030900  0.41624600  1
  C  C46  1  0.14680800  0.41625000  0.67032200  1
  C  C47  1  0.14668400  0.91618900  0.17024700  1
  C  C48  1  0.35315900  0.32967600  0.08371300  1
  C  C49  1  0.35321300  0.82969400  0.58375500  1
  C  C50  1  0.85319200  0.58375100  0.32967700  1
  C  C51  1  0.85331600  0.08381000  0.82975500  1
  C  C52  1  0.08631200  0.66456700  0.15998900  1
  C  C53  1  0.08629800  0.16457200  0.65998800  1
  C  C54  1  0.58630300  0.66001400  0.66455800  1
  C  C55  1  0.58629900  0.15997400  0.16455900  1
  C  C56  1  0.91368900  0.33543400  0.84001300  1
  C  C57  1  0.91370200  0.83542800  0.34001300  1
  C  C58  1  0.41369800  0.33998600  0.33544200  1
  C  C59  1  0.41370500  0.84002800  0.83544300  1
