# generated using pymatgen
data_Cu9Ni3C4
_symmetry_space_group_name_H-M   'P 1'
_cell_length_a   6.68036004
_cell_length_b   6.68036004
_cell_length_c   10.14457400
_cell_angle_alpha   90.00000000
_cell_angle_beta   90.00000000
_cell_angle_gamma   113.62829724
_symmetry_Int_Tables_number   1
_chemical_formula_structural   Cu9Ni3C4
_chemical_formula_sum   'Cu18 Ni6 C8'
_cell_volume   414.76986922
_cell_formula_units_Z   2
loop_
 _symmetry_equiv_pos_site_id
 _symmetry_equiv_pos_as_xyz
  1  'x, y, z'
loop_
 _atom_site_type_symbol
 _atom_site_label
 _atom_site_symmetry_multiplicity
 _atom_site_fract_x
 _atom_site_fract_y
 _atom_site_fract_z
 _atom_site_occupancy
  C  C0  1  0.37123600  0.40475100  0.25000000  1
  C  C1  1  0.06565100  0.06565100  0.50000000  1
  C  C2  1  0.79736300  0.20927700  0.75000000  1
  C  C3  1  0.40475100  0.37123600  0.75000000  1
  C  C4  1  0.06565100  0.06565100  0.00000000  1
  C  C5  1  0.20927700  0.79736300  0.25000000  1
  C  C6  1  0.77268200  0.22686100  0.25000000  1
  C  C7  1  0.22686100  0.77268200  0.75000000  1
  Ni  Ni8  1  0.78170200  0.75930800  0.75000000  1
  Ni  Ni9  1  0.75930800  0.78170200  0.25000000  1
  Ni  Ni10  1  0.52896300  0.12499900  0.49901900  1
  Ni  Ni11  1  0.12499900  0.52896300  0.50098100  1
  Ni  Ni12  1  0.12499900  0.52896300  0.99901900  1
  Ni  Ni13  1  0.52896300  0.12499900  0.00098100  1
  Cu  Cu14  1  0.43264000  0.10723300  0.61189300  1
  Cu  Cu15  1  0.15469300  0.43729000  0.89152000  1
  Cu  Cu16  1  0.71894100  0.11852000  0.49075000  1
  Cu  Cu17  1  0.43729000  0.15469300  0.10848000  1
  Cu  Cu18  1  0.80688900  0.57735400  0.75000000  1
  Cu  Cu19  1  0.57735400  0.80688900  0.25000000  1
  Cu  Cu20  1  0.11852000  0.71894100  0.99075000  1
  Cu  Cu21  1  0.10723300  0.43264000  0.38810700  1
  Cu  Cu22  1  0.95819400  0.94327700  0.75000000  1
  Cu  Cu23  1  0.94327700  0.95819400  0.25000000  1
  Cu  Cu24  1  0.43729000  0.15469300  0.39152000  1
  Cu  Cu25  1  0.10723300  0.43264000  0.11189300  1
  Cu  Cu26  1  0.59088200  0.76396400  0.75000000  1
  Cu  Cu27  1  0.11852000  0.71894100  0.50925000  1
  Cu  Cu28  1  0.76396400  0.59088200  0.25000000  1
  Cu  Cu29  1  0.43264000  0.10723300  0.88810700  1
  Cu  Cu30  1  0.71894100  0.11852000  0.00925000  1
  Cu  Cu31  1  0.15469300  0.43729000  0.60848000  1
