# generated using pymatgen
data_CuNiC11
_symmetry_space_group_name_H-M   'P 1'
_cell_length_a   17.67530200
_cell_length_b   5.54092800
_cell_length_c   9.16445166
_cell_angle_alpha   54.33324531
_cell_angle_beta   90.00000000
_cell_angle_gamma   90.00000000
_symmetry_Int_Tables_number   1
_chemical_formula_structural   CuNiC11
_chemical_formula_sum   'Cu4 Ni4 C44'
_cell_volume   729.18462244
_cell_formula_units_Z   4
loop_
 _symmetry_equiv_pos_site_id
 _symmetry_equiv_pos_as_xyz
  1  'x, y, z'
loop_
 _atom_site_type_symbol
 _atom_site_label
 _atom_site_symmetry_multiplicity
 _atom_site_fract_x
 _atom_site_fract_y
 _atom_site_fract_z
 _atom_site_occupancy
  Ni  Ni0  1  0.71502300  0.34418400  0.93152500  1
  Ni  Ni1  1  0.21502300  0.65581600  0.56847500  1
  Ni  Ni2  1  0.28497700  0.65581600  0.06847500  1
  Ni  Ni3  1  0.78497700  0.34418400  0.43152500  1
  Cu  Cu4  1  0.95977500  0.56413500  0.68875500  1
  Cu  Cu5  1  0.45977500  0.43586500  0.81124500  1
  Cu  Cu6  1  0.54022500  0.56413500  0.18875500  1
  Cu  Cu7  1  0.04022500  0.43586500  0.31124500  1
  C  C8  1  0.58008700  0.00833600  0.72561400  1
  C  C9  1  0.12159600  0.19002300  0.08991500  1
  C  C10  1  0.87840400  0.80997700  0.91008500  1
  C  C11  1  0.37840400  0.19002300  0.58991500  1
  C  C12  1  0.91991300  0.00833600  0.22561400  1
  C  C13  1  0.41991300  0.99166400  0.27438600  1
  C  C14  1  0.62159600  0.80997700  0.41008500  1
  C  C15  1  0.08008700  0.99166400  0.77438600  1
  C  C16  1  0.93234200  0.82237400  0.09504800  1
  C  C17  1  0.43234200  0.17762600  0.40495200  1
  C  C18  1  0.06765800  0.17762600  0.90495200  1
  C  C19  1  0.56765800  0.82237400  0.59504800  1
  C  C20  1  0.79195700  0.61967300  0.06204500  1
  C  C21  1  0.29195700  0.38032700  0.43795500  1
  C  C22  1  0.20804300  0.38032700  0.93795500  1
  C  C23  1  0.70804300  0.61967300  0.56204500  1
  C  C24  1  0.53173800  0.99841000  0.25427900  1
  C  C25  1  0.03173800  0.00159000  0.24572100  1
  C  C26  1  0.46826200  0.00159000  0.74572100  1
  C  C27  1  0.96826200  0.99841000  0.75427900  1
  C  C28  1  0.66350600  0.19670400  0.30173700  1
  C  C29  1  0.16350600  0.80329600  0.19826300  1
  C  C30  1  0.33649400  0.80329600  0.69826300  1
  C  C31  1  0.83649400  0.19670400  0.80173700  1
  C  C32  1  0.58193100  0.17011000  0.86096900  1
  C  C33  1  0.08193100  0.82989000  0.63903100  1
  C  C34  1  0.41806900  0.82989000  0.13903100  1
  C  C35  1  0.91806900  0.17011000  0.36096900  1
  C  C36  1  0.07573500  0.58460300  0.00196800  1
  C  C37  1  0.57573500  0.41539700  0.49803200  1
  C  C38  1  0.92426500  0.41539700  0.99803200  1
  C  C39  1  0.42426500  0.58460300  0.50196800  1
  C  C40  1  0.68744400  0.99114700  0.71403200  1
  C  C41  1  0.18744400  0.00885300  0.78596800  1
  C  C42  1  0.31255600  0.00885300  0.28596800  1
  C  C43  1  0.81255600  0.99114700  0.21403200  1
  C  C44  1  0.08252100  0.38835200  0.55985000  1
  C  C45  1  0.58252100  0.61164800  0.94015000  1
  C  C46  1  0.91747900  0.61164800  0.44015000  1
  C  C47  1  0.41747900  0.38835200  0.05985000  1
  C  C48  1  0.83542600  0.78841700  0.72584500  1
  C  C49  1  0.33542600  0.21158300  0.77415500  1
  C  C50  1  0.16457400  0.21158300  0.27415500  1
  C  C51  1  0.66457400  0.78841700  0.22584500  1
