# generated using pymatgen
data_Cu(NiC)3
_symmetry_space_group_name_H-M   'P 1'
_cell_length_a   5.50267259
_cell_length_b   5.50267259
_cell_length_c   15.24917491
_cell_angle_alpha   88.01806063
_cell_angle_beta   88.01806063
_cell_angle_gamma   61.78974953
_symmetry_Int_Tables_number   1
_chemical_formula_structural   Cu(NiC)3
_chemical_formula_sum   'Cu4 Ni12 C12'
_cell_volume   406.55984994
_cell_formula_units_Z   4
loop_
 _symmetry_equiv_pos_site_id
 _symmetry_equiv_pos_as_xyz
  1  'x, y, z'
loop_
 _atom_site_type_symbol
 _atom_site_label
 _atom_site_symmetry_multiplicity
 _atom_site_fract_x
 _atom_site_fract_y
 _atom_site_fract_z
 _atom_site_occupancy
  C  C0  1  0.61366500  0.68763300  0.33295700  1
  C  C1  1  0.02788700  0.97211300  0.75000000  1
  C  C2  1  0.38633500  0.31236700  0.66704300  1
  C  C3  1  0.68763300  0.61366500  0.83295700  1
  C  C4  1  0.31236700  0.38633500  0.16704300  1
  C  C5  1  0.97211300  0.02788700  0.25000000  1
  C  C6  1  0.00000000  0.00000000  0.00000000  1
  C  C7  1  0.00000000  0.00000000  0.50000000  1
  C  C8  1  0.64379000  0.73132000  0.12021700  1
  C  C9  1  0.35621000  0.26868000  0.87978300  1
  C  C10  1  0.73132000  0.64379000  0.62021700  1
  C  C11  1  0.26868000  0.35621000  0.37978300  1
  Ni  Ni12  1  0.16116500  0.48987400  0.81509000  1
  Ni  Ni13  1  0.66094900  0.19316300  0.86591300  1
  Ni  Ni14  1  0.69751600  0.98037200  0.10852800  1
  Ni  Ni15  1  0.19316300  0.66094900  0.36591300  1
  Ni  Ni16  1  0.83883500  0.51012600  0.18491000  1
  Ni  Ni17  1  0.51012600  0.83883500  0.68491000  1
  Ni  Ni18  1  0.98037200  0.69751600  0.60852800  1
  Ni  Ni19  1  0.48987400  0.16116500  0.31509000  1
  Ni  Ni20  1  0.01962800  0.30248400  0.39147200  1
  Ni  Ni21  1  0.30248400  0.01962800  0.89147200  1
  Ni  Ni22  1  0.80683700  0.33905100  0.63408700  1
  Ni  Ni23  1  0.33905100  0.80683700  0.13408700  1
  Cu  Cu24  1  0.41650200  0.27487900  0.47352800  1
  Cu  Cu25  1  0.58349800  0.72512100  0.52647200  1
  Cu  Cu26  1  0.72512100  0.58349800  0.02647200  1
  Cu  Cu27  1  0.27487900  0.41650200  0.97352800  1
