# generated using pymatgen
data_Cu8Ni2C3
_symmetry_space_group_name_H-M   'P 1'
_cell_length_a   10.11134837
_cell_length_b   10.11134837
_cell_length_c   15.03599541
_cell_angle_alpha   89.34222185
_cell_angle_beta   89.34222185
_cell_angle_gamma   71.81675923
_symmetry_Int_Tables_number   1
_chemical_formula_structural   Cu8Ni2C3
_chemical_formula_sum   'Cu32 Ni8 C12'
_cell_volume   1460.35780760
_cell_formula_units_Z   4
loop_
 _symmetry_equiv_pos_site_id
 _symmetry_equiv_pos_as_xyz
  1  'x, y, z'
loop_
 _atom_site_type_symbol
 _atom_site_label
 _atom_site_symmetry_multiplicity
 _atom_site_fract_x
 _atom_site_fract_y
 _atom_site_fract_z
 _atom_site_occupancy
  C  C0  1  0.97083900  0.60830500  0.33769800  1
  C  C1  1  0.00000000  0.00000000  0.00000000  1
  C  C2  1  0.60830500  0.97083900  0.83769800  1
  C  C3  1  0.02916100  0.39169500  0.66230200  1
  C  C4  1  0.39169500  0.02916100  0.16230200  1
  C  C5  1  0.00000000  0.00000000  0.50000000  1
  C  C6  1  0.74870500  0.25129500  0.25000000  1
  C  C7  1  0.25129500  0.74870500  0.75000000  1
  C  C8  1  0.51269500  0.74805700  0.48781000  1
  C  C9  1  0.48730500  0.25194300  0.51219000  1
  C  C10  1  0.25194300  0.48730500  0.01219000  1
  C  C11  1  0.74805700  0.51269500  0.98781000  1
  Ni  Ni12  1  0.03712600  0.33207300  0.13958500  1
  Ni  Ni13  1  0.76548200  0.39726200  0.47556400  1
  Ni  Ni14  1  0.33207300  0.03712600  0.63958500  1
  Ni  Ni15  1  0.96287400  0.66792700  0.86041500  1
  Ni  Ni16  1  0.23451800  0.60273800  0.52443600  1
  Ni  Ni17  1  0.60273800  0.23451800  0.02443600  1
  Ni  Ni18  1  0.66792700  0.96287400  0.36041500  1
  Ni  Ni19  1  0.39726200  0.76548200  0.97556400  1
  Cu  Cu20  1  0.45372700  0.58579600  0.89790800  1
  Cu  Cu21  1  0.60033800  0.80731700  0.31297800  1
  Cu  Cu22  1  0.25464100  0.72849100  0.42044600  1
  Cu  Cu23  1  0.20920100  0.42393700  0.47632200  1
  Cu  Cu24  1  0.41420400  0.54627300  0.60209200  1
  Cu  Cu25  1  0.29530300  0.92513500  0.89327900  1
  Cu  Cu26  1  0.15561700  0.52572300  0.82867500  1
  Cu  Cu27  1  0.05274100  0.31940000  0.00314100  1
  Cu  Cu28  1  0.84438300  0.47427700  0.17132500  1
  Cu  Cu29  1  0.47427700  0.84438300  0.67132500  1
  Cu  Cu30  1  0.80731700  0.60033800  0.81297800  1
  Cu  Cu31  1  0.04091800  0.14488100  0.19388000  1
  Cu  Cu32  1  0.95908200  0.85511900  0.80612000  1
  Cu  Cu33  1  0.68060000  0.94725900  0.49685900  1
  Cu  Cu34  1  0.52572300  0.15561700  0.32867500  1
  Cu  Cu35  1  0.79079900  0.57606300  0.52367800  1
  Cu  Cu36  1  0.54627300  0.41420400  0.10209200  1
  Cu  Cu37  1  0.42393700  0.20920100  0.97632200  1
  Cu  Cu38  1  0.07486500  0.70469700  0.60672100  1
  Cu  Cu39  1  0.19268300  0.39966200  0.18702200  1
  Cu  Cu40  1  0.94725900  0.68059900  0.99685900  1
  Cu  Cu41  1  0.70469700  0.07486500  0.10672100  1
  Cu  Cu42  1  0.92513500  0.29530300  0.39327900  1
  Cu  Cu43  1  0.14488100  0.04091800  0.69388000  1
  Cu  Cu44  1  0.74535900  0.27150900  0.57955400  1
  Cu  Cu45  1  0.58579600  0.45372700  0.39790800  1
  Cu  Cu46  1  0.39966200  0.19268300  0.68702200  1
  Cu  Cu47  1  0.27150900  0.74535900  0.07955400  1
  Cu  Cu48  1  0.72849100  0.25464100  0.92044600  1
  Cu  Cu49  1  0.31940000  0.05274100  0.50314100  1
  Cu  Cu50  1  0.85511900  0.95908200  0.30612000  1
  Cu  Cu51  1  0.57606300  0.79079900  0.02367800  1
