# generated using pymatgen
data_CuNiC7
_symmetry_space_group_name_H-M   'P 1'
_cell_length_a   5.43713900
_cell_length_b   5.64741100
_cell_length_c   15.14717100
_cell_angle_alpha   90.00000000
_cell_angle_beta   90.00000000
_cell_angle_gamma   90.00000000
_symmetry_Int_Tables_number   1
_chemical_formula_structural   CuNiC7
_chemical_formula_sum   'Cu4 Ni4 C28'
_cell_volume   465.10537616
_cell_formula_units_Z   4
loop_
 _symmetry_equiv_pos_site_id
 _symmetry_equiv_pos_as_xyz
  1  'x, y, z'
loop_
 _atom_site_type_symbol
 _atom_site_label
 _atom_site_symmetry_multiplicity
 _atom_site_fract_x
 _atom_site_fract_y
 _atom_site_fract_z
 _atom_site_occupancy
  C  C0  1  0.01955800  0.52674400  0.10854900  1
  C  C1  1  0.51955800  0.97325600  0.39145100  1
  C  C2  1  0.48044200  0.02674400  0.89145100  1
  C  C3  1  0.98044200  0.47325600  0.60854900  1
  C  C4  1  0.98044200  0.47325600  0.89145100  1
  C  C5  1  0.48044200  0.02674400  0.60854900  1
  C  C6  1  0.51955800  0.97325600  0.10854900  1
  C  C7  1  0.01955800  0.52674400  0.39145100  1
  Ni  Ni8  1  0.00000000  0.00000000  0.00000000  1
  Ni  Ni9  1  0.50000000  0.50000000  0.50000000  1
  Ni  Ni10  1  0.50000000  0.50000000  0.00000000  1
  Ni  Ni11  1  0.00000000  0.00000000  0.50000000  1
  Cu  Cu12  1  0.05223400  0.06651900  0.25000000  1
  Cu  Cu13  1  0.55223400  0.43348100  0.25000000  1
  Cu  Cu14  1  0.44776600  0.56651900  0.75000000  1
  Cu  Cu15  1  0.94776600  0.93348100  0.75000000  1
  C  C16  1  0.74309500  0.76423900  0.98433600  1
  C  C17  1  0.24309500  0.73576100  0.51566400  1
  C  C18  1  0.75690500  0.26423900  0.01566400  1
  C  C19  1  0.25690500  0.23576100  0.48433600  1
  C  C20  1  0.25690500  0.23576100  0.01566400  1
  C  C21  1  0.75690500  0.26423900  0.48433600  1
  C  C22  1  0.24309500  0.73576100  0.98433600  1
  C  C23  1  0.74309500  0.76423900  0.51566400  1
  C  C24  1  0.96805100  0.92530700  0.14273000  1
  C  C25  1  0.46805100  0.57469300  0.35727000  1
  C  C26  1  0.53194900  0.42530700  0.85727000  1
  C  C27  1  0.03194900  0.07469300  0.64273000  1
  C  C28  1  0.03194900  0.07469300  0.85727000  1
  C  C29  1  0.53194900  0.42530700  0.64273000  1
  C  C30  1  0.46805100  0.57469300  0.14273000  1
  C  C31  1  0.96805100  0.92530700  0.35727000  1
  C  C32  1  0.91029900  0.38321900  0.25000000  1
  C  C33  1  0.41029900  0.11678100  0.25000000  1
  C  C34  1  0.58970100  0.88321900  0.75000000  1
  C  C35  1  0.08970100  0.61678100  0.75000000  1
