# generated using pymatgen
data_Cu(NiC)10
_symmetry_space_group_name_H-M   'P 1'
_cell_length_a   6.33169200
_cell_length_b   6.44999853
_cell_length_c   11.12542764
_cell_angle_alpha   75.39199224
_cell_angle_beta   81.64081242
_cell_angle_gamma   70.45233553
_symmetry_Int_Tables_number   1
_chemical_formula_structural   Cu(NiC)10
_chemical_formula_sum   'Cu2 Ni20 C20'
_cell_volume   413.39952085
_cell_formula_units_Z   2
loop_
 _symmetry_equiv_pos_site_id
 _symmetry_equiv_pos_as_xyz
  1  'x, y, z'
loop_
 _atom_site_type_symbol
 _atom_site_label
 _atom_site_symmetry_multiplicity
 _atom_site_fract_x
 _atom_site_fract_y
 _atom_site_fract_z
 _atom_site_occupancy
  C  C0  1  0.00000000  0.00000000  0.00000000  1
  C  C1  1  0.00000000  0.50000000  0.50000000  1
  Ni  Ni2  1  0.73740500  0.89418100  0.85726100  1
  Ni  Ni3  1  0.26259500  0.10581900  0.14273900  1
  Ni  Ni4  1  0.75978800  0.71573000  0.98876300  1
  Ni  Ni5  1  0.24021200  0.28427000  0.01123700  1
  Ni  Ni6  1  0.88327000  0.34687800  0.79294000  1
  Ni  Ni7  1  0.11673000  0.65312200  0.20706000  1
  Ni  Ni8  1  0.65008900  0.35518200  0.87092900  1
  Ni  Ni9  1  0.34991100  0.64481800  0.12907100  1
  Ni  Ni10  1  0.55368800  0.59580300  0.60959400  1
  Ni  Ni11  1  0.44631200  0.40419700  0.39040600  1
  Ni  Ni12  1  0.64048800  0.32418800  0.62978800  1
  Ni  Ni13  1  0.35951200  0.67581200  0.37021200  1
  Ni  Ni14  1  0.09717600  0.81354900  0.60070700  1
  Ni  Ni15  1  0.90282400  0.18645100  0.39929300  1
  Ni  Ni16  1  0.82946200  0.86824300  0.62445900  1
  Ni  Ni17  1  0.17053800  0.13175700  0.37554100  1
  Ni  Ni18  1  0.30261300  0.60601000  0.87436600  1
  Ni  Ni19  1  0.69738700  0.39399000  0.12563400  1
  Ni  Ni20  1  0.27957400  0.43083400  0.80544300  1
  Ni  Ni21  1  0.72042600  0.56916600  0.19455700  1
  Cu  Cu22  1  0.35153600  0.01767300  0.71219600  1
  Cu  Cu23  1  0.64846400  0.98232700  0.28780400  1
  C  C24  1  0.28392700  0.89944800  0.85934400  1
  C  C25  1  0.71607300  0.10055200  0.14065600  1
  C  C26  1  0.17101500  0.28024500  0.67545000  1
  C  C27  1  0.82898500  0.71975500  0.32455000  1
  C  C28  1  0.34627500  0.85651300  0.61708400  1
  C  C29  1  0.65372500  0.14348700  0.38291600  1
  C  C30  1  0.61066600  0.04005800  0.70566900  1
  C  C31  1  0.38933400  0.95994200  0.29433100  1
  C  C32  1  0.83294100  0.81695600  0.92812800  1
  C  C33  1  0.16705900  0.18304400  0.07187200  1
  C  C34  1  0.81455000  0.31583700  0.87768000  1
  C  C35  1  0.18545000  0.68416300  0.12232000  1
  C  C36  1  0.68522700  0.46241300  0.60019700  1
  C  C37  1  0.31477300  0.53758700  0.39980300  1
  C  C38  1  0.96759900  0.76729400  0.58994000  1
  C  C39  1  0.03240100  0.23270600  0.41006000  1
  C  C40  1  0.35012900  0.44240900  0.87535300  1
  C  C41  1  0.64987100  0.55759100  0.12464700  1
