# generated using pymatgen
data_Cu2Ni2C7
_symmetry_space_group_name_H-M   'P 1'
_cell_length_a   4.98611300
_cell_length_b   9.48278700
_cell_length_c   12.28349100
_cell_angle_alpha   90.00000000
_cell_angle_beta   90.00000000
_cell_angle_gamma   90.00000000
_symmetry_Int_Tables_number   1
_chemical_formula_structural   Cu2Ni2C7
_chemical_formula_sum   'Cu8 Ni8 C28'
_cell_volume   580.79106208
_cell_formula_units_Z   4
loop_
 _symmetry_equiv_pos_site_id
 _symmetry_equiv_pos_as_xyz
  1  'x, y, z'
loop_
 _atom_site_type_symbol
 _atom_site_label
 _atom_site_symmetry_multiplicity
 _atom_site_fract_x
 _atom_site_fract_y
 _atom_site_fract_z
 _atom_site_occupancy
  C  C0  1  0.96964300  0.89859200  0.27102900  1
  C  C1  1  0.46964300  0.60140800  0.72897100  1
  C  C2  1  0.53035700  0.10140800  0.77102900  1
  C  C3  1  0.03035700  0.39859200  0.22897100  1
  Ni  Ni4  1  0.54666000  0.13180300  0.10482500  1
  Ni  Ni5  1  0.95334000  0.86819700  0.60482500  1
  Ni  Ni6  1  0.05386800  0.15822000  0.46867300  1
  Ni  Ni7  1  0.44613200  0.84178000  0.96867300  1
  Ni  Ni8  1  0.45334000  0.63180300  0.39517500  1
  Ni  Ni9  1  0.94613200  0.65822000  0.03132700  1
  Ni  Ni10  1  0.04666000  0.36819700  0.89517500  1
  Ni  Ni11  1  0.55386800  0.34178000  0.53132700  1
  Cu  Cu12  1  0.55827200  0.40999100  0.00615000  1
  Cu  Cu13  1  0.53457500  0.16680900  0.33384400  1
  Cu  Cu14  1  0.96542500  0.83319100  0.83384400  1
  Cu  Cu15  1  0.05827200  0.09000900  0.99385000  1
  Cu  Cu16  1  0.46542500  0.66680900  0.16615600  1
  Cu  Cu17  1  0.94172800  0.59000900  0.50615000  1
  Cu  Cu18  1  0.44172800  0.90999100  0.49385000  1
  Cu  Cu19  1  0.03457500  0.33319100  0.66615600  1
  C  C20  1  0.38214900  0.24932000  0.40704700  1
  C  C21  1  0.18915800  0.66828000  0.15770900  1
  C  C22  1  0.09429400  0.90607700  0.75295500  1
  C  C23  1  0.91377000  0.06300600  0.08662500  1
  C  C24  1  0.03876300  0.66515100  0.59380200  1
  C  C25  1  0.11785100  0.75068000  0.90704700  1
  C  C26  1  0.40570600  0.09392300  0.25295500  1
  C  C27  1  0.81084200  0.16828000  0.34229100  1
  C  C28  1  0.31084200  0.33172000  0.65770900  1
  C  C29  1  0.88214900  0.25068000  0.59295300  1
  C  C30  1  0.41377000  0.43699400  0.91337500  1
  C  C31  1  0.68915800  0.83172000  0.84229100  1
  C  C32  1  0.53876300  0.83484900  0.40619800  1
  C  C33  1  0.08623000  0.56300600  0.41337500  1
  C  C34  1  0.67201600  0.53966600  0.51259700  1
  C  C35  1  0.59429400  0.59392300  0.24704500  1
  C  C36  1  0.17201600  0.96033400  0.48740300  1
  C  C37  1  0.96123700  0.16515100  0.90619800  1
  C  C38  1  0.58623000  0.93699400  0.58662500  1
  C  C39  1  0.61785100  0.74932000  0.09295300  1
  C  C40  1  0.82798400  0.46033400  0.01259700  1
  C  C41  1  0.46123700  0.33484900  0.09380200  1
  C  C42  1  0.32798400  0.03966600  0.98740300  1
  C  C43  1  0.90570600  0.40607700  0.74704500  1
