# generated using pymatgen
data_Cu5NiC4
_symmetry_space_group_name_H-M   'P 1'
_cell_length_a   12.36381500
_cell_length_b   7.73947200
_cell_length_c   11.21428451
_cell_angle_alpha   81.23221153
_cell_angle_beta   90.00000000
_cell_angle_gamma   90.00000000
_symmetry_Int_Tables_number   1
_chemical_formula_structural   Cu5NiC4
_chemical_formula_sum   'Cu40 Ni8 C32'
_cell_volume   1060.54829865
_cell_formula_units_Z   8
loop_
 _symmetry_equiv_pos_site_id
 _symmetry_equiv_pos_as_xyz
  1  'x, y, z'
loop_
 _atom_site_type_symbol
 _atom_site_label
 _atom_site_symmetry_multiplicity
 _atom_site_fract_x
 _atom_site_fract_y
 _atom_site_fract_z
 _atom_site_occupancy
  C  C0  1  0.96144100  0.79754000  0.14706200  1
  C  C1  1  0.47588500  0.29856300  0.87970900  1
  C  C2  1  0.46144100  0.20246000  0.35293800  1
  C  C3  1  0.03855900  0.20246000  0.85293800  1
  C  C4  1  0.52411500  0.70143700  0.12029100  1
  C  C5  1  0.97588500  0.70143700  0.62029100  1
  C  C6  1  0.53855900  0.79754000  0.64706200  1
  C  C7  1  0.02411500  0.29856300  0.37970900  1
  C  C8  1  0.73676600  0.97566000  0.87777600  1
  C  C9  1  0.76323400  0.97566000  0.37777600  1
  C  C10  1  0.24505000  0.47114900  0.60784000  1
  C  C11  1  0.26323400  0.02434000  0.12222400  1
  C  C12  1  0.74505000  0.52885100  0.89216000  1
  C  C13  1  0.25495000  0.47114900  0.10784000  1
  C  C14  1  0.23676600  0.02434000  0.62222400  1
  C  C15  1  0.75495000  0.52885100  0.39216000  1
  C  C16  1  0.85596900  0.25466200  0.04909700  1
  C  C17  1  0.14620000  0.58260000  0.87705700  1
  C  C18  1  0.64620000  0.41740000  0.62294300  1
  C  C19  1  0.33818000  0.75183600  0.79896800  1
  C  C20  1  0.35596900  0.74533800  0.45090300  1
  C  C21  1  0.16182000  0.75183600  0.29896800  1
  C  C22  1  0.65064800  0.07112900  0.14566200  1
  C  C23  1  0.15064800  0.92887100  0.35433800  1
  C  C24  1  0.34935200  0.92887100  0.85433800  1
  C  C25  1  0.64403100  0.25466200  0.54909700  1
  C  C26  1  0.83818000  0.24816400  0.70103200  1
  C  C27  1  0.84935200  0.07112900  0.64566200  1
  C  C28  1  0.85380000  0.41740000  0.12294300  1
  C  C29  1  0.35380000  0.58260000  0.37705700  1
  C  C30  1  0.66182000  0.24816400  0.20103200  1
  C  C31  1  0.14403100  0.74533800  0.95090300  1
  Ni  Ni32  1  0.65473000  0.12112600  0.22277500  1
  Ni  Ni33  1  0.84527000  0.12112600  0.72277500  1
  Ni  Ni34  1  0.85720800  0.38280400  0.04110300  1
  Ni  Ni35  1  0.35720800  0.61719600  0.45889700  1
  Ni  Ni36  1  0.64279200  0.38280400  0.54110300  1
  Ni  Ni37  1  0.15473000  0.87887400  0.27722500  1
  Ni  Ni38  1  0.14279200  0.61719600  0.95889700  1
  Ni  Ni39  1  0.34527000  0.87887400  0.77722500  1
  Cu  Cu40  1  0.38101400  0.93901500  0.24345500  1
  Cu  Cu41  1  0.14515700  0.48980900  0.75323000  1
  Cu  Cu42  1  0.72450400  0.25179800  0.88583200  1
  Cu  Cu43  1  0.37316000  0.25061800  0.11570900  1
  Cu  Cu44  1  0.37812600  0.52955900  0.70255400  1
  Cu  Cu45  1  0.86045700  0.98625000  0.52549700  1
  Cu  Cu46  1  0.20075200  0.28184300  0.00337100  1
  Cu  Cu47  1  0.77549600  0.25179800  0.38583200  1
  Cu  Cu48  1  0.79924800  0.71815700  0.99662900  1
  Cu  Cu49  1  0.37103600  0.96398200  0.52673700  1
  Cu  Cu50  1  0.62896400  0.03601800  0.47326300  1
  Cu  Cu51  1  0.35484300  0.48980900  0.25323000  1
  Cu  Cu52  1  0.36768800  0.55424100  0.97850600  1
  Cu  Cu53  1  0.87316000  0.74938200  0.38429100  1
  Cu  Cu54  1  0.13954300  0.01375000  0.47450300  1
  Cu  Cu55  1  0.36045700  0.01375000  0.97450300  1
  Cu  Cu56  1  0.87103600  0.03601800  0.97326300  1
  Cu  Cu57  1  0.61898600  0.06098500  0.75654500  1
  Cu  Cu58  1  0.29924800  0.28184300  0.50337100  1
  Cu  Cu59  1  0.87812600  0.47044100  0.79744600  1
  Cu  Cu60  1  0.13231200  0.55424100  0.47850600  1
  Cu  Cu61  1  0.63231200  0.44575900  0.02149400  1
  Cu  Cu62  1  0.62684000  0.74938200  0.88429100  1
  Cu  Cu63  1  0.85484300  0.51019100  0.24677000  1
  Cu  Cu64  1  0.12187400  0.52955900  0.20255400  1
  Cu  Cu65  1  0.12684000  0.25061800  0.61570900  1
  Cu  Cu66  1  0.22450400  0.74820200  0.61416800  1
  Cu  Cu67  1  0.70122300  0.78871900  0.27360500  1
  Cu  Cu68  1  0.79877700  0.78871900  0.77360500  1
  Cu  Cu69  1  0.70075200  0.71815700  0.49662900  1
  Cu  Cu70  1  0.88101400  0.06098500  0.25654500  1
  Cu  Cu71  1  0.12896400  0.96398200  0.02673700  1
  Cu  Cu72  1  0.86768800  0.44575900  0.52149400  1
  Cu  Cu73  1  0.62187400  0.47044100  0.29744600  1
  Cu  Cu74  1  0.11898600  0.93901500  0.74345500  1
  Cu  Cu75  1  0.63954300  0.98625000  0.02549700  1
  Cu  Cu76  1  0.20122300  0.21128100  0.22639500  1
  Cu  Cu77  1  0.29877700  0.21128100  0.72639500  1
  Cu  Cu78  1  0.27549600  0.74820200  0.11416800  1
  Cu  Cu79  1  0.64515700  0.51019100  0.74677000  1
