# generated using pymatgen
data_Cu6Ni3C4
_symmetry_space_group_name_H-M   'P 1'
_cell_length_a   9.60504167
_cell_length_b   9.60504167
_cell_length_c   5.65228700
_cell_angle_alpha   90.00000000
_cell_angle_beta   90.00000000
_cell_angle_gamma   119.99999775
_symmetry_Int_Tables_number   1
_chemical_formula_structural   Cu6Ni3C4
_chemical_formula_sum   'Cu12 Ni6 C8'
_cell_volume   451.59939763
_cell_formula_units_Z   2
loop_
 _symmetry_equiv_pos_site_id
 _symmetry_equiv_pos_as_xyz
  1  'x, y, z'
loop_
 _atom_site_type_symbol
 _atom_site_label
 _atom_site_symmetry_multiplicity
 _atom_site_fract_x
 _atom_site_fract_y
 _atom_site_fract_z
 _atom_site_occupancy
  C  C0  1  0.08929100  0.68386700  0.75000000  1
  C  C1  1  0.31613300  0.40542500  0.75000000  1
  C  C2  1  0.68386700  0.59457500  0.25000000  1
  C  C3  1  0.40542500  0.08929100  0.25000000  1
  C  C4  1  0.91070900  0.31613300  0.25000000  1
  C  C5  1  0.59457500  0.91070900  0.75000000  1
  C  C6  1  0.66666700  0.33333300  0.75000000  1
  C  C7  1  0.33333300  0.66666700  0.25000000  1
  Ni  Ni8  1  0.80874200  0.75056600  0.75000000  1
  Ni  Ni9  1  0.24943400  0.05817600  0.75000000  1
  Ni  Ni10  1  0.94182400  0.19125800  0.75000000  1
  Ni  Ni11  1  0.19125800  0.24943400  0.25000000  1
  Ni  Ni12  1  0.75056600  0.94182400  0.25000000  1
  Ni  Ni13  1  0.05817600  0.80874200  0.25000000  1
  Cu  Cu14  1  0.15262100  0.51920600  0.00906900  1
  Cu  Cu15  1  0.48079400  0.63341500  0.00906900  1
  Cu  Cu16  1  0.36658500  0.84737900  0.49093100  1
  Cu  Cu17  1  0.51920600  0.36658500  0.50906900  1
  Cu  Cu18  1  0.63341500  0.15262100  0.50906900  1
  Cu  Cu19  1  0.48079400  0.63341500  0.49093100  1
  Cu  Cu20  1  0.84737900  0.48079400  0.99093100  1
  Cu  Cu21  1  0.15262100  0.51920600  0.49093100  1
  Cu  Cu22  1  0.84737900  0.48079400  0.50906900  1
  Cu  Cu23  1  0.36658500  0.84737900  0.00906900  1
  Cu  Cu24  1  0.51920600  0.36658500  0.99093100  1
  Cu  Cu25  1  0.63341500  0.15262100  0.99093100  1
