# generated using pymatgen
data_Cu4NiC4
_symmetry_space_group_name_H-M   'P 1'
_cell_length_a   6.24308215
_cell_length_b   6.24308215
_cell_length_c   5.90646831
_cell_angle_alpha   81.98308028
_cell_angle_beta   81.98308028
_cell_angle_gamma   112.29615890
_symmetry_Int_Tables_number   1
_chemical_formula_structural   Cu4NiC4
_chemical_formula_sum   'Cu4 Ni1 C4'
_cell_volume   206.21555168
_cell_formula_units_Z   1
loop_
 _symmetry_equiv_pos_site_id
 _symmetry_equiv_pos_as_xyz
  1  'x, y, z'
loop_
 _atom_site_type_symbol
 _atom_site_label
 _atom_site_symmetry_multiplicity
 _atom_site_fract_x
 _atom_site_fract_y
 _atom_site_fract_z
 _atom_site_occupancy
  C  C0  1  0.63453800  0.63453800  0.25645700  1
  C  C1  1  0.11130600  0.11130600  0.44537000  1
  C  C2  1  0.85124800  0.33365200  0.88885400  1
  C  C3  1  0.33365200  0.85124800  0.88885400  1
  Ni  Ni4  1  0.44531200  0.44531200  0.75284700  1
  Cu  Cu5  1  0.51400800  0.28845800  0.63243700  1
  Cu  Cu6  1  0.32581600  0.32581600  0.99008300  1
  Cu  Cu7  1  0.65433900  0.65433900  0.75164100  1
  Cu  Cu8  1  0.28845800  0.51400800  0.63243700  1
