# generated using pymatgen
data_Cu12Ni4C3
_symmetry_space_group_name_H-M   'P 1'
_cell_length_a   15.92584100
_cell_length_b   8.13887200
_cell_length_c   9.67561826
_cell_angle_alpha   88.66603015
_cell_angle_beta   90.00000000
_cell_angle_gamma   90.00000000
_symmetry_Int_Tables_number   1
_chemical_formula_structural   Cu12Ni4C3
_chemical_formula_sum   'Cu48 Ni16 C12'
_cell_volume   1253.79808473
_cell_formula_units_Z   4
loop_
 _symmetry_equiv_pos_site_id
 _symmetry_equiv_pos_as_xyz
  1  'x, y, z'
loop_
 _atom_site_type_symbol
 _atom_site_label
 _atom_site_symmetry_multiplicity
 _atom_site_fract_x
 _atom_site_fract_y
 _atom_site_fract_z
 _atom_site_occupancy
  C  C0  1  0.83965100  0.22476700  0.01512700  1
  C  C1  1  0.66034900  0.22476700  0.51512700  1
  C  C2  1  0.09357200  0.25443100  0.54996300  1
  C  C3  1  0.90642800  0.74556900  0.45003700  1
  C  C4  1  0.16034900  0.77523300  0.98487300  1
  C  C5  1  0.40642800  0.25443100  0.04996300  1
  C  C6  1  0.59357200  0.74556900  0.95003700  1
  C  C7  1  0.33965100  0.77523300  0.48487300  1
  C  C8  1  0.87991400  0.73000600  0.82410900  1
  C  C9  1  0.62008600  0.73000600  0.32410900  1
  C  C10  1  0.12008600  0.26999400  0.17589100  1
  C  C11  1  0.37991400  0.26999400  0.67589100  1
  Ni  Ni12  1  0.19382400  0.57006100  0.28512100  1
  Ni  Ni13  1  0.96205900  0.43105600  0.23779200  1
  Ni  Ni14  1  0.80617600  0.42993900  0.71487900  1
  Ni  Ni15  1  0.04098900  0.95422300  0.23992700  1
  Ni  Ni16  1  0.45901100  0.95422300  0.73992700  1
  Ni  Ni17  1  0.76620100  0.89797300  0.20744500  1
  Ni  Ni18  1  0.73379900  0.89797300  0.70744500  1
  Ni  Ni19  1  0.46205900  0.56894400  0.26220800  1
  Ni  Ni20  1  0.30617600  0.57006100  0.78512100  1
  Ni  Ni21  1  0.54098900  0.04577700  0.26007300  1
  Ni  Ni22  1  0.69382400  0.42993900  0.21487900  1
  Ni  Ni23  1  0.95901100  0.04577700  0.76007300  1
  Ni  Ni24  1  0.23379900  0.10202700  0.79255500  1
  Ni  Ni25  1  0.53794100  0.43105600  0.73779200  1
  Ni  Ni26  1  0.26620100  0.10202700  0.29255500  1
  Ni  Ni27  1  0.03794100  0.56894400  0.76220800  1
  Cu  Cu28  1  0.99852000  0.45402600  0.34953600  1
  Cu  Cu29  1  0.10916400  0.51531200  0.79102100  1
  Cu  Cu30  1  0.84000400  0.94922500  0.21228200  1
  Cu  Cu31  1  0.19846300  0.48788900  0.39432500  1
  Cu  Cu32  1  0.52586300  0.19257400  0.28286200  1
  Cu  Cu33  1  0.47413700  0.80742600  0.71713800  1
  Cu  Cu34  1  0.80153700  0.51211100  0.60567500  1
  Cu  Cu35  1  0.58607900  0.96691000  0.35659200  1
  Cu  Cu36  1  0.08607900  0.03309000  0.14340800  1
  Cu  Cu37  1  0.15999600  0.05077500  0.78771800  1
  Cu  Cu38  1  0.50148000  0.45402600  0.84953600  1
  Cu  Cu39  1  0.34000400  0.05077500  0.28771800  1
  Cu  Cu40  1  0.49910700  0.65614500  0.35940900  1
  Cu  Cu41  1  0.51693800  0.97235100  0.15594800  1
  Cu  Cu42  1  0.22028000  0.71403800  0.27033000  1
  Cu  Cu43  1  0.84070800  0.49230300  0.82682900  1
  Cu  Cu44  1  0.65999600  0.94922500  0.71228200  1
  Cu  Cu45  1  0.75735700  0.80237200  0.81358600  1
  Cu  Cu46  1  0.24264300  0.19762800  0.18641400  1
  Cu  Cu47  1  0.71629800  0.93163100  0.11231700  1
  Cu  Cu48  1  0.00089300  0.65614500  0.85940900  1
  Cu  Cu49  1  0.78370200  0.93163100  0.61231700  1
  Cu  Cu50  1  0.28370200  0.06836900  0.88768300  1
  Cu  Cu51  1  0.98306200  0.97235100  0.65594800  1
  Cu  Cu52  1  0.50089300  0.34385500  0.64059100  1
  Cu  Cu53  1  0.34070800  0.50769700  0.67317100  1
  Cu  Cu54  1  0.91392100  0.96691000  0.85659200  1
  Cu  Cu55  1  0.72028000  0.28596200  0.22967000  1
  Cu  Cu56  1  0.15929200  0.50769700  0.17317100  1
  Cu  Cu57  1  0.65929200  0.49230300  0.32682900  1
  Cu  Cu58  1  0.97413700  0.19257400  0.78286200  1
  Cu  Cu59  1  0.30153700  0.48788900  0.89432500  1
  Cu  Cu60  1  0.49852000  0.54597400  0.15046400  1
  Cu  Cu61  1  0.74264300  0.80237200  0.31358600  1
  Cu  Cu62  1  0.69846300  0.51211100  0.10567500  1
  Cu  Cu63  1  0.01693800  0.02764900  0.34405200  1
  Cu  Cu64  1  0.41392100  0.03309000  0.64340800  1
  Cu  Cu65  1  0.89083600  0.48468800  0.20897900  1
  Cu  Cu66  1  0.27972000  0.71403800  0.77033000  1
  Cu  Cu67  1  0.02586300  0.80742600  0.21713800  1
  Cu  Cu68  1  0.21629800  0.06836900  0.38768300  1
  Cu  Cu69  1  0.39083600  0.51531200  0.29102100  1
  Cu  Cu70  1  0.48306200  0.02764900  0.84405200  1
  Cu  Cu71  1  0.00148000  0.54597400  0.65046400  1
  Cu  Cu72  1  0.25735700  0.19762800  0.68641400  1
  Cu  Cu73  1  0.99910700  0.34385500  0.14059100  1
  Cu  Cu74  1  0.77972000  0.28596200  0.72967000  1
  Cu  Cu75  1  0.60916400  0.48468800  0.70897900  1
