# generated using pymatgen
data_Cu2NiC6
_symmetry_space_group_name_H-M   'P 1'
_cell_length_a   5.34027107
_cell_length_b   5.34027107
_cell_length_c   7.09414119
_cell_angle_alpha   62.83343142
_cell_angle_beta   62.83343142
_cell_angle_gamma   42.22167748
_symmetry_Int_Tables_number   1
_chemical_formula_structural   Cu2NiC6
_chemical_formula_sum   'Cu2 Ni1 C6'
_cell_volume   118.55910038
_cell_formula_units_Z   1
loop_
 _symmetry_equiv_pos_site_id
 _symmetry_equiv_pos_as_xyz
  1  'x, y, z'
loop_
 _atom_site_type_symbol
 _atom_site_label
 _atom_site_symmetry_multiplicity
 _atom_site_fract_x
 _atom_site_fract_y
 _atom_site_fract_z
 _atom_site_occupancy
  Ni  Ni0  1  0.00000000  0.00000000  0.00000000  1
  Cu  Cu1  1  0.17670200  0.17670200  0.39264200  1
  Cu  Cu2  1  0.82329800  0.82329800  0.60735800  1
  C  C3  1  0.72180300  0.72180300  0.40433100  1
  C  C4  1  0.27819700  0.27819700  0.59566900  1
  C  C5  1  0.34573600  0.34573600  0.10890800  1
  C  C6  1  0.97503000  0.97503000  0.68975300  1
  C  C7  1  0.02497000  0.02497000  0.31024700  1
  C  C8  1  0.65426400  0.65426400  0.89109200  1
