# generated using pymatgen
data_Cu(Ni4C3)4
_symmetry_space_group_name_H-M   'P 1'
_cell_length_a   6.99729900
_cell_length_b   11.54121703
_cell_length_c   11.63635288
_cell_angle_alpha   87.63283716
_cell_angle_beta   89.48081611
_cell_angle_gamma   80.16708419
_symmetry_Int_Tables_number   1
_chemical_formula_structural   Cu(Ni4C3)4
_chemical_formula_sum   'Cu2 Ni32 C24'
_cell_volume   925.12439368
_cell_formula_units_Z   2
loop_
 _symmetry_equiv_pos_site_id
 _symmetry_equiv_pos_as_xyz
  1  'x, y, z'
loop_
 _atom_site_type_symbol
 _atom_site_label
 _atom_site_symmetry_multiplicity
 _atom_site_fract_x
 _atom_site_fract_y
 _atom_site_fract_z
 _atom_site_occupancy
  C  C0  1  0.83151400  0.15333900  0.78659900  1
  C  C1  1  0.26505500  0.61537900  0.01705500  1
  C  C2  1  0.73494500  0.38462100  0.98294500  1
  C  C3  1  0.16848600  0.84666100  0.21340100  1
  C  C4  1  0.83155200  0.19069800  0.22092100  1
  C  C5  1  0.98346100  0.66913900  0.49022600  1
  C  C6  1  0.50000000  0.00000000  0.00000000  1
  C  C7  1  0.16844800  0.80930200  0.77907900  1
  C  C8  1  0.01653900  0.33086100  0.50977400  1
  C  C9  1  0.48581300  0.48592700  0.33431400  1
  C  C10  1  0.00000000  0.00000000  0.50000000  1
  C  C11  1  0.51418700  0.51407300  0.66568600  1
  C  C12  1  0.68853000  0.69588900  0.15946500  1
  C  C13  1  0.55265500  0.23301300  0.51111200  1
  C  C14  1  0.71524400  0.66686100  0.88267900  1
  C  C15  1  0.33874800  0.13837300  0.31090500  1
  C  C16  1  0.34306000  0.09022300  0.69609000  1
  C  C17  1  0.01758900  0.51538300  0.74356800  1
  C  C18  1  0.98241100  0.48461700  0.25643200  1
  C  C19  1  0.31147000  0.30411100  0.84053500  1
  C  C20  1  0.28475600  0.33313900  0.11732100  1
  C  C21  1  0.65694000  0.90977700  0.30391000  1
  C  C22  1  0.66125200  0.86162700  0.68909500  1
  C  C23  1  0.44734500  0.76698700  0.48888800  1
  Ni  Ni24  1  0.10301400  0.37590000  0.78742400  1
  Ni  Ni25  1  0.71602400  0.79643300  0.81682600  1
  Ni  Ni26  1  0.70787000  0.69028200  0.01984500  1
  Ni  Ni27  1  0.51124400  0.78791100  0.62522600  1
  Ni  Ni28  1  0.85398500  0.87233000  0.61814200  1
  Ni  Ni29  1  0.84377500  0.51068100  0.65438500  1
  Ni  Ni30  1  0.31258300  0.16336400  0.81649600  1
  Ni  Ni31  1  0.49953500  0.35117400  0.79001500  1
  Ni  Ni32  1  0.46021000  0.00814700  0.27662300  1
  Ni  Ni33  1  0.47396900  0.62442000  0.48236400  1
  Ni  Ni34  1  0.68741700  0.83663600  0.18350400  1
  Ni  Ni35  1  0.06797800  0.41600200  0.13684700  1
  Ni  Ni36  1  0.48875600  0.21208900  0.37477400  1
  Ni  Ni37  1  0.84468300  0.96588200  0.33020300  1
  Ni  Ni38  1  0.15622500  0.48931900  0.34561500  1
  Ni  Ni39  1  0.29213000  0.30971800  0.98015500  1
  Ni  Ni40  1  0.54219000  0.60293300  0.84369800  1
  Ni  Ni41  1  0.61443500  0.81640400  0.40734200  1
  Ni  Ni42  1  0.89698600  0.62410000  0.21257600  1
  Ni  Ni43  1  0.18766600  0.57968500  0.69072000  1
  Ni  Ni44  1  0.52603100  0.37558000  0.51763600  1
  Ni  Ni45  1  0.14601500  0.12767000  0.38185800  1
  Ni  Ni46  1  0.81233400  0.42031500  0.30928000  1
  Ni  Ni47  1  0.53979000  0.99185300  0.72337700  1
  Ni  Ni48  1  0.93202200  0.58399800  0.86315300  1
  Ni  Ni49  1  0.38556500  0.18359600  0.59265800  1
  Ni  Ni50  1  0.50046500  0.64882600  0.20998500  1
  Ni  Ni51  1  0.15531700  0.03411800  0.66979700  1
  Ni  Ni52  1  0.28397600  0.20356700  0.18317400  1
  Ni  Ni53  1  0.76743100  0.16410800  0.54034400  1
  Ni  Ni54  1  0.45781000  0.39706700  0.15630200  1
  Ni  Ni55  1  0.23256900  0.83589200  0.45965600  1
  Cu  Cu56  1  0.75502400  0.15611300  0.00411500  1
  Cu  Cu57  1  0.24497600  0.84388700  0.99588500  1
