# generated using pymatgen
data_Cu3Ni9C
_symmetry_space_group_name_H-M   'P 1'
_cell_length_a   10.08338622
_cell_length_b   10.08338622
_cell_length_c   10.08338510
_cell_angle_alpha   42.42987166
_cell_angle_beta   42.42987166
_cell_angle_gamma   42.42987502
_symmetry_Int_Tables_number   1
_chemical_formula_structural   Cu3Ni9C
_chemical_formula_sum   'Cu6 Ni18 C2'
_cell_volume   422.51493868
_cell_formula_units_Z   2
loop_
 _symmetry_equiv_pos_site_id
 _symmetry_equiv_pos_as_xyz
  1  'x, y, z'
loop_
 _atom_site_type_symbol
 _atom_site_label
 _atom_site_symmetry_multiplicity
 _atom_site_fract_x
 _atom_site_fract_y
 _atom_site_fract_z
 _atom_site_occupancy
  C  C0  1  0.16686400  0.16686400  0.16686400  1
  C  C1  1  0.83313600  0.83313600  0.83313600  1
  Ni  Ni2  1  0.05163700  0.05163700  0.05163700  1
  Ni  Ni3  1  0.70795800  0.50000000  0.29204200  1
  Ni  Ni4  1  0.66591900  0.33408100  0.00000000  1
  Ni  Ni5  1  0.10282000  0.43224500  0.76169300  1
  Ni  Ni6  1  0.43224500  0.76169300  0.10282000  1
  Ni  Ni7  1  0.38662600  0.38662600  0.38662600  1
  Ni  Ni8  1  0.33408100  0.00000000  0.66591900  1
  Ni  Ni9  1  0.61337400  0.61337400  0.61337400  1
  Ni  Ni10  1  0.23830700  0.56775500  0.89718000  1
  Ni  Ni11  1  0.56775500  0.89718000  0.23830700  1
  Ni  Ni12  1  0.50000000  0.29204200  0.70795800  1
  Ni  Ni13  1  0.76169300  0.10282000  0.43224500  1
  Ni  Ni14  1  0.94836300  0.94836300  0.94836300  1
  Ni  Ni15  1  0.29204200  0.70795800  0.50000000  1
  Ni  Ni16  1  0.00000000  0.66591900  0.33408100  1
  Ni  Ni17  1  0.71786200  0.71786200  0.71786200  1
  Ni  Ni18  1  0.28213800  0.28213800  0.28213800  1
  Ni  Ni19  1  0.89718000  0.23830700  0.56775500  1
  Cu  Cu20  1  0.24203500  0.92156400  0.58181400  1
  Cu  Cu21  1  0.92156400  0.58181400  0.24203500  1
  Cu  Cu22  1  0.75796500  0.41818600  0.07843600  1
  Cu  Cu23  1  0.07843600  0.75796500  0.41818600  1
  Cu  Cu24  1  0.41818600  0.07843600  0.75796500  1
  Cu  Cu25  1  0.58181400  0.24203500  0.92156400  1
