# generated using pymatgen
data_CuNi3C23
_symmetry_space_group_name_H-M   'P 1'
_cell_length_a   9.13979700
_cell_length_b   9.13979700
_cell_length_c   9.13979700
_cell_angle_alpha   90.00000000
_cell_angle_beta   90.00000000
_cell_angle_gamma   90.00000000
_symmetry_Int_Tables_number   1
_chemical_formula_structural   CuNi3C23
_chemical_formula_sum   'Cu2 Ni6 C46'
_cell_volume   763.50106951
_cell_formula_units_Z   2
loop_
 _symmetry_equiv_pos_site_id
 _symmetry_equiv_pos_as_xyz
  1  'x, y, z'
loop_
 _atom_site_type_symbol
 _atom_site_label
 _atom_site_symmetry_multiplicity
 _atom_site_fract_x
 _atom_site_fract_y
 _atom_site_fract_z
 _atom_site_occupancy
  C  C0  1  0.82730600  0.82730600  0.17269400  1
  C  C1  1  0.82730600  0.17269400  0.82730600  1
  C  C2  1  0.17269400  0.82730600  0.82730600  1
  C  C3  1  0.17269400  0.17269400  0.17269400  1
  C  C4  1  0.32730600  0.32730600  0.67269400  1
  C  C5  1  0.32730600  0.67269400  0.32730600  1
  C  C6  1  0.67269400  0.32730600  0.32730600  1
  C  C7  1  0.67269400  0.67269400  0.67269400  1
  C  C8  1  0.75000000  0.00000000  0.50000000  1
  C  C9  1  0.00000000  0.50000000  0.75000000  1
  C  C10  1  0.25000000  0.00000000  0.50000000  1
  C  C11  1  0.50000000  0.25000000  0.00000000  1
  C  C12  1  0.50000000  0.75000000  0.00000000  1
  C  C13  1  0.00000000  0.50000000  0.25000000  1
  Ni  Ni14  1  0.75000000  0.50000000  0.00000000  1
  Ni  Ni15  1  0.00000000  0.75000000  0.50000000  1
  Ni  Ni16  1  0.25000000  0.50000000  0.00000000  1
  Ni  Ni17  1  0.50000000  0.00000000  0.25000000  1
  Ni  Ni18  1  0.50000000  0.00000000  0.75000000  1
  Ni  Ni19  1  0.00000000  0.25000000  0.50000000  1
  Cu  Cu20  1  0.00000000  0.00000000  0.00000000  1
  Cu  Cu21  1  0.50000000  0.50000000  0.50000000  1
  C  C22  1  0.57769900  0.57769900  0.42230100  1
  C  C23  1  0.57769900  0.42230100  0.57769900  1
  C  C24  1  0.07769900  0.07769900  0.92230100  1
  C  C25  1  0.07769900  0.92230100  0.07769900  1
  C  C26  1  0.42230100  0.57769900  0.57769900  1
  C  C27  1  0.42230100  0.42230100  0.42230100  1
  C  C28  1  0.92230100  0.92230100  0.92230100  1
  C  C29  1  0.92230100  0.07769900  0.07769900  1
  C  C30  1  0.57363100  0.85656500  0.14377600  1
  C  C31  1  0.57363100  0.14343500  0.85622400  1
  C  C32  1  0.85622400  0.57363100  0.14343500  1
  C  C33  1  0.85622400  0.42636900  0.85656500  1
  C  C34  1  0.85656500  0.14377600  0.57363100  1
  C  C35  1  0.85656500  0.85622400  0.42636900  1
  C  C36  1  0.07363100  0.35622400  0.64343500  1
  C  C37  1  0.07363100  0.64377600  0.35656500  1
  C  C38  1  0.14343500  0.85622400  0.57363100  1
  C  C39  1  0.14343500  0.14377600  0.42636900  1
  C  C40  1  0.14377600  0.57363100  0.85656500  1
  C  C41  1  0.14377600  0.42636900  0.14343500  1
  C  C42  1  0.35622400  0.35656500  0.92636900  1
  C  C43  1  0.35622400  0.64343500  0.07363100  1
  C  C44  1  0.35656500  0.07363100  0.64377600  1
  C  C45  1  0.35656500  0.92636900  0.35622400  1
  C  C46  1  0.42636900  0.85656500  0.85622400  1
  C  C47  1  0.42636900  0.14343500  0.14377600  1
  C  C48  1  0.64343500  0.07363100  0.35622400  1
  C  C49  1  0.64343500  0.92636900  0.64377600  1
  C  C50  1  0.64377600  0.35656500  0.07363100  1
  C  C51  1  0.64377600  0.64343500  0.92636900  1
  C  C52  1  0.92636900  0.35622400  0.35656500  1
  C  C53  1  0.92636900  0.64377600  0.64343500  1
