# generated using pymatgen
data_Cu3(NiC9)2
_symmetry_space_group_name_H-M   'P 1'
_cell_length_a   13.81520026
_cell_length_b   10.64383588
_cell_length_c   10.02147354
_cell_angle_alpha   83.84822055
_cell_angle_beta   49.99668386
_cell_angle_gamma   46.15509559
_symmetry_Int_Tables_number   1
_chemical_formula_structural   Cu3(NiC9)2
_chemical_formula_sum   'Cu6 Ni4 C36'
_cell_volume   643.81730387
_cell_formula_units_Z   2
loop_
 _symmetry_equiv_pos_site_id
 _symmetry_equiv_pos_as_xyz
  1  'x, y, z'
loop_
 _atom_site_type_symbol
 _atom_site_label
 _atom_site_symmetry_multiplicity
 _atom_site_fract_x
 _atom_site_fract_y
 _atom_site_fract_z
 _atom_site_occupancy
  C  C0  1  0.05473200  0.05372500  0.38311300  1
  C  C1  1  0.50843000  0.38311300  0.05372500  1
  C  C2  1  0.19627500  0.19526800  0.74157000  1
  C  C3  1  0.86688700  0.74157000  0.19526800  1
  Ni  Ni4  1  0.09463400  0.33648400  0.20972100  1
  Ni  Ni5  1  0.35916100  0.20972100  0.33648400  1
  Ni  Ni6  1  0.91351600  0.15536600  0.89083900  1
  Ni  Ni7  1  0.04027900  0.89083900  0.15536600  1
  Cu  Cu8  1  0.59671500  0.90328500  0.90328500  1
  Cu  Cu9  1  0.34671500  0.65328500  0.65328500  1
  Cu  Cu10  1  0.02052400  0.64519800  0.40959100  1
  Cu  Cu11  1  0.92468800  0.40959100  0.64519800  1
  Cu  Cu12  1  0.60480200  0.22947600  0.32531200  1
  Cu  Cu13  1  0.84040900  0.32531200  0.22947600  1
  C  C14  1  0.49567000  0.33262800  0.83005300  1
  C  C15  1  0.34164900  0.83005300  0.33262800  1
  C  C16  1  0.91737200  0.75433000  0.90835100  1
  C  C17  1  0.41994700  0.90835100  0.75433000  1
  C  C18  1  0.02978700  0.68537500  0.83863500  1
  C  C19  1  0.44620300  0.83863500  0.68537500  1
  C  C20  1  0.56462500  0.22021300  0.80379700  1
  C  C21  1  0.41136500  0.80379700  0.22021300  1
  C  C22  1  0.78607100  0.83768200  0.67223300  1
  C  C23  1  0.70401400  0.67223300  0.83768200  1
  C  C24  1  0.41231800  0.46392900  0.54598600  1
  C  C25  1  0.57776700  0.54598600  0.46392900  1
  C  C26  1  0.37625800  0.07585900  0.99082300  1
  C  C27  1  0.55705900  0.99082300  0.07585900  1
  C  C28  1  0.17414100  0.87374200  0.69294100  1
  C  C29  1  0.25917700  0.69294100  0.87374200  1
  C  C30  1  0.89817300  0.41962900  0.24599400  1
  C  C31  1  0.43620400  0.24599400  0.41962900  1
  C  C32  1  0.83037100  0.35182700  0.81379600  1
  C  C33  1  0.00400600  0.81379600  0.35182700  1
  C  C34  1  0.98503100  0.33213600  0.44595300  1
  C  C35  1  0.23688100  0.44595300  0.33213600  1
  C  C36  1  0.91786400  0.26496900  0.01311900  1
  C  C37  1  0.80404700  0.01311900  0.26496900  1
  C  C38  1  0.01494600  0.56032800  0.29225900  1
  C  C39  1  0.13246600  0.29225900  0.56032800  1
  C  C40  1  0.68967200  0.23505400  0.11753400  1
  C  C41  1  0.95774100  0.11753400  0.23505400  1
  C  C42  1  0.87496900  0.18626400  0.73236100  1
  C  C43  1  0.20640600  0.73236100  0.18626400  1
  C  C44  1  0.06373600  0.37503100  0.04359400  1
  C  C45  1  0.51763900  0.04359400  0.37503100  1
