# generated using pymatgen
data_Cu12Ni2C7
_symmetry_space_group_name_H-M   'P 1'
_cell_length_a   8.84360337
_cell_length_b   8.84360337
_cell_length_c   3.59627000
_cell_angle_alpha   90.00000000
_cell_angle_beta   90.00000000
_cell_angle_gamma   119.99999530
_symmetry_Int_Tables_number   1
_chemical_formula_structural   Cu12Ni2C7
_chemical_formula_sum   'Cu12 Ni2 C7'
_cell_volume   243.57990437
_cell_formula_units_Z   1
loop_
 _symmetry_equiv_pos_site_id
 _symmetry_equiv_pos_as_xyz
  1  'x, y, z'
loop_
 _atom_site_type_symbol
 _atom_site_label
 _atom_site_symmetry_multiplicity
 _atom_site_fract_x
 _atom_site_fract_y
 _atom_site_fract_z
 _atom_site_occupancy
  Ni  Ni0  1  0.00000000  0.00000000  0.00000000  1
  Ni  Ni1  1  0.33333300  0.66666700  0.50000000  1
  Cu  Cu2  1  0.09648200  0.39471400  0.00000000  1
  Cu  Cu3  1  0.29823200  0.90351800  0.00000000  1
  Cu  Cu4  1  0.60528600  0.70176800  0.00000000  1
  Cu  Cu5  1  0.82234800  0.60907200  0.00000000  1
  Cu  Cu6  1  0.78672400  0.17765200  0.00000000  1
  Cu  Cu7  1  0.39092800  0.21327600  0.00000000  1
  Cu  Cu8  1  0.05120900  0.77001500  0.50000000  1
  Cu  Cu9  1  0.71880700  0.94879100  0.50000000  1
  Cu  Cu10  1  0.22998500  0.28119300  0.50000000  1
  Cu  Cu11  1  0.88276200  0.43022900  0.50000000  1
  Cu  Cu12  1  0.54746700  0.11723800  0.50000000  1
  Cu  Cu13  1  0.56977100  0.45253300  0.50000000  1
  C  C14  1  0.07973200  0.63210400  0.00000000  1
  C  C15  1  0.55237200  0.92026800  0.00000000  1
  C  C16  1  0.36789600  0.44762800  0.00000000  1
  C  C17  1  0.78071000  0.73705800  0.50000000  1
  C  C18  1  0.95634800  0.21929000  0.50000000  1
  C  C19  1  0.26294200  0.04365200  0.50000000  1
  C  C20  1  0.66666700  0.33333300  0.00000000  1
