# generated using pymatgen
data_CuNi8C5
_symmetry_space_group_name_H-M   'P 1'
_cell_length_a   8.81568033
_cell_length_b   8.81568033
_cell_length_c   10.95571511
_cell_angle_alpha   82.96722600
_cell_angle_beta   82.96722600
_cell_angle_gamma   52.17585636
_symmetry_Int_Tables_number   1
_chemical_formula_structural   CuNi8C5
_chemical_formula_sum   'Cu2 Ni16 C10'
_cell_volume   666.26819213
_cell_formula_units_Z   2
loop_
 _symmetry_equiv_pos_site_id
 _symmetry_equiv_pos_as_xyz
  1  'x, y, z'
loop_
 _atom_site_type_symbol
 _atom_site_label
 _atom_site_symmetry_multiplicity
 _atom_site_fract_x
 _atom_site_fract_y
 _atom_site_fract_z
 _atom_site_occupancy
  C  C0  1  0.92568900  0.68008500  0.18384400  1
  C  C1  1  0.68008500  0.92568900  0.68384400  1
  C  C2  1  0.31991500  0.07431100  0.31615600  1
  C  C3  1  0.38750500  0.61249500  0.75000000  1
  C  C4  1  0.07431100  0.31991500  0.81615600  1
  C  C5  1  0.61249500  0.38750500  0.25000000  1
  C  C6  1  0.37500000  0.30584600  0.02907600  1
  C  C7  1  0.69415400  0.62500000  0.47092400  1
  C  C8  1  0.62500000  0.69415400  0.97092400  1
  C  C9  1  0.30584600  0.37500000  0.52907600  1
  Ni  Ni10  1  0.60392700  0.10562500  0.14480600  1
  Ni  Ni11  1  0.72420200  0.40902300  0.95395300  1
  Ni  Ni12  1  0.89437500  0.39607300  0.35519400  1
  Ni  Ni13  1  0.40902300  0.72420200  0.45395300  1
  Ni  Ni14  1  0.59097700  0.27579800  0.54604700  1
  Ni  Ni15  1  0.85437100  0.71235300  0.91432200  1
  Ni  Ni16  1  0.74187500  0.55404900  0.66196100  1
  Ni  Ni17  1  0.10562500  0.60392700  0.64480600  1
  Ni  Ni18  1  0.25812500  0.44595100  0.33803900  1
  Ni  Ni19  1  0.44595100  0.25812500  0.83803900  1
  Ni  Ni20  1  0.71235300  0.85437100  0.41432200  1
  Ni  Ni21  1  0.14562900  0.28764700  0.08567800  1
  Ni  Ni22  1  0.27579800  0.59097700  0.04604700  1
  Ni  Ni23  1  0.39607300  0.89437500  0.85519400  1
  Ni  Ni24  1  0.28764700  0.14562900  0.58567800  1
  Ni  Ni25  1  0.55404900  0.74187500  0.16196100  1
  Cu  Cu26  1  0.99532600  0.00467400  0.75000000  1
  Cu  Cu27  1  0.00467400  0.99532600  0.25000000  1
