# generated using pymatgen
data_Cu2NiC13
_symmetry_space_group_name_H-M   'P 1'
_cell_length_a   10.53498000
_cell_length_b   7.77626800
_cell_length_c   15.07622214
_cell_angle_alpha   62.96219298
_cell_angle_beta   90.00000000
_cell_angle_gamma   90.00000000
_symmetry_Int_Tables_number   1
_chemical_formula_structural   Cu2NiC13
_chemical_formula_sum   'Cu8 Ni4 C52'
_cell_volume   1100.10012039
_cell_formula_units_Z   4
loop_
 _symmetry_equiv_pos_site_id
 _symmetry_equiv_pos_as_xyz
  1  'x, y, z'
loop_
 _atom_site_type_symbol
 _atom_site_label
 _atom_site_symmetry_multiplicity
 _atom_site_fract_x
 _atom_site_fract_y
 _atom_site_fract_z
 _atom_site_occupancy
  C  C0  1  0.53757600  0.11028100  0.22618100  1
  C  C1  1  0.16297800  0.28326100  0.89430200  1
  C  C2  1  0.33702200  0.28326100  0.39430200  1
  C  C3  1  0.66297800  0.71673900  0.60569800  1
  C  C4  1  0.83702200  0.71673900  0.10569800  1
  C  C5  1  0.96242400  0.11028100  0.72618100  1
  C  C6  1  0.46242400  0.88971900  0.77381900  1
  C  C7  1  0.03757600  0.88971900  0.27381900  1
  Ni  Ni8  1  0.16744800  0.72315300  0.61020500  1
  Ni  Ni9  1  0.66744800  0.27684700  0.88979500  1
  Ni  Ni10  1  0.33255200  0.72315300  0.11020500  1
  Ni  Ni11  1  0.83255200  0.27684700  0.38979500  1
  Cu  Cu12  1  0.74866400  0.39907000  0.40923500  1
  Cu  Cu13  1  0.45429500  0.76440100  0.06393600  1
  Cu  Cu14  1  0.95429500  0.23559900  0.43606400  1
  Cu  Cu15  1  0.54570500  0.23559900  0.93606400  1
  Cu  Cu16  1  0.24866400  0.60093000  0.09076500  1
  Cu  Cu17  1  0.25133600  0.60093000  0.59076500  1
  Cu  Cu18  1  0.04570500  0.76440100  0.56393600  1
  Cu  Cu19  1  0.75133600  0.39907000  0.90923500  1
  C  C20  1  0.90789800  0.88393700  0.16920500  1
  C  C21  1  0.45917100  0.34606300  0.13672700  1
  C  C22  1  0.90964300  0.02657000  0.30551900  1
  C  C23  1  0.72837200  0.56533100  0.54785900  1
  C  C24  1  0.50403500  0.76082600  0.54105600  1
  C  C25  1  0.54082900  0.65393700  0.86327300  1
  C  C26  1  0.09679300  0.12451400  0.17027100  1
  C  C27  1  0.15368800  0.88436200  0.37117100  1
  C  C28  1  0.34631200  0.88436200  0.87117100  1
  C  C29  1  0.90875900  0.49616800  0.21917800  1
  C  C30  1  0.00403500  0.23917400  0.95894400  1
  C  C31  1  0.19084900  0.30942500  0.31601000  1
  C  C32  1  0.35312200  0.74891000  0.72918200  1
  C  C33  1  0.69084900  0.69057500  0.18399000  1
  C  C34  1  0.59035700  0.02657000  0.80551900  1
  C  C35  1  0.40964300  0.97343000  0.19448100  1
  C  C36  1  0.27113000  0.04585800  0.49718300  1
  C  C37  1  0.59679300  0.87548600  0.32972900  1
  C  C38  1  0.22837200  0.43466900  0.95214100  1
  C  C39  1  0.49596500  0.23917400  0.45894400  1
  C  C40  1  0.72887000  0.95414200  0.50281700  1
  C  C41  1  0.04082900  0.34606300  0.63672700  1
  C  C42  1  0.64687800  0.25109000  0.27081800  1
  C  C43  1  0.99596500  0.76082600  0.04105600  1
  C  C44  1  0.95917100  0.65393700  0.36327300  1
  C  C45  1  0.85312200  0.25109000  0.77081800  1
  C  C46  1  0.84631200  0.11563800  0.62882900  1
  C  C47  1  0.77113000  0.95414200  0.00281700  1
  C  C48  1  0.09210200  0.11606300  0.83079500  1
  C  C49  1  0.30915100  0.30942500  0.81601000  1
  C  C50  1  0.90320700  0.87548600  0.82972900  1
  C  C51  1  0.09035700  0.97343000  0.69448100  1
  C  C52  1  0.65368800  0.11563800  0.12882900  1
  C  C53  1  0.27162800  0.43466900  0.45214100  1
  C  C54  1  0.59210200  0.88393700  0.66920500  1
  C  C55  1  0.80915100  0.69057500  0.68399000  1
  C  C56  1  0.09124100  0.50383200  0.78082200  1
  C  C57  1  0.14687800  0.74891000  0.22918200  1
  C  C58  1  0.40789800  0.11606300  0.33079500  1
  C  C59  1  0.77162800  0.56533100  0.04785900  1
  C  C60  1  0.40320700  0.12451400  0.67027100  1
  C  C61  1  0.40875900  0.50383200  0.28082200  1
  C  C62  1  0.22887000  0.04585800  0.99718300  1
  C  C63  1  0.59124100  0.49616800  0.71917800  1
