# generated using pymatgen
data_CuNi4C15
_symmetry_space_group_name_H-M   'P 1'
_cell_length_a   11.13260536
_cell_length_b   11.13260536
_cell_length_c   11.13260519
_cell_angle_alpha   33.70145855
_cell_angle_beta   33.70145855
_cell_angle_gamma   33.70146167
_symmetry_Int_Tables_number   1
_chemical_formula_structural   CuNi4C15
_chemical_formula_sum   'Cu1 Ni4 C15'
_cell_volume   378.45317587
_cell_formula_units_Z   1
loop_
 _symmetry_equiv_pos_site_id
 _symmetry_equiv_pos_as_xyz
  1  'x, y, z'
loop_
 _atom_site_type_symbol
 _atom_site_label
 _atom_site_symmetry_multiplicity
 _atom_site_fract_x
 _atom_site_fract_y
 _atom_site_fract_z
 _atom_site_occupancy
  Ni  Ni0  1  0.28452700  0.28452700  0.28452700  1
  Ni  Ni1  1  0.71547300  0.71547300  0.71547300  1
  Ni  Ni2  1  0.86664800  0.86664800  0.86664800  1
  Ni  Ni3  1  0.13335200  0.13335200  0.13335200  1
  Cu  Cu4  1  0.00000000  0.00000000  0.00000000  1
  C  C5  1  0.50000000  0.50000000  0.50000000  1
  C  C6  1  0.41581500  0.41581500  0.41581500  1
  C  C7  1  0.58418500  0.58418500  0.58418500  1
  C  C8  1  0.32814600  0.76338900  0.76338900  1
  C  C9  1  0.23661100  0.67185400  0.23661100  1
  C  C10  1  0.76338900  0.32814600  0.76338900  1
  C  C11  1  0.76338900  0.76338900  0.32814600  1
  C  C12  1  0.23661100  0.23661100  0.67185400  1
  C  C13  1  0.67185400  0.23661100  0.23661100  1
  C  C14  1  0.40602900  0.40602900  0.81974100  1
  C  C15  1  0.18025900  0.59397100  0.59397100  1
  C  C16  1  0.59397100  0.59397100  0.18025900  1
  C  C17  1  0.59397100  0.18025900  0.59397100  1
  C  C18  1  0.40602900  0.81974100  0.40602900  1
  C  C19  1  0.81974100  0.40602900  0.40602900  1
