# generated using pymatgen
data_Cu3Ni3C2
_symmetry_space_group_name_H-M   'P 1'
_cell_length_a   7.78492400
_cell_length_b   7.32193200
_cell_length_c   12.87844974
_cell_angle_alpha   55.77630450
_cell_angle_beta   90.00000000
_cell_angle_gamma   90.00000000
_symmetry_Int_Tables_number   1
_chemical_formula_structural   Cu3Ni3C2
_chemical_formula_sum   'Cu12 Ni12 C8'
_cell_volume   606.97298222
_cell_formula_units_Z   4
loop_
 _symmetry_equiv_pos_site_id
 _symmetry_equiv_pos_as_xyz
  1  'x, y, z'
loop_
 _atom_site_type_symbol
 _atom_site_label
 _atom_site_symmetry_multiplicity
 _atom_site_fract_x
 _atom_site_fract_y
 _atom_site_fract_z
 _atom_site_occupancy
  C  C0  1  0.92919500  0.72750400  0.75048700  1
  C  C1  1  0.42919500  0.27249600  0.74951300  1
  C  C2  1  0.07080500  0.27249600  0.24951300  1
  C  C3  1  0.57080500  0.72750400  0.25048700  1
  C  C4  1  0.00000000  0.50000000  0.50000000  1
  C  C5  1  0.50000000  0.50000000  0.00000000  1
  C  C6  1  0.00000000  0.00000000  0.00000000  1
  C  C7  1  0.50000000  0.00000000  0.50000000  1
  Ni  Ni8  1  0.01938100  0.10140000  0.82788800  1
  Ni  Ni9  1  0.51938100  0.89860000  0.67211200  1
  Ni  Ni10  1  0.98061900  0.89860000  0.17211200  1
  Ni  Ni11  1  0.48061900  0.10140000  0.32788800  1
  Ni  Ni12  1  0.13341600  0.24578700  0.96781800  1
  Ni  Ni13  1  0.63341600  0.75421300  0.53218200  1
  Ni  Ni14  1  0.86658400  0.75421300  0.03218200  1
  Ni  Ni15  1  0.36658400  0.24578700  0.46781800  1
  Ni  Ni16  1  0.20526800  0.82960700  0.03898800  1
  Ni  Ni17  1  0.70526800  0.17039300  0.46101200  1
  Ni  Ni18  1  0.79473200  0.17039300  0.96101200  1
  Ni  Ni19  1  0.29473200  0.82960700  0.53898800  1
  Cu  Cu20  1  0.03380700  0.16549500  0.72148700  1
  Cu  Cu21  1  0.53380700  0.83450500  0.77851300  1
  Cu  Cu22  1  0.96619300  0.83450500  0.27851300  1
  Cu  Cu23  1  0.46619300  0.16549500  0.22148700  1
  Cu  Cu24  1  0.21625900  0.39779800  0.94665500  1
  Cu  Cu25  1  0.71625800  0.60220200  0.55334500  1
  Cu  Cu26  1  0.78374100  0.60220200  0.05334500  1
  Cu  Cu27  1  0.28374100  0.39779800  0.44665500  1
  Cu  Cu28  1  0.33076500  0.72278700  0.06364700  1
  Cu  Cu29  1  0.83076500  0.27721300  0.43635300  1
  Cu  Cu30  1  0.66923500  0.27721300  0.93635300  1
  Cu  Cu31  1  0.16923500  0.72278700  0.56364700  1
