# generated using pymatgen
data_Cu2NiC2
_symmetry_space_group_name_H-M   'P 1'
_cell_length_a   15.33175100
_cell_length_b   7.71704000
_cell_length_c   7.72470242
_cell_angle_alpha   60.53722996
_cell_angle_beta   90.00000000
_cell_angle_gamma   90.00000000
_symmetry_Int_Tables_number   1
_chemical_formula_structural   Cu2NiC2
_chemical_formula_sum   'Cu16 Ni8 C16'
_cell_volume   795.75720869
_cell_formula_units_Z   8
loop_
 _symmetry_equiv_pos_site_id
 _symmetry_equiv_pos_as_xyz
  1  'x, y, z'
loop_
 _atom_site_type_symbol
 _atom_site_label
 _atom_site_symmetry_multiplicity
 _atom_site_fract_x
 _atom_site_fract_y
 _atom_site_fract_z
 _atom_site_occupancy
  C  C0  1  0.40246400  0.37911000  0.39497500  1
  C  C1  1  0.90246400  0.62089000  0.10502500  1
  C  C2  1  0.59753600  0.62089000  0.60502500  1
  C  C3  1  0.09753600  0.37911000  0.89497500  1
  C  C4  1  0.36288800  0.88937400  0.42080800  1
  C  C5  1  0.86288800  0.11062600  0.07919200  1
  C  C6  1  0.54415100  0.17183900  0.12962400  1
  C  C7  1  0.83619200  0.59926700  0.60870700  1
  C  C8  1  0.04415100  0.82816100  0.37037600  1
  C  C9  1  0.66380800  0.59926700  0.10870700  1
  C  C10  1  0.63711200  0.11062600  0.57919200  1
  C  C11  1  0.95584900  0.17183900  0.62962400  1
  C  C12  1  0.33619200  0.40073300  0.89129300  1
  C  C13  1  0.13711200  0.88937400  0.92080800  1
  C  C14  1  0.16380800  0.40073300  0.39129300  1
  C  C15  1  0.45584900  0.82816100  0.87037600  1
  Ni  Ni16  1  0.60004700  0.93174600  0.92924500  1
  Ni  Ni17  1  0.10004700  0.06825400  0.57075500  1
  Ni  Ni18  1  0.81668400  0.24241500  0.73757000  1
  Ni  Ni19  1  0.68331600  0.24241500  0.23757000  1
  Ni  Ni20  1  0.31668400  0.75758500  0.76243000  1
  Ni  Ni21  1  0.18331600  0.75758500  0.26243000  1
  Ni  Ni22  1  0.39995300  0.06825400  0.07075500  1
  Ni  Ni23  1  0.89995300  0.93174600  0.42924500  1
  Cu  Cu24  1  0.53976600  0.82505600  0.45701200  1
  Cu  Cu25  1  0.81066000  0.68984400  0.17539000  1
  Cu  Cu26  1  0.12475400  0.50551200  0.01059700  1
  Cu  Cu27  1  0.37524600  0.50551200  0.51059700  1
  Cu  Cu28  1  0.87524600  0.49448800  0.98940300  1
  Cu  Cu29  1  0.62475400  0.49448800  0.48940300  1
  Cu  Cu30  1  0.96282100  0.48299800  0.30629700  1
  Cu  Cu31  1  0.53717900  0.48299800  0.80629700  1
  Cu  Cu32  1  0.46282100  0.51700200  0.19370300  1
  Cu  Cu33  1  0.03717900  0.51700200  0.69370300  1
  Cu  Cu34  1  0.68934000  0.68984400  0.67539000  1
  Cu  Cu35  1  0.18934000  0.31015600  0.82461000  1
  Cu  Cu36  1  0.31066000  0.31015600  0.32461000  1
  Cu  Cu37  1  0.96023400  0.82505600  0.95701200  1
  Cu  Cu38  1  0.46023400  0.17494400  0.54298800  1
  Cu  Cu39  1  0.03976600  0.17494400  0.04298800  1
