# generated using pymatgen
data_Cu7Ni2C3
_symmetry_space_group_name_H-M   'P 1'
_cell_length_a   6.93051800
_cell_length_b   9.27786300
_cell_length_c   21.35217667
_cell_angle_alpha   71.13974000
_cell_angle_beta   90.00000000
_cell_angle_gamma   90.00000000
_symmetry_Int_Tables_number   1
_chemical_formula_structural   Cu7Ni2C3
_chemical_formula_sum   'Cu28 Ni8 C12'
_cell_volume   1299.23928025
_cell_formula_units_Z   4
loop_
 _symmetry_equiv_pos_site_id
 _symmetry_equiv_pos_as_xyz
  1  'x, y, z'
loop_
 _atom_site_type_symbol
 _atom_site_label
 _atom_site_symmetry_multiplicity
 _atom_site_fract_x
 _atom_site_fract_y
 _atom_site_fract_z
 _atom_site_occupancy
  C  C0  1  0.53014300  0.34026000  0.31032200  1
  C  C1  1  0.03014300  0.65974000  0.18967800  1
  C  C2  1  0.46985700  0.65974000  0.68967800  1
  C  C3  1  0.96985700  0.34026000  0.81032200  1
  C  C4  1  0.01249900  0.24830000  0.48974400  1
  C  C5  1  0.51249900  0.75170000  0.01025600  1
  C  C6  1  0.98750100  0.75170000  0.51025600  1
  C  C7  1  0.48750100  0.24830000  0.98974400  1
  C  C8  1  0.47342500  0.83939400  0.34953200  1
  C  C9  1  0.97342500  0.16060600  0.15046800  1
  C  C10  1  0.52657500  0.16060600  0.65046800  1
  C  C11  1  0.02657500  0.83939400  0.84953200  1
  Ni  Ni12  1  0.01694000  0.07227500  0.33078000  1
  Ni  Ni13  1  0.51694000  0.92772500  0.16922000  1
  Ni  Ni14  1  0.98306000  0.92772500  0.66922000  1
  Ni  Ni15  1  0.48306000  0.07227500  0.83078000  1
  Ni  Ni16  1  0.51079300  0.46046900  0.45608800  1
  Ni  Ni17  1  0.01079300  0.53953100  0.04391200  1
  Ni  Ni18  1  0.48920700  0.53953100  0.54391200  1
  Ni  Ni19  1  0.98920700  0.46046900  0.95608800  1
  Cu  Cu20  1  0.46617400  0.76796400  0.50551300  1
  Cu  Cu21  1  0.96617400  0.23203600  0.99448700  1
  Cu  Cu22  1  0.53382600  0.23203600  0.49448700  1
  Cu  Cu23  1  0.03382600  0.76796400  0.00551300  1
  Cu  Cu24  1  0.07378000  0.91726700  0.28179000  1
  Cu  Cu25  1  0.57378000  0.08273300  0.21821000  1
  Cu  Cu26  1  0.92622000  0.08273300  0.71821000  1
  Cu  Cu27  1  0.42622000  0.91726700  0.78179000  1
  Cu  Cu28  1  0.48814100  0.71620000  0.23918200  1
  Cu  Cu29  1  0.98814100  0.28380000  0.26081800  1
  Cu  Cu30  1  0.51185900  0.28380000  0.76081800  1
  Cu  Cu31  1  0.01185900  0.71620000  0.73918200  1
  Cu  Cu32  1  0.77709000  0.02184500  0.38977500  1
  Cu  Cu33  1  0.27709000  0.97815500  0.11022500  1
  Cu  Cu34  1  0.22291000  0.97815500  0.61022500  1
  Cu  Cu35  1  0.72291000  0.02184500  0.88977500  1
  Cu  Cu36  1  0.26836200  0.54002300  0.40127700  1
  Cu  Cu37  1  0.76836200  0.45997700  0.09872300  1
  Cu  Cu38  1  0.73163800  0.45997700  0.59872300  1
  Cu  Cu39  1  0.23163800  0.54002300  0.90127700  1
  Cu  Cu40  1  0.74420400  0.56872400  0.40369900  1
  Cu  Cu41  1  0.24420400  0.43127600  0.09630100  1
  Cu  Cu42  1  0.25579600  0.43127600  0.59630100  1
  Cu  Cu43  1  0.75579600  0.56872400  0.90369900  1
  Cu  Cu44  1  0.24656500  0.06630600  0.39158400  1
  Cu  Cu45  1  0.74656500  0.93369400  0.10841600  1
  Cu  Cu46  1  0.75343500  0.93369400  0.60841600  1
  Cu  Cu47  1  0.25343500  0.06630600  0.89158400  1
