# generated using pymatgen
data_Cu2NiC8
_symmetry_space_group_name_H-M   'P 1'
_cell_length_a   12.62594400
_cell_length_b   9.19640100
_cell_length_c   9.76927840
_cell_angle_alpha   89.55142489
_cell_angle_beta   90.00000000
_cell_angle_gamma   90.00000000
_symmetry_Int_Tables_number   1
_chemical_formula_structural   Cu2NiC8
_chemical_formula_sum   'Cu8 Ni4 C32'
_cell_volume   1134.30784253
_cell_formula_units_Z   4
loop_
 _symmetry_equiv_pos_site_id
 _symmetry_equiv_pos_as_xyz
  1  'x, y, z'
loop_
 _atom_site_type_symbol
 _atom_site_label
 _atom_site_symmetry_multiplicity
 _atom_site_fract_x
 _atom_site_fract_y
 _atom_site_fract_z
 _atom_site_occupancy
  C  C0  1  0.31208100  0.87989100  0.11724700  1
  C  C1  1  0.81208100  0.62010900  0.88275300  1
  C  C2  1  0.68791900  0.12010900  0.88275300  1
  C  C3  1  0.18791900  0.37989100  0.11724700  1
  Ni  Ni4  1  0.36311200  0.12250000  0.65545800  1
  Ni  Ni5  1  0.63688800  0.87750000  0.34454200  1
  Ni  Ni6  1  0.13688800  0.62250000  0.65545800  1
  Ni  Ni7  1  0.86311200  0.37750000  0.34454200  1
  Cu  Cu8  1  0.60585900  0.51868300  0.22463600  1
  Cu  Cu9  1  0.10585900  0.98131700  0.77536400  1
  Cu  Cu10  1  0.03627700  0.69884100  0.32052400  1
  Cu  Cu11  1  0.53627700  0.80115900  0.67947600  1
  Cu  Cu12  1  0.39414100  0.48131700  0.77536400  1
  Cu  Cu13  1  0.46372300  0.19884100  0.32052400  1
  Cu  Cu14  1  0.96372300  0.30115900  0.67947600  1
  Cu  Cu15  1  0.89414100  0.01868300  0.22463600  1
  C  C16  1  0.67418800  0.57139700  0.40647100  1
  C  C17  1  0.19144400  0.65213600  0.34852900  1
  C  C18  1  0.52856700  0.07241700  0.17006100  1
  C  C19  1  0.05545000  0.79514400  0.87062100  1
  C  C20  1  0.97143300  0.57241700  0.17006100  1
  C  C21  1  0.79145600  0.88953300  0.12135200  1
  C  C22  1  0.94455000  0.20485600  0.12937900  1
  C  C23  1  0.47143300  0.92758300  0.82993900  1
  C  C24  1  0.54687900  0.58085500  0.75153500  1
  C  C25  1  0.44787500  0.81623600  0.50588400  1
  C  C26  1  0.04687900  0.91914500  0.24846500  1
  C  C27  1  0.69144400  0.84786400  0.65147100  1
  C  C28  1  0.05212500  0.31623600  0.50588400  1
  C  C29  1  0.30855600  0.15213600  0.34852900  1
  C  C30  1  0.70854400  0.38953300  0.12135200  1
  C  C31  1  0.82581200  0.07139700  0.40647100  1
  C  C32  1  0.29145600  0.61046700  0.87864800  1
  C  C33  1  0.95312100  0.08085500  0.75153500  1
  C  C34  1  0.80855600  0.34786400  0.65147100  1
  C  C35  1  0.20854400  0.11046700  0.87864800  1
  C  C36  1  0.32581200  0.42860300  0.59352900  1
  C  C37  1  0.45312100  0.41914500  0.24846500  1
  C  C38  1  0.02856700  0.42758300  0.82993900  1
  C  C39  1  0.55212500  0.18376400  0.49411600  1
  C  C40  1  0.55545000  0.70485600  0.12937900  1
  C  C41  1  0.44455000  0.29514400  0.87062100  1
  C  C42  1  0.94787500  0.68376400  0.49411600  1
  C  C43  1  0.17418800  0.92860300  0.59352900  1
