# generated using pymatgen
data_Cu10Ni3C32
_symmetry_space_group_name_H-M   'P 1'
_cell_length_a   5.43476500
_cell_length_b   10.89607400
_cell_length_c   22.88097296
_cell_angle_alpha   71.60149651
_cell_angle_beta   90.00000000
_cell_angle_gamma   90.00000000
_symmetry_Int_Tables_number   1
_chemical_formula_structural   Cu10Ni3C32
_chemical_formula_sum   'Cu20 Ni6 C64'
_cell_volume   1285.69673956
_cell_formula_units_Z   2
loop_
 _symmetry_equiv_pos_site_id
 _symmetry_equiv_pos_as_xyz
  1  'x, y, z'
loop_
 _atom_site_type_symbol
 _atom_site_label
 _atom_site_symmetry_multiplicity
 _atom_site_fract_x
 _atom_site_fract_y
 _atom_site_fract_z
 _atom_site_occupancy
  C  C0  1  0.50469700  0.38975500  0.42440800  1
  C  C1  1  0.49530300  0.61024500  0.57559200  1
  C  C2  1  0.49530300  0.38975500  0.92440800  1
  C  C3  1  0.50469700  0.61024500  0.07559200  1
  Ni  Ni4  1  0.55074100  0.50000000  0.75000000  1
  Ni  Ni5  1  0.50000000  0.00000000  0.50000000  1
  Ni  Ni6  1  0.44925900  0.50000000  0.25000000  1
  Ni  Ni7  1  0.47156500  0.00000000  0.75000000  1
  Ni  Ni8  1  0.50000000  0.00000000  0.00000000  1
  Ni  Ni9  1  0.52843500  0.00000000  0.25000000  1
  Cu  Cu10  1  0.95613700  0.68217400  0.19567800  1
  Cu  Cu11  1  0.90639000  0.62898600  0.92565600  1
  Cu  Cu12  1  0.77695500  0.72488200  0.79568000  1
  Cu  Cu13  1  0.01541300  0.16090000  0.52216900  1
  Cu  Cu14  1  0.04386300  0.31782600  0.80432200  1
  Cu  Cu15  1  0.98458700  0.16090000  0.02216900  1
  Cu  Cu16  1  0.09361000  0.62898600  0.42565600  1
  Cu  Cu17  1  0.22304500  0.27511800  0.20432000  1
  Cu  Cu18  1  0.01541300  0.83910000  0.97783100  1
  Cu  Cu19  1  0.95613700  0.31782600  0.30432200  1
  Cu  Cu20  1  0.77695500  0.27511800  0.70432000  1
  Cu  Cu21  1  0.98458700  0.83910000  0.47783100  1
  Cu  Cu22  1  0.21572600  0.95718000  0.62954300  1
  Cu  Cu23  1  0.21572600  0.04282000  0.87045700  1
  Cu  Cu24  1  0.04386300  0.68217400  0.69567800  1
  Cu  Cu25  1  0.78427400  0.04282000  0.37045700  1
  Cu  Cu26  1  0.90639000  0.37101400  0.57434400  1
  Cu  Cu27  1  0.09361000  0.37101400  0.07434400  1
  Cu  Cu28  1  0.22304500  0.72488200  0.29568000  1
  Cu  Cu29  1  0.78427400  0.95718000  0.12954300  1
  C  C30  1  0.34473600  0.39616200  0.04550900  1
  C  C31  1  0.95003200  0.48456700  0.07924800  1
  C  C32  1  0.56240000  0.05529500  0.40720200  1
  C  C33  1  0.99213000  0.04666300  0.08606900  1
  C  C34  1  0.76556600  0.14908700  0.98371000  1
  C  C35  1  0.75290500  0.00563400  0.18340600  1
  C  C36  1  0.60601800  0.39037900  0.69045000  1
  C  C37  1  0.97029200  0.69665900  0.26367000  1
  C  C38  1  0.23767900  0.16817700  0.99482500  1
  C  C39  1  0.24709500  0.00563400  0.68340600  1
  C  C40  1  0.68331100  0.85360300  0.75670700  1
  C  C41  1  0.02970800  0.30334100  0.73633000  1
  C  C42  1  0.31668900  0.14639700  0.24329300  1
  C  C43  1  0.05558200  0.82651200  0.64905800  1
  C  C44  1  0.00787000  0.95333700  0.91393100  1
  C  C45  1  0.75290500  0.99436600  0.31659400  1
  C  C46  1  0.68331100  0.14639700  0.74329300  1
  C  C47  1  0.92534900  0.28936100  0.04098100  1
  C  C48  1  0.76556600  0.85091300  0.51629000  1
  C  C49  1  0.04996800  0.51543300  0.92075200  1
  C  C50  1  0.94441800  0.17348800  0.35094200  1
  C  C51  1  0.34473600  0.60383800  0.45449100  1
  C  C52  1  0.71765400  0.38485600  0.30927100  1
  C  C53  1  0.00787000  0.04666300  0.58606900  1
  C  C54  1  0.88437400  0.26103600  0.64189300  1
  C  C55  1  0.65526400  0.39616200  0.54550900  1
  C  C56  1  0.39398200  0.39037900  0.19045000  1
  C  C57  1  0.43760000  0.05529500  0.90720200  1
  C  C58  1  0.43760000  0.94470500  0.59279800  1
  C  C59  1  0.28234600  0.61514400  0.69072900  1
  C  C60  1  0.60601800  0.60962100  0.80955000  1
  C  C61  1  0.88437400  0.73896400  0.85810700  1
  C  C62  1  0.92534900  0.71063900  0.45901900  1
  C  C63  1  0.76232100  0.16817700  0.49482500  1
  C  C64  1  0.65526400  0.60383800  0.95449100  1
  C  C65  1  0.04996800  0.48456700  0.57924800  1
  C  C66  1  0.07465100  0.28936100  0.54098100  1
  C  C67  1  0.23767900  0.83182300  0.50517500  1
  C  C68  1  0.23443400  0.14908700  0.48371000  1
  C  C69  1  0.19450800  0.62617600  0.18229700  1
  C  C70  1  0.71765400  0.61514400  0.19072900  1
  C  C71  1  0.23443400  0.85091300  0.01629000  1
  C  C72  1  0.19450800  0.37382400  0.31770300  1
  C  C73  1  0.76232100  0.83182300  0.00517500  1
  C  C74  1  0.28234600  0.38485600  0.80927100  1
  C  C75  1  0.02970800  0.69665900  0.76367000  1
  C  C76  1  0.95003200  0.51543300  0.42075200  1
  C  C77  1  0.31668900  0.85360300  0.25670700  1
  C  C78  1  0.11562600  0.73896400  0.35810700  1
  C  C79  1  0.80549200  0.37382400  0.81770300  1
  C  C80  1  0.94441800  0.82651200  0.14905800  1
  C  C81  1  0.99213000  0.95333700  0.41393100  1
  C  C82  1  0.11562600  0.26103600  0.14189300  1
  C  C83  1  0.97029200  0.30334100  0.23633000  1
  C  C84  1  0.56240000  0.94470500  0.09279800  1
  C  C85  1  0.80549200  0.62617600  0.68229700  1
  C  C86  1  0.07465100  0.71063900  0.95901900  1
  C  C87  1  0.05558200  0.17348800  0.85094200  1
  C  C88  1  0.24709500  0.99436600  0.81659400  1
  C  C89  1  0.39398200  0.60962100  0.30955000  1
