# generated using pymatgen
data_CuNiC4
_symmetry_space_group_name_H-M   'P 1'
_cell_length_a   18.73562100
_cell_length_b   18.73562100
_cell_length_c   8.52825296
_cell_angle_alpha   89.98642542
_cell_angle_beta   89.98642542
_cell_angle_gamma   119.96648243
_symmetry_Int_Tables_number   1
_chemical_formula_structural   CuNiC4
_chemical_formula_sum   'Cu18 Ni18 C72'
_cell_volume   2593.42338986
_cell_formula_units_Z   18
loop_
 _symmetry_equiv_pos_site_id
 _symmetry_equiv_pos_as_xyz
  1  'x, y, z'
loop_
 _atom_site_type_symbol
 _atom_site_label
 _atom_site_symmetry_multiplicity
 _atom_site_fract_x
 _atom_site_fract_y
 _atom_site_fract_z
 _atom_site_occupancy
  Ni  Ni0  1  0.31663000  0.49336800  0.26258700  1
  Ni  Ni1  1  0.57411600  0.99088000  0.76189800  1
  Ni  Ni2  1  0.66218200  0.16667600  0.26351400  1
  Ni  Ni3  1  0.49336800  0.31663000  0.26258700  1
  Ni  Ni4  1  0.41656200  0.98980500  0.26112200  1
  Ni  Ni5  1  0.56442200  0.56442200  0.26445900  1
  Ni  Ni6  1  0.15556400  0.49263000  0.76454000  1
  Ni  Ni7  1  0.48508300  0.81381300  0.26446900  1
  Ni  Ni8  1  0.16667600  0.66218200  0.26351400  1
  Ni  Ni9  1  0.40471300  0.40471300  0.76268600  1
  Ni  Ni10  1  0.48180400  0.65062700  0.76410500  1
  Ni  Ni11  1  0.81381300  0.48508300  0.26446900  1
  Ni  Ni12  1  0.99088000  0.57411600  0.76189800  1
  Ni  Ni13  1  0.98980500  0.41656200  0.26112200  1
  Ni  Ni14  1  0.32709500  0.82034000  0.76427500  1
  Ni  Ni15  1  0.65062700  0.48180400  0.76410500  1
  Ni  Ni16  1  0.49263000  0.15556400  0.76454000  1
  Ni  Ni17  1  0.82034000  0.32709500  0.76427500  1
  Cu  Cu18  1  0.15851200  0.49449800  0.38937500  1
  Cu  Cu19  1  0.31398900  0.49179700  0.89065800  1
  Cu  Cu20  1  0.32559500  0.82110100  0.38852900  1
  Cu  Cu21  1  0.98804300  0.41301500  0.88654000  1
  Cu  Cu22  1  0.66226600  0.16759800  0.89089400  1
  Cu  Cu23  1  0.40310000  0.40310000  0.38917200  1
  Cu  Cu24  1  0.57699100  0.99094500  0.39000000  1
  Cu  Cu25  1  0.99094500  0.57699100  0.39000000  1
  Cu  Cu26  1  0.48202600  0.65257200  0.38867600  1
  Cu  Cu27  1  0.82110100  0.32559500  0.38852900  1
  Cu  Cu28  1  0.56623200  0.56623200  0.88508600  1
  Cu  Cu29  1  0.49179700  0.31398900  0.89065800  1
  Cu  Cu30  1  0.16759800  0.66226600  0.89089400  1
  Cu  Cu31  1  0.49449800  0.15851200  0.38937500  1
  Cu  Cu32  1  0.48684800  0.81271500  0.89009500  1
  Cu  Cu33  1  0.41301500  0.98804300  0.88654000  1
  Cu  Cu34  1  0.81271500  0.48684800  0.89009500  1
  Cu  Cu35  1  0.65257200  0.48202600  0.38867600  1
  C  C36  1  0.38857000  0.80498600  0.30189000  1
  C  C37  1  0.48843800  0.29155500  0.06447800  1
  C  C38  1  0.58987600  0.40423800  0.29886500  1
  C  C39  1  0.47141200  0.62943100  0.56325500  1
  C  C40  1  0.62943100  0.47141200  0.56325500  1
  C  C41  1  0.08021100  0.64755300  0.85855400  1
  C  C42  1  0.60014200  0.99589200  0.56402500  1
  C  C43  1  0.49125600  0.79685800  0.06519500  1
  C  C44  1  0.17374400  0.58556900  0.84953700  1
  C  C45  1  0.79685800  0.49125600  0.06519500  1
  C  C46  1  0.49438400  0.73929400  0.37049000  1
  C  C47  1  0.34746500  0.83426500  0.56346300  1
  C  C48  1  0.90919100  0.33104400  0.84829800  1
  C  C49  1  0.49568900  0.13965000  0.56391500  1
  C  C50  1  0.48002300  0.98914700  0.77959800  1
  C  C51  1  0.42024700  0.32965100  0.85291600  1
  C  C52  1  0.68312800  0.18868600  0.06459100  1
  C  C53  1  0.17632900  0.57639800  0.31309200  1
  C  C54  1  0.38294900  0.38294900  0.56375400  1
  C  C55  1  0.55833000  0.89906700  0.84710800  1
  C  C56  1  0.99589200  0.60014200  0.56402500  1
  C  C57  1  0.64755300  0.08021100  0.85855400  1
  C  C58  1  0.08359700  0.42152900  0.30822100  1
  C  C59  1  0.89906700  0.55833000  0.84710800  1
  C  C60  1  0.39048700  0.57595800  0.85505900  1
  C  C61  1  0.06676300  0.40895100  0.85143100  1
  C  C62  1  0.73929400  0.49438400  0.37049000  1
  C  C63  1  0.43560400  0.98716300  0.06032900  1
  C  C64  1  0.48474400  0.48474400  0.37230200  1
  C  C65  1  0.91132600  0.56753300  0.31798700  1
  C  C66  1  0.32764800  0.89851200  0.31884900  1
  C  C67  1  0.23354000  0.48310800  0.37231600  1
  C  C68  1  0.57595800  0.39048700  0.85505900  1
  C  C69  1  0.06684000  0.64489500  0.30362800  1
  C  C70  1  0.57639800  0.17632900  0.31309200  1
  C  C71  1  0.33376200  0.41153600  0.31023900  1
  C  C72  1  0.64489500  0.06684000  0.30362800  1
  C  C73  1  0.40423800  0.58987600  0.29886500  1
  C  C74  1  0.54864400  0.54864400  0.06175100  1
  C  C75  1  0.23848500  0.74760300  0.36930800  1
  C  C76  1  0.83426500  0.34746500  0.56346300  1
  C  C77  1  0.73540500  0.22924000  0.79128600  1
  C  C78  1  0.49733100  0.49733100  0.78654900  1
  C  C79  1  0.98914700  0.48002300  0.77959800  1
  C  C80  1  0.42152900  0.08359700  0.30822100  1
  C  C81  1  0.22924000  0.73540500  0.79128600  1
  C  C82  1  0.41153600  0.33376200  0.31023900  1
  C  C83  1  0.56753300  0.91132600  0.31798700  1
  C  C84  1  0.80460500  0.40260500  0.85361800  1
  C  C85  1  0.24108600  0.48069400  0.79101200  1
  C  C86  1  0.13965000  0.49568900  0.56391500  1
  C  C87  1  0.58556900  0.17374400  0.84953700  1
  C  C88  1  0.32965100  0.42024700  0.85291600  1
  C  C89  1  0.99018200  0.49479600  0.37461200  1
  C  C90  1  0.40895100  0.06676300  0.85143100  1
  C  C91  1  0.18868600  0.68312800  0.06459100  1
  C  C92  1  0.65177400  0.55860700  0.32178200  1
  C  C93  1  0.56820900  0.64724700  0.84231600  1
  C  C94  1  0.49479600  0.99018200  0.37461200  1
  C  C95  1  0.89851200  0.32764800  0.31884900  1
  C  C96  1  0.40260500  0.80460500  0.85361800  1
  C  C97  1  0.74760300  0.23848500  0.36930800  1
  C  C98  1  0.49684400  0.74901800  0.79453200  1
  C  C99  1  0.48310800  0.23354000  0.37231600  1
  C  C100  1  0.80498600  0.38857000  0.30189000  1
  C  C101  1  0.55860700  0.65177400  0.32178200  1
  C  C102  1  0.33104400  0.90919100  0.84829800  1
  C  C103  1  0.29155500  0.48843800  0.06447800  1
  C  C104  1  0.48069400  0.24108600  0.79101200  1
  C  C105  1  0.98716300  0.43560400  0.06032900  1
  C  C106  1  0.64724700  0.56820900  0.84231600  1
  C  C107  1  0.74901800  0.49684400  0.79453200  1
