# generated using pymatgen
data_Cu3Ni3C49
_symmetry_space_group_name_H-M   'P 1'
_cell_length_a   11.76330566
_cell_length_b   11.76330566
_cell_length_c   11.76330538
_cell_angle_alpha   112.72751294
_cell_angle_beta   112.72751294
_cell_angle_gamma   112.72750697
_symmetry_Int_Tables_number   1
_chemical_formula_structural   Cu3Ni3C49
_chemical_formula_sum   'Cu6 Ni6 C98'
_cell_volume   1075.87644757
_cell_formula_units_Z   2
loop_
 _symmetry_equiv_pos_site_id
 _symmetry_equiv_pos_as_xyz
  1  'x, y, z'
loop_
 _atom_site_type_symbol
 _atom_site_label
 _atom_site_symmetry_multiplicity
 _atom_site_fract_x
 _atom_site_fract_y
 _atom_site_fract_z
 _atom_site_occupancy
  C  C0  1  0.50000000  0.50000000  0.50000000  1
  C  C1  1  0.00000000  0.00000000  0.00000000  1
  C  C2  1  0.00063600  0.77041600  0.40467700  1
  C  C3  1  0.34564100  0.20570000  0.56454600  1
  C  C4  1  0.01619100  0.66948200  0.05205600  1
  C  C5  1  0.43545400  0.65435900  0.79430000  1
  C  C6  1  0.25347400  0.17223800  0.64827500  1
  C  C7  1  0.18579800  0.84052900  0.18770700  1
  C  C8  1  0.33570600  0.46375700  0.95100400  1
  C  C9  1  0.35172500  0.74652600  0.82776200  1
  C  C10  1  0.66429400  0.53624300  0.04899600  1
  C  C11  1  0.05205600  0.01619100  0.66948200  1
  C  C12  1  0.98380900  0.33051800  0.94794400  1
  C  C13  1  0.12325000  0.56342400  0.49475800  1
  C  C14  1  0.20570000  0.56454600  0.34564100  1
  C  C15  1  0.99936400  0.22958400  0.59532300  1
  C  C16  1  0.64827500  0.25347400  0.17223800  1
  C  C17  1  0.84052900  0.18770700  0.18579800  1
  C  C18  1  0.93396300  0.23213900  0.70750100  1
  C  C19  1  0.46375700  0.95100400  0.33570600  1
  C  C20  1  0.79430000  0.43545400  0.65435900  1
  C  C21  1  0.04899600  0.66429400  0.53624300  1
  C  C22  1  0.23213900  0.70750100  0.93396300  1
  C  C23  1  0.94794400  0.98380900  0.33051800  1
  C  C24  1  0.66948200  0.05205600  0.01619100  1
  C  C25  1  0.56342400  0.49475800  0.12325000  1
  C  C26  1  0.29249900  0.06603700  0.76786100  1
  C  C27  1  0.76786100  0.29249900  0.06603700  1
  C  C28  1  0.81229300  0.81420200  0.15947100  1
  C  C29  1  0.06603700  0.76786100  0.29249900  1
  C  C30  1  0.50524200  0.87675000  0.43657600  1
  C  C31  1  0.87675000  0.43657600  0.50524200  1
  C  C32  1  0.15947100  0.81229300  0.81420200  1
  C  C33  1  0.33051800  0.94794400  0.98380900  1
  C  C34  1  0.43657600  0.50524200  0.87675000  1
  C  C35  1  0.18770700  0.18579800  0.84052900  1
  C  C36  1  0.95100400  0.33570600  0.46375700  1
  C  C37  1  0.56454600  0.34564100  0.20570000  1
  C  C38  1  0.77041600  0.40467700  0.00063600  1
  C  C39  1  0.17223800  0.64827500  0.25347400  1
  C  C40  1  0.74652600  0.82776200  0.35172500  1
  C  C41  1  0.82776200  0.35172500  0.74652600  1
  C  C42  1  0.65435900  0.79430000  0.43545400  1
  C  C43  1  0.22958400  0.59532300  0.99936400  1
  C  C44  1  0.70750100  0.93396300  0.23213900  1
  C  C45  1  0.53624300  0.04899600  0.66429400  1
  C  C46  1  0.49475800  0.12325000  0.56342400  1
  C  C47  1  0.81420200  0.15947100  0.81229300  1
  C  C48  1  0.59532300  0.99936400  0.22958400  1
  C  C49  1  0.40467700  0.00063600  0.77041600  1
  Ni  Ni50  1  0.39632200  0.11095200  0.67148700  1
  Ni  Ni51  1  0.88904800  0.32851300  0.60367800  1
  Ni  Ni52  1  0.60367800  0.88904800  0.32851300  1
  Ni  Ni53  1  0.32851300  0.60367800  0.88904800  1
  Ni  Ni54  1  0.67148700  0.39632200  0.11095200  1
  Ni  Ni55  1  0.11095200  0.67148700  0.39632200  1
  Cu  Cu56  1  0.12335500  0.25472700  0.37999200  1
  Cu  Cu57  1  0.74527300  0.62000800  0.87664500  1
  Cu  Cu58  1  0.25472700  0.37999200  0.12335500  1
  Cu  Cu59  1  0.87664500  0.74527300  0.62000800  1
  Cu  Cu60  1  0.62000800  0.87664500  0.74527300  1
  Cu  Cu61  1  0.37999200  0.12335500  0.25472700  1
  C  C62  1  0.66572900  0.82347200  0.36764000  1
  C  C63  1  0.63236000  0.33427100  0.17652800  1
  C  C64  1  0.75124600  0.37030300  0.06288500  1
  C  C65  1  0.36764000  0.66572900  0.82347200  1
  C  C66  1  0.06288500  0.75124600  0.37030300  1
  C  C67  1  0.48812700  0.09869800  0.63569100  1
  C  C68  1  0.33427100  0.17652800  0.63236000  1
  C  C69  1  0.17652800  0.63236000  0.33427100  1
  C  C70  1  0.51187300  0.90130200  0.36430900  1
  C  C71  1  0.63569100  0.48812700  0.09869800  1
  C  C72  1  0.09869800  0.63569100  0.48812700  1
  C  C73  1  0.62969700  0.93711500  0.24875400  1
  C  C74  1  0.90130200  0.36430900  0.51187300  1
  C  C75  1  0.36430900  0.51187300  0.90130200  1
  C  C76  1  0.82347200  0.36764000  0.66572900  1
  C  C77  1  0.37030300  0.06288500  0.75124600  1
  C  C78  1  0.24875400  0.62969700  0.93711500  1
  C  C79  1  0.93711500  0.24875400  0.62969700  1
  C  C80  1  0.95552900  0.88683500  0.78195300  1
  C  C81  1  0.21804700  0.04447100  0.11316500  1
  C  C82  1  0.11316500  0.21804700  0.04447100  1
  C  C83  1  0.91984400  0.80206900  0.54017900  1
  C  C84  1  0.14012600  0.12829200  0.72812600  1
  C  C85  1  0.47326400  0.30032800  0.35345600  1
  C  C86  1  0.80206900  0.54017900  0.91984400  1
  C  C87  1  0.65176900  0.63504300  0.92827400  1
  C  C88  1  0.27187400  0.85987400  0.87170800  1
  C  C89  1  0.36495700  0.07172600  0.34823100  1
  C  C90  1  0.12829200  0.72812600  0.14012600  1
  C  C91  1  0.78195300  0.95552900  0.88683500  1
  C  C92  1  0.07172600  0.34823100  0.36495700  1
  C  C93  1  0.85987400  0.87170800  0.27187400  1
  C  C94  1  0.52673600  0.69967200  0.64654400  1
  C  C95  1  0.54017900  0.91984400  0.80206900  1
  C  C96  1  0.64654400  0.52673600  0.69967200  1
  C  C97  1  0.34823100  0.36495700  0.07172600  1
  C  C98  1  0.63504300  0.92827400  0.65176900  1
  C  C99  1  0.04447100  0.11316500  0.21804700  1
  C  C100  1  0.88683500  0.78195300  0.95552900  1
  C  C101  1  0.87170800  0.27187400  0.85987400  1
  C  C102  1  0.30032800  0.35345600  0.47326400  1
  C  C103  1  0.08015600  0.19793100  0.45982100  1
  C  C104  1  0.72812600  0.14012600  0.12829200  1
  C  C105  1  0.35345600  0.47326400  0.30032800  1
  C  C106  1  0.69967200  0.64654400  0.52673600  1
  C  C107  1  0.45982100  0.08015600  0.19793100  1
  C  C108  1  0.92827400  0.65176900  0.63504300  1
  C  C109  1  0.19793100  0.45982100  0.08015600  1
