# generated using pymatgen
data_Cu3NiC4
_symmetry_space_group_name_H-M   'P 1'
_cell_length_a   8.44006100
_cell_length_b   8.60428500
_cell_length_c   8.90653766
_cell_angle_alpha   69.33399589
_cell_angle_beta   90.00000000
_cell_angle_gamma   90.00000000
_symmetry_Int_Tables_number   1
_chemical_formula_structural   Cu3NiC4
_chemical_formula_sum   'Cu12 Ni4 C16'
_cell_volume   605.17972933
_cell_formula_units_Z   4
loop_
 _symmetry_equiv_pos_site_id
 _symmetry_equiv_pos_as_xyz
  1  'x, y, z'
loop_
 _atom_site_type_symbol
 _atom_site_label
 _atom_site_symmetry_multiplicity
 _atom_site_fract_x
 _atom_site_fract_y
 _atom_site_fract_z
 _atom_site_occupancy
  C  C0  1  0.57894800  0.05765400  0.34259600  1
  C  C1  1  0.92105200  0.55765400  0.34259600  1
  C  C2  1  0.42105200  0.94234600  0.65740400  1
  C  C3  1  0.07894800  0.44234600  0.65740400  1
  C  C4  1  0.28885000  0.68340000  0.28451700  1
  C  C5  1  0.21193100  0.97559100  0.28068300  1
  C  C6  1  0.78885000  0.81660000  0.71548300  1
  C  C7  1  0.21115000  0.18340000  0.28451700  1
  C  C8  1  0.66220400  0.35222300  0.89667500  1
  C  C9  1  0.83779600  0.85222300  0.89667500  1
  C  C10  1  0.33779600  0.64777700  0.10332500  1
  C  C11  1  0.28806900  0.47559100  0.28068300  1
  C  C12  1  0.78806900  0.02440900  0.71931700  1
  C  C13  1  0.71115000  0.31660000  0.71548300  1
  C  C14  1  0.16220400  0.14777700  0.10332500  1
  C  C15  1  0.71193100  0.52440900  0.71931700  1
  Ni  Ni16  1  0.26384100  0.60666800  0.21177100  1
  Ni  Ni17  1  0.76384100  0.89333200  0.78822900  1
  Ni  Ni18  1  0.73615900  0.39333200  0.78822900  1
  Ni  Ni19  1  0.23615900  0.10666800  0.21177100  1
  Cu  Cu20  1  0.70173200  0.58055300  0.27597000  1
  Cu  Cu21  1  0.79826800  0.08055300  0.27597000  1
  Cu  Cu22  1  0.43815100  0.13464400  0.13809500  1
  Cu  Cu23  1  0.93815100  0.36535600  0.86190500  1
  Cu  Cu24  1  0.20173200  0.91944700  0.72403100  1
  Cu  Cu25  1  0.50115300  0.18094200  0.50106100  1
  Cu  Cu26  1  0.56184900  0.86535600  0.86190500  1
  Cu  Cu27  1  0.99884700  0.68094200  0.50106100  1
  Cu  Cu28  1  0.49884700  0.81905800  0.49893900  1
  Cu  Cu29  1  0.00115300  0.31905800  0.49893900  1
  Cu  Cu30  1  0.06184900  0.63464400  0.13809500  1
  Cu  Cu31  1  0.29826800  0.41944700  0.72403100  1
