# generated using pymatgen
data_Cu2Ni2C7
_symmetry_space_group_name_H-M   'P 1'
_cell_length_a   10.80499556
_cell_length_b   10.80499556
_cell_length_c   9.23807270
_cell_angle_alpha   81.24931885
_cell_angle_beta   81.24931885
_cell_angle_gamma   45.68559202
_symmetry_Int_Tables_number   1
_chemical_formula_structural   Cu2Ni2C7
_chemical_formula_sum   'Cu12 Ni12 C42'
_cell_volume   761.11578747
_cell_formula_units_Z   6
loop_
 _symmetry_equiv_pos_site_id
 _symmetry_equiv_pos_as_xyz
  1  'x, y, z'
loop_
 _atom_site_type_symbol
 _atom_site_label
 _atom_site_symmetry_multiplicity
 _atom_site_fract_x
 _atom_site_fract_y
 _atom_site_fract_z
 _atom_site_occupancy
  Ni  Ni0  1  0.32654500  0.70188800  0.95939400  1
  Ni  Ni1  1  0.29811200  0.67345500  0.54060600  1
  Ni  Ni2  1  0.67345500  0.29811200  0.04060600  1
  Ni  Ni3  1  0.70188800  0.32654500  0.45939400  1
  Ni  Ni4  1  0.34430600  0.98197500  0.83817000  1
  Ni  Ni5  1  0.01802500  0.65569400  0.66183000  1
  Ni  Ni6  1  0.65569400  0.01802500  0.16183000  1
  Ni  Ni7  1  0.98197500  0.34430600  0.33817000  1
  Ni  Ni8  1  0.99466500  0.37250800  0.78963900  1
  Ni  Ni9  1  0.62749200  0.00533500  0.71036100  1
  Ni  Ni10  1  0.00533500  0.62749200  0.21036100  1
  Ni  Ni11  1  0.37250800  0.99466500  0.28963900  1
  Cu  Cu12  1  0.08495700  0.04592300  0.13867700  1
  Cu  Cu13  1  0.95407700  0.91504300  0.36132300  1
  Cu  Cu14  1  0.91504300  0.95407700  0.86132300  1
  Cu  Cu15  1  0.04592300  0.08495700  0.63867700  1
  Cu  Cu16  1  0.61019700  0.59550600  0.18087500  1
  Cu  Cu17  1  0.40449400  0.38980300  0.31912500  1
  Cu  Cu18  1  0.38980300  0.40449400  0.81912500  1
  Cu  Cu19  1  0.59550600  0.61019700  0.68087500  1
  Cu  Cu20  1  0.75645200  0.72015600  0.96300300  1
  Cu  Cu21  1  0.27984400  0.24354800  0.53699700  1
  Cu  Cu22  1  0.24354800  0.27984400  0.03699700  1
  Cu  Cu23  1  0.72015600  0.75645200  0.46300300  1
  C  C24  1  0.08628300  0.91371700  0.25000000  1
  C  C25  1  0.91371700  0.08628300  0.75000000  1
  C  C26  1  0.88391000  0.86963800  0.26831800  1
  C  C27  1  0.13036200  0.11609000  0.23168200  1
  C  C28  1  0.11609000  0.13036200  0.73168200  1
  C  C29  1  0.86963800  0.88391000  0.76831800  1
  C  C30  1  0.07354900  0.76268100  0.47447900  1
  C  C31  1  0.23731900  0.92645100  0.02552100  1
  C  C32  1  0.92645100  0.23731900  0.52552100  1
  C  C33  1  0.76268100  0.07354900  0.97447900  1
  C  C34  1  0.91159900  0.18886600  0.07289600  1
  C  C35  1  0.81113400  0.08840100  0.42710400  1
  C  C36  1  0.08840100  0.81113400  0.92710400  1
  C  C37  1  0.18886600  0.91159900  0.57289600  1
  C  C38  1  0.72207700  0.60727400  0.05297100  1
  C  C39  1  0.39272600  0.27792300  0.44702900  1
  C  C40  1  0.27792300  0.39272600  0.94702900  1
  C  C41  1  0.60727400  0.72207700  0.55297100  1
  C  C42  1  0.53600000  0.54598300  0.09976100  1
  C  C43  1  0.45401700  0.46400000  0.40023900  1
  C  C44  1  0.46400000  0.45401700  0.90023900  1
  C  C45  1  0.54598300  0.53600000  0.59976100  1
  C  C46  1  0.79885200  0.77914100  0.07198100  1
  C  C47  1  0.22085900  0.20114800  0.42801900  1
  C  C48  1  0.20114800  0.22085900  0.92801900  1
  C  C49  1  0.77914100  0.79885200  0.57198100  1
  C  C50  1  0.74641300  0.44329700  0.28637000  1
  C  C51  1  0.55670300  0.25358700  0.21363000  1
  C  C52  1  0.25358700  0.55670300  0.71363000  1
  C  C53  1  0.44329700  0.74641300  0.78637000  1
  C  C54  1  0.91196200  0.59433400  0.85623200  1
  C  C55  1  0.40566600  0.08803800  0.64376800  1
  C  C56  1  0.08803800  0.40566600  0.14376800  1
  C  C57  1  0.59433400  0.91196200  0.35623200  1
  C  C58  1  0.47344400  0.76286400  0.25533500  1
  C  C59  1  0.23713600  0.52655600  0.24466500  1
  C  C60  1  0.52655600  0.23713600  0.74466500  1
  C  C61  1  0.76286400  0.47344400  0.75533500  1
  C  C62  1  0.59229000  0.87722200  0.88305800  1
  C  C63  1  0.12277800  0.40771000  0.61694200  1
  C  C64  1  0.40771000  0.12277800  0.11694200  1
  C  C65  1  0.87722200  0.59229000  0.38305800  1
