# generated using pymatgen
data_Cu3Ni4C3
_symmetry_space_group_name_H-M   'P 1'
_cell_length_a   6.35491900
_cell_length_b   11.60933000
_cell_length_c   26.56046200
_cell_angle_alpha   90.00000000
_cell_angle_beta   90.00000000
_cell_angle_gamma   90.00000000
_symmetry_Int_Tables_number   1
_chemical_formula_structural   Cu3Ni4C3
_chemical_formula_sum   'Cu24 Ni32 C24'
_cell_volume   1959.53398833
_cell_formula_units_Z   8
loop_
 _symmetry_equiv_pos_site_id
 _symmetry_equiv_pos_as_xyz
  1  'x, y, z'
loop_
 _atom_site_type_symbol
 _atom_site_label
 _atom_site_symmetry_multiplicity
 _atom_site_fract_x
 _atom_site_fract_y
 _atom_site_fract_z
 _atom_site_occupancy
  C  C0  1  0.69075500  0.85718200  0.25000000  1
  C  C1  1  0.27123400  0.35508400  0.50208500  1
  C  C2  1  0.30924500  0.14281800  0.75000000  1
  C  C3  1  0.77123400  0.14491600  0.50208500  1
  C  C4  1  0.22876600  0.85508400  0.49791500  1
  C  C5  1  0.72876600  0.64491600  0.49791500  1
  C  C6  1  0.27123400  0.35508400  0.99791500  1
  C  C7  1  0.80924500  0.35718200  0.75000000  1
  C  C8  1  0.72876600  0.64491600  0.00208500  1
  C  C9  1  0.77123400  0.14491600  0.99791500  1
  C  C10  1  0.19075500  0.64281800  0.25000000  1
  C  C11  1  0.22876600  0.85508400  0.00208500  1
  Ni  Ni12  1  0.14092100  0.45123700  0.57016200  1
  Ni  Ni13  1  0.40984300  0.05230900  0.82078300  1
  Ni  Ni14  1  0.33710500  0.13013800  0.39412800  1
  Ni  Ni15  1  0.83710500  0.36986200  0.10587200  1
  Ni  Ni16  1  0.63981200  0.06818900  0.43074100  1
  Ni  Ni17  1  0.85907900  0.54876300  0.42983800  1
  Ni  Ni18  1  0.86018800  0.56818900  0.56925900  1
  Ni  Ni19  1  0.86018800  0.56818900  0.93074100  1
  Ni  Ni20  1  0.64092100  0.04876300  0.57016200  1
  Ni  Ni21  1  0.85907900  0.54876300  0.07016200  1
  Ni  Ni22  1  0.13981200  0.43181100  0.43074100  1
  Ni  Ni23  1  0.66289500  0.86986200  0.89412800  1
  Ni  Ni24  1  0.33710500  0.13013800  0.10587200  1
  Ni  Ni25  1  0.14092100  0.45123700  0.92983800  1
  Ni  Ni26  1  0.35907900  0.95123700  0.07016200  1
  Ni  Ni27  1  0.66289500  0.86986200  0.60587200  1
  Ni  Ni28  1  0.09015700  0.55230900  0.32078300  1
  Ni  Ni29  1  0.09015700  0.55230900  0.17921700  1
  Ni  Ni30  1  0.90984300  0.44769100  0.82078300  1
  Ni  Ni31  1  0.40984300  0.05230900  0.67921700  1
  Ni  Ni32  1  0.36018800  0.93181100  0.93074100  1
  Ni  Ni33  1  0.64092100  0.04876300  0.92983800  1
  Ni  Ni34  1  0.16289500  0.63013800  0.60587200  1
  Ni  Ni35  1  0.36018800  0.93181100  0.56925900  1
  Ni  Ni36  1  0.90984300  0.44769100  0.67921700  1
  Ni  Ni37  1  0.59015700  0.94769100  0.32078300  1
  Ni  Ni38  1  0.16289500  0.63013800  0.89412800  1
  Ni  Ni39  1  0.83710500  0.36986200  0.39412800  1
  Ni  Ni40  1  0.63981200  0.06818900  0.06925900  1
  Ni  Ni41  1  0.35907900  0.95123700  0.42983800  1
  Ni  Ni42  1  0.59015700  0.94769100  0.17921700  1
  Ni  Ni43  1  0.13981200  0.43181100  0.06925900  1
  Cu  Cu44  1  0.67431200  0.51013800  0.62939600  1
  Cu  Cu45  1  0.17431200  0.98986200  0.87060400  1
  Cu  Cu46  1  0.60876800  0.90523000  0.68223900  1
  Cu  Cu47  1  0.91654800  0.65998000  0.36959100  1
  Cu  Cu48  1  0.60876800  0.90523000  0.81776100  1
  Cu  Cu49  1  0.39123200  0.09477000  0.31776100  1
  Cu  Cu50  1  0.32568800  0.48986200  0.12939600  1
  Cu  Cu51  1  0.41654800  0.84002000  0.13040900  1
  Cu  Cu52  1  0.10876800  0.59477000  0.81776100  1
  Cu  Cu53  1  0.67431200  0.51013800  0.87060400  1
  Cu  Cu54  1  0.58345200  0.15998000  0.86959100  1
  Cu  Cu55  1  0.58345200  0.15998000  0.63040900  1
  Cu  Cu56  1  0.17431200  0.98986200  0.62939600  1
  Cu  Cu57  1  0.82568800  0.01013800  0.12939600  1
  Cu  Cu58  1  0.41654800  0.84002000  0.36959100  1
  Cu  Cu59  1  0.08345200  0.34002000  0.63040900  1
  Cu  Cu60  1  0.82568800  0.01013800  0.37060400  1
  Cu  Cu61  1  0.32568800  0.48986200  0.37060400  1
  Cu  Cu62  1  0.10876800  0.59477000  0.68223900  1
  Cu  Cu63  1  0.89123200  0.40523000  0.31776100  1
  Cu  Cu64  1  0.39123200  0.09477000  0.18223900  1
  Cu  Cu65  1  0.91654800  0.65998000  0.13040900  1
  Cu  Cu66  1  0.89123200  0.40523000  0.18223900  1
  Cu  Cu67  1  0.08345200  0.34002000  0.86959100  1
  C  C68  1  0.63102200  0.33156900  0.99192800  1
  C  C69  1  0.13102200  0.16843100  0.50807200  1
  C  C70  1  0.44846800  0.32879500  0.75000000  1
  C  C71  1  0.36897800  0.66843100  0.00807200  1
  C  C72  1  0.86897800  0.83156900  0.49192800  1
  C  C73  1  0.05153200  0.82879500  0.25000000  1
  C  C74  1  0.86897800  0.83156900  0.00807200  1
  C  C75  1  0.55153200  0.67120500  0.25000000  1
  C  C76  1  0.36897800  0.66843100  0.49192800  1
  C  C77  1  0.13102200  0.16843100  0.99192800  1
  C  C78  1  0.63102200  0.33156900  0.50807200  1
  C  C79  1  0.94846800  0.17120500  0.75000000  1
