# generated using pymatgen
data_CuNiC3
_symmetry_space_group_name_H-M   'P 1'
_cell_length_a   14.78365400
_cell_length_b   6.38031200
_cell_length_c   10.16401894
_cell_angle_alpha   70.60755426
_cell_angle_beta   90.00000000
_cell_angle_gamma   90.00000000
_symmetry_Int_Tables_number   1
_chemical_formula_structural   CuNiC3
_chemical_formula_sum   'Cu16 Ni16 C48'
_cell_volume   904.32295856
_cell_formula_units_Z   16
loop_
 _symmetry_equiv_pos_site_id
 _symmetry_equiv_pos_as_xyz
  1  'x, y, z'
loop_
 _atom_site_type_symbol
 _atom_site_label
 _atom_site_symmetry_multiplicity
 _atom_site_fract_x
 _atom_site_fract_y
 _atom_site_fract_z
 _atom_site_occupancy
  C  C0  1  0.12281700  0.00721000  0.43566100  1
  C  C1  1  0.62393900  0.96256800  0.44716100  1
  C  C2  1  0.62281700  0.99279000  0.06433900  1
  C  C3  1  0.37718300  0.00721000  0.93566100  1
  C  C4  1  0.87606100  0.96256800  0.94716100  1
  C  C5  1  0.87718300  0.99279000  0.56433900  1
  C  C6  1  0.37606100  0.03743200  0.55283900  1
  C  C7  1  0.12393900  0.03743200  0.05283900  1
  Ni  Ni8  1  0.62309800  0.47780700  0.56256400  1
  Ni  Ni9  1  0.13319800  0.51551200  0.54691600  1
  Ni  Ni10  1  0.37555400  0.48369200  0.28948200  1
  Ni  Ni11  1  0.36680200  0.51551200  0.04691600  1
  Ni  Ni12  1  0.87690200  0.47780700  0.06256400  1
  Ni  Ni13  1  0.62444600  0.51630800  0.71051800  1
  Ni  Ni14  1  0.12309800  0.52219300  0.93743600  1
  Ni  Ni15  1  0.27848700  0.61039800  0.09267900  1
  Ni  Ni16  1  0.22151300  0.61039800  0.59267900  1
  Ni  Ni17  1  0.86680200  0.48448800  0.45308400  1
  Ni  Ni18  1  0.72151300  0.38960200  0.90732100  1
  Ni  Ni19  1  0.37690200  0.52219300  0.43743600  1
  Ni  Ni20  1  0.87555400  0.51630800  0.21051800  1
  Ni  Ni21  1  0.77848700  0.38960200  0.40732100  1
  Ni  Ni22  1  0.63319800  0.48448800  0.95308400  1
  Ni  Ni23  1  0.12444600  0.48369200  0.78948200  1
  Cu  Cu24  1  0.87225100  0.51775100  0.81774100  1
  Cu  Cu25  1  0.57337300  0.99804300  0.75108300  1
  Cu  Cu26  1  0.62774900  0.51775100  0.31774100  1
  Cu  Cu27  1  0.12774900  0.48224900  0.18225900  1
  Cu  Cu28  1  0.88259900  0.44615900  0.68709100  1
  Cu  Cu29  1  0.37225100  0.48224900  0.68225900  1
  Cu  Cu30  1  0.42662700  0.00195700  0.24891700  1
  Cu  Cu31  1  0.61740100  0.44615900  0.18709100  1
  Cu  Cu32  1  0.32049200  0.02242300  0.24419700  1
  Cu  Cu33  1  0.92662700  0.99804300  0.25108300  1
  Cu  Cu34  1  0.82049200  0.97757700  0.25580300  1
  Cu  Cu35  1  0.67950800  0.97757700  0.75580300  1
  Cu  Cu36  1  0.17950800  0.02242300  0.74419700  1
  Cu  Cu37  1  0.38259900  0.55384100  0.81290900  1
  Cu  Cu38  1  0.07337300  0.00195700  0.74891700  1
  Cu  Cu39  1  0.11740100  0.55384100  0.31290900  1
  C  C40  1  0.53502000  0.00660400  0.63799100  1
  C  C41  1  0.39052300  0.41378400  0.38928600  1
  C  C42  1  0.89169100  0.60133200  0.57135400  1
  C  C43  1  0.84469900  0.38928300  0.39786800  1
  C  C44  1  0.87835500  0.24001900  0.70582700  1
  C  C45  1  0.53491000  0.00517300  0.86106500  1
  C  C46  1  0.64654200  0.36374600  0.43118900  1
  C  C47  1  0.37835500  0.75998100  0.79417300  1
  C  C48  1  0.12164500  0.75998100  0.29417300  1
  C  C49  1  0.15530100  0.61071700  0.60213200  1
  C  C50  1  0.46498000  0.99339600  0.36200900  1
  C  C51  1  0.21840000  0.02740100  0.85426700  1
  C  C52  1  0.78160000  0.97259900  0.14573300  1
  C  C53  1  0.39169100  0.39866800  0.92864600  1
  C  C54  1  0.14654200  0.63625400  0.06881100  1
  C  C55  1  0.28160000  0.02740100  0.35426700  1
  C  C56  1  0.46509000  0.99482700  0.13893500  1
  C  C57  1  0.96498000  0.00660400  0.13799100  1
  C  C58  1  0.60947700  0.58621600  0.61071400  1
  C  C59  1  0.03491000  0.99482700  0.63893500  1
  C  C60  1  0.89052300  0.58621600  0.11071400  1
  C  C61  1  0.35345800  0.63625400  0.56881100  1
  C  C62  1  0.78241600  0.96864300  0.36941600  1
  C  C63  1  0.03502000  0.99339600  0.86200900  1
  C  C64  1  0.87941300  0.72224500  0.80117900  1
  C  C65  1  0.10830900  0.39866800  0.42864600  1
  C  C66  1  0.12058700  0.27775500  0.19882100  1
  C  C67  1  0.96509000  0.00517300  0.36106500  1
  C  C68  1  0.62058700  0.72224500  0.30117900  1
  C  C69  1  0.10947700  0.41378400  0.88928600  1
  C  C70  1  0.37941300  0.27775500  0.69882100  1
  C  C71  1  0.71840000  0.97259900  0.64573300  1
  C  C72  1  0.62164500  0.24001900  0.20582700  1
  C  C73  1  0.34469900  0.61071700  0.10213200  1
  C  C74  1  0.28241600  0.03135700  0.13058400  1
  C  C75  1  0.85345800  0.36374600  0.93118900  1
  C  C76  1  0.21758400  0.03135700  0.63058400  1
  C  C77  1  0.65530100  0.38928300  0.89786800  1
  C  C78  1  0.71758400  0.96864300  0.86941600  1
  C  C79  1  0.60830900  0.60133200  0.07135400  1
