# generated using pymatgen
data_CuNiC11
_symmetry_space_group_name_H-M   'P 1'
_cell_length_a   12.35450837
_cell_length_b   12.35450837
_cell_length_c   12.35450837
_cell_angle_alpha   146.36388571
_cell_angle_beta   118.75539798
_cell_angle_gamma   71.72104957
_symmetry_Int_Tables_number   1
_chemical_formula_structural   CuNiC11
_chemical_formula_sum   'Cu4 Ni4 C44'
_cell_volume   900.94380229
_cell_formula_units_Z   4
loop_
 _symmetry_equiv_pos_site_id
 _symmetry_equiv_pos_as_xyz
  1  'x, y, z'
loop_
 _atom_site_type_symbol
 _atom_site_label
 _atom_site_symmetry_multiplicity
 _atom_site_fract_x
 _atom_site_fract_y
 _atom_site_fract_z
 _atom_site_occupancy
  C  C0  1  0.26524800  0.81167800  0.38806000  1
  C  C1  1  0.42361800  0.31167800  0.04643000  1
  C  C2  1  0.07638200  0.12281100  0.88806000  1
  C  C3  1  0.73475200  0.18832200  0.61194000  1
  C  C4  1  0.92361800  0.87718900  0.11194000  1
  C  C5  1  0.23475200  0.62281100  0.54643000  1
  C  C6  1  0.57638200  0.68832200  0.95357000  1
  C  C7  1  0.76524800  0.37718900  0.45357000  1
  Ni  Ni8  1  0.82966300  0.25000000  0.07966300  1
  Ni  Ni9  1  0.67033700  0.75000000  0.42033700  1
  Ni  Ni10  1  0.17033700  0.75000000  0.92033700  1
  Ni  Ni11  1  0.32966300  0.25000000  0.57966300  1
  C  C12  1  0.58207800  0.83207800  0.75000000  1
  C  C13  1  0.91792200  0.66792200  0.25000000  1
  C  C14  1  0.41792200  0.16792200  0.25000000  1
  C  C15  1  0.08207800  0.33207800  0.75000000  1
  Cu  Cu16  1  0.92705100  0.75000000  0.67705100  1
  Cu  Cu17  1  0.07294900  0.25000000  0.32294900  1
  Cu  Cu18  1  0.42705100  0.75000000  0.17705100  1
  Cu  Cu19  1  0.57294900  0.25000000  0.82294900  1
  C  C20  1  0.83791700  0.57072400  0.43110700  1
  C  C21  1  0.83421700  0.82024000  0.42028800  1
  C  C22  1  0.13961700  0.07072400  0.23280600  1
  C  C23  1  0.16208300  0.42927600  0.56889300  1
  C  C24  1  0.43822000  0.16184000  0.72322100  1
  C  C25  1  0.86038300  0.92927600  0.76719400  1
  C  C26  1  0.36038300  0.59319000  0.93110700  1
  C  C27  1  0.43861800  0.66184000  0.22362000  1
  C  C28  1  0.89995200  0.41392900  0.07971200  1
  C  C29  1  0.41976900  0.84156200  0.69777400  1
  C  C30  1  0.85621200  0.65843800  0.07820700  1
  C  C31  1  0.14378800  0.34156200  0.92179300  1
  C  C32  1  0.66578300  0.08607100  0.98602300  1
  C  C33  1  0.66208300  0.09319000  0.73280600  1
  C  C34  1  0.35621200  0.27800500  0.19777400  1
  C  C35  1  0.93822000  0.21499900  0.27638000  1
  C  C36  1  0.06178000  0.78500100  0.72362000  1
  C  C37  1  0.08023100  0.77800500  0.42179300  1
  C  C38  1  0.10004800  0.58607100  0.92028800  1
  C  C39  1  0.39995200  0.32024000  0.48602300  1
  C  C40  1  0.56138200  0.33816000  0.77638000  1
  C  C41  1  0.58023100  0.15843800  0.30222600  1
  C  C42  1  0.60004800  0.67976000  0.51397700  1
  C  C43  1  0.56178000  0.83816000  0.27677900  1
  C  C44  1  0.33421700  0.91392900  0.01397700  1
  C  C45  1  0.64378800  0.72199500  0.80222600  1
  C  C46  1  0.06138200  0.28500100  0.22322100  1
  C  C47  1  0.91976900  0.22199500  0.57820700  1
  C  C48  1  0.16578300  0.17976000  0.57971200  1
  C  C49  1  0.63961700  0.40681000  0.06889300  1
  C  C50  1  0.93861800  0.71499900  0.77677900  1
  C  C51  1  0.33791700  0.90681000  0.26719400  1
