# generated using pymatgen
data_Cu10Ni3C7
_symmetry_space_group_name_H-M   'P 1'
_cell_length_a   9.90161000
_cell_length_b   11.95251570
_cell_length_c   14.22147978
_cell_angle_alpha   79.34378733
_cell_angle_beta   71.16380445
_cell_angle_gamma   65.90134033
_symmetry_Int_Tables_number   1
_chemical_formula_structural   Cu10Ni3C7
_chemical_formula_sum   'Cu20 Ni6 C14'
_cell_volume   1451.37797918
_cell_formula_units_Z   2
loop_
 _symmetry_equiv_pos_site_id
 _symmetry_equiv_pos_as_xyz
  1  'x, y, z'
loop_
 _atom_site_type_symbol
 _atom_site_label
 _atom_site_symmetry_multiplicity
 _atom_site_fract_x
 _atom_site_fract_y
 _atom_site_fract_z
 _atom_site_occupancy
  C  C0  1  0.04577100  0.42058100  0.83398900  1
  C  C1  1  0.83096300  0.24173200  0.10071400  1
  C  C2  1  0.04891600  0.88489900  0.17588400  1
  C  C3  1  0.37766400  0.92903000  0.64060600  1
  C  C4  1  0.74594500  0.95125700  0.07922000  1
  C  C5  1  0.25405500  0.04874300  0.92078000  1
  C  C6  1  0.86726700  0.72360200  0.41450200  1
  C  C7  1  0.13273300  0.27639800  0.58549800  1
  C  C8  1  0.95108400  0.11510100  0.82411600  1
  C  C9  1  0.53942900  0.79413300  0.30851200  1
  C  C10  1  0.95422900  0.57941900  0.16601100  1
  C  C11  1  0.46057100  0.20586700  0.69148800  1
  C  C12  1  0.62233600  0.07097000  0.35939400  1
  C  C13  1  0.16903700  0.75826800  0.89928600  1
  Ni  Ni14  1  0.16862500  0.22637500  0.76852600  1
  Ni  Ni15  1  0.96166700  0.05638000  0.02261300  1
  Ni  Ni16  1  0.75497000  0.88676100  0.27640300  1
  Ni  Ni17  1  0.24503000  0.11323900  0.72359700  1
  Ni  Ni18  1  0.03833300  0.94362000  0.97738700  1
  Ni  Ni19  1  0.83137500  0.77362500  0.23147400  1
  Cu  Cu20  1  0.04178300  0.43483600  0.36378000  1
  Cu  Cu21  1  0.14322200  0.30382600  0.04128100  1
  Cu  Cu22  1  0.60407300  0.07855000  0.87805100  1
  Cu  Cu23  1  0.64613300  0.52447300  0.22477900  1
  Cu  Cu24  1  0.43460100  0.34401800  0.47861500  1
  Cu  Cu25  1  0.56539900  0.65598200  0.52138500  1
  Cu  Cu26  1  0.28257200  0.04694200  0.43094400  1
  Cu  Cu27  1  0.39592700  0.92145000  0.12194900  1
  Cu  Cu28  1  0.85677800  0.69617400  0.95871900  1
  Cu  Cu29  1  0.18771300  0.75278500  0.37382500  1
  Cu  Cu30  1  0.71759600  0.39187300  0.90837300  1
  Cu  Cu31  1  0.35386700  0.47552700  0.77522100  1
  Cu  Cu32  1  0.28240400  0.60812700  0.09162700  1
  Cu  Cu33  1  0.93034600  0.13064400  0.30317300  1
  Cu  Cu34  1  0.06965400  0.86935600  0.69682700  1
  Cu  Cu35  1  0.50063200  0.21898000  0.16932100  1
  Cu  Cu36  1  0.71742800  0.95305800  0.56905600  1
  Cu  Cu37  1  0.95821700  0.56516400  0.63622000  1
  Cu  Cu38  1  0.81228700  0.24721500  0.62617500  1
  Cu  Cu39  1  0.49936800  0.78102000  0.83067900  1
