# generated using pymatgen
data_CuNiC6
_symmetry_space_group_name_H-M   'P 1'
_cell_length_a   6.41112900
_cell_length_b   7.29058400
_cell_length_c   11.31500400
_cell_angle_alpha   90.00000000
_cell_angle_beta   90.00000000
_cell_angle_gamma   90.00000000
_symmetry_Int_Tables_number   1
_chemical_formula_structural   CuNiC6
_chemical_formula_sum   'Cu4 Ni4 C24'
_cell_volume   528.87318204
_cell_formula_units_Z   4
loop_
 _symmetry_equiv_pos_site_id
 _symmetry_equiv_pos_as_xyz
  1  'x, y, z'
loop_
 _atom_site_type_symbol
 _atom_site_label
 _atom_site_symmetry_multiplicity
 _atom_site_fract_x
 _atom_site_fract_y
 _atom_site_fract_z
 _atom_site_occupancy
  C  C0  1  0.11216000  0.03924700  0.25000000  1
  C  C1  1  0.11216000  0.46075300  0.75000000  1
  C  C2  1  0.88784000  0.53924700  0.25000000  1
  C  C3  1  0.88784000  0.96075300  0.75000000  1
  C  C4  1  0.61008900  0.25000000  0.00000000  1
  C  C5  1  0.38991100  0.75000000  0.50000000  1
  C  C6  1  0.38991100  0.75000000  0.00000000  1
  C  C7  1  0.61008900  0.25000000  0.50000000  1
  Ni  Ni8  1  0.11365900  0.25000000  0.00000000  1
  Ni  Ni9  1  0.88634100  0.75000000  0.50000000  1
  Ni  Ni10  1  0.88634100  0.75000000  0.00000000  1
  Ni  Ni11  1  0.11365900  0.25000000  0.50000000  1
  Cu  Cu12  1  0.40200100  0.42887300  0.25000000  1
  Cu  Cu13  1  0.40200100  0.07112700  0.75000000  1
  Cu  Cu14  1  0.59799900  0.92887300  0.25000000  1
  Cu  Cu15  1  0.59799900  0.57112700  0.75000000  1
  C  C16  1  0.04665400  0.77040800  0.11497600  1
  C  C17  1  0.04665400  0.72959200  0.88502400  1
  C  C18  1  0.95334600  0.27040800  0.38502400  1
  C  C19  1  0.95334600  0.22959200  0.61497600  1
  C  C20  1  0.95334600  0.22959200  0.88502400  1
  C  C21  1  0.95334600  0.27040800  0.11497600  1
  C  C22  1  0.04665400  0.72959200  0.61497600  1
  C  C23  1  0.04665400  0.77040800  0.38502400  1
  C  C24  1  0.26761800  0.07810300  0.03589600  1
  C  C25  1  0.26761800  0.42189700  0.96410400  1
  C  C26  1  0.73238200  0.57810300  0.46410400  1
  C  C27  1  0.73238200  0.92189700  0.53589600  1
  C  C28  1  0.73238200  0.92189700  0.96410400  1
  C  C29  1  0.73238200  0.57810300  0.03589600  1
  C  C30  1  0.26761800  0.42189700  0.53589600  1
  C  C31  1  0.26761800  0.07810300  0.46410400  1
