# generated using pymatgen
data_CuNi10C7
_symmetry_space_group_name_H-M   'P 1'
_cell_length_a   6.27901568
_cell_length_b   6.27901568
_cell_length_c   11.26716500
_cell_angle_alpha   90.00000000
_cell_angle_beta   90.00000000
_cell_angle_gamma   119.99999665
_symmetry_Int_Tables_number   1
_chemical_formula_structural   CuNi10C7
_chemical_formula_sum   'Cu1 Ni10 C7'
_cell_volume   384.70553618
_cell_formula_units_Z   1
loop_
 _symmetry_equiv_pos_site_id
 _symmetry_equiv_pos_as_xyz
  1  'x, y, z'
loop_
 _atom_site_type_symbol
 _atom_site_label
 _atom_site_symmetry_multiplicity
 _atom_site_fract_x
 _atom_site_fract_y
 _atom_site_fract_z
 _atom_site_occupancy
  Ni  Ni0  1  0.00000000  0.37624400  0.19903500  1
  Ni  Ni1  1  0.66666700  0.33333300  0.70823800  1
  Ni  Ni2  1  0.00000000  0.62375600  0.80096500  1
  Ni  Ni3  1  0.37624400  0.00000000  0.19903500  1
  Ni  Ni4  1  0.66666700  0.33333300  0.29176200  1
  Ni  Ni5  1  0.62375600  0.62375600  0.19903500  1
  Ni  Ni6  1  0.62375600  0.00000000  0.80096500  1
  Ni  Ni7  1  0.33333300  0.66666700  0.70823800  1
  Ni  Ni8  1  0.33333300  0.66666700  0.29176200  1
  Ni  Ni9  1  0.37624400  0.37624400  0.80096500  1
  C  C10  1  0.00000000  0.00000000  0.77547400  1
  C  C11  1  0.50000000  0.00000000  0.00000000  1
  C  C12  1  0.66666700  0.33333300  0.50000000  1
  C  C13  1  0.00000000  0.00000000  0.22452600  1
  C  C14  1  0.00000000  0.50000000  0.00000000  1
  C  C15  1  0.33333300  0.66666700  0.50000000  1
  C  C16  1  0.50000000  0.50000000  0.00000000  1
  Cu  Cu17  1  0.00000000  0.00000000  0.50000000  1
