# generated using pymatgen
data_CuNiC3
_symmetry_space_group_name_H-M   'P 1'
_cell_length_a   7.06203400
_cell_length_b   6.64362300
_cell_length_c   13.52209770
_cell_angle_alpha   89.21543744
_cell_angle_beta   90.00000000
_cell_angle_gamma   90.00000000
_symmetry_Int_Tables_number   1
_chemical_formula_structural   CuNiC3
_chemical_formula_sum   'Cu8 Ni8 C24'
_cell_volume   634.36342672
_cell_formula_units_Z   8
loop_
 _symmetry_equiv_pos_site_id
 _symmetry_equiv_pos_as_xyz
  1  'x, y, z'
loop_
 _atom_site_type_symbol
 _atom_site_label
 _atom_site_symmetry_multiplicity
 _atom_site_fract_x
 _atom_site_fract_y
 _atom_site_fract_z
 _atom_site_occupancy
  Ni  Ni0  1  0.18392700  0.49374800  0.93131000  1
  Ni  Ni1  1  0.31607300  0.49374800  0.43131000  1
  Ni  Ni2  1  0.44689400  0.52945100  0.19776000  1
  Ni  Ni3  1  0.68392700  0.50625200  0.56869000  1
  Ni  Ni4  1  0.55310600  0.47054900  0.80224000  1
  Ni  Ni5  1  0.05310600  0.52945100  0.69776000  1
  Ni  Ni6  1  0.81607300  0.50625200  0.06869000  1
  Ni  Ni7  1  0.94689400  0.47054900  0.30224000  1
  Cu  Cu8  1  0.13396100  0.99639100  0.40950600  1
  Cu  Cu9  1  0.84005300  0.86014200  0.85985700  1
  Cu  Cu10  1  0.65994700  0.86014200  0.35985700  1
  Cu  Cu11  1  0.36603900  0.99639100  0.90950600  1
  Cu  Cu12  1  0.34005300  0.13985800  0.64014300  1
  Cu  Cu13  1  0.63396100  0.00360900  0.09049400  1
  Cu  Cu14  1  0.86603900  0.00360900  0.59049400  1
  Cu  Cu15  1  0.15994700  0.13985800  0.14014300  1
  C  C16  1  0.91193600  0.15409800  0.46302700  1
  C  C17  1  0.68958900  0.82826700  0.51725700  1
  C  C18  1  0.08806400  0.84590200  0.53697300  1
  C  C19  1  0.64562400  0.57732200  0.35926700  1
  C  C20  1  0.85437600  0.57732200  0.85926700  1
  C  C21  1  0.35533200  0.18784700  0.80071300  1
  C  C22  1  0.67079600  0.18817300  0.62852500  1
  C  C23  1  0.32920400  0.81182700  0.37147500  1
  C  C24  1  0.05320500  0.17294900  0.66028400  1
  C  C25  1  0.64466800  0.81215300  0.19928700  1
  C  C26  1  0.55320500  0.82705100  0.83971600  1
  C  C27  1  0.44679500  0.17294900  0.16028400  1
  C  C28  1  0.85533200  0.81215300  0.69928700  1
  C  C29  1  0.14562400  0.42267800  0.14073300  1
  C  C30  1  0.41193600  0.84590200  0.03697300  1
  C  C31  1  0.18958900  0.17173300  0.98274300  1
  C  C32  1  0.81041100  0.82826700  0.01725700  1
  C  C33  1  0.82920400  0.18817300  0.12852500  1
  C  C34  1  0.94679500  0.82705100  0.33971600  1
  C  C35  1  0.14466800  0.18784700  0.30071300  1
  C  C36  1  0.31041100  0.17173300  0.48274300  1
  C  C37  1  0.35437600  0.42267800  0.64073300  1
  C  C38  1  0.17079600  0.81182700  0.87147500  1
  C  C39  1  0.58806400  0.15409800  0.96302700  1
