# generated using pymatgen
data_Cu22Ni10C53
_symmetry_space_group_name_H-M   'P 1'
_cell_length_a   9.37500800
_cell_length_b   9.38608492
_cell_length_c   15.27895781
_cell_angle_alpha   90.06004325
_cell_angle_beta   90.25846447
_cell_angle_gamma   109.57044891
_symmetry_Int_Tables_number   1
_chemical_formula_structural   Cu22Ni10C53
_chemical_formula_sum   'Cu22 Ni10 C53'
_cell_volume   1266.77919593
_cell_formula_units_Z   1
loop_
 _symmetry_equiv_pos_site_id
 _symmetry_equiv_pos_as_xyz
  1  'x, y, z'
loop_
 _atom_site_type_symbol
 _atom_site_label
 _atom_site_symmetry_multiplicity
 _atom_site_fract_x
 _atom_site_fract_y
 _atom_site_fract_z
 _atom_site_occupancy
  Ni  Ni0  1  0.88025300  0.14272000  0.88607000  1
  Ni  Ni1  1  0.38261300  0.60133400  0.86846000  1
  Ni  Ni2  1  0.76338100  0.76205700  0.51250200  1
  Ni  Ni3  1  0.01670500  0.51530400  0.51163800  1
  Ni  Ni4  1  0.09280100  0.86496900  0.87375500  1
  Ni  Ni5  1  0.25387000  0.25337000  0.00531700  1
  Ni  Ni6  1  0.63145200  0.35937200  0.61155200  1
  Ni  Ni7  1  0.52099000  0.01674700  0.01345700  1
  Ni  Ni8  1  0.58674900  0.34305500  0.37243000  1
  Ni  Ni9  1  0.14079800  0.86223200  0.11362800  1
  Cu  Cu10  1  0.37867000  0.65591700  0.62688500  1
  Cu  Cu11  1  0.60433600  0.34484700  0.87237600  1
  Cu  Cu12  1  0.35911100  0.64371700  0.38472400  1
  Cu  Cu13  1  0.73476300  0.76097300  0.98505400  1
  Cu  Cu14  1  0.48795100  0.01379800  0.73364800  1
  Cu  Cu15  1  0.87918000  0.16299400  0.13122000  1
  Cu  Cu16  1  0.02399400  0.50605700  0.99936900  1
  Cu  Cu17  1  0.23109400  0.23062500  0.75716800  1
  Cu  Cu18  1  0.98066400  0.51429800  0.23569200  1
  Cu  Cu19  1  0.10005700  0.84687500  0.37227800  1
  Cu  Cu20  1  0.23122900  0.26116600  0.48546300  1
  Cu  Cu21  1  0.11351000  0.87041400  0.64017700  1
  Cu  Cu22  1  0.88273300  0.09471400  0.36795700  1
  Cu  Cu23  1  0.02570100  0.49839900  0.75432000  1
  Cu  Cu24  1  0.89890700  0.14175700  0.61233900  1
  Cu  Cu25  1  0.73809800  0.74370700  0.75052000  1
  Cu  Cu26  1  0.74058900  0.74143100  0.24425700  1
  Cu  Cu27  1  0.60596300  0.36893500  0.14041500  1
  Cu  Cu28  1  0.52760300  0.98999600  0.25607600  1
  Cu  Cu29  1  0.39878700  0.63712300  0.11489500  1
  Cu  Cu30  1  0.52524000  0.99668300  0.49627900  1
  Cu  Cu31  1  0.23687000  0.24850100  0.25107300  1
  C  C32  1  0.85159700  0.89598600  0.86200800  1
  C  C33  1  0.86408100  0.39321200  0.87929800  1
  C  C34  1  0.97446700  0.74433200  0.00232400  1
  C  C35  1  0.50659500  0.78146900  0.75644600  1
  C  C36  1  0.37192900  0.40435500  0.36353900  1
  C  C37  1  0.61313000  0.09921800  0.86922700  1
  C  C38  1  0.25771900  0.50236400  0.51418000  1
  C  C39  1  0.50271100  0.27127600  0.73434900  1
  C  C40  1  0.63621000  0.59671200  0.87238700  1
  C  C41  1  0.36584700  0.89521600  0.60896000  1
  C  C42  1  0.46924700  0.23330100  0.50122700  1
  C  C43  1  0.35786100  0.89239000  0.37779700  1
  C  C44  1  0.36535200  0.35385900  0.87682800  1
  C  C45  1  0.49319400  0.76936400  0.98425100  1
  C  C46  1  0.00761400  0.28731300  0.25657100  1
  C  C47  1  0.24577600  0.98373600  0.76471900  1
  C  C48  1  0.10522700  0.59995600  0.36919300  1
  C  C49  1  0.26693600  0.48498400  0.74099600  1
  C  C50  1  0.76542200  0.00419700  0.01504900  1
  C  C51  1  0.00381700  0.77556000  0.23322200  1
  C  C52  1  0.15318400  0.13946300  0.61339700  1
  C  C53  1  0.13190800  0.09676500  0.37245400  1
  C  C54  1  0.01801600  0.77203000  0.50728000  1
  C  C55  1  0.11412300  0.11712100  0.88590300  1
  C  C56  1  0.85765400  0.40481600  0.11200200  1
  C  C57  1  0.16004500  0.64876500  0.87357900  1
  C  C58  1  0.13084100  0.63419600  0.63297800  1
  C  C59  1  0.63081700  0.13537500  0.13392300  1
  C  C60  1  0.98986500  0.27271200  0.48376900  1
  C  C61  1  0.86384700  0.89044400  0.64047700  1
  C  C62  1  0.84182000  0.82661400  0.37707800  1
  C  C63  1  0.98163100  0.22916900  0.75449300  1
  C  C64  1  0.26564700  0.97799800  0.98908000  1
  C  C65  1  0.73377300  0.49148200  0.26995700  1
  C  C66  1  0.77140400  0.98651800  0.23797500  1
  C  C67  1  0.87405100  0.39653900  0.63276800  1
  C  C68  1  0.96889500  0.71946400  0.75807700  1
  C  C69  1  0.65205100  0.63613600  0.11026300  1
  C  C70  1  0.51477400  0.26617200  0.00627600  1
  C  C71  1  0.77038600  0.99734000  0.49692800  1
  C  C72  1  0.65748800  0.14277600  0.37343100  1
  C  C73  1  0.64788100  0.12271500  0.62608200  1
  C  C74  1  0.52030100  0.74678300  0.49456800  1
  C  C75  1  0.36139500  0.38835900  0.13903200  1
  C  C76  1  0.49460800  0.71944500  0.26103000  1
  C  C77  1  0.74833000  0.48941400  0.48301100  1
  C  C78  1  0.61890800  0.59078700  0.63521400  1
  C  C79  1  0.38206500  0.88772900  0.13615500  1
  C  C80  1  0.46304200  0.20965700  0.25751300  1
  C  C81  1  0.26776200  0.49876600  0.99481900  1
  C  C82  1  0.14781100  0.62081600  0.12913700  1
  C  C83  1  0.01336300  0.26253300  0.00649500  1
  C  C84  1  0.12342300  0.09231700  0.13359000  1
