# generated using pymatgen
data_Cu3(Ni2C)2
_symmetry_space_group_name_H-M   'P 1'
_cell_length_a   7.76392600
_cell_length_b   7.81320156
_cell_length_c   21.77082479
_cell_angle_alpha   85.37884938
_cell_angle_beta   87.94264894
_cell_angle_gamma   89.29493890
_symmetry_Int_Tables_number   1
_chemical_formula_structural   Cu3(Ni2C)2
_chemical_formula_sum   'Cu12 Ni16 C8'
_cell_volume   1315.44218533
_cell_formula_units_Z   4
loop_
 _symmetry_equiv_pos_site_id
 _symmetry_equiv_pos_as_xyz
  1  'x, y, z'
loop_
 _atom_site_type_symbol
 _atom_site_label
 _atom_site_symmetry_multiplicity
 _atom_site_fract_x
 _atom_site_fract_y
 _atom_site_fract_z
 _atom_site_occupancy
  Ni  Ni0  1  0.61160200  0.72191700  0.45036500  1
  Ni  Ni1  1  0.38839800  0.27808300  0.54963500  1
  Ni  Ni2  1  0.01857200  0.45810000  0.39248800  1
  Ni  Ni3  1  0.98142800  0.54190000  0.60751200  1
  Ni  Ni4  1  0.58030800  0.52655700  0.38258200  1
  Ni  Ni5  1  0.41969200  0.47344300  0.61741800  1
  Ni  Ni6  1  0.94404200  0.70560400  0.34179600  1
  Ni  Ni7  1  0.05595800  0.29439600  0.65820400  1
  Ni  Ni8  1  0.28479300  0.62815400  0.94983900  1
  Ni  Ni9  1  0.71520700  0.37184600  0.05016100  1
  Ni  Ni10  1  0.55368800  0.04445200  0.89632700  1
  Ni  Ni11  1  0.44631200  0.95554800  0.10367300  1
  Ni  Ni12  1  0.50162000  0.61279200  0.88075400  1
  Ni  Ni13  1  0.49838000  0.38720800  0.11924600  1
  Ni  Ni14  1  0.32254200  0.98141700  0.84492700  1
  Ni  Ni15  1  0.67745800  0.01858300  0.15507300  1
  Cu  Cu16  1  0.86185500  0.81645100  0.42541900  1
  Cu  Cu17  1  0.13814500  0.18354900  0.57458100  1
  Cu  Cu18  1  0.77323000  0.35768900  0.42211300  1
  Cu  Cu19  1  0.22677000  0.64231100  0.57788700  1
  Cu  Cu20  1  0.70967400  0.64387000  0.30375400  1
  Cu  Cu21  1  0.29032600  0.35613000  0.69624600  1
  Cu  Cu22  1  0.18753300  0.88021400  0.92754100  1
  Cu  Cu23  1  0.81246700  0.11978600  0.07245900  1
  Cu  Cu24  1  0.65208300  0.79588500  0.92329700  1
  Cu  Cu25  1  0.34791700  0.20411500  0.07670300  1
  Cu  Cu26  1  0.40431200  0.75829900  0.80378800  1
  Cu  Cu27  1  0.59568800  0.24170100  0.19621200  1
  C  C28  1  0.40766600  0.94026000  0.40232400  1
  C  C29  1  0.59233400  0.05974000  0.59767600  1
  C  C30  1  0.10237100  0.29431400  0.30154200  1
  C  C31  1  0.89762900  0.70568600  0.69845800  1
  C  C32  1  0.08330200  0.43460400  0.90136200  1
  C  C33  1  0.91669800  0.56539600  0.09863800  1
  C  C34  1  0.74402400  0.14595900  0.80517800  1
  C  C35  1  0.25597600  0.85404100  0.19482200  1
