# generated using pymatgen
data_CuNiC17
_symmetry_space_group_name_H-M   'P 1'
_cell_length_a   15.58662400
_cell_length_b   10.93721000
_cell_length_c   15.24017691
_cell_angle_alpha   88.05637924
_cell_angle_beta   90.00000000
_cell_angle_gamma   90.00000000
_symmetry_Int_Tables_number   1
_chemical_formula_structural   CuNiC17
_chemical_formula_sum   'Cu4 Ni4 C68'
_cell_volume   2596.56195768
_cell_formula_units_Z   4
loop_
 _symmetry_equiv_pos_site_id
 _symmetry_equiv_pos_as_xyz
  1  'x, y, z'
loop_
 _atom_site_type_symbol
 _atom_site_label
 _atom_site_symmetry_multiplicity
 _atom_site_fract_x
 _atom_site_fract_y
 _atom_site_fract_z
 _atom_site_occupancy
  C  C0  1  0.14098900  0.04796600  0.80027400  1
  C  C1  1  0.35780500  0.93886500  0.69481900  1
  C  C2  1  0.64489400  0.30725400  0.02214600  1
  C  C3  1  0.86383400  0.54998600  0.64306400  1
  C  C4  1  0.64098900  0.95203400  0.69972600  1
  C  C5  1  0.36383400  0.45001400  0.85693600  1
  C  C6  1  0.85901100  0.95203400  0.19972600  1
  C  C7  1  0.68333100  0.57866600  0.93519500  1
  C  C8  1  0.63616600  0.54998600  0.14306400  1
  C  C9  1  0.85780500  0.06113500  0.80518100  1
  C  C10  1  0.05174700  0.23068300  0.47321200  1
  C  C11  1  0.94825300  0.76931700  0.52678800  1
  C  C12  1  0.64219500  0.06113500  0.30518100  1
  C  C13  1  0.55174700  0.76931700  0.02678800  1
  C  C14  1  0.35901100  0.04796600  0.30027400  1
  C  C15  1  0.14489400  0.69274600  0.47785400  1
  C  C16  1  0.44825300  0.23068300  0.97321200  1
  C  C17  1  0.81666900  0.57866600  0.43519500  1
  C  C18  1  0.93140500  0.37985700  0.33014800  1
  C  C19  1  0.06859500  0.62014300  0.66985200  1
  C  C20  1  0.00898100  0.33796000  0.94483200  1
  C  C21  1  0.13616600  0.45001400  0.35693600  1
  C  C22  1  0.99101900  0.66204000  0.05516800  1
  C  C23  1  0.56859500  0.37985700  0.83014800  1
  C  C24  1  0.35510600  0.69274600  0.97785400  1
  C  C25  1  0.43140500  0.62014300  0.16985200  1
  C  C26  1  0.18333100  0.42133400  0.56480500  1
  C  C27  1  0.85510600  0.30725400  0.52214600  1
  C  C28  1  0.31666900  0.42133400  0.06480500  1
  C  C29  1  0.49101900  0.33796000  0.44483200  1
  C  C30  1  0.14219500  0.93886500  0.19481900  1
  C  C31  1  0.50898100  0.66204000  0.55516800  1
  Ni  Ni32  1  0.49664500  0.22851300  0.27111100  1
  Ni  Ni33  1  0.00335500  0.22851300  0.77111100  1
  Ni  Ni34  1  0.99664500  0.77148700  0.22888900  1
  Ni  Ni35  1  0.50335500  0.77148700  0.72888900  1
  Cu  Cu36  1  0.00640700  0.37693800  0.62398700  1
  Cu  Cu37  1  0.99359300  0.62306200  0.37601300  1
  Cu  Cu38  1  0.50640700  0.62306200  0.87601300  1
  Cu  Cu39  1  0.49359300  0.37693800  0.12398700  1
  C  C40  1  0.64519700  0.17414100  0.47883500  1
  C  C41  1  0.37081300  0.50885300  0.37265300  1
  C  C42  1  0.38740200  0.48485500  0.62948400  1
  C  C43  1  0.87081300  0.49114700  0.12734700  1
  C  C44  1  0.61259800  0.51514500  0.37051600  1
  C  C45  1  0.50278800  0.87114600  0.32248100  1
  C  C46  1  0.63658200  0.02062700  0.11919300  1
  C  C47  1  0.13012300  0.99830200  0.61933100  1
  C  C48  1  0.36341800  0.97937300  0.88080700  1
  C  C49  1  0.84368600  0.82521400  0.02396900  1
  C  C50  1  0.49721200  0.12885400  0.67751900  1
  C  C51  1  0.85480300  0.17414100  0.97883500  1
  C  C52  1  0.24909400  0.74149700  0.25718200  1
  C  C53  1  0.36987700  0.99830200  0.11933100  1
  C  C54  1  0.62918700  0.49114700  0.62734700  1
  C  C55  1  0.34368600  0.17478600  0.47603100  1
  C  C56  1  0.15631400  0.17478600  0.97603100  1
  C  C57  1  0.74435000  0.76246200  0.26402900  1
  C  C58  1  0.11259800  0.48485500  0.12948400  1
  C  C59  1  0.99721200  0.87114600  0.82248100  1
  C  C60  1  0.25565000  0.23753800  0.73597100  1
  C  C61  1  0.24435000  0.23753800  0.23597100  1
  C  C62  1  0.13658200  0.97937300  0.38080700  1
  C  C63  1  0.75565000  0.76246200  0.76402900  1
  C  C64  1  0.65631400  0.82521400  0.52396900  1
  C  C65  1  0.86987700  0.00169800  0.38066900  1
  C  C66  1  0.86341800  0.02062700  0.61919300  1
  C  C67  1  0.75090600  0.25850300  0.74281800  1
  C  C68  1  0.63012300  0.00169800  0.88066900  1
  C  C69  1  0.00278800  0.12885400  0.17751900  1
  C  C70  1  0.74909400  0.25850300  0.24281800  1
  C  C71  1  0.12918700  0.50885300  0.87265300  1
  C  C72  1  0.35480300  0.82585900  0.52116500  1
  C  C73  1  0.14519700  0.82585900  0.02116500  1
  C  C74  1  0.88740200  0.51514500  0.87051600  1
  C  C75  1  0.25090600  0.74149700  0.75718200  1
