# generated using pymatgen
data_CuNiC2
_symmetry_space_group_name_H-M   'P 1'
_cell_length_a   6.53030100
_cell_length_b   6.52985922
_cell_length_c   10.57084064
_cell_angle_alpha   89.98598178
_cell_angle_beta   90.12796496
_cell_angle_gamma   119.84910347
_symmetry_Int_Tables_number   1
_chemical_formula_structural   CuNiC2
_chemical_formula_sum   'Cu8 Ni8 C16'
_cell_volume   390.96171267
_cell_formula_units_Z   8
loop_
 _symmetry_equiv_pos_site_id
 _symmetry_equiv_pos_as_xyz
  1  'x, y, z'
loop_
 _atom_site_type_symbol
 _atom_site_label
 _atom_site_symmetry_multiplicity
 _atom_site_fract_x
 _atom_site_fract_y
 _atom_site_fract_z
 _atom_site_occupancy
  C  C0  1  0.67111700  0.84370700  0.26169200  1
  C  C1  1  0.16719500  0.83311800  0.26208600  1
  C  C2  1  0.83852300  0.66113200  0.51036700  1
  C  C3  1  0.15671200  0.32850200  0.26455800  1
  C  C4  1  0.82721600  0.65461600  0.99882600  1
  C  C5  1  0.33361000  0.16817100  0.51096300  1
  C  C6  1  0.66135200  0.83980900  0.74684400  1
  C  C7  1  0.32210200  0.66061200  0.50633500  1
  C  C8  1  0.33415900  0.66960300  0.99205000  1
  C  C9  1  0.67023100  0.32614400  0.25255700  1
  C  C10  1  0.34611200  0.17142000  0.99491400  1
  C  C11  1  0.66516700  0.32372800  0.74393700  1
  C  C12  1  0.16302800  0.33252500  0.74529600  1
  C  C13  1  0.17501600  0.83578800  0.74149200  1
  C  C14  1  0.82522100  0.17174600  0.99395000  1
  C  C15  1  0.83839000  0.17746800  0.50315600  1
  Ni  Ni16  1  0.82809300  0.17151800  0.31695100  1
  Ni  Ni17  1  0.16769500  0.83588500  0.56361100  1
  Ni  Ni18  1  0.66878400  0.32766500  0.56505800  1
  Ni  Ni19  1  0.32329500  0.66029600  0.81386200  1
  Ni  Ni20  1  0.83907100  0.17541600  0.81547400  1
  Ni  Ni21  1  0.15744300  0.32738300  0.56449200  1
  Ni  Ni22  1  0.66157200  0.32365800  0.06634700  1
  Ni  Ni23  1  0.33297300  0.16707200  0.81401200  1
  Cu  Cu24  1  0.33522000  0.66543400  0.30345100  1
  Cu  Cu25  1  0.17973300  0.84079700  0.05669800  1
  Cu  Cu26  1  0.67333100  0.84600800  0.55560200  1
  Cu  Cu27  1  0.34640700  0.17482100  0.30126700  1
  Cu  Cu28  1  0.16821000  0.33370600  0.05444700  1
  Cu  Cu29  1  0.83912200  0.66071800  0.80835800  1
  Cu  Cu30  1  0.65952600  0.83920500  0.05419600  1
  Cu  Cu31  1  0.82437100  0.65232900  0.30116600  1
