# generated using pymatgen
data_Cu5Ni2C3
_symmetry_space_group_name_H-M   'P 1'
_cell_length_a   5.36181700
_cell_length_b   5.61496500
_cell_length_c   17.17577100
_cell_angle_alpha   90.00000000
_cell_angle_beta   90.00000000
_cell_angle_gamma   90.00000000
_symmetry_Int_Tables_number   1
_chemical_formula_structural   Cu5Ni2C3
_chemical_formula_sum   'Cu20 Ni8 C12'
_cell_volume   517.10088609
_cell_formula_units_Z   4
loop_
 _symmetry_equiv_pos_site_id
 _symmetry_equiv_pos_as_xyz
  1  'x, y, z'
loop_
 _atom_site_type_symbol
 _atom_site_label
 _atom_site_symmetry_multiplicity
 _atom_site_fract_x
 _atom_site_fract_y
 _atom_site_fract_z
 _atom_site_occupancy
  C  C0  1  0.03899900  0.32520300  0.40260100  1
  C  C1  1  0.96100100  0.67479700  0.59739900  1
  C  C2  1  0.53899900  0.17479700  0.90260100  1
  C  C3  1  0.03899900  0.32520300  0.09739900  1
  C  C4  1  0.45676000  0.26140200  0.25000000  1
  C  C5  1  0.53899900  0.17479700  0.59739900  1
  C  C6  1  0.95676000  0.23859800  0.75000000  1
  C  C7  1  0.96100100  0.67479700  0.90260100  1
  C  C8  1  0.04324000  0.76140200  0.25000000  1
  C  C9  1  0.46100100  0.82520300  0.40260100  1
  C  C10  1  0.46100100  0.82520300  0.09739900  1
  C  C11  1  0.54324000  0.73859800  0.75000000  1
  Ni  Ni12  1  0.70465900  0.46326100  0.66866900  1
  Ni  Ni13  1  0.29534100  0.53673900  0.16866900  1
  Ni  Ni14  1  0.79534100  0.96326100  0.83133100  1
  Ni  Ni15  1  0.20465900  0.03673900  0.16866900  1
  Ni  Ni16  1  0.79534100  0.96326100  0.66866900  1
  Ni  Ni17  1  0.70465900  0.46326100  0.83133100  1
  Ni  Ni18  1  0.20465900  0.03673900  0.33133100  1
  Ni  Ni19  1  0.29534100  0.53673900  0.33133100  1
  Cu  Cu20  1  0.85741700  0.38842200  0.25000000  1
  Cu  Cu21  1  0.35741700  0.11157800  0.75000000  1
  Cu  Cu22  1  0.28639600  0.11721500  0.48532900  1
  Cu  Cu23  1  0.67598100  0.16151100  0.37443200  1
  Cu  Cu24  1  0.32401900  0.83848900  0.62556800  1
  Cu  Cu25  1  0.17598100  0.33848900  0.87443200  1
  Cu  Cu26  1  0.28639600  0.11721500  0.01467100  1
  Cu  Cu27  1  0.71360400  0.88278500  0.51467100  1
  Cu  Cu28  1  0.21360400  0.61721500  0.01467100  1
  Cu  Cu29  1  0.82401900  0.66151100  0.12556800  1
  Cu  Cu30  1  0.71360400  0.88278500  0.98532900  1
  Cu  Cu31  1  0.64258300  0.88842200  0.25000000  1
  Cu  Cu32  1  0.67598100  0.16151100  0.12556800  1
  Cu  Cu33  1  0.78639600  0.38278500  0.98532900  1
  Cu  Cu34  1  0.17598100  0.33848900  0.62556800  1
  Cu  Cu35  1  0.32401900  0.83848900  0.87443200  1
  Cu  Cu36  1  0.78639600  0.38278500  0.51467100  1
  Cu  Cu37  1  0.21360400  0.61721500  0.48532900  1
  Cu  Cu38  1  0.14258300  0.61157800  0.75000000  1
  Cu  Cu39  1  0.82401900  0.66151100  0.37443200  1
