# generated using pymatgen
data_CuNiC9
_symmetry_space_group_name_H-M   'P 1'
_cell_length_a   7.29970100
_cell_length_b   7.63846900
_cell_length_c   10.51504600
_cell_angle_alpha   90.00000000
_cell_angle_beta   90.00000000
_cell_angle_gamma   90.00000000
_symmetry_Int_Tables_number   1
_chemical_formula_structural   CuNiC9
_chemical_formula_sum   'Cu4 Ni4 C36'
_cell_volume   586.30361087
_cell_formula_units_Z   4
loop_
 _symmetry_equiv_pos_site_id
 _symmetry_equiv_pos_as_xyz
  1  'x, y, z'
loop_
 _atom_site_type_symbol
 _atom_site_label
 _atom_site_symmetry_multiplicity
 _atom_site_fract_x
 _atom_site_fract_y
 _atom_site_fract_z
 _atom_site_occupancy
  C  C0  1  0.00000000  0.50000000  0.00000000  1
  C  C1  1  0.50000000  0.50000000  0.00000000  1
  C  C2  1  0.00000000  0.00000000  0.50000000  1
  C  C3  1  0.50000000  0.00000000  0.50000000  1
  C  C4  1  0.25000000  0.22292500  0.76066400  1
  C  C5  1  0.75000000  0.77707500  0.23933600  1
  C  C6  1  0.75000000  0.72292500  0.73933600  1
  C  C7  1  0.25000000  0.27707500  0.26066400  1
  Ni  Ni8  1  0.25000000  0.72630800  0.76164000  1
  Ni  Ni9  1  0.75000000  0.27369200  0.23836000  1
  Ni  Ni10  1  0.75000000  0.22630800  0.73836000  1
  Ni  Ni11  1  0.25000000  0.77369200  0.26164000  1
  Cu  Cu12  1  0.00000000  0.00000000  0.00000000  1
  Cu  Cu13  1  0.50000000  0.00000000  0.00000000  1
  Cu  Cu14  1  0.00000000  0.50000000  0.50000000  1
  Cu  Cu15  1  0.50000000  0.50000000  0.50000000  1
  C  C16  1  0.25000000  0.08518900  0.99027300  1
  C  C17  1  0.75000000  0.91481100  0.00972700  1
  C  C18  1  0.75000000  0.58518900  0.50972700  1
  C  C19  1  0.25000000  0.41481100  0.49027300  1
  C  C20  1  0.25000000  0.95448300  0.67041900  1
  C  C21  1  0.75000000  0.04551700  0.32958100  1
  C  C22  1  0.75000000  0.45448300  0.82958100  1
  C  C23  1  0.25000000  0.54551700  0.17041900  1
  C  C24  1  0.25000000  0.49286800  0.84741600  1
  C  C25  1  0.75000000  0.50713200  0.15258400  1
  C  C26  1  0.75000000  0.99286800  0.65258400  1
  C  C27  1  0.25000000  0.00713200  0.34741600  1
  C  C28  1  0.95204100  0.16451200  0.85257400  1
  C  C29  1  0.45204100  0.83548800  0.14742600  1
  C  C30  1  0.04795900  0.66451200  0.64742600  1
  C  C31  1  0.54795900  0.33548800  0.35257400  1
  C  C32  1  0.04795900  0.83548800  0.14742600  1
  C  C33  1  0.54795900  0.16451200  0.85257400  1
  C  C34  1  0.95204100  0.33548800  0.35257400  1
  C  C35  1  0.45204100  0.66451200  0.64742600  1
  C  C36  1  0.05030800  0.77923100  0.88109800  1
  C  C37  1  0.55030800  0.22076900  0.11890200  1
  C  C38  1  0.94969200  0.27923100  0.61890200  1
  C  C39  1  0.44969200  0.72076900  0.38109800  1
  C  C40  1  0.94969200  0.22076900  0.11890200  1
  C  C41  1  0.44969200  0.77923100  0.88109800  1
  C  C42  1  0.05030800  0.72076900  0.38109800  1
  C  C43  1  0.55030800  0.27923100  0.61890200  1
