# generated using pymatgen
data_Cu2NiC19
_symmetry_space_group_name_H-M   'P 1'
_cell_length_a   10.18076844
_cell_length_b   10.18076844
_cell_length_c   13.42786067
_cell_angle_alpha   73.05347115
_cell_angle_beta   73.05347115
_cell_angle_gamma   34.84693638
_symmetry_Int_Tables_number   1
_chemical_formula_structural   Cu2NiC19
_chemical_formula_sum   'Cu4 Ni2 C38'
_cell_volume   757.22115791
_cell_formula_units_Z   2
loop_
 _symmetry_equiv_pos_site_id
 _symmetry_equiv_pos_as_xyz
  1  'x, y, z'
loop_
 _atom_site_type_symbol
 _atom_site_label
 _atom_site_symmetry_multiplicity
 _atom_site_fract_x
 _atom_site_fract_y
 _atom_site_fract_z
 _atom_site_occupancy
  Ni  Ni0  1  0.50000000  0.00000000  0.00000000  1
  Ni  Ni1  1  0.00000000  0.50000000  0.50000000  1
  Cu  Cu2  1  0.89638700  0.45193400  0.83167100  1
  Cu  Cu3  1  0.10361300  0.54806600  0.16832900  1
  Cu  Cu4  1  0.54806600  0.10361300  0.66832900  1
  Cu  Cu5  1  0.45193400  0.89638700  0.33167100  1
  C  C6  1  0.69916600  0.19271200  0.02951400  1
  C  C7  1  0.88987100  0.39686000  0.16057700  1
  C  C8  1  0.60314000  0.11012900  0.33942300  1
  C  C9  1  0.30083400  0.80728800  0.97048600  1
  C  C10  1  0.80728800  0.30083400  0.47048600  1
  C  C11  1  0.19271200  0.69916600  0.52951400  1
  C  C12  1  0.78837300  0.21162700  0.75000000  1
  C  C13  1  0.21162700  0.78837300  0.25000000  1
  C  C14  1  0.39686000  0.88987100  0.66057700  1
  C  C15  1  0.11012900  0.60314000  0.83942300  1
  C  C16  1  0.97331800  0.89680600  0.08831900  1
  C  C17  1  0.53173700  0.34811300  0.70673900  1
  C  C18  1  0.21696900  0.18800100  0.68045900  1
  C  C19  1  0.46826300  0.65188700  0.29326100  1
  C  C20  1  0.31786900  0.25675400  0.32861800  1
  C  C21  1  0.34811300  0.53173700  0.20673900  1
  C  C22  1  0.12715100  0.70837400  0.40447400  1
  C  C23  1  0.51165700  0.19192700  0.10769700  1
  C  C24  1  0.70837400  0.12715100  0.90447400  1
  C  C25  1  0.78303100  0.81199900  0.31954100  1
  C  C26  1  0.80807300  0.48834300  0.39230300  1
  C  C27  1  0.42742400  0.90922400  0.51378500  1
  C  C28  1  0.68213100  0.74324600  0.67138200  1
  C  C29  1  0.81199900  0.78303100  0.81954100  1
  C  C30  1  0.29162600  0.87284900  0.09552600  1
  C  C31  1  0.18800100  0.21696900  0.18045900  1
  C  C32  1  0.02668200  0.10319400  0.91168100  1
  C  C33  1  0.87284900  0.29162600  0.59552600  1
  C  C34  1  0.25675400  0.31786900  0.82861800  1
  C  C35  1  0.89680600  0.97331800  0.58831900  1
  C  C36  1  0.10319400  0.02668200  0.41168100  1
  C  C37  1  0.65188700  0.46826300  0.79326100  1
  C  C38  1  0.57257600  0.09077600  0.48621500  1
  C  C39  1  0.74324600  0.68213100  0.17138200  1
  C  C40  1  0.19192700  0.51165700  0.60769700  1
  C  C41  1  0.48834300  0.80807300  0.89230300  1
  C  C42  1  0.90922400  0.42742400  0.01378500  1
  C  C43  1  0.09077600  0.57257600  0.98621500  1
