# generated using pymatgen
data_Cu(NiC4)2
_symmetry_space_group_name_H-M   'P 1'
_cell_length_a   7.24712300
_cell_length_b   9.03875531
_cell_length_c   12.10237544
_cell_angle_alpha   97.49894336
_cell_angle_beta   105.53335586
_cell_angle_gamma   107.96437855
_symmetry_Int_Tables_number   1
_chemical_formula_structural   Cu(NiC4)2
_chemical_formula_sum   'Cu4 Ni8 C32'
_cell_volume   706.65892569
_cell_formula_units_Z   4
loop_
 _symmetry_equiv_pos_site_id
 _symmetry_equiv_pos_as_xyz
  1  'x, y, z'
loop_
 _atom_site_type_symbol
 _atom_site_label
 _atom_site_symmetry_multiplicity
 _atom_site_fract_x
 _atom_site_fract_y
 _atom_site_fract_z
 _atom_site_occupancy
  C  C0  1  0.16694900  0.38140400  0.43476800  1
  C  C1  1  0.18215100  0.90250500  0.93636400  1
  C  C2  1  0.81784900  0.09749500  0.06363600  1
  C  C3  1  0.83305100  0.61859600  0.56523200  1
  C  C4  1  0.09490800  0.09832700  0.65224900  1
  C  C5  1  0.90509200  0.90167300  0.34775100  1
  C  C6  1  0.07901700  0.61551400  0.15558600  1
  C  C7  1  0.92098300  0.38448600  0.84441400  1
  Ni  Ni8  1  0.48104800  0.25304600  0.92238400  1
  Ni  Ni9  1  0.24311500  0.01398600  0.25046200  1
  Ni  Ni10  1  0.51895200  0.74695400  0.07761600  1
  Ni  Ni11  1  0.53638900  0.26725600  0.59050900  1
  Ni  Ni12  1  0.73348700  0.39599800  0.25776900  1
  Ni  Ni13  1  0.75688500  0.98601400  0.74953800  1
  Ni  Ni14  1  0.46361100  0.73274400  0.40949100  1
  Ni  Ni15  1  0.26651300  0.60400200  0.74223100  1
  Cu  Cu16  1  0.87179000  0.62326000  0.94963100  1
  Cu  Cu17  1  0.84095500  0.11004400  0.46773000  1
  Cu  Cu18  1  0.12821000  0.37674000  0.05036900  1
  Cu  Cu19  1  0.15904500  0.88995600  0.53227000  1
  C  C20  1  0.86881600  0.88618300  0.67163800  1
  C  C21  1  0.31139200  0.28123200  0.61239600  1
  C  C22  1  0.47196900  0.64034900  0.52639000  1
  C  C23  1  0.27855800  0.09608900  0.81722100  1
  C  C24  1  0.90298000  0.50307000  0.39801100  1
  C  C25  1  0.52803100  0.35965100  0.47361000  1
  C  C26  1  0.12307000  0.72632800  0.75767800  1
  C  C27  1  0.11158600  0.01674100  0.10776300  1
  C  C28  1  0.10143900  0.82723900  0.26342600  1
  C  C29  1  0.88841400  0.98325900  0.89223700  1
  C  C30  1  0.68860800  0.71876800  0.38760400  1
  C  C31  1  0.69071500  0.22175100  0.89355700  1
  C  C32  1  0.51377600  0.84891000  0.96454300  1
  C  C33  1  0.89856100  0.17276100  0.73657400  1
  C  C34  1  0.72144200  0.90391100  0.18277900  1
  C  C35  1  0.09702000  0.49693000  0.60198900  1
  C  C36  1  0.73089000  0.43031600  0.69510900  1
  C  C37  1  0.87693000  0.27367200  0.24232200  1
  C  C38  1  0.26911000  0.56968400  0.30489100  1
  C  C39  1  0.30928500  0.77824900  0.10644300  1
  C  C40  1  0.79088800  0.51442400  0.16422900  1
  C  C41  1  0.48622400  0.15109000  0.03545700  1
  C  C42  1  0.13118400  0.11381700  0.32836200  1
  C  C43  1  0.20911200  0.48557600  0.83577100  1
