# generated using pymatgen
data_Cu(NiC12)2
_symmetry_space_group_name_H-M   'P 1'
_cell_length_a   11.12571000
_cell_length_b   9.38522200
_cell_length_c   11.89519221
_cell_angle_alpha   67.87645286
_cell_angle_beta   90.00000000
_cell_angle_gamma   90.00000000
_symmetry_Int_Tables_number   1
_chemical_formula_structural   Cu(NiC12)2
_chemical_formula_sum   'Cu2 Ni4 C48'
_cell_volume   1150.61511797
_cell_formula_units_Z   2
loop_
 _symmetry_equiv_pos_site_id
 _symmetry_equiv_pos_as_xyz
  1  'x, y, z'
loop_
 _atom_site_type_symbol
 _atom_site_label
 _atom_site_symmetry_multiplicity
 _atom_site_fract_x
 _atom_site_fract_y
 _atom_site_fract_z
 _atom_site_occupancy
  Ni  Ni0  1  0.00000000  0.50000000  0.50000000  1
  Ni  Ni1  1  0.00000000  0.00000000  0.50000000  1
  Ni  Ni2  1  0.55183900  0.25000000  0.00000000  1
  Ni  Ni3  1  0.44816100  0.75000000  0.00000000  1
  Cu  Cu4  1  0.98683000  0.25000000  0.00000000  1
  Cu  Cu5  1  0.01317000  0.75000000  0.00000000  1
  C  C6  1  0.72644400  0.04438800  0.86312100  1
  C  C7  1  0.72644400  0.45561200  0.13687900  1
  C  C8  1  0.27355600  0.95561200  0.13687900  1
  C  C9  1  0.27355600  0.54438800  0.86312100  1
  C  C10  1  0.71500700  0.16740500  0.66784000  1
  C  C11  1  0.71500700  0.33259500  0.33216000  1
  C  C12  1  0.28499300  0.83259500  0.33216000  1
  C  C13  1  0.28499300  0.66740500  0.66784000  1
  C  C14  1  0.58374800  0.32504500  0.65212900  1
  C  C15  1  0.58374800  0.17495500  0.34787100  1
  C  C16  1  0.41625200  0.67495500  0.34787100  1
  C  C17  1  0.41625200  0.82504500  0.65212900  1
  C  C18  1  0.65248700  0.54674100  0.60251000  1
  C  C19  1  0.65248700  0.95325900  0.39749000  1
  C  C20  1  0.34751300  0.45325900  0.39749000  1
  C  C21  1  0.34751300  0.04674100  0.60251000  1
  C  C22  1  0.69802800  0.59376400  0.75093300  1
  C  C23  1  0.69802800  0.90623600  0.24906700  1
  C  C24  1  0.30197200  0.40623600  0.24906700  1
  C  C25  1  0.30197200  0.09376400  0.75093300  1
  C  C26  1  0.89196700  0.57765900  0.74842900  1
  C  C27  1  0.89196700  0.92234100  0.25157100  1
  C  C28  1  0.10803300  0.42234100  0.25157100  1
  C  C29  1  0.10803300  0.07765900  0.74842900  1
  C  C30  1  0.60352300  0.99309000  0.90193900  1
  C  C31  1  0.60352300  0.50691000  0.09806100  1
  C  C32  1  0.39647700  0.00691000  0.09806100  1
  C  C33  1  0.39647700  0.49309000  0.90193900  1
  C  C34  1  0.81125700  0.92247300  0.86900700  1
  C  C35  1  0.81125700  0.57752700  0.13099300  1
  C  C36  1  0.18874300  0.07752700  0.13099300  1
  C  C37  1  0.18874300  0.42247300  0.86900700  1
  C  C38  1  0.77022100  0.15331900  0.91609100  1
  C  C39  1  0.77022100  0.34668100  0.08390900  1
  C  C40  1  0.22977900  0.84668100  0.08390900  1
  C  C41  1  0.22977900  0.65331900  0.91609100  1
  C  C42  1  0.93301900  0.70593900  0.64126700  1
  C  C43  1  0.93301900  0.79406100  0.35873300  1
  C  C44  1  0.06698100  0.29406100  0.35873300  1
  C  C45  1  0.06698100  0.20593900  0.64126700  1
  C  C46  1  0.92328000  0.58641900  0.86638400  1
  C  C47  1  0.92328000  0.91358100  0.13361600  1
  C  C48  1  0.07672000  0.41358100  0.13361600  1
  C  C49  1  0.07672000  0.08641900  0.86638400  1
  C  C50  1  0.92171200  0.42683100  0.74501800  1
  C  C51  1  0.92171200  0.07316900  0.25498200  1
  C  C52  1  0.07828800  0.57316900  0.25498200  1
  C  C53  1  0.07828800  0.92683100  0.74501800  1
