# generated using pymatgen
data_Cu5Ni3C11
_symmetry_space_group_name_H-M   'P 1'
_cell_length_a   10.43567058
_cell_length_b   10.43567058
_cell_length_c   10.89919500
_cell_angle_alpha   90.00000000
_cell_angle_beta   90.00000000
_cell_angle_gamma   120.00000370
_symmetry_Int_Tables_number   1
_chemical_formula_structural   Cu5Ni3C11
_chemical_formula_sum   'Cu15 Ni9 C33'
_cell_volume   1027.93525512
_cell_formula_units_Z   3
loop_
 _symmetry_equiv_pos_site_id
 _symmetry_equiv_pos_as_xyz
  1  'x, y, z'
loop_
 _atom_site_type_symbol
 _atom_site_label
 _atom_site_symmetry_multiplicity
 _atom_site_fract_x
 _atom_site_fract_y
 _atom_site_fract_z
 _atom_site_occupancy
  Ni  Ni0  1  0.60539800  0.62605400  0.14749700  1
  Ni  Ni1  1  0.02065600  0.39460200  0.14749700  1
  Ni  Ni2  1  0.61676600  0.00767800  0.50470800  1
  Ni  Ni3  1  0.37394600  0.97934400  0.14749700  1
  Ni  Ni4  1  0.39091300  0.38323400  0.50470800  1
  Ni  Ni5  1  0.61166100  0.61986100  0.84500700  1
  Ni  Ni6  1  0.00820000  0.38833900  0.84500700  1
  Ni  Ni7  1  0.99232200  0.60908700  0.50470800  1
  Ni  Ni8  1  0.38013900  0.99180000  0.84500700  1
  Cu  Cu9  1  0.73769300  0.73971500  0.52166800  1
  Cu  Cu10  1  0.74033100  0.00338600  0.81639500  1
  Cu  Cu11  1  0.66666700  0.33333300  0.32090500  1
  Cu  Cu12  1  0.00278200  0.72863500  0.18499800  1
  Cu  Cu13  1  0.27136500  0.27414700  0.18499800  1
  Cu  Cu14  1  0.26305500  0.25966900  0.81639500  1
  Cu  Cu15  1  0.26028500  0.99797800  0.52166800  1
  Cu  Cu16  1  0.33333300  0.66666700  0.00166000  1
  Cu  Cu17  1  0.33333300  0.66666700  0.66344000  1
  Cu  Cu18  1  0.00202200  0.26230700  0.52166800  1
  Cu  Cu19  1  0.33333300  0.66666700  0.34050400  1
  Cu  Cu20  1  0.66666700  0.33333300  0.00031000  1
  Cu  Cu21  1  0.99661400  0.73694500  0.81639500  1
  Cu  Cu22  1  0.72585300  0.99721800  0.18499800  1
  Cu  Cu23  1  0.66666700  0.33333300  0.67458000  1
  C  C24  1  0.83010700  0.32500600  0.16151600  1
  C  C25  1  0.23405300  0.91593200  0.73622800  1
  C  C26  1  0.18927700  0.70468100  0.50335500  1
  C  C27  1  0.08406800  0.31812100  0.73622800  1
  C  C28  1  0.67880100  0.76974400  0.25639300  1
  C  C29  1  0.51540400  0.81072300  0.50335500  1
  C  C30  1  0.12390300  0.59362900  0.15349200  1
  C  C31  1  0.67499400  0.50510100  0.16151600  1
  C  C32  1  0.92819100  0.68956200  0.61676700  1
  C  C33  1  0.09094200  0.32119900  0.25639300  1
  C  C34  1  0.70917300  0.52309600  0.83668700  1
  C  C35  1  0.81392200  0.29082700  0.83668700  1
  C  C36  1  0.46972700  0.87609700  0.15349200  1
  C  C37  1  0.58282000  0.49472300  0.53748200  1
  C  C38  1  0.41609200  0.51079600  0.83049500  1
  C  C39  1  0.48920400  0.90529600  0.83049500  1
  C  C40  1  0.71411800  0.08794000  0.36704500  1
  C  C41  1  0.29531900  0.48459600  0.50335500  1
  C  C42  1  0.28725900  0.93122800  0.99446700  1
  C  C43  1  0.09470400  0.58390800  0.83049500  1
  C  C44  1  0.37382300  0.28588200  0.36704500  1
  C  C45  1  0.50527700  0.08809700  0.53748200  1
  C  C46  1  0.31043800  0.23862900  0.61676700  1
  C  C47  1  0.06877200  0.35603100  0.99446700  1
  C  C48  1  0.47690400  0.18607800  0.83668700  1
  C  C49  1  0.91190300  0.41718000  0.53748200  1
  C  C50  1  0.23025600  0.90905800  0.25639300  1
  C  C51  1  0.64396900  0.71274100  0.99446700  1
  C  C52  1  0.40637100  0.53027300  0.15349200  1
  C  C53  1  0.49489900  0.16989300  0.16151600  1
  C  C54  1  0.76137100  0.07180900  0.61676700  1
  C  C55  1  0.68187900  0.76594700  0.73622800  1
  C  C56  1  0.91206000  0.62617700  0.36704500  1
