# generated using pymatgen
data_Cu2NiC7
_symmetry_space_group_name_H-M   'P 1'
_cell_length_a   5.96119900
_cell_length_b   7.28053200
_cell_length_c   10.28495263
_cell_angle_alpha   48.00563391
_cell_angle_beta   90.00000000
_cell_angle_gamma   90.00000000
_symmetry_Int_Tables_number   1
_chemical_formula_structural   Cu2NiC7
_chemical_formula_sum   'Cu4 Ni2 C14'
_cell_volume   331.75000372
_cell_formula_units_Z   2
loop_
 _symmetry_equiv_pos_site_id
 _symmetry_equiv_pos_as_xyz
  1  'x, y, z'
loop_
 _atom_site_type_symbol
 _atom_site_label
 _atom_site_symmetry_multiplicity
 _atom_site_fract_x
 _atom_site_fract_y
 _atom_site_fract_z
 _atom_site_occupancy
  C  C0  1  0.53316000  0.00000000  0.75000000  1
  C  C1  1  0.46684000  0.00000000  0.25000000  1
  Ni  Ni2  1  0.85487200  0.50000000  0.25000000  1
  Ni  Ni3  1  0.14512800  0.50000000  0.75000000  1
  Cu  Cu4  1  0.00823200  0.64092300  0.07666900  1
  Cu  Cu5  1  0.99176800  0.35907700  0.92333100  1
  Cu  Cu6  1  0.00823200  0.35907700  0.42333100  1
  Cu  Cu7  1  0.99176800  0.64092300  0.57666900  1
  C  C8  1  0.52427600  0.71914800  0.99695200  1
  C  C9  1  0.29433800  0.15056800  0.78141600  1
  C  C10  1  0.29433800  0.84943200  0.71858400  1
  C  C11  1  0.47572400  0.28085200  0.00304800  1
  C  C12  1  0.75314600  0.84781800  0.71484200  1
  C  C13  1  0.52427600  0.28085200  0.50304800  1
  C  C14  1  0.70566200  0.15056800  0.28141600  1
  C  C15  1  0.24685400  0.84781800  0.21484200  1
  C  C16  1  0.47572400  0.71914800  0.49695200  1
  C  C17  1  0.75314600  0.15218200  0.78515800  1
  C  C18  1  0.70566200  0.84943200  0.21858400  1
  C  C19  1  0.24685400  0.15218200  0.28515800  1
