# generated using pymatgen
data_Cu4NiC
_symmetry_space_group_name_H-M   'P 1'
_cell_length_a   10.12569600
_cell_length_b   10.06065300
_cell_length_c   15.35705094
_cell_angle_alpha   67.30916279
_cell_angle_beta   90.00000000
_cell_angle_gamma   90.00000000
_symmetry_Int_Tables_number   1
_chemical_formula_structural   Cu4NiC
_chemical_formula_sum   'Cu32 Ni8 C8'
_cell_volume   1443.35191178
_cell_formula_units_Z   8
loop_
 _symmetry_equiv_pos_site_id
 _symmetry_equiv_pos_as_xyz
  1  'x, y, z'
loop_
 _atom_site_type_symbol
 _atom_site_label
 _atom_site_symmetry_multiplicity
 _atom_site_fract_x
 _atom_site_fract_y
 _atom_site_fract_z
 _atom_site_occupancy
  C  C0  1  0.36604600  0.85713400  0.79632900  1
  C  C1  1  0.86604600  0.14286600  0.70367100  1
  C  C2  1  0.63395400  0.14286600  0.20367100  1
  C  C3  1  0.13395400  0.85713400  0.29632900  1
  C  C4  1  0.27528500  0.37852200  0.59254100  1
  C  C5  1  0.77528500  0.62147800  0.90745900  1
  C  C6  1  0.72471500  0.62147800  0.40745900  1
  C  C7  1  0.22471500  0.37852200  0.09254100  1
  Ni  Ni8  1  0.17494000  0.98924000  0.98587800  1
  Ni  Ni9  1  0.67494000  0.01076000  0.51412200  1
  Ni  Ni10  1  0.82506000  0.01076000  0.01412200  1
  Ni  Ni11  1  0.32506000  0.98924000  0.48587800  1
  Ni  Ni12  1  0.99988800  0.81271700  0.59435600  1
  Ni  Ni13  1  0.49988800  0.18728300  0.90564400  1
  Ni  Ni14  1  0.00011200  0.18728300  0.40564400  1
  Ni  Ni15  1  0.50011200  0.81271700  0.09435600  1
  Cu  Cu16  1  0.27496000  0.75040800  0.03943100  1
  Cu  Cu17  1  0.77496000  0.24959200  0.46056900  1
  Cu  Cu18  1  0.72504000  0.24959200  0.96056900  1
  Cu  Cu19  1  0.22504000  0.75040800  0.53943100  1
  Cu  Cu20  1  0.03726600  0.08159200  0.07994000  1
  Cu  Cu21  1  0.53726600  0.91840800  0.42006000  1
  Cu  Cu22  1  0.96273400  0.91840800  0.92006000  1
  Cu  Cu23  1  0.46273400  0.08159200  0.57994000  1
  Cu  Cu24  1  0.89743000  0.93801100  0.42741700  1
  Cu  Cu25  1  0.39743000  0.06198900  0.07258300  1
  Cu  Cu26  1  0.10257000  0.06198900  0.57258300  1
  Cu  Cu27  1  0.60257000  0.93801100  0.92741700  1
  Cu  Cu28  1  0.06614800  0.71117400  0.77517900  1
  Cu  Cu29  1  0.56614800  0.28882600  0.72482100  1
  Cu  Cu30  1  0.93385200  0.28882600  0.22482100  1
  Cu  Cu31  1  0.43385200  0.71117400  0.27517900  1
  Cu  Cu32  1  0.27146400  0.15285100  0.83810000  1
  Cu  Cu33  1  0.77146400  0.84714900  0.66190000  1
  Cu  Cu34  1  0.72853600  0.84714900  0.16190000  1
  Cu  Cu35  1  0.22853600  0.15285100  0.33810000  1
  Cu  Cu36  1  0.14082700  0.50974600  0.80365200  1
  Cu  Cu37  1  0.64082700  0.49025400  0.69634800  1
  Cu  Cu38  1  0.85917300  0.49025400  0.19634800  1
  Cu  Cu39  1  0.35917300  0.50974600  0.30365200  1
  Cu  Cu40  1  0.34333900  0.53488200  0.77441400  1
  Cu  Cu41  1  0.84333900  0.46511800  0.72558600  1
  Cu  Cu42  1  0.65666100  0.46511800  0.22558600  1
  Cu  Cu43  1  0.15666100  0.53488200  0.27441400  1
  Cu  Cu44  1  0.44102700  0.44539600  0.90059000  1
  Cu  Cu45  1  0.94102700  0.55460400  0.59941000  1
  Cu  Cu46  1  0.55897300  0.55460400  0.09941000  1
  Cu  Cu47  1  0.05897300  0.44539600  0.40059000  1
