# generated using pymatgen
data_CuNiC10
_symmetry_space_group_name_H-M   'P 1'
_cell_length_a   10.38304771
_cell_length_b   10.38304771
_cell_length_c   6.03198000
_cell_angle_alpha   90.00000000
_cell_angle_beta   90.00000000
_cell_angle_gamma   119.99999814
_symmetry_Int_Tables_number   1
_chemical_formula_structural   CuNiC10
_chemical_formula_sum   'Cu2 Ni2 C20'
_cell_volume   563.17093346
_cell_formula_units_Z   2
loop_
 _symmetry_equiv_pos_site_id
 _symmetry_equiv_pos_as_xyz
  1  'x, y, z'
loop_
 _atom_site_type_symbol
 _atom_site_label
 _atom_site_symmetry_multiplicity
 _atom_site_fract_x
 _atom_site_fract_y
 _atom_site_fract_z
 _atom_site_occupancy
  C  C0  1  0.12993200  0.35533900  0.74079700  1
  C  C1  1  0.64466100  0.77459300  0.74079700  1
  C  C2  1  0.22540700  0.87006800  0.74079700  1
  C  C3  1  0.77459300  0.12993200  0.24079700  1
  C  C4  1  0.87006800  0.64466100  0.24079700  1
  C  C5  1  0.35533900  0.22540700  0.24079700  1
  Ni  Ni6  1  0.00000000  0.00000000  0.18394200  1
  Ni  Ni7  1  0.00000000  0.00000000  0.68394200  1
  Cu  Cu8  1  0.66666700  0.33333300  0.82942800  1
  Cu  Cu9  1  0.33333300  0.66666700  0.32942800  1
  C  C10  1  0.66666700  0.33333300  0.45267000  1
  C  C11  1  0.83637400  0.09696000  0.71098500  1
  C  C12  1  0.16362600  0.90304000  0.21098500  1
  C  C13  1  0.89850900  0.41879400  0.98467100  1
  C  C14  1  0.90304000  0.73941400  0.71098500  1
  C  C15  1  0.52028500  0.10149100  0.98467100  1
  C  C16  1  0.33333300  0.66666700  0.95267000  1
  C  C17  1  0.26058600  0.16362600  0.71098500  1
  C  C18  1  0.09696000  0.26058600  0.21098500  1
  C  C19  1  0.73941400  0.83637400  0.21098500  1
  C  C20  1  0.47971500  0.89850900  0.48467100  1
  C  C21  1  0.41879400  0.52028500  0.48467100  1
  C  C22  1  0.58120600  0.47971500  0.98467100  1
  C  C23  1  0.10149100  0.58120600  0.48467100  1
