# generated using pymatgen
data_Cu5NiC32
_symmetry_space_group_name_H-M   'P 1'
_cell_length_a   7.79476400
_cell_length_b   7.82501100
_cell_length_c   7.87643123
_cell_angle_alpha   89.75804771
_cell_angle_beta   90.00000000
_cell_angle_gamma   90.00000000
_symmetry_Int_Tables_number   1
_chemical_formula_structural   Cu5NiC32
_chemical_formula_sum   'Cu5 Ni1 C32'
_cell_volume   480.41166107
_cell_formula_units_Z   1
loop_
 _symmetry_equiv_pos_site_id
 _symmetry_equiv_pos_as_xyz
  1  'x, y, z'
loop_
 _atom_site_type_symbol
 _atom_site_label
 _atom_site_symmetry_multiplicity
 _atom_site_fract_x
 _atom_site_fract_y
 _atom_site_fract_z
 _atom_site_occupancy
  Ni  Ni0  1  0.00000000  0.75532100  0.24415100  1
  Cu  Cu1  1  0.50000000  0.02832800  0.75696400  1
  Cu  Cu2  1  0.50000000  0.49909200  0.25365600  1
  Cu  Cu3  1  0.50000000  0.00448600  0.25777800  1
  Cu  Cu4  1  0.00000000  0.50476700  0.74186700  1
  Cu  Cu5  1  0.00000000  0.00543800  0.75470900  1
  C  C6  1  0.74857000  0.75175900  0.99845600  1
  C  C7  1  0.24426800  0.26011500  0.49787200  1
  C  C8  1  0.75573200  0.26011500  0.49787200  1
  C  C9  1  0.24560200  0.26119000  0.00815300  1
  C  C10  1  0.75439800  0.26119000  0.00815300  1
  C  C11  1  0.25077100  0.75100300  0.50139600  1
  C  C12  1  0.74922900  0.75100300  0.50139600  1
  C  C13  1  0.25143000  0.75175900  0.99845600  1
  C  C14  1  0.22568500  0.73962300  0.74200300  1
  C  C15  1  0.00000000  0.27249500  0.96211700  1
  C  C16  1  0.50000000  0.26530600  0.47892600  1
  C  C17  1  0.23081600  0.99564800  0.96999300  1
  C  C18  1  0.50000000  0.78698300  0.98994200  1
  C  C19  1  0.28044300  0.49638000  0.00654000  1
  C  C20  1  0.25466400  0.24315500  0.74189800  1
  C  C21  1  0.73832300  0.75752900  0.24113300  1
  C  C22  1  0.00000000  0.72304200  0.99361400  1
  C  C23  1  0.73329900  0.23569800  0.24385200  1
  C  C24  1  0.74533600  0.24315500  0.74189800  1
  C  C25  1  0.77791400  0.49599500  0.48870500  1
  C  C26  1  0.26670100  0.23569800  0.24385200  1
  C  C27  1  0.22208600  0.49599500  0.48870500  1
  C  C28  1  0.00000000  0.77548100  0.49053800  1
  C  C29  1  0.50000000  0.71867900  0.47767500  1
  C  C30  1  0.70772500  0.99245900  0.51037100  1
  C  C31  1  0.77431500  0.73962300  0.74200300  1
  C  C32  1  0.00000000  0.21871100  0.52155400  1
  C  C33  1  0.29227500  0.99245900  0.51037100  1
  C  C34  1  0.71955700  0.49638000  0.00654000  1
  C  C35  1  0.50000000  0.20957400  0.00263500  1
  C  C36  1  0.26167700  0.75752900  0.24113300  1
  C  C37  1  0.76918400  0.99564800  0.96999300  1
