# generated using pymatgen
data_Cu3(NiC8)2
_symmetry_space_group_name_H-M   'P 1'
_cell_length_a   8.98290219
_cell_length_b   8.98290219
_cell_length_c   8.98290219
_cell_angle_alpha   109.47122063
_cell_angle_beta   109.47122063
_cell_angle_gamma   109.47122063
_symmetry_Int_Tables_number   1
_chemical_formula_structural   Cu3(NiC8)2
_chemical_formula_sum   'Cu6 Ni4 C32'
_cell_volume   557.99219292
_cell_formula_units_Z   2
loop_
 _symmetry_equiv_pos_site_id
 _symmetry_equiv_pos_as_xyz
  1  'x, y, z'
loop_
 _atom_site_type_symbol
 _atom_site_label
 _atom_site_symmetry_multiplicity
 _atom_site_fract_x
 _atom_site_fract_y
 _atom_site_fract_z
 _atom_site_occupancy
  Ni  Ni0  1  0.00000000  0.16967700  0.50000000  1
  Ni  Ni1  1  0.16967700  0.50000000  0.00000000  1
  Ni  Ni2  1  0.50000000  0.00000000  0.16967700  1
  Ni  Ni3  1  0.33032300  0.33032300  0.33032300  1
  Cu  Cu4  1  0.03342100  0.78342100  0.25000000  1
  Cu  Cu5  1  0.78342100  0.25000000  0.03342100  1
  Cu  Cu6  1  0.25000000  0.03342100  0.78342100  1
  Cu  Cu7  1  0.75000000  0.46657900  0.71657900  1
  Cu  Cu8  1  0.71657900  0.75000000  0.46657900  1
  Cu  Cu9  1  0.46657900  0.71657900  0.75000000  1
  C  C10  1  0.00000000  0.49640800  0.50000000  1
  C  C11  1  0.50000000  0.00000000  0.49640800  1
  C  C12  1  0.49640800  0.50000000  0.00000000  1
  C  C13  1  0.00359200  0.00359200  0.00359200  1
  C  C14  1  0.57761300  0.57761300  0.57761300  1
  C  C15  1  0.98190700  0.42653100  0.66826000  1
  C  C16  1  0.07346900  0.05537700  0.24172900  1
  C  C17  1  0.32352500  0.00121200  0.55108400  1
  C  C18  1  0.83174000  0.25827100  0.31364800  1
  C  C19  1  0.82231200  0.54987100  0.49878800  1
  C  C20  1  0.24172900  0.07346900  0.05537700  1
  C  C21  1  0.31364800  0.83174000  0.25827100  1
  C  C22  1  0.94891600  0.95012900  0.77244100  1
  C  C23  1  0.55108400  0.32352500  0.00121200  1
  C  C24  1  0.50000000  0.00000000  0.92238700  1
  C  C25  1  0.00000000  0.92238700  0.50000000  1
  C  C26  1  0.72755900  0.67768800  0.17647500  1
  C  C27  1  0.42653100  0.66826000  0.98190700  1
  C  C28  1  0.66826000  0.98190700  0.42653100  1
  C  C29  1  0.00121300  0.55108400  0.32352500  1
  C  C30  1  0.67768800  0.17647500  0.72755900  1
  C  C31  1  0.77244100  0.94891600  0.95012900  1
  C  C32  1  0.18635200  0.44462300  0.51809300  1
  C  C33  1  0.25827100  0.31364800  0.83174000  1
  C  C34  1  0.17647500  0.72755900  0.67768800  1
  C  C35  1  0.92238700  0.50000000  0.00000000  1
  C  C36  1  0.44462300  0.51809300  0.18635200  1
  C  C37  1  0.51809300  0.18635200  0.44462300  1
  C  C38  1  0.54987100  0.49878800  0.82231200  1
  C  C39  1  0.49878800  0.82231200  0.54987100  1
  C  C40  1  0.05537700  0.24172900  0.07346900  1
  C  C41  1  0.95012900  0.77244100  0.94891600  1
