# generated using pymatgen
data_CuNiC20
_symmetry_space_group_name_H-M   'P 1'
_cell_length_a   13.26815816
_cell_length_b   13.26815816
_cell_length_c   13.26815816
_cell_angle_alpha   145.93397625
_cell_angle_beta   107.79438236
_cell_angle_gamma   82.29951365
_symmetry_Int_Tables_number   1
_chemical_formula_structural   CuNiC20
_chemical_formula_sum   'Cu4 Ni4 C80'
_cell_volume   1214.29610669
_cell_formula_units_Z   4
loop_
 _symmetry_equiv_pos_site_id
 _symmetry_equiv_pos_as_xyz
  1  'x, y, z'
loop_
 _atom_site_type_symbol
 _atom_site_label
 _atom_site_symmetry_multiplicity
 _atom_site_fract_x
 _atom_site_fract_y
 _atom_site_fract_z
 _atom_site_occupancy
  Ni  Ni0  1  0.75000000  0.75000000  0.00000000  1
  Ni  Ni1  1  0.50000000  0.00000000  0.50000000  1
  Ni  Ni2  1  0.25000000  0.25000000  0.00000000  1
  Ni  Ni3  1  0.00000000  0.50000000  0.50000000  1
  Cu  Cu4  1  0.02156300  0.25000000  0.77156300  1
  Cu  Cu5  1  0.52156300  0.75000000  0.77156300  1
  Cu  Cu6  1  0.97843700  0.75000000  0.22843700  1
  Cu  Cu7  1  0.47843700  0.25000000  0.22843700  1
  C  C8  1  0.47263900  0.00365400  0.77009100  1
  C  C9  1  0.02736100  0.79745100  0.53101500  1
  C  C10  1  0.33348700  0.73177300  0.06526000  1
  C  C11  1  0.76643600  0.29745100  0.77009100  1
  C  C12  1  0.63378600  0.67740100  0.31118700  1
  C  C13  1  0.27588400  0.09220500  0.66044100  1
  C  C14  1  0.73356400  0.50365400  0.53101500  1
  C  C15  1  0.86621400  0.17740100  0.04361500  1
  C  C16  1  0.22411600  0.88455700  0.81632100  1
  C  C17  1  0.97263900  0.20254900  0.46898500  1
  C  C18  1  0.77588400  0.11544300  0.18367900  1
  C  C19  1  0.16651300  0.23177300  0.39828600  1
  C  C20  1  0.06823600  0.40779500  0.18367900  1
  C  C21  1  0.83348700  0.76822700  0.60171400  1
  C  C22  1  0.26643600  0.49634600  0.46898500  1
  C  C23  1  0.56823600  0.38455700  0.66044100  1
  C  C24  1  0.52736100  0.99634600  0.22991000  1
  C  C25  1  0.66651300  0.26822700  0.93474000  1
  C  C26  1  0.93176400  0.59220500  0.81632100  1
  C  C27  1  0.13378600  0.82259900  0.95638500  1
  C  C28  1  0.72411600  0.90779500  0.33955900  1
  C  C29  1  0.36621400  0.32259900  0.68881300  1
  C  C30  1  0.43176400  0.61544300  0.33955900  1
  C  C31  1  0.23356400  0.70254900  0.22991000  1
  C  C32  1  0.88370300  0.42623400  0.93366600  1
  C  C33  1  0.38370300  0.45003700  0.45746900  1
  C  C34  1  0.14251500  0.80999300  0.82633500  1
  C  C35  1  0.70222200  0.91507300  0.98131900  1
  C  C36  1  0.85622400  0.12104000  0.31105600  1
  C  C37  1  0.81013600  0.60359400  0.54219400  1
  C  C38  1  0.79777800  0.77909700  0.21285100  1
  C  C39  1  0.06624600  0.27909700  0.98131900  1
  C  C40  1  0.77006900  0.25761100  0.02768000  1
  C  C41  1  0.64251500  0.81618000  0.33252200  1
  C  C42  1  0.31013600  0.76794300  0.20654200  1
  C  C43  1  0.18986400  0.39640600  0.45780600  1
  C  C44  1  0.49256900  0.95003700  0.06633400  1
  C  C45  1  0.99256900  0.92623400  0.54253100  1
  C  C46  1  0.85748500  0.19000700  0.17366500  1
  C  C47  1  0.06140100  0.26794300  0.45780600  1
  C  C48  1  0.13758900  0.03105300  0.16864100  1
  C  C49  1  0.20525600  0.89226100  0.42810800  1
  C  C50  1  0.68986400  0.23205700  0.79345800  1
  C  C51  1  0.36241100  0.53105300  0.89346400  1
  C  C52  1  0.11629700  0.57376600  0.06633400  1
  C  C53  1  0.69001600  0.37896000  0.73518400  1
  C  C54  1  0.61629700  0.54996300  0.54253100  1
  C  C55  1  0.48365800  0.30999300  0.66747800  1
  C  C56  1  0.20222200  0.22090300  0.78714900  1
  C  C57  1  0.93375400  0.72090300  0.01868100  1
  C  C58  1  0.98365800  0.31618000  0.17366500  1
  C  C59  1  0.35622400  0.04516700  0.73518400  1
  C  C60  1  0.56140100  0.10359400  0.79345800  1
  C  C61  1  0.72993100  0.75761100  0.48754200  1
  C  C62  1  0.00743100  0.07376600  0.45746900  1
  C  C63  1  0.80998400  0.54516700  0.68894400  1
  C  C64  1  0.29474400  0.72285100  0.68700400  1
  C  C65  1  0.86241100  0.96894700  0.83135900  1
  C  C66  1  0.22993100  0.74238900  0.97232000  1
  C  C67  1  0.29777800  0.08492700  0.01868100  1
  C  C68  1  0.01634200  0.68382000  0.82633500  1
  C  C69  1  0.56624600  0.58492700  0.78714900  1
  C  C70  1  0.19001600  0.45483300  0.31105600  1
  C  C71  1  0.96415300  0.39226100  0.68700400  1
  C  C72  1  0.03584700  0.60773900  0.31299600  1
  C  C73  1  0.64377600  0.95483300  0.26481600  1
  C  C74  1  0.70525600  0.27714900  0.31299600  1
  C  C75  1  0.43375400  0.41507300  0.21285100  1
  C  C76  1  0.53584700  0.22285100  0.42810800  1
  C  C77  1  0.51634200  0.69000700  0.33252200  1
  C  C78  1  0.27006900  0.24238900  0.51245800  1
  C  C79  1  0.50743100  0.04996300  0.93366600  1
  C  C80  1  0.30998400  0.62104000  0.26481600  1
  C  C81  1  0.46415300  0.77714900  0.57189200  1
  C  C82  1  0.79474400  0.10773900  0.57189200  1
  C  C83  1  0.35748500  0.18382000  0.66747800  1
  C  C84  1  0.14377600  0.87896000  0.68894400  1
  C  C85  1  0.63758900  0.46894700  0.10653600  1
  C  C86  1  0.43859900  0.89640600  0.20654200  1
  C  C87  1  0.93859900  0.73205700  0.54219400  1
