# generated using pymatgen
data_Cu7Ni2C3
_symmetry_space_group_name_H-M   'P 1'
_cell_length_a   6.89121600
_cell_length_b   11.25710700
_cell_length_c   19.00972091
_cell_angle_alpha   79.34486459
_cell_angle_beta   90.00000000
_cell_angle_gamma   90.00000000
_symmetry_Int_Tables_number   1
_chemical_formula_structural   Cu7Ni2C3
_chemical_formula_sum   'Cu28 Ni8 C12'
_cell_volume   1449.25541597
_cell_formula_units_Z   4
loop_
 _symmetry_equiv_pos_site_id
 _symmetry_equiv_pos_as_xyz
  1  'x, y, z'
loop_
 _atom_site_type_symbol
 _atom_site_label
 _atom_site_symmetry_multiplicity
 _atom_site_fract_x
 _atom_site_fract_y
 _atom_site_fract_z
 _atom_site_occupancy
  C  C0  1  0.77555900  0.25651500  0.33481000  1
  C  C1  1  0.78087200  0.48745700  0.60904000  1
  C  C2  1  0.21912800  0.51254300  0.39096000  1
  C  C3  1  0.26678200  0.94269300  0.38863000  1
  C  C4  1  0.73321800  0.05730700  0.61137000  1
  C  C5  1  0.23321800  0.94269300  0.88863000  1
  C  C6  1  0.27555900  0.74348500  0.16519000  1
  C  C7  1  0.28087200  0.51254300  0.89096000  1
  C  C8  1  0.22444100  0.74348500  0.66519000  1
  C  C9  1  0.76678200  0.05730700  0.11137000  1
  C  C10  1  0.72444100  0.25651500  0.83481000  1
  C  C11  1  0.71912800  0.48745700  0.10904000  1
  Ni  Ni12  1  0.29952600  0.27538600  0.69575300  1
  Ni  Ni13  1  0.79733000  0.79381800  0.49637200  1
  Ni  Ni14  1  0.79952600  0.72461400  0.80424700  1
  Ni  Ni15  1  0.70047400  0.72461400  0.30424700  1
  Ni  Ni16  1  0.70267000  0.79381800  0.99637200  1
  Ni  Ni17  1  0.20267000  0.20618200  0.50362800  1
  Ni  Ni18  1  0.20047400  0.27538600  0.19575300  1
  Ni  Ni19  1  0.29733000  0.20618200  0.00362800  1
  Cu  Cu20  1  0.58013300  0.67485500  0.43214000  1
  Cu  Cu21  1  0.18095900  0.23340800  0.88268200  1
  Cu  Cu22  1  0.72481200  0.99837500  0.93976400  1
  Cu  Cu23  1  0.55843000  0.54795500  0.26920600  1
  Cu  Cu24  1  0.59785700  0.31776400  0.98915300  1
  Cu  Cu25  1  0.47240400  0.09654000  0.74658800  1
  Cu  Cu26  1  0.04399100  0.75094000  0.30676000  1
  Cu  Cu27  1  0.22481200  0.00162500  0.56023600  1
  Cu  Cu28  1  0.41986700  0.32514500  0.56786000  1
  Cu  Cu29  1  0.27518800  0.00162500  0.06023600  1
  Cu  Cu30  1  0.91986700  0.67485500  0.93214000  1
  Cu  Cu31  1  0.05843000  0.45204500  0.23079400  1
  Cu  Cu32  1  0.44157000  0.45204500  0.73079400  1
  Cu  Cu33  1  0.54399100  0.24906000  0.19324000  1
  Cu  Cu34  1  0.09785700  0.68223600  0.51084700  1
  Cu  Cu35  1  0.31904100  0.23340800  0.38268200  1
  Cu  Cu36  1  0.52759600  0.90346000  0.25341200  1
  Cu  Cu37  1  0.90214300  0.31776400  0.48915300  1
  Cu  Cu38  1  0.40214300  0.68223600  0.01084700  1
  Cu  Cu39  1  0.77518800  0.99837500  0.43976400  1
  Cu  Cu40  1  0.95600900  0.24906000  0.69324000  1
  Cu  Cu41  1  0.81904100  0.76659200  0.11731800  1
  Cu  Cu42  1  0.94157000  0.54795500  0.76920600  1
  Cu  Cu43  1  0.97240400  0.90346000  0.75341200  1
  Cu  Cu44  1  0.45600900  0.75094000  0.80676000  1
  Cu  Cu45  1  0.68095900  0.76659200  0.61731800  1
  Cu  Cu46  1  0.02759600  0.09654000  0.24658800  1
  Cu  Cu47  1  0.08013300  0.32514500  0.06786000  1
