# generated using pymatgen
data_Cu2Ni8C15
_symmetry_space_group_name_H-M   'P 1'
_cell_length_a   8.36560600
_cell_length_b   5.56310600
_cell_length_c   11.22432551
_cell_angle_alpha   79.68730555
_cell_angle_beta   90.00000000
_cell_angle_gamma   90.00000000
_symmetry_Int_Tables_number   1
_chemical_formula_structural   Cu2Ni8C15
_chemical_formula_sum   'Cu4 Ni16 C30'
_cell_volume   513.92749517
_cell_formula_units_Z   2
loop_
 _symmetry_equiv_pos_site_id
 _symmetry_equiv_pos_as_xyz
  1  'x, y, z'
loop_
 _atom_site_type_symbol
 _atom_site_label
 _atom_site_symmetry_multiplicity
 _atom_site_fract_x
 _atom_site_fract_y
 _atom_site_fract_z
 _atom_site_occupancy
  C  C0  1  0.42755000  0.12338000  0.13871100  1
  C  C1  1  0.07245000  0.12338000  0.63871100  1
  C  C2  1  0.92755000  0.87662000  0.36128900  1
  C  C3  1  0.57245000  0.87662000  0.86128900  1
  C  C4  1  0.00000000  0.00000000  0.00000000  1
  C  C5  1  0.50000000  0.00000000  0.50000000  1
  Ni  Ni6  1  0.44767700  0.23578500  0.68247600  1
  Ni  Ni7  1  0.77614300  0.23868900  0.48442300  1
  Ni  Ni8  1  0.86346500  0.22752000  0.15521000  1
  Ni  Ni9  1  0.72385700  0.23868900  0.98442300  1
  Ni  Ni10  1  0.36346500  0.77248000  0.34479000  1
  Ni  Ni11  1  0.69819500  0.33047300  0.35942600  1
  Ni  Ni12  1  0.55232300  0.76421500  0.31752400  1
  Ni  Ni13  1  0.94767700  0.76421500  0.81752400  1
  Ni  Ni14  1  0.22385700  0.76131100  0.51557700  1
  Ni  Ni15  1  0.05232300  0.23578500  0.18247600  1
  Ni  Ni16  1  0.80180500  0.33047300  0.85942600  1
  Ni  Ni17  1  0.19819500  0.66952700  0.14057400  1
  Ni  Ni18  1  0.30180500  0.66952700  0.64057400  1
  Ni  Ni19  1  0.27614300  0.76131100  0.01557700  1
  Ni  Ni20  1  0.63653500  0.22752000  0.65521000  1
  Ni  Ni21  1  0.13653500  0.77248000  0.84479000  1
  Cu  Cu22  1  0.20926900  0.37624400  0.36428400  1
  Cu  Cu23  1  0.79073100  0.62375600  0.63571600  1
  Cu  Cu24  1  0.29073100  0.37624400  0.86428400  1
  Cu  Cu25  1  0.70926900  0.62375600  0.13571600  1
  C  C26  1  0.42186600  0.21882500  0.92120800  1
  C  C27  1  0.17737800  0.63922300  0.37267000  1
  C  C28  1  0.46396800  0.87044000  0.33828700  1
  C  C29  1  0.92186600  0.78117500  0.57879200  1
  C  C30  1  0.96396800  0.12956000  0.16171300  1
  C  C31  1  0.22121600  0.36150700  0.23160100  1
  C  C32  1  0.77878400  0.63849300  0.76839900  1
  C  C33  1  0.67737800  0.36077700  0.12733000  1
  C  C34  1  0.82262200  0.36077700  0.62733000  1
  C  C35  1  0.72121600  0.63849300  0.26839900  1
  C  C36  1  0.03603200  0.87044000  0.83828700  1
  C  C37  1  0.32262200  0.63922300  0.87267000  1
  C  C38  1  0.57813400  0.78117500  0.07879200  1
  C  C39  1  0.07813400  0.21882500  0.42120800  1
  C  C40  1  0.86421000  0.69541200  0.07493500  1
  C  C41  1  0.53603200  0.12956000  0.66171300  1
  C  C42  1  0.71063600  0.18072900  0.42184600  1
  C  C43  1  0.27878400  0.36150700  0.73160100  1
  C  C44  1  0.21063600  0.81927100  0.07815400  1
  C  C45  1  0.28936400  0.81927100  0.57815400  1
  C  C46  1  0.63579000  0.69541200  0.57493500  1
  C  C47  1  0.36421000  0.30458800  0.42506500  1
  C  C48  1  0.13579000  0.30458800  0.92506500  1
  C  C49  1  0.78936400  0.18072900  0.92184600  1
