# generated using pymatgen
data_Cu3Ni3C4
_symmetry_space_group_name_H-M   'P 1'
_cell_length_a   8.89948244
_cell_length_b   8.89948244
_cell_length_c   3.14100400
_cell_angle_alpha   90.00000000
_cell_angle_beta   90.00000000
_cell_angle_gamma   120.00000327
_symmetry_Int_Tables_number   1
_chemical_formula_structural   Cu3Ni3C4
_chemical_formula_sum   'Cu6 Ni6 C8'
_cell_volume   215.44112476
_cell_formula_units_Z   2
loop_
 _symmetry_equiv_pos_site_id
 _symmetry_equiv_pos_as_xyz
  1  'x, y, z'
loop_
 _atom_site_type_symbol
 _atom_site_label
 _atom_site_symmetry_multiplicity
 _atom_site_fract_x
 _atom_site_fract_y
 _atom_site_fract_z
 _atom_site_occupancy
  C  C0  1  0.36686600  0.02993000  0.25000000  1
  C  C1  1  0.02993000  0.66306400  0.75000000  1
  C  C2  1  0.63313400  0.97007000  0.75000000  1
  C  C3  1  0.66306400  0.63313400  0.25000000  1
  C  C4  1  0.97007000  0.33693600  0.25000000  1
  C  C5  1  0.33693600  0.36686600  0.75000000  1
  C  C6  1  0.33333300  0.66666700  0.25000000  1
  C  C7  1  0.66666700  0.33333300  0.75000000  1
  Ni  Ni8  1  0.44917100  0.84519600  0.25000000  1
  Ni  Ni9  1  0.84519600  0.39602500  0.75000000  1
  Ni  Ni10  1  0.39602500  0.55082900  0.25000000  1
  Ni  Ni11  1  0.60397500  0.44917100  0.75000000  1
  Ni  Ni12  1  0.55082900  0.15480400  0.75000000  1
  Ni  Ni13  1  0.15480400  0.60397500  0.25000000  1
  Cu  Cu14  1  0.70069400  0.78988100  0.75000000  1
  Cu  Cu15  1  0.21011900  0.91081300  0.75000000  1
  Cu  Cu16  1  0.29930600  0.21011900  0.25000000  1
  Cu  Cu17  1  0.91081300  0.70069400  0.25000000  1
  Cu  Cu18  1  0.78988100  0.08918700  0.25000000  1
  Cu  Cu19  1  0.08918700  0.29930600  0.75000000  1
