# generated using pymatgen
data_Cu22(NiC12)3
_symmetry_space_group_name_H-M   'P 1'
_cell_length_a   5.50134057
_cell_length_b   5.50704185
_cell_length_c   32.98623902
_cell_angle_alpha   53.44495057
_cell_angle_beta   53.48639313
_cell_angle_gamma   53.60134042
_symmetry_Int_Tables_number   1
_chemical_formula_structural   Cu22(NiC12)3
_chemical_formula_sum   'Cu22 Ni3 C36'
_cell_volume   599.35341936
_cell_formula_units_Z   1
loop_
 _symmetry_equiv_pos_site_id
 _symmetry_equiv_pos_as_xyz
  1  'x, y, z'
loop_
 _atom_site_type_symbol
 _atom_site_label
 _atom_site_symmetry_multiplicity
 _atom_site_fract_x
 _atom_site_fract_y
 _atom_site_fract_z
 _atom_site_occupancy
  Ni  Ni0  1  0.32793700  0.33107300  0.88540200  1
  Ni  Ni1  1  0.50000000  0.50000000  0.91666700  1
  Ni  Ni2  1  0.67206300  0.66892700  0.94793100  1
  Cu  Cu3  1  0.12208000  0.13728100  0.02944900  1
  Cu  Cu4  1  0.32997700  0.33198200  0.06226900  1
  Cu  Cu5  1  0.13795300  0.13918600  0.19453400  1
  Cu  Cu6  1  0.33451000  0.33495900  0.22607100  1
  Cu  Cu7  1  0.65236200  0.64977100  0.11526000  1
  Cu  Cu8  1  0.14206100  0.14443700  0.35844200  1
  Cu  Cu9  1  0.84936600  0.84750400  0.14678700  1
  Cu  Cu10  1  0.33852000  0.33939800  0.39031900  1
  Cu  Cu11  1  0.65696600  0.65502500  0.27887100  1
  Cu  Cu12  1  0.14657800  0.14961500  0.52270000  1
  Cu  Cu13  1  0.85342200  0.85038500  0.31063400  1
  Cu  Cu14  1  0.34303400  0.34497500  0.55446300  1
  Cu  Cu15  1  0.66148000  0.66060200  0.44301400  1
  Cu  Cu16  1  0.15063400  0.15249600  0.68654600  1
  Cu  Cu17  1  0.85793900  0.85556300  0.47489100  1
  Cu  Cu18  1  0.34763800  0.35022900  0.71807300  1
  Cu  Cu19  1  0.66549000  0.66504100  0.60726200  1
  Cu  Cu20  1  0.15705300  0.13713500  0.85029500  1
  Cu  Cu21  1  0.86204700  0.86081400  0.63879900  1
  Cu  Cu22  1  0.67002300  0.66801800  0.77106500  1
  Cu  Cu23  1  0.87792000  0.86271900  0.80388500  1
  Cu  Cu24  1  0.84294700  0.86286500  0.98303800  1
  C  C25  1  0.05310900  0.72215900  0.07809400  1
  C  C26  1  0.42997400  0.05325000  0.12675900  1
  C  C27  1  0.71359000  0.43508300  0.02059800  1
  C  C28  1  0.26256400  0.55425400  0.15936300  1
  C  C29  1  0.55115600  0.93485300  0.05059000  1
  C  C30  1  0.05939900  0.72594700  0.24194100  1
  C  C31  1  0.92951200  0.25734400  0.09959300  1
  C  C32  1  0.43711600  0.05781500  0.29057500  1
  C  C33  1  0.72553000  0.42936600  0.18156600  1
  C  C34  1  0.26572500  0.56053300  0.32361100  1
  C  C35  1  0.55329800  0.93180000  0.21451800  1
  C  C36  1  0.06392500  0.73099800  0.40628000  1
  C  C37  1  0.93183600  0.26407500  0.26279000  1
  C  C38  1  0.44102100  0.06279000  0.45484600  1
  C  C39  1  0.72970900  0.43425300  0.34549100  1
  C  C40  1  0.27029100  0.56574700  0.48784200  1
  C  C41  1  0.55897900  0.93721000  0.37848700  1
  C  C42  1  0.06816400  0.73592500  0.57054400  1
  C  C43  1  0.93607500  0.26900200  0.42705300  1
  C  C44  1  0.44670200  0.06820000  0.61881500  1
  C  C45  1  0.73427500  0.43946700  0.50972300  1
  C  C46  1  0.27447000  0.57063400  0.65176700  1
  C  C47  1  0.56288400  0.94218500  0.54275900  1
  C  C48  1  0.07048800  0.74265600  0.73374000  1
  C  C49  1  0.94060100  0.27405300  0.59139200  1
  C  C50  1  0.44884400  0.06514700  0.78274400  1
  C  C51  1  0.73743600  0.44574600  0.67397000  1
  C  C52  1  0.28641000  0.56491700  0.81273600  1
  C  C53  1  0.57002600  0.94675000  0.70657400  1
  C  C54  1  0.08734900  0.73773400  0.90576300  1
  C  C55  1  0.94689100  0.27784100  0.75524000  1
  C  C56  1  0.42990000  0.08352800  0.95958700  1
  C  C57  1  0.74330300  0.44989500  0.83986900  1
  C  C58  1  0.25669700  0.55010500  0.99346400  1
  C  C59  1  0.57010000  0.91647200  0.87374600  1
  C  C60  1  0.91265100  0.26226600  0.92757000  1
