# generated using pymatgen
data_CuNiC10
_symmetry_space_group_name_H-M   'P 1'
_cell_length_a   5.60005311
_cell_length_b   5.60005311
_cell_length_c   14.90046600
_cell_angle_alpha   90.00000000
_cell_angle_beta   90.00000000
_cell_angle_gamma   119.99998950
_symmetry_Int_Tables_number   1
_chemical_formula_structural   CuNiC10
_chemical_formula_sum   'Cu2 Ni2 C20'
_cell_volume   404.68286899
_cell_formula_units_Z   2
loop_
 _symmetry_equiv_pos_site_id
 _symmetry_equiv_pos_as_xyz
  1  'x, y, z'
loop_
 _atom_site_type_symbol
 _atom_site_label
 _atom_site_symmetry_multiplicity
 _atom_site_fract_x
 _atom_site_fract_y
 _atom_site_fract_z
 _atom_site_occupancy
  C  C0  1  0.00000000  0.00000000  0.72044200  1
  C  C1  1  0.33333300  0.66666700  0.38255400  1
  C  C2  1  0.00000000  0.00000000  0.22044200  1
  C  C3  1  0.66666700  0.33333300  0.88255400  1
  C  C4  1  0.66666700  0.33333300  0.59849800  1
  C  C5  1  0.33333300  0.66666700  0.09849800  1
  Ni  Ni6  1  0.33333300  0.66666700  0.74171500  1
  Ni  Ni7  1  0.66666700  0.33333300  0.24171500  1
  Cu  Cu8  1  0.00000000  0.00000000  0.99567400  1
  Cu  Cu9  1  0.00000000  0.00000000  0.49567400  1
  C  C10  1  0.52222500  0.04445100  0.24228200  1
  C  C11  1  0.00000000  0.00000000  0.39156400  1
  C  C12  1  0.47777500  0.95554900  0.74228200  1
  C  C13  1  0.84954000  0.69907900  0.03200200  1
  C  C14  1  0.15046000  0.84954000  0.53200200  1
  C  C15  1  0.69907900  0.84954000  0.53200200  1
  C  C16  1  0.30092100  0.15046000  0.03200200  1
  C  C17  1  0.95554900  0.47777500  0.24228200  1
  C  C18  1  0.04445100  0.52222500  0.74228200  1
  C  C19  1  0.84954000  0.15046000  0.03200200  1
  C  C20  1  0.52222500  0.47777500  0.24228200  1
  C  C21  1  0.00000000  0.00000000  0.89156400  1
  C  C22  1  0.15046000  0.30092100  0.53200200  1
  C  C23  1  0.47777500  0.52222500  0.74228200  1
