# generated using pymatgen
data_Cu(NiC2)2
_symmetry_space_group_name_H-M   'P 1'
_cell_length_a   5.63949600
_cell_length_b   6.49583876
_cell_length_c   5.63949600
_cell_angle_alpha   64.27289678
_cell_angle_beta   90.00000000
_cell_angle_gamma   115.72710322
_symmetry_Int_Tables_number   1
_chemical_formula_structural   Cu(NiC2)2
_chemical_formula_sum   'Cu1 Ni2 C4'
_cell_volume   163.08297108
_cell_formula_units_Z   1
loop_
 _symmetry_equiv_pos_site_id
 _symmetry_equiv_pos_as_xyz
  1  'x, y, z'
loop_
 _atom_site_type_symbol
 _atom_site_label
 _atom_site_symmetry_multiplicity
 _atom_site_fract_x
 _atom_site_fract_y
 _atom_site_fract_z
 _atom_site_occupancy
  Ni  Ni0  1  0.25000000  0.50000000  0.25000000  1
  Ni  Ni1  1  0.00000000  0.00000000  0.00000000  1
  Cu  Cu2  1  0.50000000  0.00000000  0.50000000  1
  C  C3  1  0.35362300  0.26828000  0.63005600  1
  C  C4  1  0.91465700  0.26828000  0.10166400  1
  C  C5  1  0.63005600  0.73172000  0.91465700  1
  C  C6  1  0.10166400  0.73172000  0.35362300  1
