# generated using pymatgen
data_Cu(NiC2)2
_symmetry_space_group_name_H-M   'P 1'
_cell_length_a   7.88682470
_cell_length_b   7.88682470
_cell_length_c   7.88682470
_cell_angle_alpha   136.44274903
_cell_angle_beta   110.84048863
_cell_angle_gamma   85.38535681
_symmetry_Int_Tables_number   1
_chemical_formula_structural   Cu(NiC2)2
_chemical_formula_sum   'Cu4 Ni8 C16'
_cell_volume   303.71060341
_cell_formula_units_Z   4
loop_
 _symmetry_equiv_pos_site_id
 _symmetry_equiv_pos_as_xyz
  1  'x, y, z'
loop_
 _atom_site_type_symbol
 _atom_site_label
 _atom_site_symmetry_multiplicity
 _atom_site_fract_x
 _atom_site_fract_y
 _atom_site_fract_z
 _atom_site_occupancy
  Ni  Ni0  1  0.00000000  0.00000000  0.00000000  1
  Ni  Ni1  1  0.50000000  0.50000000  0.00000000  1
  Ni  Ni2  1  0.30556400  0.75000000  0.55556400  1
  Ni  Ni3  1  0.69443600  0.25000000  0.44443600  1
  Ni  Ni4  1  0.36798400  0.86798400  0.00000000  1
  Ni  Ni5  1  0.63201600  0.63201600  0.50000000  1
  Ni  Ni6  1  0.63201600  0.13201600  0.00000000  1
  Ni  Ni7  1  0.36798400  0.36798400  0.50000000  1
  Cu  Cu8  1  0.26390300  0.88998200  0.37392200  1
  Cu  Cu9  1  0.73609700  0.11001900  0.62607800  1
  Cu  Cu10  1  0.98394000  0.61001900  0.37392200  1
  Cu  Cu11  1  0.01606000  0.38998200  0.62607800  1
  C  C12  1  0.88840200  0.60182500  0.72055400  1
  C  C13  1  0.11159800  0.83215200  0.71342300  1
  C  C14  1  0.61872900  0.89817500  0.28657700  1
  C  C15  1  0.38127100  0.66784800  0.27944600  1
  C  C16  1  0.11159800  0.39817500  0.27944600  1
  C  C17  1  0.88840200  0.16784800  0.28657700  1
  C  C18  1  0.38127100  0.10182500  0.71342300  1
  C  C19  1  0.61872900  0.33215200  0.72055400  1
  C  C20  1  0.24632400  0.49082000  0.75550400  1
  C  C21  1  0.75367600  0.50918000  0.24449600  1
  C  C22  1  0.76468300  0.00917900  0.75550400  1
  C  C23  1  0.23531700  0.99082100  0.24449600  1
  C  C24  1  0.51406200  0.75000000  0.76406200  1
  C  C25  1  0.48593800  0.25000000  0.23593800  1
  C  C26  1  0.06074500  0.75000000  0.31074500  1
  C  C27  1  0.93925500  0.25000000  0.68925500  1
