# generated using pymatgen
data_Cu2NiC8
_symmetry_space_group_name_H-M   'P 1'
_cell_length_a   9.86739900
_cell_length_b   5.40238100
_cell_length_c   14.15846718
_cell_angle_alpha   69.72561036
_cell_angle_beta   90.00000000
_cell_angle_gamma   90.00000000
_symmetry_Int_Tables_number   1
_chemical_formula_structural   Cu2NiC8
_chemical_formula_sum   'Cu8 Ni4 C32'
_cell_volume   707.99030170
_cell_formula_units_Z   4
loop_
 _symmetry_equiv_pos_site_id
 _symmetry_equiv_pos_as_xyz
  1  'x, y, z'
loop_
 _atom_site_type_symbol
 _atom_site_label
 _atom_site_symmetry_multiplicity
 _atom_site_fract_x
 _atom_site_fract_y
 _atom_site_fract_z
 _atom_site_occupancy
  Ni  Ni0  1  0.69371900  0.97164000  0.67882800  1
  Ni  Ni1  1  0.30628100  0.02836000  0.32117200  1
  Ni  Ni2  1  0.80628100  0.97164000  0.17882800  1
  Ni  Ni3  1  0.19371900  0.02836000  0.82117200  1
  Cu  Cu4  1  0.31653800  0.17105500  0.56149800  1
  Cu  Cu5  1  0.52302000  0.53385600  0.19103400  1
  Cu  Cu6  1  0.97698000  0.53385600  0.69103400  1
  Cu  Cu7  1  0.02302000  0.46614400  0.30896600  1
  Cu  Cu8  1  0.68346200  0.82894500  0.43850200  1
  Cu  Cu9  1  0.81653800  0.82894500  0.93850200  1
  Cu  Cu10  1  0.18346200  0.17105500  0.06149800  1
  Cu  Cu11  1  0.47698000  0.46614400  0.80896600  1
  C  C12  1  0.73409000  0.84001100  0.53386700  1
  C  C13  1  0.44461500  0.04204200  0.59534900  1
  C  C14  1  0.71059900  0.87754000  0.86234300  1
  C  C15  1  0.21059900  0.12246000  0.63765700  1
  C  C16  1  0.10210000  0.27127300  0.28177400  1
  C  C17  1  0.26591000  0.15998900  0.46613300  1
  C  C18  1  0.59746800  0.54589400  0.74382800  1
  C  C19  1  0.94461500  0.95795800  0.90465100  1
  C  C20  1  0.90253200  0.54589400  0.24382800  1
  C  C21  1  0.40253200  0.45410600  0.25617200  1
  C  C22  1  0.23409000  0.15998900  0.96613300  1
  C  C23  1  0.55538500  0.95795800  0.40465100  1
  C  C24  1  0.60210000  0.72872700  0.21822600  1
  C  C25  1  0.40334000  0.67689000  0.82565700  1
  C  C26  1  0.28940100  0.12246000  0.13765700  1
  C  C27  1  0.59666000  0.32311000  0.17434300  1
  C  C28  1  0.09666000  0.67689000  0.32565700  1
  C  C29  1  0.76591000  0.84001100  0.03386700  1
  C  C30  1  0.09746800  0.45410600  0.75617200  1
  C  C31  1  0.90334000  0.32311000  0.67434300  1
  C  C32  1  0.39790000  0.27127300  0.78177400  1
  C  C33  1  0.89790000  0.72872700  0.71822600  1
  C  C34  1  0.78940100  0.87754000  0.36234300  1
  C  C35  1  0.05538500  0.04204200  0.09534900  1
  C  C36  1  0.84888600  0.51853200  0.96606400  1
  C  C37  1  0.96005300  0.29986900  0.41552300  1
  C  C38  1  0.34888600  0.48146800  0.53393600  1
  C  C39  1  0.53994700  0.29986900  0.91552300  1
  C  C40  1  0.15111400  0.48146800  0.03393600  1
  C  C41  1  0.65111400  0.51853200  0.46606400  1
  C  C42  1  0.46005300  0.70013100  0.08447700  1
  C  C43  1  0.03994700  0.70013100  0.58447700  1
