# generated using pymatgen
data_Cu18NiC7
_symmetry_space_group_name_H-M   'P 1'
_cell_length_a   9.22187163
_cell_length_b   9.22187163
_cell_length_c   17.47511800
_cell_angle_alpha   90.00000000
_cell_angle_beta   90.00000000
_cell_angle_gamma   119.99999738
_symmetry_Int_Tables_number   1
_chemical_formula_structural   Cu18NiC7
_chemical_formula_sum   'Cu36 Ni2 C14'
_cell_volume   1287.03069732
_cell_formula_units_Z   2
loop_
 _symmetry_equiv_pos_site_id
 _symmetry_equiv_pos_as_xyz
  1  'x, y, z'
loop_
 _atom_site_type_symbol
 _atom_site_label
 _atom_site_symmetry_multiplicity
 _atom_site_fract_x
 _atom_site_fract_y
 _atom_site_fract_z
 _atom_site_occupancy
  C  C0  1  0.00000000  0.00000000  0.00000000  1
  C  C1  1  0.00000000  0.00000000  0.50000000  1
  C  C2  1  0.52146900  0.70249100  0.16688900  1
  C  C3  1  0.70249100  0.18102200  0.66688900  1
  C  C4  1  0.47853100  0.29750900  0.66688900  1
  C  C5  1  0.47853100  0.29750900  0.83311100  1
  C  C6  1  0.81897800  0.52146900  0.66688900  1
  C  C7  1  0.18102200  0.47853100  0.16688900  1
  C  C8  1  0.29750900  0.81897800  0.33311100  1
  C  C9  1  0.29750900  0.81897800  0.16688900  1
  C  C10  1  0.81897800  0.52146900  0.83311100  1
  C  C11  1  0.18102200  0.47853100  0.33311100  1
  C  C12  1  0.70249100  0.18102200  0.83311100  1
  C  C13  1  0.52146900  0.70249100  0.33311100  1
  Ni  Ni14  1  0.66666700  0.33333300  0.75000000  1
  Ni  Ni15  1  0.33333300  0.66666700  0.25000000  1
  Cu  Cu16  1  0.37709300  0.47729100  0.42228300  1
  Cu  Cu17  1  0.22591900  0.24944900  0.59769200  1
  Cu  Cu18  1  0.75055100  0.97647000  0.90230800  1
  Cu  Cu19  1  0.20913500  0.28093100  0.25000000  1
  Cu  Cu20  1  0.37709300  0.47729100  0.07771700  1
  Cu  Cu21  1  0.57866400  0.52235700  0.25000000  1
  Cu  Cu22  1  0.52235700  0.94369300  0.75000000  1
  Cu  Cu23  1  0.62290700  0.52270900  0.57771700  1
  Cu  Cu24  1  0.77408100  0.75055100  0.40230800  1
  Cu  Cu25  1  0.89980200  0.37709300  0.92228300  1
  Cu  Cu26  1  0.42133600  0.47764300  0.75000000  1
  Cu  Cu27  1  0.92820400  0.20913500  0.75000000  1
  Cu  Cu28  1  0.10019800  0.62290700  0.42228300  1
  Cu  Cu29  1  0.52270900  0.89980200  0.07771700  1
  Cu  Cu30  1  0.05630700  0.57866400  0.75000000  1
  Cu  Cu31  1  0.24944900  0.02353000  0.40230800  1
  Cu  Cu32  1  0.02353000  0.77408100  0.90230800  1
  Cu  Cu33  1  0.79086500  0.71906900  0.75000000  1
  Cu  Cu34  1  0.24944900  0.02353000  0.09769200  1
  Cu  Cu35  1  0.07179600  0.79086500  0.25000000  1
  Cu  Cu36  1  0.47764300  0.05630700  0.25000000  1
  Cu  Cu37  1  0.89980200  0.37709300  0.57771700  1
  Cu  Cu38  1  0.47729100  0.10019800  0.57771700  1
  Cu  Cu39  1  0.02353000  0.77408100  0.59769200  1
  Cu  Cu40  1  0.71906900  0.92820400  0.25000000  1
  Cu  Cu41  1  0.62290700  0.52270900  0.92228300  1
  Cu  Cu42  1  0.97647000  0.22591900  0.09769200  1
  Cu  Cu43  1  0.47729100  0.10019800  0.92228300  1
  Cu  Cu44  1  0.94369300  0.42133600  0.25000000  1
  Cu  Cu45  1  0.75055100  0.97647000  0.59769200  1
  Cu  Cu46  1  0.22591900  0.24944900  0.90230800  1
  Cu  Cu47  1  0.97647000  0.22591900  0.40230800  1
  Cu  Cu48  1  0.77408100  0.75055100  0.09769200  1
  Cu  Cu49  1  0.28093100  0.07179600  0.75000000  1
  Cu  Cu50  1  0.52270900  0.89980200  0.42228300  1
  Cu  Cu51  1  0.10019800  0.62290700  0.07771700  1
