# generated using pymatgen
data_Cu2Ni2C
_symmetry_space_group_name_H-M   'P 1'
_cell_length_a   6.38199629
_cell_length_b   6.38199629
_cell_length_c   6.37754900
_cell_angle_alpha   90.00000000
_cell_angle_beta   90.00000000
_cell_angle_gamma   120.00000303
_symmetry_Int_Tables_number   1
_chemical_formula_structural   Cu2Ni2C
_chemical_formula_sum   'Cu6 Ni6 C3'
_cell_volume   224.95596709
_cell_formula_units_Z   3
loop_
 _symmetry_equiv_pos_site_id
 _symmetry_equiv_pos_as_xyz
  1  'x, y, z'
loop_
 _atom_site_type_symbol
 _atom_site_label
 _atom_site_symmetry_multiplicity
 _atom_site_fract_x
 _atom_site_fract_y
 _atom_site_fract_z
 _atom_site_occupancy
  C  C0  1  0.33333300  0.66666700  0.50000000  1
  C  C1  1  0.66666700  0.33333300  0.50000000  1
  C  C2  1  0.00000000  0.00000000  0.00000000  1
  Ni  Ni3  1  0.76671600  0.76671600  0.17657800  1
  Ni  Ni4  1  0.00000000  0.23328400  0.17657800  1
  Ni  Ni5  1  0.23328400  0.23328400  0.82342200  1
  Ni  Ni6  1  0.23328400  0.00000000  0.17657800  1
  Ni  Ni7  1  0.00000000  0.76671600  0.82342200  1
  Ni  Ni8  1  0.76671600  0.00000000  0.82342200  1
  Cu  Cu9  1  0.62661200  0.62661200  0.29865700  1
  Cu  Cu10  1  0.00000000  0.37338800  0.29865700  1
  Cu  Cu11  1  0.37338800  0.00000000  0.29865700  1
  Cu  Cu12  1  0.62661200  0.00000000  0.70134300  1
  Cu  Cu13  1  0.00000000  0.62661200  0.70134300  1
  Cu  Cu14  1  0.37338800  0.37338800  0.70134300  1
