# generated using pymatgen
data_Cu(NiC3)3
_symmetry_space_group_name_H-M   'P 1'
_cell_length_a   9.42917827
_cell_length_b   9.42917827
_cell_length_c   13.77283300
_cell_angle_alpha   90.00000000
_cell_angle_beta   90.00000000
_cell_angle_gamma   120.00000192
_symmetry_Int_Tables_number   1
_chemical_formula_structural   Cu(NiC3)3
_chemical_formula_sum   'Cu6 Ni18 C54'
_cell_volume   1060.47784164
_cell_formula_units_Z   6
loop_
 _symmetry_equiv_pos_site_id
 _symmetry_equiv_pos_as_xyz
  1  'x, y, z'
loop_
 _atom_site_type_symbol
 _atom_site_label
 _atom_site_symmetry_multiplicity
 _atom_site_fract_x
 _atom_site_fract_y
 _atom_site_fract_z
 _atom_site_occupancy
  Ni  Ni0  1  0.33184400  0.31651900  0.90980600  1
  Ni  Ni1  1  0.31651900  0.98467500  0.40980600  1
  Ni  Ni2  1  0.33184400  0.31651900  0.59019400  1
  Ni  Ni3  1  0.66815600  0.68348100  0.09019400  1
  Ni  Ni4  1  0.01532500  0.33184400  0.40980600  1
  Ni  Ni5  1  0.68348100  0.01532500  0.90980600  1
  Ni  Ni6  1  0.98467500  0.66815600  0.90980600  1
  Ni  Ni7  1  0.66666700  0.33333300  0.75000000  1
  Ni  Ni8  1  0.98467500  0.66815600  0.59019400  1
  Ni  Ni9  1  0.01532500  0.33184400  0.09019400  1
  Ni  Ni10  1  0.68348100  0.01532500  0.59019400  1
  Ni  Ni11  1  0.66815600  0.68348100  0.40980600  1
  Ni  Ni12  1  0.31651900  0.98467500  0.09019400  1
  Ni  Ni13  1  0.33333300  0.66666700  0.25000000  1
  Ni  Ni14  1  0.00000000  0.00000000  0.00000000  1
  Ni  Ni15  1  0.66666700  0.33333300  0.25000000  1
  Ni  Ni16  1  0.00000000  0.00000000  0.50000000  1
  Ni  Ni17  1  0.33333300  0.66666700  0.75000000  1
  Cu  Cu18  1  0.66666700  0.33333300  0.98161000  1
  Cu  Cu19  1  0.00000000  0.00000000  0.25000000  1
  Cu  Cu20  1  0.66666700  0.33333300  0.51839000  1
  Cu  Cu21  1  0.33333300  0.66666700  0.01839000  1
  Cu  Cu22  1  0.33333300  0.66666700  0.48161000  1
  Cu  Cu23  1  0.00000000  0.00000000  0.75000000  1
  C  C24  1  0.65303700  0.67141100  0.64015200  1
  C  C25  1  0.34696300  0.32858900  0.14015200  1
  C  C26  1  0.67141100  0.01837400  0.35984800  1
  C  C27  1  0.32858900  0.98162600  0.85984800  1
  C  C28  1  0.01837400  0.34696300  0.64015200  1
  C  C29  1  0.01837400  0.34696300  0.85984800  1
  C  C30  1  0.98162600  0.65303700  0.35984800  1
  C  C31  1  0.32858900  0.98162600  0.64015200  1
  C  C32  1  0.34696300  0.32858900  0.35984800  1
  C  C33  1  0.67141100  0.01837400  0.14015200  1
  C  C34  1  0.65303700  0.67141100  0.85984800  1
  C  C35  1  0.98162600  0.65303700  0.14015200  1
  C  C36  1  0.17230100  0.44395000  0.56467800  1
  C  C37  1  0.84949600  0.80436300  0.85843100  1
  C  C38  1  0.72835100  0.17230100  0.06467800  1
  C  C39  1  0.44395000  0.27164900  0.06467800  1
  C  C40  1  0.17230100  0.44395000  0.93532200  1
  C  C41  1  0.61411600  0.48525900  0.61840700  1
  C  C42  1  0.27164900  0.82769900  0.93532200  1
  C  C43  1  0.80436300  0.95486700  0.35843100  1
  C  C44  1  0.67521900  0.09891700  0.25000000  1
  C  C45  1  0.48525900  0.87114300  0.11840700  1
  C  C46  1  0.82769900  0.55605000  0.43532200  1
  C  C47  1  0.87114300  0.38588400  0.61840700  1
  C  C48  1  0.55605000  0.72835100  0.93532200  1
  C  C49  1  0.51474100  0.12885700  0.88159300  1
  C  C50  1  0.04513300  0.84949600  0.14156900  1
  C  C51  1  0.57630200  0.67521900  0.75000000  1
  C  C52  1  0.12885700  0.61411600  0.38159300  1
  C  C53  1  0.44395000  0.27164900  0.43532200  1
  C  C54  1  0.48525900  0.87114300  0.38159300  1
  C  C55  1  0.87114300  0.38588400  0.88159300  1
  C  C56  1  0.80436300  0.95486700  0.14156900  1
  C  C57  1  0.72835100  0.17230100  0.43532200  1
  C  C58  1  0.09891700  0.42369800  0.75000000  1
  C  C59  1  0.19563700  0.04513300  0.85843100  1
  C  C60  1  0.90108300  0.57630200  0.25000000  1
  C  C61  1  0.82769900  0.55605000  0.06467800  1
  C  C62  1  0.04513300  0.84949600  0.35843100  1
  C  C63  1  0.51474100  0.12885700  0.61840700  1
  C  C64  1  0.95486700  0.15050400  0.64156900  1
  C  C65  1  0.55605000  0.72835100  0.56467800  1
  C  C66  1  0.42369800  0.32478100  0.25000000  1
  C  C67  1  0.19563700  0.04513300  0.64156900  1
  C  C68  1  0.15050400  0.19563700  0.35843100  1
  C  C69  1  0.38588400  0.51474100  0.38159300  1
  C  C70  1  0.84949600  0.80436300  0.64156900  1
  C  C71  1  0.61411600  0.48525900  0.88159300  1
  C  C72  1  0.38588400  0.51474100  0.11840700  1
  C  C73  1  0.15050400  0.19563700  0.14156900  1
  C  C74  1  0.95486700  0.15050400  0.85843100  1
  C  C75  1  0.32478100  0.90108300  0.75000000  1
  C  C76  1  0.27164900  0.82769900  0.56467800  1
  C  C77  1  0.12885700  0.61411600  0.11840700  1
