# generated using pymatgen
data_Cu2NiC18
_symmetry_space_group_name_H-M   'P 1'
_cell_length_a   10.15848400
_cell_length_b   10.15848400
_cell_length_c   10.15848400
_cell_angle_alpha   90.00000000
_cell_angle_beta   90.00000000
_cell_angle_gamma   90.00000000
_symmetry_Int_Tables_number   1
_chemical_formula_structural   Cu2NiC18
_chemical_formula_sum   'Cu8 Ni4 C72'
_cell_volume   1048.30269602
_cell_formula_units_Z   4
loop_
 _symmetry_equiv_pos_site_id
 _symmetry_equiv_pos_as_xyz
  1  'x, y, z'
loop_
 _atom_site_type_symbol
 _atom_site_label
 _atom_site_symmetry_multiplicity
 _atom_site_fract_x
 _atom_site_fract_y
 _atom_site_fract_z
 _atom_site_occupancy
  Ni  Ni0  1  0.50000000  0.00000000  0.50000000  1
  Ni  Ni1  1  0.00000000  0.50000000  0.50000000  1
  Ni  Ni2  1  0.00000000  0.00000000  0.00000000  1
  Ni  Ni3  1  0.50000000  0.50000000  0.00000000  1
  Cu  Cu4  1  0.12849000  0.87151000  0.37151000  1
  Cu  Cu5  1  0.37151000  0.12849000  0.87151000  1
  Cu  Cu6  1  0.37151000  0.37151000  0.37151000  1
  Cu  Cu7  1  0.12849000  0.62849000  0.87151000  1
  Cu  Cu8  1  0.62849000  0.62849000  0.62849000  1
  Cu  Cu9  1  0.87151000  0.37151000  0.12849000  1
  Cu  Cu10  1  0.87151000  0.12849000  0.62849000  1
  Cu  Cu11  1  0.62849000  0.87151000  0.12849000  1
  C  C12  1  0.83996200  0.38677800  0.81282900  1
  C  C13  1  0.81282900  0.66003800  0.88677800  1
  C  C14  1  0.16003800  0.88677800  0.68717100  1
  C  C15  1  0.88677800  0.81282900  0.66003800  1
  C  C16  1  0.33996200  0.38677800  0.68717100  1
  C  C17  1  0.18717100  0.16003800  0.61322200  1
  C  C18  1  0.81282900  0.83996200  0.38677800  1
  C  C19  1  0.38677800  0.81282900  0.83996200  1
  C  C20  1  0.11322200  0.18717100  0.33996200  1
  C  C21  1  0.61322200  0.18717100  0.16003800  1
  C  C22  1  0.61322200  0.31282900  0.66003800  1
  C  C23  1  0.38677800  0.68717100  0.33996200  1
  C  C24  1  0.68717100  0.33996200  0.38677800  1
  C  C25  1  0.18717100  0.33996200  0.11322200  1
  C  C26  1  0.33996200  0.11322200  0.18717100  1
  C  C27  1  0.66003800  0.61322200  0.31282900  1
  C  C28  1  0.11322200  0.31282900  0.83996200  1
  C  C29  1  0.16003800  0.61322200  0.18717100  1
  C  C30  1  0.83996200  0.11322200  0.31282900  1
  C  C31  1  0.66003800  0.88677800  0.81282900  1
  C  C32  1  0.31282900  0.66003800  0.61322200  1
  C  C33  1  0.68717100  0.16003800  0.88677800  1
  C  C34  1  0.31282900  0.83996200  0.11322200  1
  C  C35  1  0.88677800  0.68717100  0.16003800  1
  C  C36  1  0.82736600  0.24108400  0.88478600  1
  C  C37  1  0.11521400  0.32736600  0.25891600  1
  C  C38  1  0.67263400  0.75891600  0.38478600  1
  C  C39  1  0.00202100  0.91081000  0.71763100  1
  C  C40  1  0.71763100  0.00202100  0.91081000  1
  C  C41  1  0.25891600  0.38478600  0.82736600  1
  C  C42  1  0.41081000  0.78236900  0.99797900  1
  C  C43  1  0.99797900  0.08919000  0.28236900  1
  C  C44  1  0.58919000  0.21763100  0.00202100  1
  C  C45  1  0.61521400  0.32736600  0.24108400  1
  C  C46  1  0.17263400  0.74108400  0.61521400  1
  C  C47  1  0.08919000  0.28236900  0.99797900  1
  C  C48  1  0.74108400  0.61521400  0.17263400  1
  C  C49  1  0.25891600  0.11521400  0.32736600  1
  C  C50  1  0.91081000  0.78236900  0.50202100  1
  C  C51  1  0.32736600  0.24108400  0.61521400  1
  C  C52  1  0.82736600  0.25891600  0.38478600  1
  C  C53  1  0.00202100  0.58919000  0.21763100  1
  C  C54  1  0.75891600  0.38478600  0.67263400  1
  C  C55  1  0.74108400  0.88478600  0.67263400  1
  C  C56  1  0.99797900  0.41081000  0.78236900  1
  C  C57  1  0.28236900  0.99797900  0.08919000  1
  C  C58  1  0.17263400  0.75891600  0.11521400  1
  C  C59  1  0.49797900  0.08919000  0.21763100  1
  C  C60  1  0.24108400  0.61521400  0.32736600  1
  C  C61  1  0.71763100  0.49797900  0.41081000  1
  C  C62  1  0.58919000  0.28236900  0.50202100  1
  C  C63  1  0.28236900  0.50202100  0.58919000  1
  C  C64  1  0.91081000  0.71763100  0.00202100  1
  C  C65  1  0.88478600  0.67263400  0.74108400  1
  C  C66  1  0.75891600  0.11521400  0.17263400  1
  C  C67  1  0.21763100  0.49797900  0.08919000  1
  C  C68  1  0.21763100  0.00202100  0.58919000  1
  C  C69  1  0.67263400  0.74108400  0.88478600  1
  C  C70  1  0.78236900  0.99797900  0.41081000  1
  C  C71  1  0.50202100  0.58919000  0.28236900  1
  C  C72  1  0.61521400  0.17263400  0.74108400  1
  C  C73  1  0.32736600  0.25891600  0.11521400  1
  C  C74  1  0.78236900  0.50202100  0.91081000  1
  C  C75  1  0.49797900  0.41081000  0.71763100  1
  C  C76  1  0.38478600  0.82736600  0.25891600  1
  C  C77  1  0.88478600  0.82736600  0.24108400  1
  C  C78  1  0.08919000  0.21763100  0.49797900  1
  C  C79  1  0.11521400  0.17263400  0.75891600  1
  C  C80  1  0.38478600  0.67263400  0.75891600  1
  C  C81  1  0.24108400  0.88478600  0.82736600  1
  C  C82  1  0.50202100  0.91081000  0.78236900  1
  C  C83  1  0.41081000  0.71763100  0.49797900  1
