# generated using pymatgen
data_CuNiC8
_symmetry_space_group_name_H-M   'P 1'
_cell_length_a   4.79655600
_cell_length_b   9.02801600
_cell_length_c   11.74449600
_cell_angle_alpha   90.00000000
_cell_angle_beta   90.00000000
_cell_angle_gamma   90.00000000
_symmetry_Int_Tables_number   1
_chemical_formula_structural   CuNiC8
_chemical_formula_sum   'Cu4 Ni4 C32'
_cell_volume   508.57642385
_cell_formula_units_Z   4
loop_
 _symmetry_equiv_pos_site_id
 _symmetry_equiv_pos_as_xyz
  1  'x, y, z'
loop_
 _atom_site_type_symbol
 _atom_site_label
 _atom_site_symmetry_multiplicity
 _atom_site_fract_x
 _atom_site_fract_y
 _atom_site_fract_z
 _atom_site_occupancy
  C  C0  1  0.37976800  0.58749000  0.80982200  1
  C  C1  1  0.37976800  0.91251000  0.30982200  1
  C  C2  1  0.87976800  0.08749000  0.69017800  1
  C  C3  1  0.87976800  0.41251000  0.19017800  1
  Ni  Ni4  1  0.35571900  0.04394900  0.85918300  1
  Ni  Ni5  1  0.85571900  0.95605100  0.14081700  1
  Ni  Ni6  1  0.35571900  0.45605100  0.35918300  1
  Ni  Ni7  1  0.85571900  0.54394900  0.64081700  1
  Cu  Cu8  1  0.76825700  0.88097300  0.88592500  1
  Cu  Cu9  1  0.26825700  0.38097300  0.61407500  1
  Cu  Cu10  1  0.26825700  0.11902700  0.11407500  1
  Cu  Cu11  1  0.76825700  0.61902700  0.38592500  1
  C  C12  1  0.88518700  0.85377700  0.55153800  1
  C  C13  1  0.20947100  0.48924600  0.99018700  1
  C  C14  1  0.70947100  0.98924600  0.50981300  1
  C  C15  1  0.38518700  0.14622300  0.44846200  1
  C  C16  1  0.70947100  0.51075400  0.00981300  1
  C  C17  1  0.38518700  0.35377700  0.94846200  1
  C  C18  1  0.88518700  0.64622300  0.05153800  1
  C  C19  1  0.20947100  0.01075400  0.49018700  1
  C  C20  1  0.97275000  0.63408000  0.76857400  1
  C  C21  1  0.52335800  0.47438600  0.67386800  1
  C  C22  1  0.88367900  0.96397700  0.55218100  1
  C  C23  1  0.47275000  0.36592000  0.23142600  1
  C  C24  1  0.71231900  0.77436300  0.30791100  1
  C  C25  1  0.47275000  0.13408000  0.73142600  1
  C  C26  1  0.21231900  0.27436300  0.19208900  1
  C  C27  1  0.35039200  0.16122300  0.98105700  1
  C  C28  1  0.38367900  0.03602300  0.44781900  1
  C  C29  1  0.35039200  0.33877700  0.48105700  1
  C  C30  1  0.85039200  0.66122300  0.51894300  1
  C  C31  1  0.85039200  0.83877700  0.01894300  1
  C  C32  1  0.88367900  0.53602300  0.05218100  1
  C  C33  1  0.97275000  0.86592000  0.26857400  1
  C  C34  1  0.71231900  0.72563700  0.80791100  1
  C  C35  1  0.21231900  0.22563700  0.69208900  1
  C  C36  1  0.02335800  0.97438600  0.82613200  1
  C  C37  1  0.02335800  0.52561400  0.32613200  1
  C  C38  1  0.52335800  0.02561400  0.17386800  1
  C  C39  1  0.38367900  0.46397700  0.94781900  1
