# generated using pymatgen
data_CuNiC18
_symmetry_space_group_name_H-M   'P 1'
_cell_length_a   6.70884300
_cell_length_b   12.71474600
_cell_length_c   15.33362569
_cell_angle_alpha   53.95716394
_cell_angle_beta   90.00000000
_cell_angle_gamma   90.00000000
_symmetry_Int_Tables_number   1
_chemical_formula_structural   CuNiC18
_chemical_formula_sum   'Cu4 Ni4 C72'
_cell_volume   1057.60070492
_cell_formula_units_Z   4
loop_
 _symmetry_equiv_pos_site_id
 _symmetry_equiv_pos_as_xyz
  1  'x, y, z'
loop_
 _atom_site_type_symbol
 _atom_site_label
 _atom_site_symmetry_multiplicity
 _atom_site_fract_x
 _atom_site_fract_y
 _atom_site_fract_z
 _atom_site_occupancy
  Ni  Ni0  1  0.97936700  0.00358300  0.72708700  1
  Ni  Ni1  1  0.47669900  0.99877400  0.50166300  1
  Ni  Ni2  1  0.52330100  0.99877400  0.00166300  1
  Ni  Ni3  1  0.02063300  0.00358300  0.22708700  1
  Cu  Cu4  1  0.95930400  0.46729100  0.52151100  1
  Cu  Cu5  1  0.04069600  0.46729100  0.02151100  1
  Cu  Cu6  1  0.46279700  0.53908200  0.71134800  1
  Cu  Cu7  1  0.53720300  0.53908200  0.21134800  1
  C  C8  1  0.49333500  0.71264300  0.88117800  1
  C  C9  1  0.00445100  0.29068300  0.84975500  1
  C  C10  1  0.99554900  0.29068300  0.34975500  1
  C  C11  1  0.50666500  0.71264300  0.38117800  1
  C  C12  1  0.49108400  0.95156200  0.79414700  1
  C  C13  1  0.45333500  0.47601000  0.45415700  1
  C  C14  1  0.01570700  0.05333900  0.93288900  1
  C  C15  1  0.25551800  0.25126200  0.98730300  1
  C  C16  1  0.81254400  0.70663600  0.97289900  1
  C  C17  1  0.74448200  0.25126200  0.48730300  1
  C  C18  1  0.72843600  0.31327900  0.22771400  1
  C  C19  1  0.22547800  0.25665300  0.49513400  1
  C  C20  1  0.18745600  0.70663600  0.47289900  1
  C  C21  1  0.31196600  0.29750900  0.25591900  1
  C  C22  1  0.50891600  0.95156200  0.29414700  1
  C  C23  1  0.05147100  0.52557400  0.27946000  1
  C  C24  1  0.94852900  0.52557400  0.77946000  1
  C  C25  1  0.71575000  0.74584500  0.73341100  1
  C  C26  1  0.28425000  0.74584500  0.23341100  1
  C  C27  1  0.77452200  0.25665300  0.99513400  1
  C  C28  1  0.76832000  0.69228400  0.50452400  1
  C  C29  1  0.68803400  0.29750900  0.75591900  1
  C  C30  1  0.23168000  0.69228400  0.00452400  1
  C  C31  1  0.54666500  0.47601000  0.95415700  1
  C  C32  1  0.76534500  0.74894300  0.24851800  1
  C  C33  1  0.27156400  0.31327900  0.72771400  1
  C  C34  1  0.98429300  0.05333900  0.43288900  1
  C  C35  1  0.23465500  0.74894300  0.74851800  1
  C  C36  1  0.00242800  0.77649700  0.09494200  1
  C  C37  1  0.99757200  0.77649700  0.59494200  1
  C  C38  1  0.50195700  0.22621600  0.63667200  1
  C  C39  1  0.49804300  0.22621600  0.13667200  1
  C  C40  1  0.98586400  0.76818000  0.50132800  1
  C  C41  1  0.94741100  0.91051900  0.55876800  1
  C  C42  1  0.05258900  0.91051900  0.05876800  1
  C  C43  1  0.65542800  0.63355000  0.51581100  1
  C  C44  1  0.01413600  0.76818000  0.00132800  1
  C  C45  1  0.76740600  0.36216800  0.75872000  1
  C  C46  1  0.00676400  0.13197800  0.35698900  1
  C  C47  1  0.63416600  0.80411200  0.74344000  1
  C  C48  1  0.34457200  0.63355000  0.01581100  1
  C  C49  1  0.54771100  0.09292800  0.17085500  1
  C  C50  1  0.23259400  0.36216800  0.25872000  1
  C  C51  1  0.16232700  0.37360200  0.71733500  1
  C  C52  1  0.70938800  0.26111600  0.59321200  1
  C  C53  1  0.48623700  0.23303700  0.73097500  1
  C  C54  1  0.98821500  0.44763700  0.34511400  1
  C  C55  1  0.45228900  0.09292800  0.67085500  1
  C  C56  1  0.23766700  0.76404100  0.80580300  1
  C  C57  1  0.51050300  0.87324800  0.87069500  1
  C  C58  1  0.64293000  0.32136900  0.05082800  1
  C  C59  1  0.85038200  0.68204400  0.67977000  1
  C  C60  1  0.14836200  0.19788400  0.48405500  1
  C  C61  1  0.74654700  0.23431800  0.43106900  1
  C  C62  1  0.85163800  0.19788400  0.98405500  1
  C  C63  1  0.01178500  0.44763700  0.84511400  1
  C  C64  1  0.20314500  0.74110200  0.64085000  1
  C  C65  1  0.76233300  0.76404100  0.30580300  1
  C  C66  1  0.25345300  0.23431800  0.93106900  1
  C  C67  1  0.83767300  0.37360200  0.21733500  1
  C  C68  1  0.48010700  0.55347000  0.88939500  1
  C  C69  1  0.26340500  0.64339900  0.46689100  1
  C  C70  1  0.29061200  0.26111600  0.09321200  1
  C  C71  1  0.36583400  0.80411200  0.24344000  1
  C  C72  1  0.51376300  0.23303700  0.23097500  1
  C  C73  1  0.99323600  0.13197800  0.85698900  1
  C  C74  1  0.35707000  0.32136900  0.55082800  1
  C  C75  1  0.51989300  0.55347000  0.38939500  1
  C  C76  1  0.14961800  0.68204400  0.17977000  1
  C  C77  1  0.73659500  0.64339900  0.96689100  1
  C  C78  1  0.79685500  0.74110200  0.14085000  1
  C  C79  1  0.48949700  0.87324800  0.37069500  1
