# generated using pymatgen
data_Cu2Ni2C3
_symmetry_space_group_name_H-M   'P 1'
_cell_length_a   7.13046000
_cell_length_b   7.31469052
_cell_length_c   7.33140030
_cell_angle_alpha   88.77423188
_cell_angle_beta   95.24886207
_cell_angle_gamma   103.96923838
_symmetry_Int_Tables_number   1
_chemical_formula_structural   Cu2Ni2C3
_chemical_formula_sum   'Cu8 Ni8 C12'
_cell_volume   369.51968321
_cell_formula_units_Z   4
loop_
 _symmetry_equiv_pos_site_id
 _symmetry_equiv_pos_as_xyz
  1  'x, y, z'
loop_
 _atom_site_type_symbol
 _atom_site_label
 _atom_site_symmetry_multiplicity
 _atom_site_fract_x
 _atom_site_fract_y
 _atom_site_fract_z
 _atom_site_occupancy
  C  C0  1  0.15064600  0.89084500  0.44234700  1
  C  C1  1  0.16085200  0.87983800  0.93413900  1
  C  C2  1  0.63884600  0.77091600  0.68323800  1
  C  C3  1  0.62633500  0.78171600  0.18984300  1
  C  C4  1  0.06072000  0.22967800  0.16665200  1
  C  C5  1  0.85686200  0.43279900  0.41752200  1
  C  C6  1  0.77364500  0.42919500  0.00582300  1
  C  C7  1  0.97647600  0.23270000  0.75213300  1
  C  C8  1  0.36519200  0.43469900  0.91707700  1
  C  C9  1  0.47096400  0.22427500  0.25856200  1
  C  C10  1  0.55817500  0.22359200  0.66775000  1
  C  C11  1  0.27606000  0.43876900  0.50472400  1
  Ni  Ni12  1  0.42513200  0.39169500  0.69745800  1
  Ni  Ni13  1  0.04301000  0.39628800  0.57661400  1
  Ni  Ni14  1  0.54039300  0.38295400  0.08059800  1
  Ni  Ni15  1  0.14459800  0.27975900  0.94753500  1
  Ni  Ni16  1  0.26132700  0.27339300  0.33147000  1
  Ni  Ni17  1  0.76370300  0.27127500  0.82557800  1
  Ni  Ni18  1  0.91792100  0.38435800  0.19914600  1
  Ni  Ni19  1  0.64163200  0.26587800  0.44890500  1
  Cu  Cu20  1  0.40996000  0.00447800  0.19397500  1
  Cu  Cu21  1  0.37724700  0.65945500  0.92875700  1
  Cu  Cu22  1  0.82864500  0.64956600  0.94304300  1
  Cu  Cu23  1  0.36180700  0.65380100  0.43712600  1
  Cu  Cu24  1  0.42638600  0.00979400  0.68483900  1
  Cu  Cu25  1  0.95863300  0.00509100  0.17435500  1
  Cu  Cu26  1  0.82957000  0.64783100  0.43137300  1
  Cu  Cu27  1  0.95739600  0.01590600  0.68621000  1
