# generated using pymatgen
data_CuNiC2
_symmetry_space_group_name_H-M   'P 1'
_cell_length_a   6.41134100
_cell_length_b   6.72108300
_cell_length_c   10.26511137
_cell_angle_alpha   78.91800443
_cell_angle_beta   90.00000000
_cell_angle_gamma   90.00000000
_symmetry_Int_Tables_number   1
_chemical_formula_structural   CuNiC2
_chemical_formula_sum   'Cu4 Ni4 C8'
_cell_volume   434.08732506
_cell_formula_units_Z   4
loop_
 _symmetry_equiv_pos_site_id
 _symmetry_equiv_pos_as_xyz
  1  'x, y, z'
loop_
 _atom_site_type_symbol
 _atom_site_label
 _atom_site_symmetry_multiplicity
 _atom_site_fract_x
 _atom_site_fract_y
 _atom_site_fract_z
 _atom_site_occupancy
  Ni  Ni0  1  0.42092100  0.33662900  0.54965000  1
  Ni  Ni1  1  0.57907900  0.66337100  0.45035000  1
  Ni  Ni2  1  0.92092100  0.66337100  0.95035000  1
  Ni  Ni3  1  0.07907900  0.33662900  0.04965000  1
  Cu  Cu4  1  0.56381700  0.42135600  0.39524800  1
  Cu  Cu5  1  0.43618300  0.57864400  0.60475200  1
  Cu  Cu6  1  0.93618300  0.42135600  0.89524800  1
  Cu  Cu7  1  0.06381700  0.57864400  0.10475200  1
  C  C8  1  0.95314000  0.13412700  0.16057300  1
  C  C9  1  0.66012700  0.74223300  0.97490200  1
  C  C10  1  0.04686000  0.86587300  0.83942700  1
  C  C11  1  0.16012700  0.25776700  0.52509800  1
  C  C12  1  0.45314000  0.86587300  0.33942700  1
  C  C13  1  0.83987300  0.74223300  0.47490200  1
  C  C14  1  0.33987300  0.25776700  0.02509800  1
  C  C15  1  0.54686000  0.13412700  0.66057300  1
