# generated using pymatgen
data_Cu9Ni18C25
_symmetry_space_group_name_H-M   'P 1'
_cell_length_a   14.14781235
_cell_length_b   14.14781235
_cell_length_c   7.43141900
_cell_angle_alpha   90.00000000
_cell_angle_beta   90.00000000
_cell_angle_gamma   120.00000162
_symmetry_Int_Tables_number   1
_chemical_formula_structural   Cu9Ni18C25
_chemical_formula_sum   'Cu18 Ni36 C50'
_cell_volume   1288.19305871
_cell_formula_units_Z   2
loop_
 _symmetry_equiv_pos_site_id
 _symmetry_equiv_pos_as_xyz
  1  'x, y, z'
loop_
 _atom_site_type_symbol
 _atom_site_label
 _atom_site_symmetry_multiplicity
 _atom_site_fract_x
 _atom_site_fract_y
 _atom_site_fract_z
 _atom_site_occupancy
  C  C0  1  0.33333300  0.66666700  0.25000000  1
  C  C1  1  0.66666700  0.33333300  0.75000000  1
  C  C2  1  0.35417300  0.45086500  0.14322200  1
  C  C3  1  0.90330800  0.35417300  0.64322200  1
  C  C4  1  0.45086500  0.09669200  0.64322200  1
  C  C5  1  0.54913500  0.90330800  0.14322200  1
  C  C6  1  0.09669200  0.64582700  0.14322200  1
  C  C7  1  0.64582700  0.54913500  0.64322200  1
  C  C8  1  0.64582700  0.54913500  0.85677800  1
  C  C9  1  0.09669200  0.64582700  0.35677800  1
  C  C10  1  0.54913500  0.90330800  0.35677800  1
  C  C11  1  0.45086500  0.09669200  0.85677800  1
  C  C12  1  0.90330800  0.35417300  0.85677800  1
  C  C13  1  0.35417300  0.45086500  0.35677800  1
  C  C14  1  0.12689000  0.49132000  0.46438800  1
  C  C15  1  0.63556900  0.12689000  0.96438800  1
  C  C16  1  0.49132000  0.36443100  0.96438800  1
  C  C17  1  0.50868000  0.63556900  0.46438800  1
  C  C18  1  0.36443100  0.87311000  0.46438800  1
  C  C19  1  0.87311000  0.50868000  0.96438800  1
  C  C20  1  0.87311000  0.50868000  0.53561200  1
  C  C21  1  0.36443100  0.87311000  0.03561200  1
  C  C22  1  0.50868000  0.63556900  0.03561200  1
  C  C23  1  0.49132000  0.36443100  0.53561200  1
  C  C24  1  0.63556900  0.12689000  0.53561200  1
  C  C25  1  0.12689000  0.49132000  0.03561200  1
  C  C26  1  0.22641500  0.50410400  0.57898900  1
  C  C27  1  0.72231100  0.22641500  0.07898900  1
  C  C28  1  0.50410400  0.27768900  0.07898900  1
  C  C29  1  0.49589600  0.72231100  0.57898900  1
  C  C30  1  0.27768900  0.77358500  0.57898900  1
  C  C31  1  0.77358500  0.49589600  0.07898900  1
  C  C32  1  0.77358500  0.49589600  0.42101100  1
  C  C33  1  0.27768900  0.77358500  0.92101100  1
  C  C34  1  0.49589600  0.72231100  0.92101100  1
  C  C35  1  0.50410400  0.27768900  0.42101100  1
  C  C36  1  0.72231100  0.22641500  0.42101100  1
  C  C37  1  0.22641500  0.50410400  0.92101100  1
  C  C38  1  0.22179500  0.23022100  0.75000000  1
  C  C39  1  0.99157400  0.22179500  0.25000000  1
  C  C40  1  0.23022100  0.00842600  0.25000000  1
  C  C41  1  0.76977900  0.99157400  0.75000000  1
  C  C42  1  0.00842600  0.77820500  0.75000000  1
  C  C43  1  0.77820500  0.76977900  0.25000000  1
  C  C44  1  0.31989500  0.38063000  0.75000000  1
  C  C45  1  0.93926500  0.31989500  0.25000000  1
  C  C46  1  0.38063000  0.06073500  0.25000000  1
  C  C47  1  0.61937000  0.93926500  0.75000000  1
  C  C48  1  0.06073500  0.68010500  0.75000000  1
  C  C49  1  0.68010500  0.61937000  0.25000000  1
  Ni  Ni50  1  0.34731700  0.48777700  0.25000000  1
  Ni  Ni51  1  0.85954000  0.34731700  0.75000000  1
  Ni  Ni52  1  0.48777700  0.14046000  0.75000000  1
  Ni  Ni53  1  0.51222300  0.85954000  0.25000000  1
  Ni  Ni54  1  0.14046000  0.65268300  0.25000000  1
  Ni  Ni55  1  0.65268300  0.51222300  0.75000000  1
  Ni  Ni56  1  0.20418700  0.54210500  0.49226700  1
  Ni  Ni57  1  0.66208200  0.20418700  0.99226700  1
  Ni  Ni58  1  0.54210500  0.33791800  0.99226700  1
  Ni  Ni59  1  0.45789500  0.66208200  0.49226700  1
  Ni  Ni60  1  0.33791800  0.79581300  0.49226700  1
  Ni  Ni61  1  0.79581300  0.45789500  0.99226700  1
  Ni  Ni62  1  0.79581300  0.45789500  0.50773300  1
  Ni  Ni63  1  0.33791800  0.79581300  0.00773300  1
  Ni  Ni64  1  0.45789500  0.66208200  0.00773300  1
  Ni  Ni65  1  0.54210500  0.33791800  0.50773300  1
  Ni  Ni66  1  0.66208200  0.20418700  0.50773300  1
  Ni  Ni67  1  0.20418700  0.54210500  0.00773300  1
  Ni  Ni68  1  0.24945200  0.42927400  0.75000000  1
  Ni  Ni69  1  0.82017700  0.24945200  0.25000000  1
  Ni  Ni70  1  0.42927400  0.17982300  0.25000000  1
  Ni  Ni71  1  0.57072600  0.82017700  0.75000000  1
  Ni  Ni72  1  0.17982300  0.75054800  0.75000000  1
  Ni  Ni73  1  0.75054800  0.57072600  0.25000000  1
  Ni  Ni74  1  0.38236300  0.39945500  0.58363300  1
  Ni  Ni75  1  0.98290800  0.38236300  0.08363300  1
  Ni  Ni76  1  0.39945500  0.01709200  0.08363300  1
  Ni  Ni77  1  0.60054500  0.98290800  0.58363300  1
  Ni  Ni78  1  0.01709200  0.61763700  0.58363300  1
  Ni  Ni79  1  0.61763700  0.60054500  0.08363300  1
  Ni  Ni80  1  0.61763700  0.60054500  0.41636700  1
  Ni  Ni81  1  0.01709200  0.61763700  0.91636700  1
  Ni  Ni82  1  0.60054500  0.98290800  0.91636700  1
  Ni  Ni83  1  0.39945500  0.01709200  0.41636700  1
  Ni  Ni84  1  0.98290800  0.38236300  0.41636700  1
  Ni  Ni85  1  0.38236300  0.39945500  0.91636700  1
  Cu  Cu86  1  0.27812300  0.17604500  0.75000000  1
  Cu  Cu87  1  0.10207800  0.27812300  0.25000000  1
  Cu  Cu88  1  0.17604500  0.89792200  0.25000000  1
  Cu  Cu89  1  0.82395500  0.10207800  0.75000000  1
  Cu  Cu90  1  0.89792200  0.72187700  0.75000000  1
  Cu  Cu91  1  0.72187700  0.82395500  0.25000000  1
  Cu  Cu92  1  0.15782300  0.20147700  0.60216800  1
  Cu  Cu93  1  0.95634600  0.15782300  0.10216800  1
  Cu  Cu94  1  0.20147700  0.04365400  0.10216800  1
  Cu  Cu95  1  0.79852300  0.95634600  0.60216800  1
  Cu  Cu96  1  0.04365400  0.84217700  0.60216800  1
  Cu  Cu97  1  0.84217700  0.79852300  0.10216800  1
  Cu  Cu98  1  0.84217700  0.79852300  0.39783200  1
  Cu  Cu99  1  0.04365400  0.84217700  0.89783200  1
  Cu  Cu100  1  0.79852300  0.95634600  0.89783200  1
  Cu  Cu101  1  0.20147700  0.04365400  0.39783200  1
  Cu  Cu102  1  0.95634600  0.15782300  0.39783200  1
  Cu  Cu103  1  0.15782300  0.20147700  0.89783200  1
