# generated using pymatgen
data_Cu2(NiC4)3
_symmetry_space_group_name_H-M   'P 1'
_cell_length_a   8.65107421
_cell_length_b   8.65107421
_cell_length_c   12.05869072
_cell_angle_alpha   51.95662803
_cell_angle_beta   51.95662803
_cell_angle_gamma   42.45247283
_symmetry_Int_Tables_number   1
_chemical_formula_structural   Cu2(NiC4)3
_chemical_formula_sum   'Cu4 Ni6 C24'
_cell_volume   457.04541659
_cell_formula_units_Z   2
loop_
 _symmetry_equiv_pos_site_id
 _symmetry_equiv_pos_as_xyz
  1  'x, y, z'
loop_
 _atom_site_type_symbol
 _atom_site_label
 _atom_site_symmetry_multiplicity
 _atom_site_fract_x
 _atom_site_fract_y
 _atom_site_fract_z
 _atom_site_occupancy
  C  C0  1  0.68472900  0.79166700  0.11421700  1
  C  C1  1  0.34297400  0.95593000  0.61291200  1
  C  C2  1  0.20833300  0.31527100  0.88578300  1
  C  C3  1  0.04407000  0.65702600  0.38708800  1
  Ni  Ni4  1  0.10264400  0.89735600  0.00000000  1
  Ni  Ni5  1  0.72049900  0.36326800  0.82415800  1
  Ni  Ni6  1  0.05546300  0.19300200  0.31644500  1
  Ni  Ni7  1  0.35780900  0.64219100  0.50000000  1
  Ni  Ni8  1  0.80699800  0.94453700  0.68355500  1
  Ni  Ni9  1  0.63673200  0.27950100  0.17584200  1
  Cu  Cu10  1  0.77976000  0.37632400  0.55867500  1
  Cu  Cu11  1  0.59546000  0.68632900  0.92262000  1
  Cu  Cu12  1  0.62367600  0.22024000  0.44132500  1
  Cu  Cu13  1  0.31367100  0.40454000  0.07738000  1
  C  C14  1  0.12380900  0.74142700  0.65891600  1
  C  C15  1  0.77483800  0.31203500  0.32385400  1
  C  C16  1  0.77768000  0.49443500  0.85187600  1
  C  C17  1  0.12751400  0.62776400  0.12215500  1
  C  C18  1  0.68796500  0.22516200  0.67614600  1
  C  C19  1  0.55878000  0.18928700  0.37032000  1
  C  C20  1  0.50556500  0.22232000  0.14812400  1
  C  C21  1  0.25857300  0.87619100  0.34108400  1
  C  C22  1  0.95695900  0.06512200  0.11397500  1
  C  C23  1  0.01968000  0.25028100  0.45185800  1
  C  C24  1  0.37223600  0.87248600  0.87784500  1
  C  C25  1  0.60201000  0.60722000  0.47727500  1
  C  C26  1  0.69364400  0.81365600  0.87193600  1
  C  C27  1  0.54272100  0.58238400  0.08718500  1
  C  C28  1  0.41761600  0.45727900  0.91281500  1
  C  C29  1  0.39278000  0.39799000  0.52272500  1
  C  C30  1  0.74971900  0.98032000  0.54814200  1
  C  C31  1  0.18634400  0.30635600  0.12806400  1
  C  C32  1  0.81071300  0.44122000  0.62968000  1
  C  C33  1  0.93487800  0.04304100  0.88602500  1
