# generated using pymatgen
data_Cu3Ni
_symmetry_space_group_name_H-M   'P 1'
_cell_length_a   8.50966100
_cell_length_b   9.86615800
_cell_length_c   17.43019600
_cell_angle_alpha   90.00000000
_cell_angle_beta   90.00000000
_cell_angle_gamma   90.00000000
_symmetry_Int_Tables_number   1
_chemical_formula_structural   Cu3Ni
_chemical_formula_sum   'Cu36 Ni12'
_cell_volume   1463.39846867
_cell_formula_units_Z   12
loop_
 _symmetry_equiv_pos_site_id
 _symmetry_equiv_pos_as_xyz
  1  'x, y, z'
loop_
 _atom_site_type_symbol
 _atom_site_label
 _atom_site_symmetry_multiplicity
 _atom_site_fract_x
 _atom_site_fract_y
 _atom_site_fract_z
 _atom_site_occupancy
  Ni  Ni0  1  0.88848700  0.25000000  0.05096700  1
  Ni  Ni1  1  0.38848700  0.25000000  0.44903300  1
  Ni  Ni2  1  0.11151300  0.75000000  0.94903300  1
  Ni  Ni3  1  0.61151300  0.75000000  0.55096700  1
  Ni  Ni4  1  0.80495000  0.25000000  0.34877500  1
  Ni  Ni5  1  0.30495000  0.25000000  0.15122500  1
  Ni  Ni6  1  0.19505000  0.75000000  0.65122500  1
  Ni  Ni7  1  0.69505000  0.75000000  0.84877500  1
  Ni  Ni8  1  0.03457600  0.25000000  0.69535200  1
  Ni  Ni9  1  0.53457600  0.25000000  0.80464800  1
  Ni  Ni10  1  0.96542400  0.75000000  0.30464800  1
  Ni  Ni11  1  0.46542400  0.75000000  0.19535200  1
  Cu  Cu12  1  0.77574800  0.10388000  0.07568200  1
  Cu  Cu13  1  0.27574800  0.39612000  0.42431800  1
  Cu  Cu14  1  0.22425200  0.60388000  0.92431800  1
  Cu  Cu15  1  0.72425200  0.89612000  0.57568200  1
  Cu  Cu16  1  0.22425200  0.89612000  0.92431800  1
  Cu  Cu17  1  0.72425200  0.60388000  0.57568200  1
  Cu  Cu18  1  0.77574800  0.39612000  0.07568200  1
  Cu  Cu19  1  0.27574800  0.10388000  0.42431800  1
  Cu  Cu20  1  0.91319800  0.25000000  0.94962800  1
  Cu  Cu21  1  0.41319800  0.25000000  0.55037200  1
  Cu  Cu22  1  0.08680200  0.75000000  0.05037200  1
  Cu  Cu23  1  0.58680200  0.75000000  0.44962800  1
  Cu  Cu24  1  0.78218900  0.10457900  0.40832600  1
  Cu  Cu25  1  0.28218900  0.39542100  0.09167400  1
  Cu  Cu26  1  0.21781100  0.60457900  0.59167400  1
  Cu  Cu27  1  0.71781100  0.89542100  0.90832600  1
  Cu  Cu28  1  0.21781100  0.89542100  0.59167400  1
  Cu  Cu29  1  0.71781100  0.60457900  0.90832600  1
  Cu  Cu30  1  0.78218900  0.39542100  0.40832600  1
  Cu  Cu31  1  0.28218900  0.10457900  0.09167400  1
  Cu  Cu32  1  0.64730600  0.25000000  0.28106700  1
  Cu  Cu33  1  0.14730600  0.25000000  0.21893300  1
  Cu  Cu34  1  0.35269400  0.75000000  0.71893300  1
  Cu  Cu35  1  0.85269400  0.75000000  0.78106700  1
  Cu  Cu36  1  0.97907600  0.10439400  0.74941700  1
  Cu  Cu37  1  0.47907600  0.39560600  0.75058300  1
  Cu  Cu38  1  0.02092400  0.60439400  0.25058300  1
  Cu  Cu39  1  0.52092400  0.89560600  0.24941700  1
  Cu  Cu40  1  0.02092400  0.89560600  0.25058300  1
  Cu  Cu41  1  0.52092400  0.60439400  0.24941700  1
  Cu  Cu42  1  0.97907600  0.39560600  0.74941700  1
  Cu  Cu43  1  0.47907600  0.10439400  0.75058300  1
  Cu  Cu44  1  0.91968600  0.25000000  0.60913100  1
  Cu  Cu45  1  0.41968600  0.25000000  0.89086900  1
  Cu  Cu46  1  0.08031400  0.75000000  0.39086900  1
  Cu  Cu47  1  0.58031400  0.75000000  0.10913100  1
