# generated using pymatgen
data_Cu2Ni4C
_symmetry_space_group_name_H-M   'P 1'
_cell_length_a   4.46058600
_cell_length_b   9.12810600
_cell_length_c   11.70857600
_cell_angle_alpha   90.00000000
_cell_angle_beta   90.00000000
_cell_angle_gamma   90.00000000
_symmetry_Int_Tables_number   1
_chemical_formula_structural   Cu2Ni4C
_chemical_formula_sum   'Cu8 Ni16 C4'
_cell_volume   476.73459785
_cell_formula_units_Z   4
loop_
 _symmetry_equiv_pos_site_id
 _symmetry_equiv_pos_as_xyz
  1  'x, y, z'
loop_
 _atom_site_type_symbol
 _atom_site_label
 _atom_site_symmetry_multiplicity
 _atom_site_fract_x
 _atom_site_fract_y
 _atom_site_fract_z
 _atom_site_occupancy
  Ni  Ni0  1  0.91656600  0.06400900  0.88221100  1
  Ni  Ni1  1  0.58343400  0.56400900  0.61778900  1
  Ni  Ni2  1  0.41656600  0.43599100  0.61778900  1
  Ni  Ni3  1  0.90587400  0.07158800  0.24596000  1
  Ni  Ni4  1  0.59412600  0.57158800  0.25404000  1
  Ni  Ni5  1  0.58343400  0.56400900  0.38221100  1
  Ni  Ni6  1  0.40587400  0.42841200  0.74596000  1
  Ni  Ni7  1  0.09412600  0.92841200  0.75404000  1
  Ni  Ni8  1  0.08343400  0.93599100  0.11778900  1
  Ni  Ni9  1  0.91656600  0.06400900  0.11778900  1
  Ni  Ni10  1  0.40587400  0.42841200  0.25404000  1
  Ni  Ni11  1  0.90587400  0.07158800  0.75404000  1
  Ni  Ni12  1  0.59412600  0.57158800  0.74596000  1
  Ni  Ni13  1  0.08343400  0.93599100  0.88221100  1
  Ni  Ni14  1  0.41656600  0.43599100  0.38221100  1
  Ni  Ni15  1  0.09412600  0.92841200  0.24596000  1
  C  C16  1  0.23743200  0.81727200  0.00000000  1
  C  C17  1  0.76256800  0.18272800  0.00000000  1
  C  C18  1  0.26256800  0.31727200  0.50000000  1
  C  C19  1  0.73743200  0.68272800  0.50000000  1
  Cu  Cu20  1  0.70275500  0.65216100  0.81732200  1
  Cu  Cu21  1  0.79724500  0.15216100  0.31732200  1
  Cu  Cu22  1  0.29724500  0.34783900  0.18267800  1
  Cu  Cu23  1  0.70275500  0.65216100  0.18267800  1
  Cu  Cu24  1  0.20275500  0.84783900  0.68267800  1
  Cu  Cu25  1  0.20275500  0.84783900  0.31732200  1
  Cu  Cu26  1  0.79724500  0.15216100  0.68267800  1
  Cu  Cu27  1  0.29724500  0.34783900  0.81732200  1
