# generated using pymatgen
data_Cu3NiC
_symmetry_space_group_name_H-M   'P 1'
_cell_length_a   4.73665900
_cell_length_b   5.71955700
_cell_length_c   13.66505100
_cell_angle_alpha   90.00000000
_cell_angle_beta   90.00000000
_cell_angle_gamma   90.00000000
_symmetry_Int_Tables_number   1
_chemical_formula_structural   Cu3NiC
_chemical_formula_sum   'Cu12 Ni4 C4'
_cell_volume   370.20797460
_cell_formula_units_Z   4
loop_
 _symmetry_equiv_pos_site_id
 _symmetry_equiv_pos_as_xyz
  1  'x, y, z'
loop_
 _atom_site_type_symbol
 _atom_site_label
 _atom_site_symmetry_multiplicity
 _atom_site_fract_x
 _atom_site_fract_y
 _atom_site_fract_z
 _atom_site_occupancy
  C  C0  1  0.99641900  0.25000000  0.35341200  1
  C  C1  1  0.00358100  0.75000000  0.64658800  1
  C  C2  1  0.49641900  0.75000000  0.14658800  1
  C  C3  1  0.50358100  0.25000000  0.85341200  1
  Ni  Ni4  1  0.53431500  0.75000000  0.41304400  1
  Ni  Ni5  1  0.96568500  0.75000000  0.91304400  1
  Ni  Ni6  1  0.03431500  0.25000000  0.08695600  1
  Ni  Ni7  1  0.46568500  0.25000000  0.58695600  1
  Cu  Cu8  1  0.00657600  0.53834500  0.84875600  1
  Cu  Cu9  1  0.49342400  0.53834500  0.34875600  1
  Cu  Cu10  1  0.16139700  0.25000000  0.55543200  1
  Cu  Cu11  1  0.00657600  0.96165500  0.84875600  1
  Cu  Cu12  1  0.83860300  0.75000000  0.44456800  1
  Cu  Cu13  1  0.50657600  0.03834500  0.65124400  1
  Cu  Cu14  1  0.33860300  0.25000000  0.05543200  1
  Cu  Cu15  1  0.99342400  0.03834500  0.15124400  1
  Cu  Cu16  1  0.66139700  0.75000000  0.94456800  1
  Cu  Cu17  1  0.50657600  0.46165500  0.65124400  1
  Cu  Cu18  1  0.49342400  0.96165500  0.34875600  1
  Cu  Cu19  1  0.99342400  0.46165500  0.15124400  1
