# generated using pymatgen
data_Cu2Ni2C7
_symmetry_space_group_name_H-M   'P 1'
_cell_length_a   5.02255400
_cell_length_b   13.50761600
_cell_length_c   16.67657300
_cell_angle_alpha   90.00000000
_cell_angle_beta   90.00000000
_cell_angle_gamma   90.00000000
_symmetry_Int_Tables_number   1
_chemical_formula_structural   Cu2Ni2C7
_chemical_formula_sum   'Cu16 Ni16 C56'
_cell_volume   1131.38425223
_cell_formula_units_Z   8
loop_
 _symmetry_equiv_pos_site_id
 _symmetry_equiv_pos_as_xyz
  1  'x, y, z'
loop_
 _atom_site_type_symbol
 _atom_site_label
 _atom_site_symmetry_multiplicity
 _atom_site_fract_x
 _atom_site_fract_y
 _atom_site_fract_z
 _atom_site_occupancy
  Ni  Ni0  1  0.67925600  0.75786300  0.65677700  1
  Ni  Ni1  1  0.32074400  0.25786300  0.84322300  1
  Ni  Ni2  1  0.90893500  0.54560800  0.91362000  1
  Ni  Ni3  1  0.09106500  0.45439200  0.08638000  1
  Ni  Ni4  1  0.90893500  0.54560800  0.58638000  1
  Ni  Ni5  1  0.32074400  0.25786300  0.65677700  1
  Ni  Ni6  1  0.67925600  0.75786300  0.84322300  1
  Ni  Ni7  1  0.90893500  0.95439200  0.41362000  1
  Ni  Ni8  1  0.90893500  0.95439200  0.08638000  1
  Ni  Ni9  1  0.09106500  0.04560800  0.58638000  1
  Ni  Ni10  1  0.67925600  0.74213700  0.34322300  1
  Ni  Ni11  1  0.32074400  0.24213700  0.15677700  1
  Ni  Ni12  1  0.09106500  0.45439200  0.41362000  1
  Ni  Ni13  1  0.67925600  0.74213700  0.15677700  1
  Ni  Ni14  1  0.32074400  0.24213700  0.34322300  1
  Ni  Ni15  1  0.09106500  0.04560800  0.91362000  1
  Cu  Cu16  1  0.17317300  0.84973200  0.25000000  1
  Cu  Cu17  1  0.42145600  0.85605800  0.99722700  1
  Cu  Cu18  1  0.82682700  0.34973200  0.25000000  1
  Cu  Cu19  1  0.04162000  0.44384600  0.75000000  1
  Cu  Cu20  1  0.42145600  0.64394200  0.00277300  1
  Cu  Cu21  1  0.57854400  0.14394200  0.49722700  1
  Cu  Cu22  1  0.82682700  0.15026800  0.75000000  1
  Cu  Cu23  1  0.04162000  0.05615400  0.25000000  1
  Cu  Cu24  1  0.42145600  0.85605800  0.50277300  1
  Cu  Cu25  1  0.17317300  0.65026800  0.75000000  1
  Cu  Cu26  1  0.57854400  0.14394200  0.00277300  1
  Cu  Cu27  1  0.95838000  0.94384600  0.75000000  1
  Cu  Cu28  1  0.42145600  0.64394200  0.49722700  1
  Cu  Cu29  1  0.95838000  0.55615400  0.25000000  1
  Cu  Cu30  1  0.57854400  0.35605800  0.50277300  1
  Cu  Cu31  1  0.57854400  0.35605800  0.99722700  1
  C  C32  1  0.98635100  0.16882300  0.67235100  1
  C  C33  1  0.01364900  0.66882300  0.82764900  1
  C  C34  1  0.11845500  0.95180000  0.82691200  1
  C  C35  1  0.01364900  0.83117700  0.32764900  1
  C  C36  1  0.19728700  0.93357900  0.00271300  1
  C  C37  1  0.98635100  0.33117700  0.32764900  1
  C  C38  1  0.88154500  0.45180000  0.67308800  1
  C  C39  1  0.19728700  0.93357900  0.49728700  1
  C  C40  1  0.26805500  0.75000000  0.50000000  1
  C  C41  1  0.43837800  0.79273900  0.25000000  1
  C  C42  1  0.88154500  0.45180000  0.82691200  1
  C  C43  1  0.73194500  0.25000000  0.50000000  1
  C  C44  1  0.41791500  0.13811600  0.07942100  1
  C  C45  1  0.88154500  0.04820000  0.17308800  1
  C  C46  1  0.43837800  0.70726100  0.75000000  1
  C  C47  1  0.74179800  0.03539800  0.75000000  1
  C  C48  1  0.11845500  0.54820000  0.32691200  1
  C  C49  1  0.11845500  0.95180000  0.67308800  1
  C  C50  1  0.59893900  0.85958000  0.07336900  1
  C  C51  1  0.11845500  0.54820000  0.17308800  1
  C  C52  1  0.01364900  0.66882300  0.67235100  1
  C  C53  1  0.98635100  0.16882300  0.82764900  1
  C  C54  1  0.59893900  0.64042000  0.92663100  1
  C  C55  1  0.80271300  0.06642100  0.50271300  1
  C  C56  1  0.40106100  0.35958000  0.07336900  1
  C  C57  1  0.73194500  0.25000000  0.00000000  1
  C  C58  1  0.41791500  0.13811600  0.42057900  1
  C  C59  1  0.41791500  0.36188400  0.57942100  1
  C  C60  1  0.59893900  0.85958000  0.42663100  1
  C  C61  1  0.56162200  0.29273900  0.25000000  1
  C  C62  1  0.80271300  0.43357900  0.00271300  1
  C  C63  1  0.19728700  0.56642100  0.50271300  1
  C  C64  1  0.58208500  0.86188400  0.57942100  1
  C  C65  1  0.40106100  0.35958000  0.42663100  1
  C  C66  1  0.25820200  0.53539800  0.75000000  1
  C  C67  1  0.80271300  0.43357900  0.49728700  1
  C  C68  1  0.40106100  0.14042000  0.57336900  1
  C  C69  1  0.58208500  0.63811600  0.42057900  1
  C  C70  1  0.58208500  0.63811600  0.07942100  1
  C  C71  1  0.21219800  0.34911000  0.75000000  1
  C  C72  1  0.56162200  0.20726100  0.75000000  1
  C  C73  1  0.98635100  0.33117700  0.17235100  1
  C  C74  1  0.78780200  0.84911000  0.75000000  1
  C  C75  1  0.26805500  0.75000000  0.00000000  1
  C  C76  1  0.01364900  0.83117700  0.17235100  1
  C  C77  1  0.88154500  0.04820000  0.32691200  1
  C  C78  1  0.40106100  0.14042000  0.92663100  1
  C  C79  1  0.58208500  0.86188400  0.92057900  1
  C  C80  1  0.19728700  0.56642100  0.99728700  1
  C  C81  1  0.78780200  0.65089000  0.25000000  1
  C  C82  1  0.25820200  0.96460200  0.25000000  1
  C  C83  1  0.21219800  0.15089000  0.25000000  1
  C  C84  1  0.74179800  0.46460200  0.25000000  1
  C  C85  1  0.41791500  0.36188400  0.92057900  1
  C  C86  1  0.80271300  0.06642100  0.99728700  1
  C  C87  1  0.59893900  0.64042000  0.57336900  1
