# generated using pymatgen
data_Cu2NiC
_symmetry_space_group_name_H-M   'P 1'
_cell_length_a   4.07003500
_cell_length_b   4.16454200
_cell_length_c   8.42938085
_cell_angle_alpha   75.69844102
_cell_angle_beta   90.00000000
_cell_angle_gamma   90.00000000
_symmetry_Int_Tables_number   1
_chemical_formula_structural   Cu2NiC
_chemical_formula_sum   'Cu4 Ni2 C2'
_cell_volume   138.44869999
_cell_formula_units_Z   2
loop_
 _symmetry_equiv_pos_site_id
 _symmetry_equiv_pos_as_xyz
  1  'x, y, z'
loop_
 _atom_site_type_symbol
 _atom_site_label
 _atom_site_symmetry_multiplicity
 _atom_site_fract_x
 _atom_site_fract_y
 _atom_site_fract_z
 _atom_site_occupancy
  C  C0  1  0.25000000  0.10683200  0.78633600  1
  C  C1  1  0.75000000  0.89316800  0.21366400  1
  Ni  Ni2  1  0.75000000  0.68196100  0.63607800  1
  Ni  Ni3  1  0.25000000  0.31803900  0.36392200  1
  Cu  Cu4  1  0.25000000  0.75029800  0.49940400  1
  Cu  Cu5  1  0.75000000  0.24970200  0.50059600  1
  Cu  Cu6  1  0.75000000  0.54359100  0.91281800  1
  Cu  Cu7  1  0.25000000  0.45640900  0.08718200  1
