# generated using pymatgen
data_CuNiC8
_symmetry_space_group_name_H-M   'P 1'
_cell_length_a   5.06886265
_cell_length_b   7.62174065
_cell_length_c   14.06938109
_cell_angle_alpha   94.14789393
_cell_angle_beta   100.56623813
_cell_angle_gamma   109.24087425
_symmetry_Int_Tables_number   1
_chemical_formula_structural   CuNiC8
_chemical_formula_sum   'Cu4 Ni4 C32'
_cell_volume   499.29884521
_cell_formula_units_Z   4
loop_
 _symmetry_equiv_pos_site_id
 _symmetry_equiv_pos_as_xyz
  1  'x, y, z'
loop_
 _atom_site_type_symbol
 _atom_site_label
 _atom_site_symmetry_multiplicity
 _atom_site_fract_x
 _atom_site_fract_y
 _atom_site_fract_z
 _atom_site_occupancy
  Ni  Ni0  1  0.70093417  0.86235139  0.52650876  1
  Ni  Ni1  1  0.50000000  0.00000000  0.00000000  1
  Ni  Ni2  1  0.00000000  0.50000000  0.50000000  1
  Ni  Ni3  1  0.29906583  0.13764861  0.47349124  1
  Cu  Cu4  1  0.81197185  0.34301552  0.21727078  1
  Cu  Cu5  1  0.47361631  0.21904009  0.78213407  1
  Cu  Cu6  1  0.52638369  0.78095991  0.21786593  1
  Cu  Cu7  1  0.18802815  0.65698448  0.78272922  1
  C  C8  1  0.80235542  0.60419434  0.00031156  1
  C  C9  1  0.19764458  0.39580566  0.99968844  1
  C  C10  1  0.95082420  0.96129471  0.85838515  1
  C  C11  1  0.04917580  0.03870529  0.14161485  1
  C  C12  1  0.11419936  0.79216409  0.35241469  1
  C  C13  1  0.88580064  0.20783591  0.64758531  1
  C  C14  1  0.40725058  0.39882307  0.34634035  1
  C  C15  1  0.59274942  0.60117693  0.65365965  1
  C  C16  1  0.62112464  0.95678569  0.84303705  1
  C  C17  1  0.94046816  0.06670529  0.24372819  1
  C  C18  1  0.94233167  0.80942878  0.40546887  1
  C  C19  1  0.60624654  0.54350439  0.74022284  1
  C  C20  1  0.78537931  0.59931853  0.60698773  1
  C  C21  1  0.80425015  0.83766813  0.08369417  1
  C  C22  1  0.60901048  0.33438389  0.37615023  1
  C  C23  1  0.98997523  0.20870434  0.08385474  1
  C  C24  1  0.05766833  0.19057122  0.59453113  1
  C  C25  1  0.58039660  0.44706630  0.08164938  1
  C  C26  1  0.37887536  0.04321431  0.15696295  1
  C  C27  1  0.00972508  0.69340310  0.26390127  1
  C  C28  1  0.61033803  0.12918823  0.62103378  1
  C  C29  1  0.84485683  0.40169627  0.91755651  1
  C  C30  1  0.38966197  0.87081177  0.37896622  1
  C  C31  1  0.15514317  0.59830373  0.08244349  1
  C  C32  1  0.99027492  0.30659690  0.73609873  1
  C  C33  1  0.39375346  0.45649561  0.25977716  1
  C  C34  1  0.19574985  0.16233187  0.91630583  1
  C  C35  1  0.21462069  0.40068147  0.39301227  1
  C  C36  1  0.05953184  0.93329471  0.75627181  1
  C  C37  1  0.01002477  0.79129566  0.91614526  1
  C  C38  1  0.41960340  0.55293370  0.91835062  1
  C  C39  1  0.39098952  0.66561611  0.62384977  1
