# generated using pymatgen
data_Cu6Ni2C7
_symmetry_space_group_name_H-M   'P 1'
_cell_length_a   5.40097700
_cell_length_b   8.05969200
_cell_length_c   10.77530043
_cell_angle_alpha   65.33943151
_cell_angle_beta   90.00000000
_cell_angle_gamma   90.00000000
_symmetry_Int_Tables_number   1
_chemical_formula_structural   Cu6Ni2C7
_chemical_formula_sum   'Cu12 Ni4 C14'
_cell_volume   426.27155124
_cell_formula_units_Z   2
loop_
 _symmetry_equiv_pos_site_id
 _symmetry_equiv_pos_as_xyz
  1  'x, y, z'
loop_
 _atom_site_type_symbol
 _atom_site_label
 _atom_site_symmetry_multiplicity
 _atom_site_fract_x
 _atom_site_fract_y
 _atom_site_fract_z
 _atom_site_occupancy
  Ni  Ni0  1  0.72617700  0.79991100  0.36131300  1
  Ni  Ni1  1  0.27382300  0.20008900  0.63868700  1
  Ni  Ni2  1  0.27382300  0.79991100  0.86131300  1
  Ni  Ni3  1  0.72617700  0.20008900  0.13868700  1
  Cu  Cu4  1  0.68931200  0.68751500  0.10017400  1
  Cu  Cu5  1  0.31068800  0.68751500  0.60017400  1
  Cu  Cu6  1  0.27113500  0.93594700  0.10669500  1
  Cu  Cu7  1  0.31068800  0.31248500  0.89982600  1
  Cu  Cu8  1  0.76538100  0.44659100  0.63699000  1
  Cu  Cu9  1  0.72886500  0.06405300  0.89330500  1
  Cu  Cu10  1  0.23461900  0.55340900  0.36301000  1
  Cu  Cu11  1  0.23461900  0.44659100  0.13699000  1
  Cu  Cu12  1  0.72886500  0.93594700  0.60669500  1
  Cu  Cu13  1  0.68931200  0.31248500  0.39982600  1
  Cu  Cu14  1  0.76538100  0.55340900  0.86301000  1
  Cu  Cu15  1  0.27113500  0.06405300  0.39330500  1
  C  C16  1  0.85084300  0.24519100  0.98767500  1
  C  C17  1  0.83473700  0.00000000  0.25000000  1
  C  C18  1  0.16526300  0.00000000  0.75000000  1
  C  C19  1  0.19204400  0.64321300  0.80987200  1
  C  C20  1  0.85084300  0.75480900  0.51232500  1
  C  C21  1  0.19204400  0.35678700  0.69012800  1
  C  C22  1  0.41878700  0.81278500  0.36868400  1
  C  C23  1  0.80795600  0.35678700  0.19012800  1
  C  C24  1  0.14915700  0.24519100  0.48767500  1
  C  C25  1  0.58121300  0.81278500  0.86868400  1
  C  C26  1  0.58121300  0.18721500  0.63131600  1
  C  C27  1  0.80795600  0.64321300  0.30987200  1
  C  C28  1  0.41878700  0.18721500  0.13131600  1
  C  C29  1  0.14915700  0.75480900  0.01232500  1
