# generated using pymatgen
data_CuNiC7
_symmetry_space_group_name_H-M   'P 1'
_cell_length_a   12.15862589
_cell_length_b   12.15862589
_cell_length_c   12.15862651
_cell_angle_alpha   116.39981726
_cell_angle_beta   116.39981726
_cell_angle_gamma   116.39981570
_symmetry_Int_Tables_number   1
_chemical_formula_structural   CuNiC7
_chemical_formula_sum   'Cu6 Ni6 C42'
_cell_volume   864.08013028
_cell_formula_units_Z   6
loop_
 _symmetry_equiv_pos_site_id
 _symmetry_equiv_pos_as_xyz
  1  'x, y, z'
loop_
 _atom_site_type_symbol
 _atom_site_label
 _atom_site_symmetry_multiplicity
 _atom_site_fract_x
 _atom_site_fract_y
 _atom_site_fract_z
 _atom_site_occupancy
  Ni  Ni0  1  0.72845000  0.87628500  0.38689600  1
  Ni  Ni1  1  0.87628500  0.38689600  0.72845000  1
  Ni  Ni2  1  0.61310400  0.27155000  0.12371500  1
  Ni  Ni3  1  0.12371500  0.61310400  0.27155000  1
  Ni  Ni4  1  0.27155000  0.12371500  0.61310400  1
  Ni  Ni5  1  0.38689600  0.72845000  0.87628500  1
  C  C6  1  0.13987000  0.02002400  0.32215500  1
  C  C7  1  0.62937500  0.97016600  0.94817300  1
  C  C8  1  0.02983400  0.05182700  0.37062500  1
  C  C9  1  0.71664600  0.72916400  0.47223600  1
  C  C10  1  0.32215500  0.13987000  0.02002400  1
  C  C11  1  0.97016600  0.94817300  0.62937500  1
  C  C12  1  0.94817300  0.62937500  0.97016600  1
  C  C13  1  0.05182700  0.37062500  0.02983400  1
  C  C14  1  0.02002400  0.32215500  0.13987000  1
  C  C15  1  0.27083600  0.52776400  0.28335400  1
  C  C16  1  0.28335400  0.27083600  0.52776400  1
  C  C17  1  0.67784500  0.86013000  0.97997600  1
  C  C18  1  0.47223600  0.71664600  0.72916400  1
  C  C19  1  0.86013000  0.97997600  0.67784500  1
  C  C20  1  0.72916400  0.47223600  0.71664600  1
  C  C21  1  0.97997600  0.67784500  0.86013000  1
  C  C22  1  0.52776400  0.28335400  0.27083600  1
  C  C23  1  0.37062500  0.02983400  0.05182700  1
  C  C24  1  0.41683300  0.89328500  0.25659900  1
  C  C25  1  0.25659900  0.41683300  0.89328500  1
  C  C26  1  0.89328500  0.25659900  0.41683300  1
  C  C27  1  0.10671500  0.74340100  0.58316700  1
  C  C28  1  0.74340100  0.58316700  0.10671500  1
  C  C29  1  0.58316700  0.10671500  0.74340100  1
  Cu  Cu30  1  0.11529200  0.44124900  0.17128700  1
  Cu  Cu31  1  0.55875100  0.82871300  0.88470800  1
  Cu  Cu32  1  0.17128700  0.11529200  0.44124900  1
  Cu  Cu33  1  0.44124900  0.17128700  0.11529200  1
  Cu  Cu34  1  0.88470800  0.55875100  0.82871300  1
  Cu  Cu35  1  0.82871300  0.88470800  0.55875100  1
  C  C36  1  0.29995400  0.53396700  0.79346200  1
  C  C37  1  0.79346200  0.29995400  0.53396700  1
  C  C38  1  0.48971700  0.10131900  0.90628500  1
  C  C39  1  0.20341600  0.65487300  0.71479200  1
  C  C40  1  0.90628500  0.48971700  0.10131900  1
  C  C41  1  0.34512700  0.28520800  0.79658400  1
  C  C42  1  0.10131900  0.90628500  0.48971700  1
  C  C43  1  0.65487300  0.71479200  0.20341600  1
  C  C44  1  0.28520800  0.79658400  0.34512700  1
  C  C45  1  0.09371500  0.51028300  0.89868100  1
  C  C46  1  0.20653800  0.70004600  0.46603300  1
  C  C47  1  0.71479200  0.20341600  0.65487300  1
  C  C48  1  0.51028300  0.89868100  0.09371500  1
  C  C49  1  0.46603300  0.20653800  0.70004600  1
  C  C50  1  0.53396700  0.79346200  0.29995400  1
  C  C51  1  0.70004600  0.46603300  0.20653800  1
  C  C52  1  0.79658400  0.34512700  0.28520800  1
  C  C53  1  0.89868100  0.09371500  0.51028300  1
