# generated using pymatgen
data_Cu11Ni2C3
_symmetry_space_group_name_H-M   'P 1'
_cell_length_a   9.14805691
_cell_length_b   9.14805691
_cell_length_c   11.95094740
_cell_angle_alpha   78.13114767
_cell_angle_beta   78.13114767
_cell_angle_gamma   93.85343408
_symmetry_Int_Tables_number   1
_chemical_formula_structural   Cu11Ni2C3
_chemical_formula_sum   'Cu22 Ni4 C6'
_cell_volume   951.54935373
_cell_formula_units_Z   2
loop_
 _symmetry_equiv_pos_site_id
 _symmetry_equiv_pos_as_xyz
  1  'x, y, z'
loop_
 _atom_site_type_symbol
 _atom_site_label
 _atom_site_symmetry_multiplicity
 _atom_site_fract_x
 _atom_site_fract_y
 _atom_site_fract_z
 _atom_site_occupancy
  C  C0  1  0.07632900  0.72885500  0.71857300  1
  C  C1  1  0.27114500  0.92367100  0.78142700  1
  C  C2  1  0.72885500  0.07632900  0.21857300  1
  C  C3  1  0.92367100  0.27114500  0.28142700  1
  Ni  Ni4  1  0.75366700  0.39838300  0.62608400  1
  Ni  Ni5  1  0.39838300  0.75366700  0.12608400  1
  Ni  Ni6  1  0.24633300  0.60161700  0.37391600  1
  Ni  Ni7  1  0.60161700  0.24633300  0.87391600  1
  C  C8  1  0.29474400  0.70525600  0.25000000  1
  C  C9  1  0.70525600  0.29474400  0.75000000  1
  Cu  Cu10  1  0.83109000  0.32651900  0.10206500  1
  Cu  Cu11  1  0.38603800  0.44189600  0.39711100  1
  Cu  Cu12  1  0.55810400  0.61396200  0.10288900  1
  Cu  Cu13  1  0.16891000  0.67348100  0.89793500  1
  Cu  Cu14  1  0.83763700  0.63332600  0.82931600  1
  Cu  Cu15  1  0.67348100  0.16891000  0.39793500  1
  Cu  Cu16  1  0.02395400  0.97604600  0.75000000  1
  Cu  Cu17  1  0.50645600  0.86959100  0.81145300  1
  Cu  Cu18  1  0.97604600  0.02395400  0.25000000  1
  Cu  Cu19  1  0.49354400  0.13040900  0.18854700  1
  Cu  Cu20  1  0.98790700  0.77862200  0.54822300  1
  Cu  Cu21  1  0.86959100  0.50645600  0.31145300  1
  Cu  Cu22  1  0.77862200  0.98790700  0.04822300  1
  Cu  Cu23  1  0.63332600  0.83763700  0.32931600  1
  Cu  Cu24  1  0.61396200  0.55810400  0.60288900  1
  Cu  Cu25  1  0.22137800  0.01209300  0.95177700  1
  Cu  Cu26  1  0.36667400  0.16236300  0.67068400  1
  Cu  Cu27  1  0.13040900  0.49354400  0.68854700  1
  Cu  Cu28  1  0.44189600  0.38603800  0.89711100  1
  Cu  Cu29  1  0.16236300  0.36667400  0.17068400  1
  Cu  Cu30  1  0.32651900  0.83109000  0.60206500  1
  Cu  Cu31  1  0.01209300  0.22137800  0.45177700  1
