# generated using pymatgen
data_Cu4NiC5
_symmetry_space_group_name_H-M   'P 1'
_cell_length_a   6.96513300
_cell_length_b   12.24873200
_cell_length_c   21.73200700
_cell_angle_alpha   90.00000000
_cell_angle_beta   90.00000000
_cell_angle_gamma   90.00000000
_symmetry_Int_Tables_number   1
_chemical_formula_structural   Cu4NiC5
_chemical_formula_sum   'Cu32 Ni8 C40'
_cell_volume   1854.04547663
_cell_formula_units_Z   8
loop_
 _symmetry_equiv_pos_site_id
 _symmetry_equiv_pos_as_xyz
  1  'x, y, z'
loop_
 _atom_site_type_symbol
 _atom_site_label
 _atom_site_symmetry_multiplicity
 _atom_site_fract_x
 _atom_site_fract_y
 _atom_site_fract_z
 _atom_site_occupancy
  Ni  Ni0  1  0.41703900  0.66023000  0.99895200  1
  Ni  Ni1  1  0.58296100  0.33977000  0.00104800  1
  Ni  Ni2  1  0.08296100  0.66023000  0.49895200  1
  Ni  Ni3  1  0.91703900  0.83977000  0.99895200  1
  Ni  Ni4  1  0.91703900  0.33977000  0.50104800  1
  Ni  Ni5  1  0.58296100  0.83977000  0.49895200  1
  Ni  Ni6  1  0.08296100  0.16023000  0.00104800  1
  Ni  Ni7  1  0.41703900  0.16023000  0.50104800  1
  Cu  Cu8  1  0.41910400  0.57581100  0.74870800  1
  Cu  Cu9  1  0.91068500  0.17364200  0.82499300  1
  Cu  Cu10  1  0.08931500  0.82635800  0.17500700  1
  Cu  Cu11  1  0.91169700  0.05737300  0.43335000  1
  Cu  Cu12  1  0.40853800  0.19664200  0.14544600  1
  Cu  Cu13  1  0.91169700  0.55737300  0.06665000  1
  Cu  Cu14  1  0.41169700  0.44262700  0.43335000  1
  Cu  Cu15  1  0.09146200  0.69664200  0.85455400  1
  Cu  Cu16  1  0.58089600  0.42418900  0.25129200  1
  Cu  Cu17  1  0.91068500  0.67364200  0.67500700  1
  Cu  Cu18  1  0.58931500  0.67364200  0.17500700  1
  Cu  Cu19  1  0.41068500  0.32635800  0.82499300  1
  Cu  Cu20  1  0.41910400  0.07581100  0.75129200  1
  Cu  Cu21  1  0.08830300  0.94262700  0.56665000  1
  Cu  Cu22  1  0.59146200  0.30335800  0.64544600  1
  Cu  Cu23  1  0.08931500  0.32635800  0.32499300  1
  Cu  Cu24  1  0.40853800  0.69664200  0.35455400  1
  Cu  Cu25  1  0.08830300  0.44262700  0.93335000  1
  Cu  Cu26  1  0.08089600  0.07581100  0.25129200  1
  Cu  Cu27  1  0.58830300  0.05737300  0.93335000  1
  Cu  Cu28  1  0.90853800  0.80335800  0.35455400  1
  Cu  Cu29  1  0.09146200  0.19664200  0.64544600  1
  Cu  Cu30  1  0.41068500  0.82635800  0.67500700  1
  Cu  Cu31  1  0.58089600  0.92418900  0.24870800  1
  Cu  Cu32  1  0.59146200  0.80335800  0.85455400  1
  Cu  Cu33  1  0.08089600  0.57581100  0.24870800  1
  Cu  Cu34  1  0.91910400  0.42418900  0.75129200  1
  Cu  Cu35  1  0.91910400  0.92418900  0.74870800  1
  Cu  Cu36  1  0.90853800  0.30335800  0.14544600  1
  Cu  Cu37  1  0.58830300  0.55737300  0.56665000  1
  Cu  Cu38  1  0.58931500  0.17364200  0.32499300  1
  Cu  Cu39  1  0.41169700  0.94262700  0.06665000  1
  C  C40  1  0.80868700  0.03723100  0.12719900  1
  C  C41  1  0.69131300  0.03723100  0.62719900  1
  C  C42  1  0.19131300  0.46276900  0.62719900  1
  C  C43  1  0.80868700  0.53723100  0.37280100  1
  C  C44  1  0.30868700  0.96276900  0.37280100  1
  C  C45  1  0.30868700  0.46276900  0.12719900  1
  C  C46  1  0.69131300  0.53723100  0.87280100  1
  C  C47  1  0.19131300  0.96276900  0.87280100  1
  C  C48  1  0.33674400  0.88037400  0.95059300  1
  C  C49  1  0.21625700  0.87331300  0.28795200  1
  C  C50  1  0.71511300  0.36407400  0.36567500  1
  C  C51  1  0.37488800  0.04219100  0.62402400  1
  C  C52  1  0.28488700  0.63592600  0.63432500  1
  C  C53  1  0.28374300  0.87331300  0.78795200  1
  C  C54  1  0.78374300  0.12668700  0.71204800  1
  C  C55  1  0.71625700  0.12668700  0.21204800  1
  C  C56  1  0.16325600  0.88037400  0.45059300  1
  C  C57  1  0.16325600  0.38037400  0.04940700  1
  C  C58  1  0.66325600  0.11962600  0.04940700  1
  C  C59  1  0.37488800  0.54219100  0.87597600  1
  C  C60  1  0.21625700  0.37331300  0.21204800  1
  C  C61  1  0.33674400  0.38037400  0.54940700  1
  C  C62  1  0.28488700  0.13592600  0.86567500  1
  C  C63  1  0.87488800  0.95780900  0.87597600  1
  C  C64  1  0.71511300  0.86407400  0.13432500  1
  C  C65  1  0.21511300  0.63592600  0.13432500  1
  C  C66  1  0.83674400  0.11962600  0.54940700  1
  C  C67  1  0.87488800  0.45780900  0.62402400  1
  C  C68  1  0.62511200  0.45780900  0.12402400  1
  C  C69  1  0.66325600  0.61962600  0.45059300  1
  C  C70  1  0.12511200  0.54219100  0.37597600  1
  C  C71  1  0.78488700  0.86407400  0.63432500  1
  C  C72  1  0.62511200  0.95780900  0.37597600  1
  C  C73  1  0.28374300  0.37331300  0.71204800  1
  C  C74  1  0.78488700  0.36407400  0.86567500  1
  C  C75  1  0.78374300  0.62668700  0.78795200  1
  C  C76  1  0.12511200  0.04219100  0.12402400  1
  C  C77  1  0.83674400  0.61962600  0.95059300  1
  C  C78  1  0.71625700  0.62668700  0.28795200  1
  C  C79  1  0.21511300  0.13592600  0.36567500  1
