# generated using pymatgen
data_Cu14Ni2C17
_symmetry_space_group_name_H-M   'P 1'
_cell_length_a   8.52000280
_cell_length_b   8.52000280
_cell_length_c   8.52000280
_cell_angle_alpha   128.64075440
_cell_angle_beta   123.24280111
_cell_angle_gamma   80.05961089
_symmetry_Int_Tables_number   1
_chemical_formula_structural   Cu14Ni2C17
_chemical_formula_sum   'Cu14 Ni2 C17'
_cell_volume   390.15275362
_cell_formula_units_Z   1
loop_
 _symmetry_equiv_pos_site_id
 _symmetry_equiv_pos_as_xyz
  1  'x, y, z'
loop_
 _atom_site_type_symbol
 _atom_site_label
 _atom_site_symmetry_multiplicity
 _atom_site_fract_x
 _atom_site_fract_y
 _atom_site_fract_z
 _atom_site_occupancy
  Ni  Ni0  1  0.50000000  0.23457900  0.73457900  1
  Ni  Ni1  1  0.50000000  0.76542100  0.26542100  1
  Cu  Cu2  1  0.84203900  0.50000000  0.34203900  1
  Cu  Cu3  1  0.15796100  0.50000000  0.65796100  1
  Cu  Cu4  1  0.41523400  0.76958300  0.64565200  1
  Cu  Cu5  1  0.58476600  0.23041700  0.35434800  1
  Cu  Cu6  1  0.87606900  0.23041700  0.64565200  1
  Cu  Cu7  1  0.12393100  0.76958300  0.35434800  1
  Cu  Cu8  1  0.70863600  0.59338600  0.57185800  1
  Cu  Cu9  1  0.29136400  0.86322100  0.88475000  1
  Cu  Cu10  1  0.97847200  0.40661400  0.11525000  1
  Cu  Cu11  1  0.02152800  0.13677900  0.42814200  1
  Cu  Cu12  1  0.29136400  0.40661400  0.42814200  1
  Cu  Cu13  1  0.70863600  0.13677900  0.11525000  1
  Cu  Cu14  1  0.02152800  0.59338600  0.88475000  1
  Cu  Cu15  1  0.97847200  0.86322100  0.57185800  1
  C  C16  1  0.72837000  0.72837000  0.00000000  1
  C  C17  1  0.27163000  0.27163000  0.00000000  1
  C  C18  1  0.00000000  0.00000000  0.00000000  1
  C  C19  1  0.74911500  0.04078400  0.29166800  1
  C  C20  1  0.25088500  0.54255300  0.29166800  1
  C  C21  1  0.25088500  0.95921600  0.70833200  1
  C  C22  1  0.74911500  0.45744700  0.70833200  1
  C  C23  1  0.00000000  0.70510500  0.70510500  1
  C  C24  1  0.00000000  0.29489500  0.29489500  1
  C  C25  1  0.68624300  0.87291000  0.81333200  1
  C  C26  1  0.31375700  0.12709000  0.18666800  1
  C  C27  1  0.94042200  0.12709000  0.81333200  1
  C  C28  1  0.05957800  0.87291000  0.18666800  1
  C  C29  1  0.41116400  0.62925800  0.78190700  1
  C  C30  1  0.58883600  0.37074200  0.21809300  1
  C  C31  1  0.15264900  0.37074200  0.78190700  1
  C  C32  1  0.84735100  0.62925800  0.21809300  1
