# generated using pymatgen
data_Cu4NiC13
_symmetry_space_group_name_H-M   'P 1'
_cell_length_a   12.50116700
_cell_length_b   12.50116700
_cell_length_c   12.50116700
_cell_angle_alpha   90.00000000
_cell_angle_beta   90.00000000
_cell_angle_gamma   90.00000000
_symmetry_Int_Tables_number   1
_chemical_formula_structural   Cu4NiC13
_chemical_formula_sum   'Cu16 Ni4 C52'
_cell_volume   1953.67208232
_cell_formula_units_Z   4
loop_
 _symmetry_equiv_pos_site_id
 _symmetry_equiv_pos_as_xyz
  1  'x, y, z'
loop_
 _atom_site_type_symbol
 _atom_site_label
 _atom_site_symmetry_multiplicity
 _atom_site_fract_x
 _atom_site_fract_y
 _atom_site_fract_z
 _atom_site_occupancy
  C  C0  1  0.80447000  0.04682800  0.81389700  1
  C  C1  1  0.95317200  0.31389700  0.69553000  1
  C  C2  1  0.19553000  0.54682800  0.68610300  1
  C  C3  1  0.30447000  0.04682800  0.68610300  1
  C  C4  1  0.95317200  0.18610300  0.19553000  1
  C  C5  1  0.45317200  0.18610300  0.30447000  1
  C  C6  1  0.30447000  0.45317200  0.18610300  1
  C  C7  1  0.18610300  0.19553000  0.95317200  1
  C  C8  1  0.18610300  0.30447000  0.45317200  1
  C  C9  1  0.31389700  0.80447000  0.45317200  1
  C  C10  1  0.04682800  0.68610300  0.30447000  1
  C  C11  1  0.68610300  0.30447000  0.04682800  1
  C  C12  1  0.45317200  0.31389700  0.80447000  1
  C  C13  1  0.68610300  0.19553000  0.54682800  1
  C  C14  1  0.31389700  0.69553000  0.95317200  1
  C  C15  1  0.69553000  0.54682800  0.81389700  1
  C  C16  1  0.81389700  0.80447000  0.04682800  1
  C  C17  1  0.54682800  0.81389700  0.69553000  1
  C  C18  1  0.19553000  0.95317200  0.18610300  1
  C  C19  1  0.80447000  0.45317200  0.31389700  1
  C  C20  1  0.04682800  0.81389700  0.80447000  1
  C  C21  1  0.54682800  0.68610300  0.19553000  1
  C  C22  1  0.81389700  0.69553000  0.54682800  1
  C  C23  1  0.69553000  0.95317200  0.31389700  1
  Ni  Ni24  1  0.00000000  0.00000000  0.50000000  1
  Ni  Ni25  1  0.50000000  0.00000000  0.00000000  1
  Ni  Ni26  1  0.50000000  0.50000000  0.50000000  1
  Ni  Ni27  1  0.00000000  0.50000000  0.00000000  1
  Cu  Cu28  1  0.23295700  0.76704300  0.26704300  1
  Cu  Cu29  1  0.15164500  0.34835500  0.65164500  1
  Cu  Cu30  1  0.65164500  0.34835500  0.84835500  1
  Cu  Cu31  1  0.73295700  0.73295700  0.73295700  1
  Cu  Cu32  1  0.84835500  0.65164500  0.34835500  1
  Cu  Cu33  1  0.34835500  0.84835500  0.65164500  1
  Cu  Cu34  1  0.84835500  0.84835500  0.84835500  1
  Cu  Cu35  1  0.73295700  0.76704300  0.23295700  1
  Cu  Cu36  1  0.26704300  0.26704300  0.26704300  1
  Cu  Cu37  1  0.26704300  0.23295700  0.76704300  1
  Cu  Cu38  1  0.34835500  0.65164500  0.15164500  1
  Cu  Cu39  1  0.23295700  0.73295700  0.76704300  1
  Cu  Cu40  1  0.76704300  0.23295700  0.73295700  1
  Cu  Cu41  1  0.65164500  0.15164500  0.34835500  1
  Cu  Cu42  1  0.76704300  0.26704300  0.23295700  1
  Cu  Cu43  1  0.15164500  0.15164500  0.15164500  1
  C  C44  1  0.95620000  0.95058200  0.29168300  1
  C  C45  1  0.79168300  0.95620000  0.54941800  1
  C  C46  1  0.54941800  0.70831700  0.45620000  1
  C  C47  1  0.45058200  0.20831700  0.04380000  1
  C  C48  1  0.54941800  0.79168300  0.95620000  1
  C  C49  1  0.95620000  0.54941800  0.79168300  1
  C  C50  1  0.04380000  0.04941800  0.70831700  1
  C  C51  1  0.70831700  0.45620000  0.54941800  1
  C  C52  1  0.04380000  0.45058200  0.20831700  1
  C  C53  1  0.29168300  0.95620000  0.95058200  1
  C  C54  1  0.54380000  0.04941800  0.79168300  1
  C  C55  1  0.04941800  0.70831700  0.04380000  1
  C  C56  1  0.50000000  0.00000000  0.50000000  1
  C  C57  1  0.45620000  0.54941800  0.70831700  1
  C  C58  1  0.00000000  0.50000000  0.50000000  1
  C  C59  1  0.04941800  0.79168300  0.54380000  1
  C  C60  1  0.20831700  0.04380000  0.45058200  1
  C  C61  1  0.54380000  0.45058200  0.29168300  1
  C  C62  1  0.95058200  0.29168300  0.95620000  1
  C  C63  1  0.45620000  0.95058200  0.20831700  1
  C  C64  1  0.79168300  0.54380000  0.04941800  1
  C  C65  1  0.45058200  0.29168300  0.54380000  1
  C  C66  1  0.95058200  0.20831700  0.45620000  1
  C  C67  1  0.50000000  0.50000000  0.00000000  1
  C  C68  1  0.29168300  0.54380000  0.45058200  1
  C  C69  1  0.00000000  0.00000000  0.00000000  1
  C  C70  1  0.20831700  0.45620000  0.95058200  1
  C  C71  1  0.70831700  0.04380000  0.04941800  1
