# generated using pymatgen
data_CuNiC12
_symmetry_space_group_name_H-M   'P 1'
_cell_length_a   8.66148200
_cell_length_b   16.00609600
_cell_length_c   16.42173700
_cell_angle_alpha   90.00000000
_cell_angle_beta   90.00000000
_cell_angle_gamma   90.00000000
_symmetry_Int_Tables_number   1
_chemical_formula_structural   CuNiC12
_chemical_formula_sum   'Cu8 Ni8 C96'
_cell_volume   2276.65234514
_cell_formula_units_Z   8
loop_
 _symmetry_equiv_pos_site_id
 _symmetry_equiv_pos_as_xyz
  1  'x, y, z'
loop_
 _atom_site_type_symbol
 _atom_site_label
 _atom_site_symmetry_multiplicity
 _atom_site_fract_x
 _atom_site_fract_y
 _atom_site_fract_z
 _atom_site_occupancy
  C  C0  1  0.35860700  0.25000000  0.18139000  1
  C  C1  1  0.39602900  0.75000000  0.02902400  1
  C  C2  1  0.09610800  0.25000000  0.76741500  1
  C  C3  1  0.60397100  0.75000000  0.52902400  1
  C  C4  1  0.60397100  0.25000000  0.97097600  1
  C  C5  1  0.39602900  0.25000000  0.47097600  1
  C  C6  1  0.35860700  0.75000000  0.31861000  1
  C  C7  1  0.64139300  0.75000000  0.81861000  1
  C  C8  1  0.64139300  0.25000000  0.68139000  1
  C  C9  1  0.51517900  0.50000000  0.25000000  1
  C  C10  1  0.51517900  0.00000000  0.25000000  1
  C  C11  1  0.90389200  0.75000000  0.23258500  1
  C  C12  1  0.48482100  0.00000000  0.75000000  1
  C  C13  1  0.90389200  0.25000000  0.26741500  1
  C  C14  1  0.09610800  0.75000000  0.73258500  1
  C  C15  1  0.48482100  0.50000000  0.75000000  1
  Ni  Ni16  1  0.16630800  0.43432100  0.98459800  1
  Ni  Ni17  1  0.16630800  0.56567900  0.51540200  1
  Ni  Ni18  1  0.83369200  0.43432100  0.48459800  1
  Ni  Ni19  1  0.83369200  0.93432100  0.01540200  1
  Ni  Ni20  1  0.16630800  0.93432100  0.51540200  1
  Ni  Ni21  1  0.83369200  0.56567900  0.01540200  1
  Ni  Ni22  1  0.83369200  0.06567900  0.48459800  1
  Ni  Ni23  1  0.16630800  0.06567900  0.98459800  1
  Cu  Cu24  1  0.00388000  0.52943000  0.89699000  1
  Cu  Cu25  1  0.99612000  0.52943000  0.39699000  1
  Cu  Cu26  1  0.99612000  0.02943000  0.10301000  1
  Cu  Cu27  1  0.00388000  0.02943000  0.60301000  1
  Cu  Cu28  1  0.00388000  0.97057000  0.89699000  1
  Cu  Cu29  1  0.99612000  0.97057000  0.39699000  1
  Cu  Cu30  1  0.00388000  0.47057000  0.60301000  1
  Cu  Cu31  1  0.99612000  0.47057000  0.10301000  1
  C  C32  1  0.25706400  0.33557400  0.11293500  1
  C  C33  1  0.86801700  0.75000000  0.75283300  1
  C  C34  1  0.08034100  0.36941100  0.76793100  1
  C  C35  1  0.75152700  0.33493200  0.99361700  1
  C  C36  1  0.88103900  0.25000000  0.15221000  1
  C  C37  1  0.35490200  0.25000000  0.35703000  1
  C  C38  1  0.05476600  0.75000000  0.61804600  1
  C  C39  1  0.94523400  0.25000000  0.38195400  1
  C  C40  1  0.74293600  0.33557400  0.61293500  1
  C  C41  1  0.74293600  0.16442600  0.61293500  1
  C  C42  1  0.67319900  0.47650600  0.32933300  1
  C  C43  1  0.25706400  0.16442600  0.11293500  1
  C  C44  1  0.51618800  0.11501600  0.21370200  1
  C  C45  1  0.75152700  0.66506800  0.50638300  1
  C  C46  1  0.91965900  0.13058900  0.26793100  1
  C  C47  1  0.31267400  0.25000000  0.78595900  1
  C  C48  1  0.08034100  0.13058900  0.76793100  1
  C  C49  1  0.67319900  0.97650600  0.17066700  1
  C  C50  1  0.67319900  0.52349400  0.17066700  1
  C  C51  1  0.32680100  0.47650600  0.82933300  1
  C  C52  1  0.55167200  0.83433800  0.04096200  1
  C  C53  1  0.24847300  0.33493200  0.49361700  1
  C  C54  1  0.25706400  0.83557400  0.38706500  1
  C  C55  1  0.64000500  0.02630600  0.82854500  1
  C  C56  1  0.55167200  0.66566200  0.04096200  1
  C  C57  1  0.64000500  0.97369400  0.67145500  1
  C  C58  1  0.64509800  0.75000000  0.64297000  1
  C  C59  1  0.32680100  0.52349400  0.67066700  1
  C  C60  1  0.48381200  0.61501600  0.78629800  1
  C  C61  1  0.94523400  0.75000000  0.11804600  1
  C  C62  1  0.51618800  0.88498400  0.28629800  1
  C  C63  1  0.91965900  0.36941100  0.26793100  1
  C  C64  1  0.35490200  0.75000000  0.14297000  1
  C  C65  1  0.88103900  0.75000000  0.34779000  1
  C  C66  1  0.64509800  0.25000000  0.85703000  1
  C  C67  1  0.55167200  0.16566200  0.45903800  1
  C  C68  1  0.44832800  0.66566200  0.54096200  1
  C  C69  1  0.64000500  0.47369400  0.82854500  1
  C  C70  1  0.44832800  0.83433800  0.54096200  1
  C  C71  1  0.25706400  0.66442600  0.38706500  1
  C  C72  1  0.13198300  0.75000000  0.25283300  1
  C  C73  1  0.48381200  0.11501600  0.71370200  1
  C  C74  1  0.91965900  0.86941100  0.23206900  1
  C  C75  1  0.91965900  0.63058900  0.23206900  1
  C  C76  1  0.75152700  0.83493200  0.50638300  1
  C  C77  1  0.44832800  0.33433800  0.95903800  1
  C  C78  1  0.32680100  0.02349400  0.82933300  1
  C  C79  1  0.45271700  0.75000000  0.90995400  1
  C  C80  1  0.67319900  0.02349400  0.32933300  1
  C  C81  1  0.54728300  0.25000000  0.09004600  1
  C  C82  1  0.48381200  0.38498400  0.71370200  1
  C  C83  1  0.31267400  0.75000000  0.71404100  1
  C  C84  1  0.45271700  0.25000000  0.59004600  1
  C  C85  1  0.32680100  0.97650600  0.67066700  1
  C  C86  1  0.68732600  0.75000000  0.21404100  1
  C  C87  1  0.68732600  0.25000000  0.28595900  1
  C  C88  1  0.35999500  0.52630600  0.17145500  1
  C  C89  1  0.24847300  0.83493200  0.00638300  1
  C  C90  1  0.54728300  0.75000000  0.40995400  1
  C  C91  1  0.86801700  0.25000000  0.74716700  1
  C  C92  1  0.35999500  0.02630600  0.32854500  1
  C  C93  1  0.74293600  0.66442600  0.88706500  1
  C  C94  1  0.74293600  0.83557400  0.88706500  1
  C  C95  1  0.08034100  0.86941100  0.73206900  1
  C  C96  1  0.51618800  0.38498400  0.21370200  1
  C  C97  1  0.24847300  0.66506800  0.00638300  1
  C  C98  1  0.75152700  0.16506800  0.99361700  1
  C  C99  1  0.35999500  0.47369400  0.32854500  1
  C  C100  1  0.05476600  0.25000000  0.88195400  1
  C  C101  1  0.64000500  0.52630600  0.67145500  1
  C  C102  1  0.55167200  0.33433800  0.45903800  1
  C  C103  1  0.13198300  0.25000000  0.24716700  1
  C  C104  1  0.24847300  0.16506800  0.49361700  1
  C  C105  1  0.11896100  0.25000000  0.65221000  1
  C  C106  1  0.08034100  0.63058900  0.73206900  1
  C  C107  1  0.11896100  0.75000000  0.84779000  1
  C  C108  1  0.44832800  0.16566200  0.95903800  1
  C  C109  1  0.51618800  0.61501600  0.28629800  1
  C  C110  1  0.35999500  0.97369400  0.17145500  1
  C  C111  1  0.48381200  0.88498400  0.78629800  1
