# generated using pymatgen
data_CuNi7C2
_symmetry_space_group_name_H-M   'P 1'
_cell_length_a   15.21154300
_cell_length_b   12.86604100
_cell_length_c   13.69049831
_cell_angle_alpha   74.01470965
_cell_angle_beta   90.00000000
_cell_angle_gamma   90.00000000
_symmetry_Int_Tables_number   1
_chemical_formula_structural   CuNi7C2
_chemical_formula_sum   'Cu8 Ni56 C16'
_cell_volume   2575.79353841
_cell_formula_units_Z   8
loop_
 _symmetry_equiv_pos_site_id
 _symmetry_equiv_pos_as_xyz
  1  'x, y, z'
loop_
 _atom_site_type_symbol
 _atom_site_label
 _atom_site_symmetry_multiplicity
 _atom_site_fract_x
 _atom_site_fract_y
 _atom_site_fract_z
 _atom_site_occupancy
  C  C0  1  0.64282500  0.25604700  0.23741400  1
  C  C1  1  0.60737100  0.24685400  0.74321000  1
  C  C2  1  0.35717500  0.74395300  0.76258600  1
  C  C3  1  0.39262900  0.75314600  0.25679000  1
  C  C4  1  0.85717500  0.75604700  0.23741400  1
  C  C5  1  0.14282500  0.24395300  0.76258600  1
  C  C6  1  0.10737100  0.25314600  0.25679000  1
  C  C7  1  0.89262900  0.74685400  0.74321000  1
  C  C8  1  0.99796200  0.23791900  0.94880100  1
  C  C9  1  0.74901700  0.26883200  0.55190800  1
  C  C10  1  0.24901700  0.23116800  0.44809200  1
  C  C11  1  0.00203800  0.76208100  0.05119900  1
  C  C12  1  0.75098300  0.76883200  0.55190800  1
  C  C13  1  0.49796200  0.26208100  0.05119900  1
  C  C14  1  0.50203800  0.73791900  0.94880100  1
  C  C15  1  0.25098300  0.73116800  0.44809200  1
  Ni  Ni16  1  0.39118000  0.88636600  0.35351100  1
  Ni  Ni17  1  0.70046500  0.13207600  0.86560600  1
  Ni  Ni18  1  0.63906500  0.11166900  0.15415900  1
  Ni  Ni19  1  0.45122700  0.84845000  0.63382100  1
  Ni  Ni20  1  0.40003200  0.13869700  0.11593000  1
  Ni  Ni21  1  0.95122700  0.65155000  0.36617900  1
  Ni  Ni22  1  0.66606400  0.90557600  0.48145000  1
  Ni  Ni23  1  0.34916500  0.35496800  0.39576100  1
  Ni  Ni24  1  0.47130700  0.63491100  0.39370100  1
  Ni  Ni25  1  0.22766700  0.80973200  0.66815800  1
  Ni  Ni26  1  0.79953500  0.63207600  0.86560600  1
  Ni  Ni27  1  0.52869300  0.36508900  0.60629900  1
  Ni  Ni28  1  0.16606400  0.59442400  0.51855000  1
  Ni  Ni29  1  0.72405100  0.36180500  0.09556700  1
  Ni  Ni30  1  0.60882000  0.11363400  0.64648900  1
  Ni  Ni31  1  0.59077400  0.60719400  0.02352800  1
  Ni  Ni32  1  0.84916500  0.14503200  0.60423900  1
  Ni  Ni33  1  0.90922600  0.10719400  0.02352800  1
  Ni  Ni34  1  0.27594900  0.63819500  0.90443300  1
  Ni  Ni35  1  0.37265400  0.61106900  0.17886100  1
  Ni  Ni36  1  0.59996800  0.86130300  0.88407000  1
  Ni  Ni37  1  0.54877300  0.15155000  0.36617900  1
  Ni  Ni38  1  0.12734600  0.11106900  0.17886100  1
  Ni  Ni39  1  0.10882000  0.38636600  0.35351100  1
  Ni  Ni40  1  0.86093500  0.61166900  0.15415900  1
  Ni  Ni41  1  0.87265400  0.88893100  0.82113900  1
  Ni  Ni42  1  0.65083500  0.64503200  0.60423900  1
  Ni  Ni43  1  0.20046500  0.36792400  0.13439400  1
  Ni  Ni44  1  0.83393600  0.40557600  0.48145000  1
  Ni  Ni45  1  0.77233300  0.19026800  0.33184200  1
  Ni  Ni46  1  0.04877300  0.34845000  0.63382100  1
  Ni  Ni47  1  0.62734600  0.38893100  0.82113900  1
  Ni  Ni48  1  0.40922600  0.39280600  0.97647200  1
  Ni  Ni49  1  0.77594900  0.86180500  0.09556700  1
  Ni  Ni50  1  0.27233300  0.30973200  0.66815800  1
  Ni  Ni51  1  0.62481400  0.40842900  0.30100700  1
  Ni  Ni52  1  0.09996800  0.63869700  0.11593000  1
  Ni  Ni53  1  0.29953500  0.86792400  0.13439400  1
  Ni  Ni54  1  0.09077400  0.89280600  0.97647200  1
  Ni  Ni55  1  0.36093500  0.88833100  0.84584100  1
  Ni  Ni56  1  0.13906500  0.38833100  0.84584100  1
  Ni  Ni57  1  0.02869300  0.13491100  0.39370100  1
  Ni  Ni58  1  0.47709800  0.17691600  0.83346900  1
  Ni  Ni59  1  0.97130700  0.86508900  0.60629900  1
  Ni  Ni60  1  0.33393600  0.09442400  0.51855000  1
  Ni  Ni61  1  0.72766700  0.69026800  0.33184200  1
  Ni  Ni62  1  0.22405100  0.13819500  0.90443300  1
  Ni  Ni63  1  0.87518600  0.90842900  0.30100700  1
  Ni  Ni64  1  0.52290200  0.82308400  0.16653100  1
  Ni  Ni65  1  0.02290200  0.67691600  0.83346900  1
  Ni  Ni66  1  0.37518600  0.59157100  0.69899300  1
  Ni  Ni67  1  0.97709800  0.32308400  0.16653100  1
  Ni  Ni68  1  0.89118000  0.61363400  0.64648900  1
  Ni  Ni69  1  0.12481400  0.09157100  0.69899300  1
  Ni  Ni70  1  0.15083500  0.85496800  0.39576100  1
  Ni  Ni71  1  0.90003200  0.36130300  0.88407000  1
  Cu  Cu72  1  0.72567100  0.30784300  0.65926200  1
  Cu  Cu73  1  0.77432900  0.80784300  0.65926200  1
  Cu  Cu74  1  0.47499800  0.68698600  0.84922200  1
  Cu  Cu75  1  0.22567100  0.19215700  0.34073800  1
  Cu  Cu76  1  0.52500200  0.31301400  0.15077800  1
  Cu  Cu77  1  0.27432900  0.69215700  0.34073800  1
  Cu  Cu78  1  0.97499800  0.81301400  0.15077800  1
  Cu  Cu79  1  0.02500200  0.18698600  0.84922200  1
