# generated using pymatgen
data_CuNiC6
_symmetry_space_group_name_H-M   'P 1'
_cell_length_a   8.34918997
_cell_length_b   8.44661607
_cell_length_c   8.34487698
_cell_angle_alpha   111.39966747
_cell_angle_beta   111.41830627
_cell_angle_gamma   105.22050122
_symmetry_Int_Tables_number   1
_chemical_formula_structural   CuNiC6
_chemical_formula_sum   'Cu4 Ni4 C24'
_cell_volume   453.80670415
_cell_formula_units_Z   4
loop_
 _symmetry_equiv_pos_site_id
 _symmetry_equiv_pos_as_xyz
  1  'x, y, z'
loop_
 _atom_site_type_symbol
 _atom_site_label
 _atom_site_symmetry_multiplicity
 _atom_site_fract_x
 _atom_site_fract_y
 _atom_site_fract_z
 _atom_site_occupancy
  C  C0  1  0.99753300  0.49906900  0.49951900  1
  C  C1  1  0.00046200  0.00097400  0.99844100  1
  C  C2  1  0.55213500  0.32069200  0.24714800  1
  C  C3  1  0.92652700  0.17942000  0.73168300  1
  C  C4  1  0.27327600  0.75000400  0.02337600  1
  C  C5  1  0.72821600  0.24999900  0.97815300  1
  C  C6  1  0.07128000  0.82306700  0.26749300  1
  C  C7  1  0.44451600  0.67685900  0.74822000  1
  Ni  Ni8  1  0.77751000  0.51600200  0.75828900  1
  Ni  Ni9  1  0.75784100  0.01356700  0.23692400  1
  Ni  Ni10  1  0.22343500  0.48638300  0.24424100  1
  Ni  Ni11  1  0.24228400  0.98403800  0.76160000  1
  Cu  Cu12  1  0.33528300  0.07258500  0.26703700  1
  Cu  Cu13  1  0.80367300  0.57147700  0.23550400  1
  Cu  Cu14  1  0.19445400  0.42740100  0.76269700  1
  Cu  Cu15  1  0.66404800  0.92853600  0.73220600  1
  C  C16  1  0.21124300  0.96086200  0.56226700  1
  C  C17  1  0.60134300  0.53901100  0.75023500  1
  C  C18  1  0.40170200  0.46476400  0.25837100  1
  C  C19  1  0.79357100  0.03533000  0.43696300  1
  C  C20  1  0.21606000  0.52405700  0.43877500  1
  C  C21  1  0.08437100  0.02233300  0.80313000  1
  C  C22  1  0.78083900  0.47757700  0.56202400  1
  C  C23  1  0.91475600  0.97602100  0.19205300  1
  C  C24  1  0.77077300  0.20504200  0.23637200  1
  C  C25  1  0.03158400  0.29493600  0.06567200  1
  C  C26  1  0.22835600  0.79318300  0.76358700  1
  C  C27  1  0.97017800  0.70683000  0.93527200  1
  C  C28  1  0.55534800  0.84482700  0.06599100  1
  C  C29  1  0.78123800  0.34720500  0.79227400  1
  C  C30  1  0.22128800  0.65512000  0.21033400  1
  C  C31  1  0.44488000  0.15283000  0.93415100  1
