# generated using pymatgen
data_CuNi2
_symmetry_space_group_name_H-M   'P 1'
_cell_length_a   4.04980500
_cell_length_b   5.44186300
_cell_length_c   13.58747400
_cell_angle_alpha   90.00000000
_cell_angle_beta   90.00000000
_cell_angle_gamma   90.00000000
_symmetry_Int_Tables_number   1
_chemical_formula_structural   CuNi2
_chemical_formula_sum   'Cu4 Ni8'
_cell_volume   299.44732817
_cell_formula_units_Z   4
loop_
 _symmetry_equiv_pos_site_id
 _symmetry_equiv_pos_as_xyz
  1  'x, y, z'
loop_
 _atom_site_type_symbol
 _atom_site_label
 _atom_site_symmetry_multiplicity
 _atom_site_fract_x
 _atom_site_fract_y
 _atom_site_fract_z
 _atom_site_occupancy
  Ni  Ni0  1  0.25000000  0.76806800  0.94933000  1
  Ni  Ni1  1  0.25000000  0.73193200  0.44933000  1
  Ni  Ni2  1  0.25000000  0.30022700  0.80777700  1
  Ni  Ni3  1  0.75000000  0.26806800  0.55067000  1
  Ni  Ni4  1  0.75000000  0.23193200  0.05067000  1
  Ni  Ni5  1  0.75000000  0.69977300  0.19222300  1
  Ni  Ni6  1  0.25000000  0.19977300  0.30777700  1
  Ni  Ni7  1  0.75000000  0.80022700  0.69222300  1
  Cu  Cu8  1  0.75000000  0.47973300  0.36564000  1
  Cu  Cu9  1  0.75000000  0.02026700  0.86564000  1
  Cu  Cu10  1  0.25000000  0.97973300  0.13436000  1
  Cu  Cu11  1  0.25000000  0.52026700  0.63436000  1
