# generated using pymatgen
data_Cu2NiC5
_symmetry_space_group_name_H-M   'P 1'
_cell_length_a   7.80919600
_cell_length_b   8.72641800
_cell_length_c   12.09912800
_cell_angle_alpha   90.00000000
_cell_angle_beta   90.00000000
_cell_angle_gamma   90.00000000
_symmetry_Int_Tables_number   1
_chemical_formula_structural   Cu2NiC5
_chemical_formula_sum   'Cu8 Ni4 C20'
_cell_volume   824.51090975
_cell_formula_units_Z   4
loop_
 _symmetry_equiv_pos_site_id
 _symmetry_equiv_pos_as_xyz
  1  'x, y, z'
loop_
 _atom_site_type_symbol
 _atom_site_label
 _atom_site_symmetry_multiplicity
 _atom_site_fract_x
 _atom_site_fract_y
 _atom_site_fract_z
 _atom_site_occupancy
  C  C0  1  0.15833800  0.75000000  0.20511200  1
  C  C1  1  0.65833800  0.25000000  0.29488800  1
  C  C2  1  0.84166200  0.25000000  0.79488800  1
  C  C3  1  0.34166200  0.75000000  0.70511200  1
  C  C4  1  0.45005800  0.75000000  0.99808400  1
  C  C5  1  0.95005800  0.25000000  0.50191600  1
  C  C6  1  0.54994200  0.25000000  0.00191600  1
  C  C7  1  0.04994200  0.75000000  0.49808400  1
  C  C8  1  0.62284600  0.75000000  0.30777300  1
  C  C9  1  0.12284600  0.25000000  0.19222700  1
  C  C10  1  0.37715400  0.25000000  0.69222700  1
  C  C11  1  0.87715400  0.75000000  0.80777300  1
  C  C12  1  0.82406200  0.96138700  0.06575600  1
  C  C13  1  0.32406200  0.03861300  0.43424400  1
  C  C14  1  0.17593800  0.46138700  0.93424400  1
  C  C15  1  0.67593800  0.53861300  0.56575600  1
  C  C16  1  0.17593800  0.03861300  0.93424400  1
  C  C17  1  0.67593800  0.96138700  0.56575600  1
  C  C18  1  0.82406200  0.53861300  0.06575600  1
  C  C19  1  0.32406200  0.46138700  0.43424400  1
  Ni  Ni20  1  0.42872000  0.75000000  0.49003200  1
  Ni  Ni21  1  0.92872000  0.25000000  0.00996800  1
  Ni  Ni22  1  0.57128000  0.25000000  0.50996800  1
  Ni  Ni23  1  0.07128000  0.75000000  0.99003200  1
  Cu  Cu24  1  0.93159500  0.99159800  0.32738000  1
  Cu  Cu25  1  0.43159500  0.00840200  0.17262000  1
  Cu  Cu26  1  0.06840500  0.49159800  0.67262000  1
  Cu  Cu27  1  0.56840500  0.50840200  0.82738000  1
  Cu  Cu28  1  0.06840500  0.00840200  0.67262000  1
  Cu  Cu29  1  0.56840500  0.99159800  0.82738000  1
  Cu  Cu30  1  0.93159500  0.50840200  0.32738000  1
  Cu  Cu31  1  0.43159500  0.49159800  0.17262000  1
