# generated using pymatgen
data_Cu4NiC3
_symmetry_space_group_name_H-M   'P 1'
_cell_length_a   6.43070200
_cell_length_b   6.72931800
_cell_length_c   7.75337300
_cell_angle_alpha   90.00000000
_cell_angle_beta   90.00000000
_cell_angle_gamma   90.00000000
_symmetry_Int_Tables_number   1
_chemical_formula_structural   Cu4NiC3
_chemical_formula_sum   'Cu8 Ni2 C6'
_cell_volume   335.52131410
_cell_formula_units_Z   2
loop_
 _symmetry_equiv_pos_site_id
 _symmetry_equiv_pos_as_xyz
  1  'x, y, z'
loop_
 _atom_site_type_symbol
 _atom_site_label
 _atom_site_symmetry_multiplicity
 _atom_site_fract_x
 _atom_site_fract_y
 _atom_site_fract_z
 _atom_site_occupancy
  C  C0  1  0.00926100  0.82350400  0.25391700  1
  C  C1  1  0.50926100  0.17649600  0.24608300  1
  C  C2  1  0.50926100  0.17649600  0.75391700  1
  C  C3  1  0.00926100  0.82350400  0.74608300  1
  C  C4  1  0.99709000  0.34652700  0.00000000  1
  C  C5  1  0.49709000  0.65347300  0.50000000  1
  Ni  Ni6  1  0.49985800  0.67198700  0.00000000  1
  Ni  Ni7  1  0.99985800  0.32801300  0.50000000  1
  Cu  Cu8  1  0.35825900  0.32059800  0.50000000  1
  Cu  Cu9  1  0.85825900  0.67940200  0.00000000  1
  Cu  Cu10  1  0.87474000  0.64670100  0.50000000  1
  Cu  Cu11  1  0.37474000  0.35329900  0.00000000  1
  Cu  Cu12  1  0.38240500  0.83660300  0.24332200  1
  Cu  Cu13  1  0.88240500  0.16339700  0.25667800  1
  Cu  Cu14  1  0.88240500  0.16339700  0.74332200  1
  Cu  Cu15  1  0.38240500  0.83660300  0.75667800  1
