# generated using pymatgen
data_Cu10NiC4
_symmetry_space_group_name_H-M   'P 1'
_cell_length_a   5.46517900
_cell_length_b   7.59680100
_cell_length_c   14.27334705
_cell_angle_alpha   79.40344051
_cell_angle_beta   90.00000000
_cell_angle_gamma   90.00000000
_symmetry_Int_Tables_number   1
_chemical_formula_structural   Cu10NiC4
_chemical_formula_sum   'Cu20 Ni2 C8'
_cell_volume   582.49311975
_cell_formula_units_Z   2
loop_
 _symmetry_equiv_pos_site_id
 _symmetry_equiv_pos_as_xyz
  1  'x, y, z'
loop_
 _atom_site_type_symbol
 _atom_site_label
 _atom_site_symmetry_multiplicity
 _atom_site_fract_x
 _atom_site_fract_y
 _atom_site_fract_z
 _atom_site_occupancy
  C  C0  1  0.40951000  0.23456800  0.59279800  1
  C  C1  1  0.59049000  0.23456800  0.09279800  1
  C  C2  1  0.59049000  0.76543200  0.40720200  1
  C  C3  1  0.40951000  0.76543200  0.90720200  1
  C  C4  1  0.01680400  0.29377100  0.33350700  1
  C  C5  1  0.98319600  0.29377100  0.83350700  1
  C  C6  1  0.01680400  0.70622900  0.16649300  1
  C  C7  1  0.98319600  0.70622900  0.66649300  1
  Ni  Ni8  1  0.12981900  0.50000000  0.75000000  1
  Ni  Ni9  1  0.87018100  0.50000000  0.25000000  1
  Cu  Cu10  1  0.73169300  0.84793300  0.18346500  1
  Cu  Cu11  1  0.69312300  0.58044500  0.63814300  1
  Cu  Cu12  1  0.16600500  0.78967500  0.27278200  1
  Cu  Cu13  1  0.84877800  0.08629600  0.91648700  1
  Cu  Cu14  1  0.30687700  0.41955500  0.36185700  1
  Cu  Cu15  1  0.15122200  0.91370400  0.08351300  1
  Cu  Cu16  1  0.16600500  0.21032500  0.22721800  1
  Cu  Cu17  1  0.26830700  0.84793300  0.68346500  1
  Cu  Cu18  1  0.83399500  0.21032500  0.72721800  1
  Cu  Cu19  1  0.69312300  0.41955500  0.86185700  1
  Cu  Cu20  1  0.15122200  0.08629600  0.41648700  1
  Cu  Cu21  1  0.13935600  0.35909500  0.94425700  1
  Cu  Cu22  1  0.26830700  0.15206700  0.81653500  1
  Cu  Cu23  1  0.86064400  0.64090500  0.05574300  1
  Cu  Cu24  1  0.83399500  0.78967500  0.77278200  1
  Cu  Cu25  1  0.73169300  0.15206700  0.31653500  1
  Cu  Cu26  1  0.84877800  0.91370400  0.58351300  1
  Cu  Cu27  1  0.86064400  0.35909500  0.44425700  1
  Cu  Cu28  1  0.30687700  0.58044500  0.13814300  1
  Cu  Cu29  1  0.13935600  0.64090500  0.55574300  1
