# generated using pymatgen
data_Cu2(NiC2)3
_symmetry_space_group_name_H-M   'P 1'
_cell_length_a   13.63915494
_cell_length_b   13.63915494
_cell_length_c   13.63915545
_cell_angle_alpha   13.79483858
_cell_angle_beta   13.79483858
_cell_angle_gamma   13.79483796
_symmetry_Int_Tables_number   1
_chemical_formula_structural   Cu2(NiC2)3
_chemical_formula_sum   'Cu2 Ni3 C6'
_cell_volume   125.53526966
_cell_formula_units_Z   1
loop_
 _symmetry_equiv_pos_site_id
 _symmetry_equiv_pos_as_xyz
  1  'x, y, z'
loop_
 _atom_site_type_symbol
 _atom_site_label
 _atom_site_symmetry_multiplicity
 _atom_site_fract_x
 _atom_site_fract_y
 _atom_site_fract_z
 _atom_site_occupancy
  C  C0  1  0.30836900  0.30836900  0.30836900  1
  C  C1  1  0.91241900  0.91241900  0.91241900  1
  C  C2  1  0.18911400  0.18911400  0.18911400  1
  C  C3  1  0.81088600  0.81088600  0.81088600  1
  C  C4  1  0.08758100  0.08758100  0.08758100  1
  C  C5  1  0.69163100  0.69163100  0.69163100  1
  Ni  Ni6  1  0.00000000  0.00000000  0.00000000  1
  Ni  Ni7  1  0.13457900  0.13457900  0.13457900  1
  Ni  Ni8  1  0.86542100  0.86542100  0.86542100  1
  Cu  Cu9  1  0.73608200  0.73608200  0.73608200  1
  Cu  Cu10  1  0.26391800  0.26391800  0.26391800  1
