# generated using pymatgen
data_Cu3NiC3
_symmetry_space_group_name_H-M   'P 1'
_cell_length_a   6.20235200
_cell_length_b   8.18923200
_cell_length_c   10.15187700
_cell_angle_alpha   90.00000000
_cell_angle_beta   90.00000000
_cell_angle_gamma   90.00000000
_symmetry_Int_Tables_number   1
_chemical_formula_structural   Cu3NiC3
_chemical_formula_sum   'Cu12 Ni4 C12'
_cell_volume   515.63920718
_cell_formula_units_Z   4
loop_
 _symmetry_equiv_pos_site_id
 _symmetry_equiv_pos_as_xyz
  1  'x, y, z'
loop_
 _atom_site_type_symbol
 _atom_site_label
 _atom_site_symmetry_multiplicity
 _atom_site_fract_x
 _atom_site_fract_y
 _atom_site_fract_z
 _atom_site_occupancy
  C  C0  1  0.60621400  0.66854300  0.99067200  1
  C  C1  1  0.10621400  0.83145700  0.00932800  1
  C  C2  1  0.89378600  0.16854300  0.50932800  1
  C  C3  1  0.39378600  0.33145700  0.49067200  1
  C  C4  1  0.39378600  0.33145700  0.00932800  1
  C  C5  1  0.89378600  0.16854300  0.99067200  1
  C  C6  1  0.10621400  0.83145700  0.49067200  1
  C  C7  1  0.60621400  0.66854300  0.50932800  1
  C  C8  1  0.54690100  0.99532700  0.75000000  1
  C  C9  1  0.04690100  0.50467300  0.25000000  1
  C  C10  1  0.95309900  0.49532700  0.75000000  1
  C  C11  1  0.45309900  0.00467300  0.25000000  1
  Ni  Ni12  1  0.88316300  0.87960400  0.25000000  1
  Ni  Ni13  1  0.38316300  0.62039600  0.75000000  1
  Ni  Ni14  1  0.61683700  0.37960400  0.25000000  1
  Ni  Ni15  1  0.11683700  0.12039600  0.75000000  1
  Cu  Cu16  1  0.74299800  0.91999000  0.09425200  1
  Cu  Cu17  1  0.24299800  0.58001000  0.90574800  1
  Cu  Cu18  1  0.75700200  0.41999000  0.40574800  1
  Cu  Cu19  1  0.25700200  0.08001000  0.59425200  1
  Cu  Cu20  1  0.25700200  0.08001000  0.90574800  1
  Cu  Cu21  1  0.75700200  0.41999000  0.09425200  1
  Cu  Cu22  1  0.24299800  0.58001000  0.59425200  1
  Cu  Cu23  1  0.74299800  0.91999000  0.40574800  1
  Cu  Cu24  1  0.84164000  0.20251500  0.75000000  1
  Cu  Cu25  1  0.34164000  0.29748500  0.25000000  1
  Cu  Cu26  1  0.65836000  0.70251500  0.75000000  1
  Cu  Cu27  1  0.15836000  0.79748500  0.25000000  1
