# generated using pymatgen
data_CuNiC3
_symmetry_space_group_name_H-M   'P 1'
_cell_length_a   4.94901208
_cell_length_b   4.94901208
_cell_length_c   19.87659400
_cell_angle_alpha   90.00000000
_cell_angle_beta   90.00000000
_cell_angle_gamma   105.99877706
_symmetry_Int_Tables_number   1
_chemical_formula_structural   CuNiC3
_chemical_formula_sum   'Cu4 Ni4 C12'
_cell_volume   467.97568586
_cell_formula_units_Z   4
loop_
 _symmetry_equiv_pos_site_id
 _symmetry_equiv_pos_as_xyz
  1  'x, y, z'
loop_
 _atom_site_type_symbol
 _atom_site_label
 _atom_site_symmetry_multiplicity
 _atom_site_fract_x
 _atom_site_fract_y
 _atom_site_fract_z
 _atom_site_occupancy
  Ni  Ni0  1  0.81234400  0.81234400  0.40732800  1
  Ni  Ni1  1  0.18765600  0.18765600  0.59267200  1
  Ni  Ni2  1  0.31234400  0.31234400  0.09267200  1
  Ni  Ni3  1  0.68765600  0.68765600  0.90732800  1
  Cu  Cu4  1  0.10761600  0.10761600  0.18327300  1
  Cu  Cu5  1  0.39238400  0.39238400  0.68327300  1
  Cu  Cu6  1  0.60761600  0.60761500  0.31672700  1
  Cu  Cu7  1  0.89238500  0.89238400  0.81672700  1
  C  C8  1  0.09249600  0.36948200  0.55515900  1
  C  C9  1  0.86948200  0.59249600  0.94484100  1
  C  C10  1  0.46668100  0.46668100  0.89148200  1
  C  C11  1  0.03331900  0.03331900  0.39148200  1
  C  C12  1  0.59249600  0.86948200  0.94484100  1
  C  C13  1  0.63051800  0.90750400  0.44484100  1
  C  C14  1  0.96668100  0.96668100  0.60851800  1
  C  C15  1  0.53331900  0.53331900  0.10851800  1
  C  C16  1  0.40750400  0.13051800  0.05515900  1
  C  C17  1  0.13051800  0.40750400  0.05515900  1
  C  C18  1  0.36948200  0.09249600  0.55515900  1
  C  C19  1  0.90750400  0.63051800  0.44484100  1
