# generated using pymatgen
data_Cu3Ni2C3
_symmetry_space_group_name_H-M   'P 1'
_cell_length_a   7.83107900
_cell_length_b   10.42750100
_cell_length_c   15.73808700
_cell_angle_alpha   90.00000000
_cell_angle_beta   90.00000000
_cell_angle_gamma   90.00000000
_symmetry_Int_Tables_number   1
_chemical_formula_structural   Cu3Ni2C3
_chemical_formula_sum   'Cu24 Ni16 C24'
_cell_volume   1285.14990092
_cell_formula_units_Z   8
loop_
 _symmetry_equiv_pos_site_id
 _symmetry_equiv_pos_as_xyz
  1  'x, y, z'
loop_
 _atom_site_type_symbol
 _atom_site_label
 _atom_site_symmetry_multiplicity
 _atom_site_fract_x
 _atom_site_fract_y
 _atom_site_fract_z
 _atom_site_occupancy
  C  C0  1  0.39563700  0.22170200  0.53650200  1
  C  C1  1  0.35126300  0.49167800  0.38918500  1
  C  C2  1  0.89563700  0.27829800  0.53650200  1
  C  C3  1  0.85126300  0.49167800  0.11081500  1
  C  C4  1  0.60436300  0.72170200  0.03650200  1
  C  C5  1  0.14873700  0.50832200  0.88918500  1
  C  C6  1  0.64873700  0.99167800  0.88918500  1
  C  C7  1  0.35126300  0.00832200  0.11081500  1
  C  C8  1  0.89563700  0.22170200  0.96349800  1
  C  C9  1  0.10436300  0.72170200  0.46349800  1
  C  C10  1  0.85126300  0.00832200  0.38918500  1
  C  C11  1  0.14873700  0.99167800  0.61081500  1
  C  C12  1  0.60436300  0.77829800  0.46349800  1
  C  C13  1  0.64873700  0.50832200  0.61081500  1
  C  C14  1  0.10436300  0.77829800  0.03650200  1
  C  C15  1  0.39563700  0.27829800  0.96349800  1
  C  C16  1  0.22311700  0.46489500  0.59143800  1
  C  C17  1  0.77688300  0.96489500  0.09143800  1
  C  C18  1  0.72311700  0.03510500  0.59143800  1
  C  C19  1  0.77688300  0.53510500  0.40856200  1
  C  C20  1  0.27688300  0.53510500  0.09143800  1
  C  C21  1  0.72311700  0.46489500  0.90856200  1
  C  C22  1  0.27688300  0.96489500  0.40856200  1
  C  C23  1  0.22311700  0.03510500  0.90856200  1
  Ni  Ni24  1  0.33216800  0.40704500  0.80522600  1
  Ni  Ni25  1  0.92927600  0.28401200  0.11365400  1
  Ni  Ni26  1  0.16783200  0.59295500  0.30522600  1
  Ni  Ni27  1  0.16783200  0.90704500  0.19477400  1
  Ni  Ni28  1  0.42927600  0.21598800  0.11365400  1
  Ni  Ni29  1  0.57072400  0.78401200  0.88634600  1
  Ni  Ni30  1  0.66783200  0.59295500  0.19477400  1
  Ni  Ni31  1  0.42927600  0.28401200  0.38634600  1
  Ni  Ni32  1  0.66783200  0.90704500  0.30522600  1
  Ni  Ni33  1  0.92927600  0.21598800  0.38634600  1
  Ni  Ni34  1  0.57072400  0.71598800  0.61365400  1
  Ni  Ni35  1  0.07072400  0.71598800  0.88634600  1
  Ni  Ni36  1  0.07072400  0.78401200  0.61365400  1
  Ni  Ni37  1  0.33216800  0.09295500  0.69477400  1
  Ni  Ni38  1  0.83216800  0.40704500  0.69477400  1
  Ni  Ni39  1  0.83216800  0.09295500  0.80522600  1
  Cu  Cu40  1  0.64693600  0.31648700  0.94084000  1
  Cu  Cu41  1  0.85306400  0.68351300  0.44084000  1
  Cu  Cu42  1  0.78505800  0.04847400  0.99465500  1
  Cu  Cu43  1  0.06768800  0.90818900  0.41130400  1
  Cu  Cu44  1  0.28505800  0.45152600  0.99465500  1
  Cu  Cu45  1  0.78505800  0.45152600  0.50534500  1
  Cu  Cu46  1  0.06768800  0.59181100  0.08869600  1
  Cu  Cu47  1  0.21494200  0.54847400  0.49465500  1
  Cu  Cu48  1  0.35306400  0.68351300  0.05916000  1
  Cu  Cu49  1  0.85306400  0.81648700  0.05916000  1
  Cu  Cu50  1  0.28505800  0.04847400  0.50534500  1
  Cu  Cu51  1  0.71494200  0.54847400  0.00534500  1
  Cu  Cu52  1  0.14693600  0.18351300  0.94084000  1
  Cu  Cu53  1  0.43231200  0.40818900  0.58869600  1
  Cu  Cu54  1  0.21494200  0.95152600  0.00534500  1
  Cu  Cu55  1  0.93231200  0.40818900  0.91130400  1
  Cu  Cu56  1  0.56768800  0.59181100  0.41130400  1
  Cu  Cu57  1  0.71494200  0.95152600  0.49465500  1
  Cu  Cu58  1  0.93231200  0.09181100  0.58869600  1
  Cu  Cu59  1  0.43231200  0.09181100  0.91130400  1
  Cu  Cu60  1  0.64693600  0.18351300  0.55916000  1
  Cu  Cu61  1  0.14693600  0.31648700  0.55916000  1
  Cu  Cu62  1  0.35306400  0.81648700  0.44084000  1
  Cu  Cu63  1  0.56768800  0.90818900  0.08869600  1
