# generated using pymatgen
data_Cu4NiC
_symmetry_space_group_name_H-M   'P 1'
_cell_length_a   10.24871200
_cell_length_b   5.90337500
_cell_length_c   12.95598407
_cell_angle_alpha   77.45283771
_cell_angle_beta   90.00000000
_cell_angle_gamma   90.00000000
_symmetry_Int_Tables_number   1
_chemical_formula_structural   Cu4NiC
_chemical_formula_sum   'Cu32 Ni8 C8'
_cell_volume   765.14223073
_cell_formula_units_Z   8
loop_
 _symmetry_equiv_pos_site_id
 _symmetry_equiv_pos_as_xyz
  1  'x, y, z'
loop_
 _atom_site_type_symbol
 _atom_site_label
 _atom_site_symmetry_multiplicity
 _atom_site_fract_x
 _atom_site_fract_y
 _atom_site_fract_z
 _atom_site_occupancy
  C  C0  1  0.74847800  0.49773800  0.49063100  1
  C  C1  1  0.24847800  0.50226200  0.00936900  1
  C  C2  1  0.75152200  0.49773800  0.99063100  1
  C  C3  1  0.25152200  0.50226200  0.50936900  1
  C  C4  1  0.99109800  0.22663500  0.68136200  1
  C  C5  1  0.00890200  0.77336500  0.31863800  1
  C  C6  1  0.49109800  0.77336500  0.81863800  1
  C  C7  1  0.50890200  0.22663500  0.18136200  1
  Ni  Ni8  1  0.58491600  0.70053200  0.94230900  1
  Ni  Ni9  1  0.91508400  0.70053200  0.44230900  1
  Ni  Ni10  1  0.15359800  0.59460700  0.36456700  1
  Ni  Ni11  1  0.34640200  0.59460700  0.86456700  1
  Ni  Ni12  1  0.08491600  0.29946800  0.55769100  1
  Ni  Ni13  1  0.41508400  0.29946800  0.05769100  1
  Ni  Ni14  1  0.65359800  0.40539300  0.13543300  1
  Ni  Ni15  1  0.84640200  0.40539300  0.63543300  1
  Cu  Cu16  1  0.17198500  0.38990700  0.14373000  1
  Cu  Cu17  1  0.90589700  0.12883600  0.80989400  1
  Cu  Cu18  1  0.33230000  0.75250300  0.05338200  1
  Cu  Cu19  1  0.60593000  0.31108600  0.54943200  1
  Cu  Cu20  1  0.06215500  0.46023200  0.73980600  1
  Cu  Cu21  1  0.87451000  0.96281000  0.25247800  1
  Cu  Cu22  1  0.89407000  0.31108600  0.04943200  1
  Cu  Cu23  1  0.16770000  0.75250300  0.55338200  1
  Cu  Cu24  1  0.62549000  0.96281000  0.75247800  1
  Cu  Cu25  1  0.57520300  0.96229000  0.14428900  1
  Cu  Cu26  1  0.59410300  0.12883600  0.30989400  1
  Cu  Cu27  1  0.43784500  0.46023200  0.23980600  1
  Cu  Cu28  1  0.30632500  0.24763700  0.45319600  1
  Cu  Cu29  1  0.56215500  0.53976800  0.76019400  1
  Cu  Cu30  1  0.39407000  0.68891400  0.45056800  1
  Cu  Cu31  1  0.69367500  0.75236300  0.54680400  1
  Cu  Cu32  1  0.82801500  0.61009300  0.85627000  1
  Cu  Cu33  1  0.93784500  0.53976800  0.26019400  1
  Cu  Cu34  1  0.66770000  0.24749700  0.94661800  1
  Cu  Cu35  1  0.83230000  0.24749700  0.44661800  1
  Cu  Cu36  1  0.19367500  0.24763700  0.95319600  1
  Cu  Cu37  1  0.80632500  0.75236300  0.04680400  1
  Cu  Cu38  1  0.92479700  0.96229000  0.64428900  1
  Cu  Cu39  1  0.07520300  0.03771000  0.35571100  1
  Cu  Cu40  1  0.09410300  0.87116400  0.19010600  1
  Cu  Cu41  1  0.32801500  0.38990700  0.64373000  1
  Cu  Cu42  1  0.42479700  0.03771000  0.85571100  1
  Cu  Cu43  1  0.40589700  0.87116400  0.69010600  1
  Cu  Cu44  1  0.37451000  0.03719000  0.24752200  1
  Cu  Cu45  1  0.12549000  0.03719000  0.74752200  1
  Cu  Cu46  1  0.67198500  0.61009300  0.35627000  1
  Cu  Cu47  1  0.10593000  0.68891400  0.95056800  1
