# generated using pymatgen
data_Cu7(NiC)9
_symmetry_space_group_name_H-M   'P 1'
_cell_length_a   8.75656300
_cell_length_b   9.12669200
_cell_length_c   20.29097400
_cell_angle_alpha   90.00000000
_cell_angle_beta   90.00000000
_cell_angle_gamma   90.00000000
_symmetry_Int_Tables_number   1
_chemical_formula_structural   Cu7(NiC)9
_chemical_formula_sum   'Cu28 Ni36 C36'
_cell_volume   1621.62326167
_cell_formula_units_Z   4
loop_
 _symmetry_equiv_pos_site_id
 _symmetry_equiv_pos_as_xyz
  1  'x, y, z'
loop_
 _atom_site_type_symbol
 _atom_site_label
 _atom_site_symmetry_multiplicity
 _atom_site_fract_x
 _atom_site_fract_y
 _atom_site_fract_z
 _atom_site_occupancy
  C  C0  1  0.67667900  0.66468200  0.99662400  1
  C  C1  1  0.81244600  0.16883400  0.67850000  1
  C  C2  1  0.82332100  0.83531800  0.49662400  1
  C  C3  1  0.17667900  0.83531800  0.00337600  1
  C  C4  1  0.32332100  0.66468200  0.50337600  1
  C  C5  1  0.31244600  0.33116600  0.32150000  1
  C  C6  1  0.82332100  0.16468200  0.99662400  1
  C  C7  1  0.31244600  0.66883400  0.82150000  1
  C  C8  1  0.81244600  0.83116600  0.17850000  1
  C  C9  1  0.18755400  0.16883400  0.82150000  1
  C  C10  1  0.18755400  0.83116600  0.32150000  1
  C  C11  1  0.68755400  0.66883400  0.67850000  1
  C  C12  1  0.68755400  0.33116600  0.17850000  1
  C  C13  1  0.17667900  0.16468200  0.50337600  1
  C  C14  1  0.32332100  0.33531800  0.00337600  1
  C  C15  1  0.67667900  0.33531800  0.49662400  1
  C  C16  1  0.38666100  0.37981700  0.65364900  1
  C  C17  1  0.11333900  0.87981700  0.65364900  1
  C  C18  1  0.61333900  0.37981700  0.84635100  1
  C  C19  1  0.61333900  0.62018300  0.34635100  1
  C  C20  1  0.38666100  0.62018300  0.15364900  1
  C  C21  1  0.88666100  0.12018300  0.34635100  1
  C  C22  1  0.88666100  0.87981700  0.84635100  1
  C  C23  1  0.11333900  0.12018300  0.15364900  1
  C  C24  1  0.47015300  0.98608500  0.91754900  1
  C  C25  1  0.47015300  0.01391500  0.41754900  1
  C  C26  1  0.97015300  0.51391500  0.08245100  1
  C  C27  1  0.00000000  0.50990800  0.75000000  1
  C  C28  1  0.02984700  0.51391500  0.41754900  1
  C  C29  1  0.50000000  0.99009200  0.25000000  1
  C  C30  1  0.02984700  0.48608500  0.91754900  1
  C  C31  1  0.52984700  0.01391500  0.08245100  1
  C  C32  1  0.50000000  0.00990800  0.75000000  1
  C  C33  1  0.52984700  0.98608500  0.58245100  1
  C  C34  1  0.97015300  0.48608500  0.58245100  1
  C  C35  1  0.00000000  0.49009200  0.25000000  1
  Ni  Ni36  1  0.03477100  0.65183100  0.42475900  1
  Ni  Ni37  1  0.37843300  0.94144500  0.76396600  1
  Ni  Ni38  1  0.08848200  0.54655500  0.60651900  1
  Ni  Ni39  1  0.00000000  0.64953500  0.75000000  1
  Ni  Ni40  1  0.58848200  0.04655500  0.89348100  1
  Ni  Ni41  1  0.53477100  0.15183100  0.07524100  1
  Ni  Ni42  1  0.87843300  0.44144500  0.73603400  1
  Ni  Ni43  1  0.35608200  0.06342000  0.93447000  1
  Ni  Ni44  1  0.85608200  0.56342000  0.56553000  1
  Ni  Ni45  1  0.91151800  0.45344500  0.39348100  1
  Ni  Ni46  1  0.96522900  0.34816900  0.57524100  1
  Ni  Ni47  1  0.12156700  0.55855500  0.26396600  1
  Ni  Ni48  1  0.08848200  0.45344500  0.10651900  1
  Ni  Ni49  1  0.64391800  0.06342000  0.56553000  1
  Ni  Ni50  1  0.14391800  0.56342000  0.93447000  1
  Ni  Ni51  1  0.12156700  0.44144500  0.76396600  1
  Ni  Ni52  1  0.96522900  0.65183100  0.07524100  1
  Ni  Ni53  1  0.53477100  0.84816900  0.57524100  1
  Ni  Ni54  1  0.37843300  0.05855500  0.26396600  1
  Ni  Ni55  1  0.62156700  0.05855500  0.23603400  1
  Ni  Ni56  1  0.87843300  0.55855500  0.23603400  1
  Ni  Ni57  1  0.91151800  0.54655500  0.89348100  1
  Ni  Ni58  1  0.46522900  0.15183100  0.42475900  1
  Ni  Ni59  1  0.50000000  0.85046500  0.25000000  1
  Ni  Ni60  1  0.85608200  0.43658000  0.06553000  1
  Ni  Ni61  1  0.41151800  0.95344500  0.10651900  1
  Ni  Ni62  1  0.03477100  0.34816900  0.92475900  1
  Ni  Ni63  1  0.64391800  0.93658000  0.06553000  1
  Ni  Ni64  1  0.50000000  0.14953500  0.75000000  1
  Ni  Ni65  1  0.58848200  0.95344500  0.39348100  1
  Ni  Ni66  1  0.35608200  0.93658000  0.43447000  1
  Ni  Ni67  1  0.62156700  0.94144500  0.73603400  1
  Ni  Ni68  1  0.14391800  0.43658000  0.43447000  1
  Ni  Ni69  1  0.00000000  0.35046500  0.25000000  1
  Ni  Ni70  1  0.46522900  0.84816900  0.92475900  1
  Ni  Ni71  1  0.41151800  0.04655500  0.60651900  1
  Cu  Cu72  1  0.89619700  0.09442400  0.85713200  1
  Cu  Cu73  1  0.37333200  0.37702700  0.55374200  1
  Cu  Cu74  1  0.37333200  0.62297300  0.05374200  1
  Cu  Cu75  1  0.89619700  0.90557600  0.35713200  1
  Cu  Cu76  1  0.00000000  0.04119900  0.25000000  1
  Cu  Cu77  1  0.39247400  0.62992100  0.36575800  1
  Cu  Cu78  1  0.87333200  0.87702700  0.94625800  1
  Cu  Cu79  1  0.00000000  0.95880100  0.75000000  1
  Cu  Cu80  1  0.10752600  0.12992100  0.36575800  1
  Cu  Cu81  1  0.62666800  0.62297300  0.44625800  1
  Cu  Cu82  1  0.39619700  0.59442400  0.64286800  1
  Cu  Cu83  1  0.62666800  0.37702700  0.94625800  1
  Cu  Cu84  1  0.60380300  0.59442400  0.85713200  1
  Cu  Cu85  1  0.89247400  0.12992100  0.13424200  1
  Cu  Cu86  1  0.39247400  0.37007900  0.86575800  1
  Cu  Cu87  1  0.87333200  0.12297300  0.44625800  1
  Cu  Cu88  1  0.39619700  0.40557600  0.14286800  1
  Cu  Cu89  1  0.10752600  0.87007900  0.86575800  1
  Cu  Cu90  1  0.60752600  0.37007900  0.63424200  1
  Cu  Cu91  1  0.89247400  0.87007900  0.63424200  1
  Cu  Cu92  1  0.10380300  0.09442400  0.64286800  1
  Cu  Cu93  1  0.60752600  0.62992100  0.13424200  1
  Cu  Cu94  1  0.12666800  0.12297300  0.05374200  1
  Cu  Cu95  1  0.10380300  0.90557600  0.14286800  1
  Cu  Cu96  1  0.50000000  0.45880100  0.75000000  1
  Cu  Cu97  1  0.50000000  0.54119900  0.25000000  1
  Cu  Cu98  1  0.60380300  0.40557600  0.35713200  1
  Cu  Cu99  1  0.12666800  0.87702700  0.55374200  1
