# generated using pymatgen
data_Cu4NiC4
_symmetry_space_group_name_H-M   'P 1'
_cell_length_a   4.86460968
_cell_length_b   4.86460968
_cell_length_c   4.86460936
_cell_angle_alpha   91.57521539
_cell_angle_beta   91.57521539
_cell_angle_gamma   91.57522618
_symmetry_Int_Tables_number   1
_chemical_formula_structural   Cu4NiC4
_chemical_formula_sum   'Cu4 Ni1 C4'
_cell_volume   114.98524120
_cell_formula_units_Z   1
loop_
 _symmetry_equiv_pos_site_id
 _symmetry_equiv_pos_as_xyz
  1  'x, y, z'
loop_
 _atom_site_type_symbol
 _atom_site_label
 _atom_site_symmetry_multiplicity
 _atom_site_fract_x
 _atom_site_fract_y
 _atom_site_fract_z
 _atom_site_occupancy
  C  C0  1  0.52868500  0.98892500  0.54632800  1
  C  C1  1  0.54632800  0.52868500  0.98892500  1
  C  C2  1  0.19689100  0.19689100  0.19689100  1
  C  C3  1  0.98892500  0.54632800  0.52868500  1
  Ni  Ni4  1  0.90941300  0.90941300  0.90941300  1
  Cu  Cu5  1  0.69419800  0.01688700  0.02173900  1
  Cu  Cu6  1  0.02173900  0.69419800  0.01688700  1
  Cu  Cu7  1  0.01688700  0.02173900  0.69419800  1
  Cu  Cu8  1  0.47888500  0.47888500  0.47888500  1
