# generated using pymatgen
data_CuNiC23
_symmetry_space_group_name_H-M   'P 1'
_cell_length_a   6.92554600
_cell_length_b   9.24567790
_cell_length_c   9.73834190
_cell_angle_alpha   71.20592545
_cell_angle_beta   73.82591330
_cell_angle_gamma   82.44744336
_symmetry_Int_Tables_number   1
_chemical_formula_structural   CuNiC23
_chemical_formula_sum   'Cu2 Ni2 C46'
_cell_volume   566.35164407
_cell_formula_units_Z   2
loop_
 _symmetry_equiv_pos_site_id
 _symmetry_equiv_pos_as_xyz
  1  'x, y, z'
loop_
 _atom_site_type_symbol
 _atom_site_label
 _atom_site_symmetry_multiplicity
 _atom_site_fract_x
 _atom_site_fract_y
 _atom_site_fract_z
 _atom_site_occupancy
  C  C0  1  0.63345400  0.46157900  0.37983500  1
  C  C1  1  0.36654600  0.53842100  0.62016500  1
  C  C2  1  0.46824000  0.77507000  0.98592000  1
  C  C3  1  0.29639600  0.01215400  0.40158000  1
  C  C4  1  0.68034100  0.57009900  0.79356300  1
  C  C5  1  0.59714300  0.24310300  0.17376700  1
  C  C6  1  0.92996100  0.61835400  0.77685800  1
  C  C7  1  0.28278400  0.76062200  0.26920000  1
  C  C8  1  0.18843300  0.17239300  0.03494800  1
  C  C9  1  0.00727700  0.13735200  0.21333700  1
  C  C10  1  0.09990400  0.15719200  0.42990900  1
  C  C11  1  0.70360400  0.98784600  0.59842000  1
  C  C12  1  0.31965900  0.42990100  0.20643700  1
  C  C13  1  0.35524600  0.19029800  0.41405800  1
  C  C14  1  0.45078700  0.94291900  0.83046000  1
  C  C15  1  0.90009600  0.84280800  0.57009100  1
  C  C16  1  0.53176000  0.22493000  0.01408000  1
  C  C17  1  0.81156700  0.82760700  0.96505200  1
  C  C18  1  0.99272300  0.86264800  0.78666300  1
  C  C19  1  0.40285700  0.75689700  0.82623300  1
  C  C20  1  0.71721600  0.23937800  0.73080000  1
  C  C21  1  0.25416700  0.41174000  0.04600400  1
  C  C22  1  0.07003900  0.38164600  0.22314200  1
  C  C23  1  0.54921300  0.05708100  0.16954000  1
  C  C24  1  0.78851500  0.00057100  0.81544200  1
  C  C25  1  0.39494400  0.32127500  0.79556700  1
  C  C26  1  0.74583300  0.58826000  0.95399600  1
  C  C27  1  0.64475400  0.80970200  0.58594200  1
  C  C28  1  0.21148500  0.99942900  0.18455800  1
  C  C29  1  0.60505600  0.67872500  0.20443300  1
  C  C30  1  0.74230300  0.86487400  0.62350800  1
  C  C31  1  0.83494100  0.87916700  0.84374400  1
  C  C32  1  0.77055100  0.63064200  0.83167700  1
  C  C33  1  0.25769700  0.13512600  0.37649200  1
  C  C34  1  0.50972400  0.17999000  0.13579800  1
  C  C35  1  0.16505900  0.12083300  0.15625600  1
  C  C36  1  0.49027600  0.82001000  0.86420200  1
  C  C37  1  0.22944900  0.36935800  0.16832300  1
  Ni  Ni38  1  0.29076100  0.20195600  0.20954500  1
  Ni  Ni39  1  0.70923900  0.79804400  0.79045500  1
  Cu  Cu40  1  0.32317600  0.42330600  0.79862500  1
  Cu  Cu41  1  0.67682400  0.57669400  0.20137500  1
  C  C42  1  0.14198200  0.72467300  0.28026000  1
  C  C43  1  0.85801800  0.27532700  0.71974000  1
  C  C44  1  0.73469900  0.28374700  0.40025700  1
  C  C45  1  0.53889400  0.19060700  0.75078100  1
  C  C46  1  0.26530100  0.71625300  0.59974300  1
  C  C47  1  0.46110600  0.80939300  0.24921900  1
  C  C48  1  0.36473500  0.45161600  0.47853500  1
  C  C49  1  0.63526500  0.54838400  0.52146500  1
