# generated using pymatgen
data_Cu5(NiC3)3
_symmetry_space_group_name_H-M   'P 1'
_cell_length_a   11.31061200
_cell_length_b   6.14122300
_cell_length_c   8.82133486
_cell_angle_alpha   69.87754258
_cell_angle_beta   90.00000000
_cell_angle_gamma   90.00000000
_symmetry_Int_Tables_number   1
_chemical_formula_structural   Cu5(NiC3)3
_chemical_formula_sum   'Cu20 Ni12 C36'
_cell_volume   575.33677163
_cell_formula_units_Z   4
loop_
 _symmetry_equiv_pos_site_id
 _symmetry_equiv_pos_as_xyz
  1  'x, y, z'
loop_
 _atom_site_type_symbol
 _atom_site_label
 _atom_site_symmetry_multiplicity
 _atom_site_fract_x
 _atom_site_fract_y
 _atom_site_fract_z
 _atom_site_occupancy
  C  C0  1  0.70580300  0.74050800  0.11363800  1
  C  C1  1  0.28777200  0.25701100  0.38404000  1
  C  C2  1  0.78777200  0.74298900  0.61596000  1
  C  C3  1  0.20580300  0.25949200  0.88636200  1
  Ni  Ni4  1  0.17185500  0.83407900  0.28759500  1
  Ni  Ni5  1  0.21486700  0.68377500  0.58292800  1
  Ni  Ni6  1  0.71486700  0.31622500  0.41707200  1
  Ni  Ni7  1  0.83134500  0.16454100  0.21199100  1
  Ni  Ni8  1  0.67185500  0.16592100  0.71240500  1
  Ni  Ni9  1  0.05023600  0.50315300  0.47076900  1
  Ni  Ni10  1  0.55023600  0.49684700  0.52923100  1
  Ni  Ni11  1  0.95100700  0.49864400  0.03080400  1
  Ni  Ni12  1  0.79366500  0.31356800  0.91560700  1
  Ni  Ni13  1  0.33134500  0.83545900  0.78800900  1
  Ni  Ni14  1  0.45100700  0.50135600  0.96919600  1
  Ni  Ni15  1  0.29366500  0.68643200  0.08439300  1
  Cu  Cu16  1  0.08137600  0.13378600  0.17147900  1
  Cu  Cu17  1  0.98202100  0.95738500  0.95719700  1
  Cu  Cu18  1  0.60229700  0.32523500  0.07307400  1
  Cu  Cu19  1  0.02189900  0.03987300  0.54374800  1
  Cu  Cu20  1  0.52410300  0.69956300  0.67307600  1
  Cu  Cu21  1  0.91756800  0.86258000  0.33056700  1
  Cu  Cu22  1  0.58137600  0.86621400  0.82852100  1
  Cu  Cu23  1  0.41756800  0.13742000  0.66943300  1
  Cu  Cu24  1  0.97321800  0.69575500  0.17743100  1
  Cu  Cu25  1  0.50896800  0.97939000  0.22411900  1
  Cu  Cu26  1  0.02954400  0.76794400  0.65441800  1
  Cu  Cu27  1  0.47321800  0.30424500  0.82256900  1
  Cu  Cu28  1  0.52189900  0.96012700  0.45625200  1
  Cu  Cu29  1  0.52954400  0.23205600  0.34558200  1
  Cu  Cu30  1  0.10229700  0.67476500  0.92692600  1
  Cu  Cu31  1  0.48202100  0.04261500  0.04280300  1
  Cu  Cu32  1  0.41115300  0.65558200  0.38140900  1
  Cu  Cu33  1  0.00896800  0.02061000  0.77588100  1
  Cu  Cu34  1  0.91115300  0.34441800  0.61859100  1
  Cu  Cu35  1  0.02410300  0.30043700  0.32692400  1
  C  C36  1  0.92254500  0.69829600  0.08414200  1
  C  C37  1  0.33788900  0.06966900  0.66844900  1
  C  C38  1  0.23176100  0.85735500  0.43684100  1
  C  C39  1  0.05613000  0.72271300  0.33424100  1
  C  C40  1  0.07380000  0.29495500  0.42249400  1
  C  C41  1  0.43104100  0.50474500  0.46018400  1
  C  C42  1  0.57380000  0.70504500  0.57750600  1
  C  C43  1  0.44730000  0.72614800  0.83382700  1
  C  C44  1  0.02124900  0.08053200  0.86613200  1
  C  C45  1  0.52124900  0.91946800  0.13386800  1
  C  C46  1  0.83788900  0.93033100  0.33155100  1
  C  C47  1  0.57095500  0.48261600  0.03835900  1
  C  C48  1  0.27213700  0.85710100  0.93766200  1
  C  C49  1  0.48215800  0.09122900  0.36802100  1
  C  C50  1  0.75507700  0.31603800  0.27078600  1
  C  C51  1  0.16242000  0.06942600  0.17060000  1
  C  C52  1  0.66242000  0.93057400  0.82940000  1
  C  C53  1  0.98215800  0.90877100  0.63197900  1
  C  C54  1  0.25507700  0.68396200  0.72921400  1
  C  C55  1  0.64440100  0.50705000  0.40650700  1
  C  C56  1  0.42254500  0.30170400  0.91585800  1
  C  C57  1  0.55613000  0.27728700  0.66575900  1
  C  C58  1  0.93104100  0.49525500  0.53981600  1
  C  C59  1  0.14440100  0.49295000  0.59349300  1
  C  C60  1  0.74934400  0.31581600  0.76986500  1
  C  C61  1  0.85889700  0.50849700  0.90634400  1
  C  C62  1  0.94730000  0.27385200  0.16617300  1
  C  C63  1  0.07095500  0.51738400  0.96164100  1
  C  C64  1  0.73176100  0.14264500  0.56315900  1
  C  C65  1  0.24934400  0.68418400  0.23013500  1
  C  C66  1  0.35889700  0.49150300  0.09365600  1
  C  C67  1  0.77213700  0.14289900  0.06233800  1
