# generated using pymatgen
data_CuNiC3
_symmetry_space_group_name_H-M   'P 1'
_cell_length_a   12.56884666
_cell_length_b   12.56884666
_cell_length_c   12.56884666
_cell_angle_alpha   109.47122063
_cell_angle_beta   109.47122063
_cell_angle_gamma   109.47122063
_symmetry_Int_Tables_number   1
_chemical_formula_structural   CuNiC3
_chemical_formula_sum   'Cu12 Ni12 C36'
_cell_volume   1528.49630220
_cell_formula_units_Z   12
loop_
 _symmetry_equiv_pos_site_id
 _symmetry_equiv_pos_as_xyz
  1  'x, y, z'
loop_
 _atom_site_type_symbol
 _atom_site_label
 _atom_site_symmetry_multiplicity
 _atom_site_fract_x
 _atom_site_fract_y
 _atom_site_fract_z
 _atom_site_occupancy
  C  C0  1  0.21417000  0.00000000  0.00000000  1
  C  C1  1  0.00000000  0.00000000  0.21417000  1
  C  C2  1  0.78583000  0.78583000  0.78583000  1
  C  C3  1  0.00000000  0.21417000  0.00000000  1
  C  C4  1  0.65356500  0.00000000  0.00000000  1
  C  C5  1  0.00000000  0.65356500  0.00000000  1
  C  C6  1  0.34643500  0.34643500  0.34643500  1
  C  C7  1  0.00000000  0.00000000  0.65356500  1
  Ni  Ni8  1  0.48999400  0.00000000  0.78154200  1
  Ni  Ni9  1  0.51000600  0.51000600  0.29154800  1
  Ni  Ni10  1  0.51000600  0.29154800  0.51000600  1
  Ni  Ni11  1  0.78154200  0.48999400  0.00000000  1
  Ni  Ni12  1  0.00000000  0.48999400  0.78154200  1
  Ni  Ni13  1  0.00000000  0.78154200  0.48999400  1
  Ni  Ni14  1  0.78154200  0.00000000  0.48999400  1
  Ni  Ni15  1  0.48999400  0.78154200  0.00000000  1
  Ni  Ni16  1  0.21845800  0.70845200  0.21845800  1
  Ni  Ni17  1  0.29154800  0.51000600  0.51000600  1
  Ni  Ni18  1  0.70845200  0.21845800  0.21845800  1
  Ni  Ni19  1  0.21845800  0.21845800  0.70845200  1
  Cu  Cu20  1  0.00000000  0.40081400  0.66110700  1
  Cu  Cu21  1  0.26029300  0.59918600  0.59918600  1
  Cu  Cu22  1  0.59918600  0.26029300  0.59918600  1
  Cu  Cu23  1  0.33889300  0.33889300  0.73970700  1
  Cu  Cu24  1  0.66110700  0.40081400  0.00000000  1
  Cu  Cu25  1  0.40081400  0.00000000  0.66110700  1
  Cu  Cu26  1  0.73970700  0.33889300  0.33889300  1
  Cu  Cu27  1  0.66110700  0.00000000  0.40081400  1
  Cu  Cu28  1  0.40081400  0.66110700  0.00000000  1
  Cu  Cu29  1  0.00000000  0.66110700  0.40081400  1
  Cu  Cu30  1  0.59918600  0.59918600  0.26029300  1
  Cu  Cu31  1  0.33889300  0.73970700  0.33889300  1
  C  C32  1  0.55982000  0.87498100  0.00000000  1
  C  C33  1  0.55982000  0.00000000  0.87498100  1
  C  C34  1  0.44018000  0.44018000  0.31516000  1
  C  C35  1  0.31516000  0.44018000  0.44018000  1
  C  C36  1  0.87498100  0.55982000  0.00000000  1
  C  C37  1  0.00000000  0.55982000  0.87498100  1
  C  C38  1  0.68484000  0.12501900  0.12501900  1
  C  C39  1  0.44018000  0.31516000  0.44018000  1
  C  C40  1  0.12501900  0.68484000  0.12501900  1
  C  C41  1  0.87498100  0.00000000  0.55982000  1
  C  C42  1  0.12501900  0.12501900  0.68484000  1
  C  C43  1  0.00000000  0.87498100  0.55982000  1
  C  C44  1  0.82791500  0.19860300  0.82791500  1
  C  C45  1  0.00000000  0.17208500  0.37068700  1
  C  C46  1  0.19860300  0.82791500  0.82791500  1
  C  C47  1  0.17208500  0.00000000  0.37068700  1
  C  C48  1  0.62931300  0.80139700  0.62931300  1
  C  C49  1  0.37068700  0.00000000  0.17208500  1
  C  C50  1  0.62931300  0.62931300  0.80139700  1
  C  C51  1  0.80139700  0.62931300  0.62931300  1
  C  C52  1  0.37068700  0.17208500  0.00000000  1
  C  C53  1  0.00000000  0.37068700  0.17208500  1
  C  C54  1  0.17208500  0.37068700  0.00000000  1
  C  C55  1  0.82791500  0.82791500  0.19860300  1
  C  C56  1  0.00000000  0.00000000  0.77197700  1
  C  C57  1  0.00000000  0.77197700  0.00000000  1
  C  C58  1  0.22802300  0.22802300  0.22802300  1
  C  C59  1  0.77197700  0.00000000  0.00000000  1
