# generated using pymatgen
data_Cu2Ni2C
_symmetry_space_group_name_H-M   'P 1'
_cell_length_a   6.81832900
_cell_length_b   6.82909880
_cell_length_c   7.92121022
_cell_angle_alpha   68.45483740
_cell_angle_beta   68.54900984
_cell_angle_gamma   60.09251876
_symmetry_Int_Tables_number   1
_chemical_formula_structural   Cu2Ni2C
_chemical_formula_sum   'Cu4 Ni4 C2'
_cell_volume   289.65210981
_cell_formula_units_Z   2
loop_
 _symmetry_equiv_pos_site_id
 _symmetry_equiv_pos_as_xyz
  1  'x, y, z'
loop_
 _atom_site_type_symbol
 _atom_site_label
 _atom_site_symmetry_multiplicity
 _atom_site_fract_x
 _atom_site_fract_y
 _atom_site_fract_z
 _atom_site_occupancy
  C  C0  1  0.87456200  0.25205900  0.99982500  1
  C  C1  1  0.12543800  0.74794100  0.00017500  1
  Ni  Ni2  1  0.74529400  0.03609600  0.87503800  1
  Ni  Ni3  1  0.25470600  0.96390400  0.12496200  1
  Ni  Ni4  1  0.07676600  0.08699200  0.69364000  1
  Ni  Ni5  1  0.92323400  0.91300800  0.30636000  1
  Cu  Cu6  1  0.57579900  0.64373500  0.78491600  1
  Cu  Cu7  1  0.42420100  0.35626500  0.21508400  1
  Cu  Cu8  1  0.83987300  0.52221400  0.21440500  1
  Cu  Cu9  1  0.16012700  0.47778600  0.78559500  1
