# generated using pymatgen
data_Cu(NiC9)3
_symmetry_space_group_name_H-M   'P 1'
_cell_length_a   7.28584401
_cell_length_b   7.28584401
_cell_length_c   17.43704500
_cell_angle_alpha   90.00000000
_cell_angle_beta   90.00000000
_cell_angle_gamma   120.00000006
_symmetry_Int_Tables_number   1
_chemical_formula_structural   Cu(NiC9)3
_chemical_formula_sum   'Cu2 Ni6 C54'
_cell_volume   801.61024101
_cell_formula_units_Z   2
loop_
 _symmetry_equiv_pos_site_id
 _symmetry_equiv_pos_as_xyz
  1  'x, y, z'
loop_
 _atom_site_type_symbol
 _atom_site_label
 _atom_site_symmetry_multiplicity
 _atom_site_fract_x
 _atom_site_fract_y
 _atom_site_fract_z
 _atom_site_occupancy
  Ni  Ni0  1  0.66666700  0.33333300  0.36762600  1
  Ni  Ni1  1  0.00000000  0.00000000  0.25000000  1
  Ni  Ni2  1  0.33333300  0.66666700  0.63237400  1
  Ni  Ni3  1  0.33333300  0.66666700  0.86762600  1
  Ni  Ni4  1  0.00000000  0.00000000  0.75000000  1
  Ni  Ni5  1  0.66666700  0.33333300  0.13237400  1
  Cu  Cu6  1  0.00000000  0.00000000  0.00000000  1
  Cu  Cu7  1  0.00000000  0.00000000  0.50000000  1
  C  C8  1  0.44999700  0.28447500  0.91812700  1
  C  C9  1  0.28447500  0.83447800  0.41812700  1
  C  C10  1  0.71552500  0.16552200  0.58187300  1
  C  C11  1  0.55000300  0.71552500  0.08187300  1
  C  C12  1  0.62164800  0.50425600  0.75000000  1
  C  C13  1  0.49574400  0.11739200  0.75000000  1
  C  C14  1  0.83447800  0.55000300  0.91812700  1
  C  C15  1  0.83447800  0.55000300  0.58187300  1
  C  C16  1  0.16552200  0.44999700  0.08187300  1
  C  C17  1  0.28447500  0.83447800  0.08187300  1
  C  C18  1  0.16552200  0.44999700  0.41812700  1
  C  C19  1  0.55000300  0.71552500  0.41812700  1
  C  C20  1  0.37835200  0.49574400  0.25000000  1
  C  C21  1  0.88260800  0.37835200  0.75000000  1
  C  C22  1  0.44999700  0.28447500  0.58187300  1
  C  C23  1  0.71552500  0.16552200  0.91812700  1
  C  C24  1  0.11739200  0.62164800  0.25000000  1
  C  C25  1  0.50425600  0.88260800  0.25000000  1
  C  C26  1  0.25054600  0.24518900  0.58099100  1
  C  C27  1  0.49610700  0.87646300  0.41804700  1
  C  C28  1  0.49610700  0.87646300  0.08195300  1
  C  C29  1  0.99464400  0.74945400  0.58099100  1
  C  C30  1  0.75481100  0.00535600  0.91900900  1
  C  C31  1  0.24518900  0.99464400  0.41900900  1
  C  C32  1  0.33346300  0.91985200  0.75000000  1
  C  C33  1  0.00535600  0.25054600  0.08099100  1
  C  C34  1  0.38035700  0.50389300  0.41804700  1
  C  C35  1  0.16766100  0.45822200  0.25000000  1
  C  C36  1  0.50389300  0.12353700  0.91804700  1
  C  C37  1  0.41361200  0.33346300  0.25000000  1
  C  C38  1  0.75481100  0.00535600  0.58099100  1
  C  C39  1  0.08014800  0.41361200  0.75000000  1
  C  C40  1  0.24518900  0.99464400  0.08099100  1
  C  C41  1  0.87646300  0.38035700  0.91804700  1
  C  C42  1  0.61964300  0.49610700  0.91804700  1
  C  C43  1  0.00535600  0.25054600  0.41900900  1
  C  C44  1  0.29056100  0.83233900  0.25000000  1
  C  C45  1  0.54177800  0.70943900  0.25000000  1
  C  C46  1  0.74945400  0.75481100  0.08099100  1
  C  C47  1  0.91985200  0.58638800  0.25000000  1
  C  C48  1  0.61964300  0.49610700  0.58195300  1
  C  C49  1  0.87646300  0.38035700  0.58195300  1
  C  C50  1  0.83233900  0.54177800  0.75000000  1
  C  C51  1  0.50389300  0.12353700  0.58195300  1
  C  C52  1  0.66653700  0.08014800  0.25000000  1
  C  C53  1  0.74945400  0.75481100  0.41900900  1
  C  C54  1  0.12353700  0.61964300  0.41804700  1
  C  C55  1  0.70943900  0.16766100  0.75000000  1
  C  C56  1  0.45822200  0.29056100  0.75000000  1
  C  C57  1  0.38035700  0.50389300  0.08195300  1
  C  C58  1  0.99464400  0.74945400  0.91900900  1
  C  C59  1  0.58638800  0.66653700  0.75000000  1
  C  C60  1  0.12353700  0.61964300  0.08195300  1
  C  C61  1  0.25054600  0.24518900  0.91900900  1
