# generated using pymatgen
data_Cu5NiC3
_symmetry_space_group_name_H-M   'P 1'
_cell_length_a   7.66287600
_cell_length_b   8.01516234
_cell_length_c   10.41224444
_cell_angle_alpha   100.79589846
_cell_angle_beta   99.18848336
_cell_angle_gamma   91.96897774
_symmetry_Int_Tables_number   1
_chemical_formula_structural   Cu5NiC3
_chemical_formula_sum   'Cu20 Ni4 C12'
_cell_volume   618.76849557
_cell_formula_units_Z   4
loop_
 _symmetry_equiv_pos_site_id
 _symmetry_equiv_pos_as_xyz
  1  'x, y, z'
loop_
 _atom_site_type_symbol
 _atom_site_label
 _atom_site_symmetry_multiplicity
 _atom_site_fract_x
 _atom_site_fract_y
 _atom_site_fract_z
 _atom_site_occupancy
  C  C0  1  0.26199000  0.51193300  0.05272200  1
  C  C1  1  0.75464300  0.00699500  0.02037900  1
  C  C2  1  0.73801000  0.48806700  0.94727800  1
  C  C3  1  0.24535700  0.99300500  0.97962100  1
  C  C4  1  0.05490300  0.24475100  0.74171900  1
  C  C5  1  0.94509700  0.75524900  0.25828100  1
  C  C6  1  0.32882900  0.62298100  0.74059800  1
  C  C7  1  0.50357100  0.07614100  0.73764400  1
  C  C8  1  0.12340900  0.20754800  0.26276300  1
  C  C9  1  0.67117100  0.37701900  0.25940200  1
  C  C10  1  0.49642900  0.92385900  0.26235600  1
  C  C11  1  0.87659100  0.79245200  0.73723700  1
  Ni  Ni12  1  0.67013400  0.42550500  0.66144000  1
  Ni  Ni13  1  0.32986600  0.57449500  0.33856000  1
  Ni  Ni14  1  0.83708500  0.10705800  0.41689900  1
  Ni  Ni15  1  0.16291500  0.89294200  0.58310100  1
  Cu  Cu16  1  0.82538500  0.58698500  0.34016500  1
  Cu  Cu17  1  0.43894600  0.54492400  0.89224700  1
  Cu  Cu18  1  0.78490800  0.74361800  0.88772900  1
  Cu  Cu19  1  0.67172300  0.91369800  0.66323400  1
  Cu  Cu20  1  0.56105400  0.45507600  0.10775300  1
  Cu  Cu21  1  0.27521500  0.19584300  0.84332700  1
  Cu  Cu22  1  0.72478500  0.80415700  0.15667300  1
  Cu  Cu23  1  0.98796900  0.59796200  0.10883400  1
  Cu  Cu24  1  0.84518200  0.27529300  0.15830500  1
  Cu  Cu25  1  0.66783300  0.20263400  0.88492000  1
  Cu  Cu26  1  0.01203100  0.40203800  0.89116600  1
  Cu  Cu27  1  0.17461500  0.41301500  0.65983500  1
  Cu  Cu28  1  0.32827700  0.08630200  0.33676600  1
  Cu  Cu29  1  0.53319500  0.07662100  0.14238400  1
  Cu  Cu30  1  0.97013200  0.00680300  0.85577900  1
  Cu  Cu31  1  0.46680500  0.92337900  0.85761600  1
  Cu  Cu32  1  0.21509200  0.25638200  0.11227100  1
  Cu  Cu33  1  0.15481800  0.72470700  0.84169500  1
  Cu  Cu34  1  0.33216700  0.79736600  0.11508000  1
  Cu  Cu35  1  0.02986800  0.99319700  0.14422100  1
