# generated using pymatgen
data_Cu2NiC12
_symmetry_space_group_name_H-M   'P 1'
_cell_length_a   8.53089600
_cell_length_b   9.37819700
_cell_length_c   9.50769051
_cell_angle_alpha   76.22778784
_cell_angle_beta   90.00000000
_cell_angle_gamma   90.00000000
_symmetry_Int_Tables_number   1
_chemical_formula_structural   Cu2NiC12
_chemical_formula_sum   'Cu8 Ni4 C48'
_cell_volume   738.78828603
_cell_formula_units_Z   4
loop_
 _symmetry_equiv_pos_site_id
 _symmetry_equiv_pos_as_xyz
  1  'x, y, z'
loop_
 _atom_site_type_symbol
 _atom_site_label
 _atom_site_symmetry_multiplicity
 _atom_site_fract_x
 _atom_site_fract_y
 _atom_site_fract_z
 _atom_site_occupancy
  C  C0  1  0.60815400  0.30920500  0.56063900  1
  C  C1  1  0.10815400  0.69079500  0.93936100  1
  C  C2  1  0.39184600  0.69079500  0.43936100  1
  C  C3  1  0.89184600  0.30920500  0.06063900  1
  C  C4  1  0.15392300  0.29968500  0.43137800  1
  C  C5  1  0.65392300  0.70031500  0.06862200  1
  C  C6  1  0.84607700  0.70031500  0.56862200  1
  C  C7  1  0.34607700  0.29968500  0.93137800  1
  Ni  Ni8  1  0.95048400  0.16362200  0.69878800  1
  Ni  Ni9  1  0.45048400  0.83637800  0.80121200  1
  Ni  Ni10  1  0.04951600  0.83637800  0.30121200  1
  Ni  Ni11  1  0.54951600  0.16362200  0.19878800  1
  Cu  Cu12  1  0.06561400  0.42824800  0.70556300  1
  Cu  Cu13  1  0.56561400  0.57175200  0.79443700  1
  Cu  Cu14  1  0.93438600  0.57175200  0.29443700  1
  Cu  Cu15  1  0.43438600  0.42824800  0.20556300  1
  Cu  Cu16  1  0.26409700  0.08662900  0.72181800  1
  Cu  Cu17  1  0.76409700  0.91337100  0.77818200  1
  Cu  Cu18  1  0.73590300  0.91337100  0.27818200  1
  Cu  Cu19  1  0.23590300  0.08662900  0.22181800  1
  C  C20  1  0.93428000  0.11228400  0.49678100  1
  C  C21  1  0.43428000  0.88771600  0.00321900  1
  C  C22  1  0.06572000  0.88771600  0.50321900  1
  C  C23  1  0.56572000  0.11228400  0.99678100  1
  C  C24  1  0.93071900  0.30653900  0.73456000  1
  C  C25  1  0.43071900  0.69346100  0.76544000  1
  C  C26  1  0.06928100  0.69346100  0.26544000  1
  C  C27  1  0.56928100  0.30653900  0.23456000  1
  C  C28  1  0.30637200  0.91874700  0.75252700  1
  C  C29  1  0.80637200  0.08125300  0.74747300  1
  C  C30  1  0.69362800  0.08125300  0.24747300  1
  C  C31  1  0.19362800  0.91874700  0.25252700  1
  C  C32  1  0.28075900  0.15628700  0.56054400  1
  C  C33  1  0.78075900  0.84371300  0.93945600  1
  C  C34  1  0.71924100  0.84371300  0.43945600  1
  C  C35  1  0.21924100  0.15628700  0.06054400  1
  C  C36  1  0.01385200  0.42337500  0.30539600  1
  C  C37  1  0.51385200  0.57662500  0.19460400  1
  C  C38  1  0.98614800  0.57662500  0.69460400  1
  C  C39  1  0.48614800  0.42337500  0.80539600  1
  C  C40  1  0.08797900  0.08160500  0.77051700  1
  C  C41  1  0.58797900  0.91839500  0.72948300  1
  C  C42  1  0.91202100  0.91839500  0.22948300  1
  C  C43  1  0.41202100  0.08160500  0.27051700  1
  C  C44  1  0.33052800  0.39808100  0.34166700  1
  C  C45  1  0.83052800  0.60191900  0.15833300  1
  C  C46  1  0.66947200  0.60191900  0.65833300  1
  C  C47  1  0.16947200  0.39808100  0.84166700  1
  C  C48  1  0.36773800  0.16030700  0.81500700  1
  C  C49  1  0.86773800  0.83969300  0.68499300  1
  C  C50  1  0.63226200  0.83969300  0.18499300  1
  C  C51  1  0.13226200  0.16030700  0.31500700  1
  C  C52  1  0.15529400  0.41790600  0.56847300  1
  C  C53  1  0.65529400  0.58209400  0.93152700  1
  C  C54  1  0.84470600  0.58209400  0.43152700  1
  C  C55  1  0.34470600  0.41790600  0.06847300  1
  C  C56  1  0.96380700  0.19478500  0.53682800  1
  C  C57  1  0.46380700  0.80521500  0.96317200  1
  C  C58  1  0.03619300  0.80521500  0.46317200  1
  C  C59  1  0.53619300  0.19478500  0.03682800  1
