# generated using pymatgen
data_CuNiC9
_symmetry_space_group_name_H-M   'P 1'
_cell_length_a   10.91017400
_cell_length_b   8.70661200
_cell_length_c   13.42343144
_cell_angle_alpha   80.26131841
_cell_angle_beta   90.00000000
_cell_angle_gamma   90.00000000
_symmetry_Int_Tables_number   1
_chemical_formula_structural   CuNiC9
_chemical_formula_sum   'Cu4 Ni4 C36'
_cell_volume   1256.72565931
_cell_formula_units_Z   4
loop_
 _symmetry_equiv_pos_site_id
 _symmetry_equiv_pos_as_xyz
  1  'x, y, z'
loop_
 _atom_site_type_symbol
 _atom_site_label
 _atom_site_symmetry_multiplicity
 _atom_site_fract_x
 _atom_site_fract_y
 _atom_site_fract_z
 _atom_site_occupancy
  Ni  Ni0  1  0.22350500  0.68401300  0.42216200  1
  Ni  Ni1  1  0.77649500  0.31598700  0.57783800  1
  Ni  Ni2  1  0.27649500  0.68401300  0.92216200  1
  Ni  Ni3  1  0.72350500  0.31598700  0.07783800  1
  Cu  Cu4  1  0.32377100  0.31765300  0.19576500  1
  Cu  Cu5  1  0.82377100  0.68234700  0.30423500  1
  Cu  Cu6  1  0.17622900  0.31765300  0.69576500  1
  Cu  Cu7  1  0.67622900  0.68234700  0.80423500  1
  C  C8  1  0.04663900  0.22061700  0.86626300  1
  C  C9  1  0.33636500  0.06477200  0.10317800  1
  C  C10  1  0.95336100  0.77938300  0.13373700  1
  C  C11  1  0.16363500  0.06477200  0.60317800  1
  C  C12  1  0.59013800  0.71962700  0.23775800  1
  C  C13  1  0.45336100  0.22061700  0.36626300  1
  C  C14  1  0.83636500  0.93522800  0.39682200  1
  C  C15  1  0.54663900  0.77938300  0.63373700  1
  C  C16  1  0.90986200  0.71962700  0.73775800  1
  C  C17  1  0.66363500  0.93522800  0.89682200  1
  C  C18  1  0.09013800  0.28037300  0.26224200  1
  C  C19  1  0.40986200  0.28037300  0.76224200  1
  C  C20  1  0.93803800  0.38925500  0.60666500  1
  C  C21  1  0.23920500  0.47969100  0.99707300  1
  C  C22  1  0.83842800  0.26002400  0.45429000  1
  C  C23  1  0.21477500  0.61936500  0.80119900  1
  C  C24  1  0.43803800  0.61074500  0.89333500  1
  C  C25  1  0.38353900  0.75726800  0.45087600  1
  C  C26  1  0.78522500  0.38063500  0.19880100  1
  C  C27  1  0.68285100  0.11391000  0.14987200  1
  C  C28  1  0.71477500  0.38063500  0.69880100  1
  C  C29  1  0.76079500  0.52030900  0.00292700  1
  C  C30  1  0.11646100  0.75726800  0.95087600  1
  C  C31  1  0.31714900  0.88609000  0.85012800  1
  C  C32  1  0.16157200  0.73997600  0.54571000  1
  C  C33  1  0.06196200  0.61074500  0.39333500  1
  C  C34  1  0.28522500  0.61936500  0.30119900  1
  C  C35  1  0.33842800  0.73997600  0.04571000  1
  C  C36  1  0.81714900  0.11391000  0.64987200  1
  C  C37  1  0.56196200  0.38925500  0.10666500  1
  C  C38  1  0.26079500  0.47969100  0.49707300  1
  C  C39  1  0.18285100  0.88609000  0.35012800  1
  C  C40  1  0.73920500  0.52030900  0.50292700  1
  C  C41  1  0.66157200  0.26002400  0.95429000  1
  C  C42  1  0.61646100  0.24273200  0.54912400  1
  C  C43  1  0.88353900  0.24273200  0.04912400  1
