# generated using pymatgen
data_Cu2Ni2C7
_symmetry_space_group_name_H-M   'P 1'
_cell_length_a   7.60915596
_cell_length_b   7.60915596
_cell_length_c   25.03974562
_cell_angle_alpha   80.94827532
_cell_angle_beta   80.94827532
_cell_angle_gamma   59.76239399
_symmetry_Int_Tables_number   1
_chemical_formula_structural   Cu2Ni2C7
_chemical_formula_sum   'Cu16 Ni16 C56'
_cell_volume   1231.74038056
_cell_formula_units_Z   8
loop_
 _symmetry_equiv_pos_site_id
 _symmetry_equiv_pos_as_xyz
  1  'x, y, z'
loop_
 _atom_site_type_symbol
 _atom_site_label
 _atom_site_symmetry_multiplicity
 _atom_site_fract_x
 _atom_site_fract_y
 _atom_site_fract_z
 _atom_site_occupancy
  Ni  Ni0  1  0.36199800  0.36199800  0.88554600  1
  Ni  Ni1  1  0.86104900  0.37034800  0.87368600  1
  Ni  Ni2  1  0.74473800  0.74473800  0.74932800  1
  Ni  Ni3  1  0.63800200  0.63800200  0.11445400  1
  Ni  Ni4  1  0.37034800  0.86104900  0.87368600  1
  Ni  Ni5  1  0.13895100  0.62965200  0.12631400  1
  Ni  Ni6  1  0.00000000  0.00000000  0.00000000  1
  Ni  Ni7  1  0.62965200  0.13895100  0.12631400  1
  Ni  Ni8  1  0.37424600  0.37424600  0.37653900  1
  Ni  Ni9  1  0.37414300  0.87499200  0.37456700  1
  Ni  Ni10  1  0.25526200  0.25526200  0.25067200  1
  Ni  Ni11  1  0.87499200  0.37414300  0.37456700  1
  Ni  Ni12  1  0.62575400  0.62575400  0.62346100  1
  Ni  Ni13  1  0.62585700  0.12500800  0.62543300  1
  Ni  Ni14  1  0.50000000  0.50000000  0.50000000  1
  Ni  Ni15  1  0.12500800  0.62585700  0.62543300  1
  Cu  Cu16  1  0.74416700  0.24998600  0.75134700  1
  Cu  Cu17  1  0.24998600  0.74416700  0.75134700  1
  Cu  Cu18  1  0.24675400  0.24675400  0.75292800  1
  Cu  Cu19  1  0.00000000  0.50000000  0.00000000  1
  Cu  Cu20  1  0.87767800  0.87767800  0.86567700  1
  Cu  Cu21  1  0.50000000  0.00000000  0.00000000  1
  Cu  Cu22  1  0.50000000  0.50000000  0.00000000  1
  Cu  Cu23  1  0.25583300  0.75001400  0.24865300  1
  Cu  Cu24  1  0.12232200  0.12232200  0.13432300  1
  Cu  Cu25  1  0.87585200  0.87585200  0.37363300  1
  Cu  Cu26  1  0.75001400  0.25583300  0.24865300  1
  Cu  Cu27  1  0.75324600  0.75324600  0.24707200  1
  Cu  Cu28  1  0.50000000  0.00000000  0.50000000  1
  Cu  Cu29  1  0.12414800  0.12414800  0.62636700  1
  Cu  Cu30  1  0.00000000  0.50000000  0.50000000  1
  Cu  Cu31  1  0.00000000  0.00000000  0.50000000  1
  C  C32  1  0.68326800  0.23714200  0.83553800  1
  C  C33  1  0.56259400  0.56259400  0.72903900  1
  C  C34  1  0.23714200  0.68326800  0.83553800  1
  C  C35  1  0.56100800  0.14253900  0.73016100  1
  C  C36  1  0.99853600  0.60945700  0.91640400  1
  C  C37  1  0.22750000  0.22750000  0.84046700  1
  C  C38  1  0.14253900  0.56100800  0.73016100  1
  C  C39  1  0.92944600  0.92944600  0.77492700  1
  C  C40  1  0.00146400  0.39054300  0.08359600  1
  C  C41  1  0.74575300  0.74575300  0.02982500  1
  C  C42  1  0.60945700  0.99853600  0.91640400  1
  C  C43  1  0.39054300  0.00146400  0.08359600  1
  C  C44  1  0.93051200  0.36036900  0.77070600  1
  C  C45  1  0.83043200  0.36960000  0.98066000  1
  C  C46  1  0.72237100  0.72237100  0.84014900  1
  C  C47  1  0.31673200  0.76285800  0.16446200  1
  C  C48  1  0.48225500  0.48225500  0.08419300  1
  C  C49  1  0.36960000  0.83043200  0.98066000  1
  C  C50  1  0.25424700  0.25424700  0.97017500  1
  C  C51  1  0.36036900  0.93051200  0.77070600  1
  C  C52  1  0.51774500  0.51774500  0.91580700  1
  C  C53  1  0.17280600  0.75123800  0.33364700  1
  C  C54  1  0.07055400  0.07055400  0.22507300  1
  C  C55  1  0.76285800  0.31673200  0.16446200  1
  C  C56  1  0.75123800  0.17280600  0.33364700  1
  C  C57  1  0.16956800  0.63040000  0.01934000  1
  C  C58  1  0.01129200  0.01129200  0.90507600  1
  C  C59  1  0.06948800  0.63963100  0.22929400  1
  C  C60  1  0.98870800  0.98870800  0.09492300  1
  C  C61  1  0.57992800  0.00362000  0.41545400  1
  C  C62  1  0.43740600  0.43740600  0.27096100  1
  C  C63  1  0.63963100  0.06948800  0.22929400  1
  C  C64  1  0.75035200  0.75035200  0.33226500  1
  C  C65  1  0.63040000  0.16956800  0.01934000  1
  C  C66  1  0.42007200  0.99638000  0.58454600  1
  C  C67  1  0.77250000  0.77250000  0.15953300  1
  C  C68  1  0.31565500  0.31565500  0.47780000  1
  C  C69  1  0.00362000  0.57992800  0.41545400  1
  C  C70  1  0.99638000  0.42007200  0.58454600  1
  C  C71  1  0.43899200  0.85746100  0.26983900  1
  C  C72  1  0.27762900  0.27762900  0.15985100  1
  C  C73  1  0.31603700  0.89131400  0.47808200  1
  C  C74  1  0.21923300  0.21923300  0.34508400  1
  C  C75  1  0.82719400  0.24876200  0.66635300  1
  C  C76  1  0.99724600  0.99724600  0.58442800  1
  C  C77  1  0.89131400  0.31603700  0.47808200  1
  C  C78  1  0.68434500  0.68434500  0.52220000  1
  C  C79  1  0.85746100  0.43899200  0.26983900  1
  C  C80  1  0.00275400  0.00275400  0.41557200  1
  C  C81  1  0.24876200  0.82719400  0.66635300  1
  C  C82  1  0.68396300  0.10868600  0.52191800  1
  C  C83  1  0.53153100  0.53153100  0.40601700  1
  C  C84  1  0.46846900  0.46846900  0.59398300  1
  C  C85  1  0.10868600  0.68396300  0.52191800  1
  C  C86  1  0.24964800  0.24964800  0.66773500  1
  C  C87  1  0.78076700  0.78076700  0.65491600  1
