# generated using pymatgen
data_Cu(Ni3C2)2
_symmetry_space_group_name_H-M   'P 1'
_cell_length_a   9.34852376
_cell_length_b   9.34852376
_cell_length_c   8.12699100
_cell_angle_alpha   90.00000000
_cell_angle_beta   90.00000000
_cell_angle_gamma   119.99999833
_symmetry_Int_Tables_number   1
_chemical_formula_structural   Cu(Ni3C2)2
_chemical_formula_sum   'Cu2 Ni12 C8'
_cell_volume   615.10108140
_cell_formula_units_Z   2
loop_
 _symmetry_equiv_pos_site_id
 _symmetry_equiv_pos_as_xyz
  1  'x, y, z'
loop_
 _atom_site_type_symbol
 _atom_site_label
 _atom_site_symmetry_multiplicity
 _atom_site_fract_x
 _atom_site_fract_y
 _atom_site_fract_z
 _atom_site_occupancy
  C  C0  1  0.19500700  0.39001500  0.00696100  1
  C  C1  1  0.19500700  0.80499300  0.00696100  1
  C  C2  1  0.80499300  0.19500700  0.50696100  1
  C  C3  1  0.66666700  0.33333300  0.81779300  1
  C  C4  1  0.80499300  0.60998500  0.50696100  1
  C  C5  1  0.39001500  0.19500700  0.50696100  1
  C  C6  1  0.33333300  0.66666700  0.31779300  1
  C  C7  1  0.60998500  0.80499300  0.00696100  1
  Ni  Ni8  1  0.26954600  0.13477300  0.87251300  1
  Ni  Ni9  1  0.03432900  0.51716500  0.68842200  1
  Ni  Ni10  1  0.13477300  0.26954600  0.37251300  1
  Ni  Ni11  1  0.51716500  0.48283500  0.18842200  1
  Ni  Ni12  1  0.13477300  0.86522700  0.37251300  1
  Ni  Ni13  1  0.96567100  0.48283500  0.18842200  1
  Ni  Ni14  1  0.86522700  0.13477300  0.87251300  1
  Ni  Ni15  1  0.48283500  0.96567100  0.68842200  1
  Ni  Ni16  1  0.73045400  0.86522700  0.37251300  1
  Ni  Ni17  1  0.86522700  0.73045400  0.87251300  1
  Ni  Ni18  1  0.48283500  0.51716500  0.68842200  1
  Ni  Ni19  1  0.51716500  0.03432900  0.18842200  1
  Cu  Cu20  1  0.66666700  0.33333300  0.52371000  1
  Cu  Cu21  1  0.33333300  0.66666700  0.02371000  1
