# generated using pymatgen
data_Cu6NiC5
_symmetry_space_group_name_H-M   'P 1'
_cell_length_a   7.16338000
_cell_length_b   7.16338000
_cell_length_c   7.16337995
_cell_angle_alpha   107.53289967
_cell_angle_beta   107.53289967
_cell_angle_gamma   107.53289915
_symmetry_Int_Tables_number   1
_chemical_formula_structural   Cu6NiC5
_chemical_formula_sum   'Cu6 Ni1 C5'
_cell_volume   301.56484511
_cell_formula_units_Z   1
loop_
 _symmetry_equiv_pos_site_id
 _symmetry_equiv_pos_as_xyz
  1  'x, y, z'
loop_
 _atom_site_type_symbol
 _atom_site_label
 _atom_site_symmetry_multiplicity
 _atom_site_fract_x
 _atom_site_fract_y
 _atom_site_fract_z
 _atom_site_occupancy
  C  C0  1  0.68232400  0.92822500  0.68232400  1
  C  C1  1  0.92822500  0.68232400  0.68232400  1
  C  C2  1  0.69775900  0.69775900  0.69775900  1
  C  C3  1  0.68232400  0.68232400  0.92822500  1
  Ni  Ni4  1  0.50609300  0.50609300  0.50609300  1
  Cu  Cu5  1  0.46878400  0.91468600  0.46878400  1
  Cu  Cu6  1  0.87833400  0.18727300  0.87833400  1
  Cu  Cu7  1  0.18727300  0.87833400  0.87833400  1
  Cu  Cu8  1  0.87833400  0.87833400  0.18727300  1
  Cu  Cu9  1  0.46878400  0.46878400  0.91468600  1
  Cu  Cu10  1  0.91468600  0.46878400  0.46878400  1
  C  C11  1  0.35937600  0.35937600  0.35937600  1
