# generated using pymatgen
data_Cu4Ni8C
_symmetry_space_group_name_H-M   'P 1'
_cell_length_a   8.65520338
_cell_length_b   8.65520338
_cell_length_c   8.65520338
_cell_angle_alpha   60.00000000
_cell_angle_beta   60.00000000
_cell_angle_gamma   60.00000000
_symmetry_Int_Tables_number   1
_chemical_formula_structural   Cu4Ni8C
_chemical_formula_sum   'Cu8 Ni16 C2'
_cell_volume   458.47624000
_cell_formula_units_Z   2
loop_
 _symmetry_equiv_pos_site_id
 _symmetry_equiv_pos_as_xyz
  1  'x, y, z'
loop_
 _atom_site_type_symbol
 _atom_site_label
 _atom_site_symmetry_multiplicity
 _atom_site_fract_x
 _atom_site_fract_y
 _atom_site_fract_z
 _atom_site_occupancy
  Ni  Ni0  1  0.94937900  0.94937900  0.55062100  1
  Ni  Ni1  1  0.30062100  0.69937900  0.30062100  1
  Ni  Ni2  1  0.69937900  0.30062100  0.69937900  1
  Ni  Ni3  1  0.30062100  0.30062100  0.69937900  1
  Ni  Ni4  1  0.69937900  0.30062100  0.30062100  1
  Ni  Ni5  1  0.69937900  0.69937900  0.30062100  1
  Ni  Ni6  1  0.12500000  0.12500000  0.62500000  1
  Ni  Ni7  1  0.94937900  0.55062100  0.55062100  1
  Ni  Ni8  1  0.55062100  0.94937900  0.94937900  1
  Ni  Ni9  1  0.55062100  0.94937900  0.55062100  1
  Ni  Ni10  1  0.12500000  0.62500000  0.12500000  1
  Ni  Ni11  1  0.55062100  0.55062100  0.94937900  1
  Ni  Ni12  1  0.94937900  0.55062100  0.94937900  1
  Ni  Ni13  1  0.12500000  0.12500000  0.12500000  1
  Ni  Ni14  1  0.62500000  0.12500000  0.12500000  1
  Ni  Ni15  1  0.30062100  0.69937900  0.69937900  1
  C  C16  1  0.25000000  0.25000000  0.25000000  1
  C  C17  1  0.00000000  0.00000000  0.00000000  1
  Cu  Cu18  1  0.90420900  0.90420900  0.90420900  1
  Cu  Cu19  1  0.90420900  0.28737400  0.90420900  1
  Cu  Cu20  1  0.28737400  0.90420900  0.90420900  1
  Cu  Cu21  1  0.34579100  0.34579100  0.96262600  1
  Cu  Cu22  1  0.96262600  0.34579100  0.34579100  1
  Cu  Cu23  1  0.90420900  0.90420900  0.28737400  1
  Cu  Cu24  1  0.34579100  0.96262600  0.34579100  1
  Cu  Cu25  1  0.34579100  0.34579100  0.34579100  1
