# generated using pymatgen
data_Cu3Ni4C5
_symmetry_space_group_name_H-M   'P 1'
_cell_length_a   13.61238300
_cell_length_b   6.62154700
_cell_length_c   13.23968682
_cell_angle_alpha   80.30484962
_cell_angle_beta   90.00000000
_cell_angle_gamma   90.00000000
_symmetry_Int_Tables_number   1
_chemical_formula_structural   Cu3Ni4C5
_chemical_formula_sum   'Cu12 Ni16 C20'
_cell_volume   1176.31573152
_cell_formula_units_Z   4
loop_
 _symmetry_equiv_pos_site_id
 _symmetry_equiv_pos_as_xyz
  1  'x, y, z'
loop_
 _atom_site_type_symbol
 _atom_site_label
 _atom_site_symmetry_multiplicity
 _atom_site_fract_x
 _atom_site_fract_y
 _atom_site_fract_z
 _atom_site_occupancy
  C  C0  1  0.01060200  0.77743800  0.18905000  1
  C  C1  1  0.98939800  0.22256200  0.81095000  1
  C  C2  1  0.51060200  0.22256200  0.31095000  1
  C  C3  1  0.48939800  0.77743800  0.68905000  1
  Ni  Ni4  1  0.40961600  0.12150200  0.82218400  1
  Ni  Ni5  1  0.09038400  0.12150200  0.32218400  1
  Ni  Ni6  1  0.83723000  0.23378600  0.53002500  1
  Ni  Ni7  1  0.78391300  0.96149500  0.82673400  1
  Ni  Ni8  1  0.71608700  0.96149500  0.32673400  1
  Ni  Ni9  1  0.28391300  0.03850500  0.67326600  1
  Ni  Ni10  1  0.21608700  0.03850500  0.17326600  1
  Ni  Ni11  1  0.90961600  0.87849800  0.67781600  1
  Ni  Ni12  1  0.33723000  0.76621400  0.96997500  1
  Ni  Ni13  1  0.66277000  0.23378600  0.03002500  1
  Ni  Ni14  1  0.59038400  0.87849800  0.17781600  1
  Ni  Ni15  1  0.79566100  0.33009600  0.19339900  1
  Ni  Ni16  1  0.29566100  0.66990400  0.30660100  1
  Ni  Ni17  1  0.20433900  0.66990400  0.80660100  1
  Ni  Ni18  1  0.16277000  0.76621400  0.46997500  1
  Ni  Ni19  1  0.70433900  0.33009600  0.69339900  1
  C  C20  1  0.38187000  0.98223100  0.92862100  1
  C  C21  1  0.39559500  0.99105800  0.72489800  1
  C  C22  1  0.89559500  0.00894200  0.77510200  1
  C  C23  1  0.60440500  0.00894200  0.27510200  1
  C  C24  1  0.70904700  0.13838700  0.78066500  1
  C  C25  1  0.28746500  0.63646600  0.89262900  1
  C  C26  1  0.61813000  0.01776900  0.07137900  1
  C  C27  1  0.79095300  0.13838700  0.28066500  1
  C  C28  1  0.20904700  0.86161300  0.71933500  1
  C  C29  1  0.10440500  0.99105800  0.22489800  1
  C  C30  1  0.21253500  0.63646600  0.39262900  1
  C  C31  1  0.29095300  0.86161300  0.21933500  1
  C  C32  1  0.71253500  0.36353400  0.10737100  1
  C  C33  1  0.78746500  0.36353400  0.60737100  1
  C  C34  1  0.88187000  0.01776900  0.57137900  1
  C  C35  1  0.11813000  0.98223100  0.42862100  1
  Cu  Cu36  1  0.89123400  0.90268300  0.08604800  1
  Cu  Cu37  1  0.05062300  0.36308100  0.66187200  1
  Cu  Cu38  1  0.94937700  0.63691900  0.33812800  1
  Cu  Cu39  1  0.10876600  0.09731700  0.91395200  1
  Cu  Cu40  1  0.39123400  0.09731700  0.41395200  1
  Cu  Cu41  1  0.10007400  0.56156900  0.12033200  1
  Cu  Cu42  1  0.44937700  0.36308100  0.16187200  1
  Cu  Cu43  1  0.55062300  0.63691900  0.83812800  1
  Cu  Cu44  1  0.89992600  0.43843100  0.87966800  1
  Cu  Cu45  1  0.39992600  0.56156900  0.62033200  1
  Cu  Cu46  1  0.60876600  0.90268300  0.58604800  1
  Cu  Cu47  1  0.60007400  0.43843100  0.37966800  1
