# generated using pymatgen
data_Cu10Ni2C11
_symmetry_space_group_name_H-M   'P 1'
_cell_length_a   8.37748900
_cell_length_b   10.01885000
_cell_length_c   11.95107800
_cell_angle_alpha   90.00000000
_cell_angle_beta   90.00000000
_cell_angle_gamma   90.00000000
_symmetry_Int_Tables_number   1
_chemical_formula_structural   Cu10Ni2C11
_chemical_formula_sum   'Cu40 Ni8 C44'
_cell_volume   1003.08750729
_cell_formula_units_Z   4
loop_
 _symmetry_equiv_pos_site_id
 _symmetry_equiv_pos_as_xyz
  1  'x, y, z'
loop_
 _atom_site_type_symbol
 _atom_site_label
 _atom_site_symmetry_multiplicity
 _atom_site_fract_x
 _atom_site_fract_y
 _atom_site_fract_z
 _atom_site_occupancy
  C  C0  1  0.19315300  0.19391200  0.40275200  1
  C  C1  1  0.94185000  0.17318500  0.11221500  1
  C  C2  1  0.21978300  0.82038900  0.50196600  1
  C  C3  1  0.55815000  0.17318500  0.61221500  1
  C  C4  1  0.94185000  0.67318500  0.88778500  1
  C  C5  1  0.80684700  0.30608800  0.40275200  1
  C  C6  1  0.66658700  0.68428800  0.62297000  1
  C  C7  1  0.19315300  0.69391200  0.59724800  1
  C  C8  1  0.78021700  0.67961100  0.50196600  1
  C  C9  1  0.83341300  0.68428800  0.12297000  1
  C  C10  1  0.69315300  0.30608800  0.90275200  1
  C  C11  1  0.71978300  0.17961100  0.99803400  1
  C  C12  1  0.05815000  0.82681500  0.88778500  1
  C  C13  1  0.44185000  0.32681500  0.61221500  1
  C  C14  1  0.28021700  0.32038900  0.99803400  1
  C  C15  1  0.21978300  0.32038900  0.49803400  1
  C  C16  1  0.16658700  0.31571200  0.87703000  1
  C  C17  1  0.83341300  0.18428800  0.87703000  1
  C  C18  1  0.28021700  0.82038900  0.00196600  1
  C  C19  1  0.16658700  0.81571200  0.12297000  1
  C  C20  1  0.66658700  0.18428800  0.37703000  1
  C  C21  1  0.71978300  0.67961100  0.00196600  1
  C  C22  1  0.55815000  0.67318500  0.38778500  1
  C  C23  1  0.05815000  0.32681500  0.11221500  1
  C  C24  1  0.44185000  0.82681500  0.38778500  1
  C  C25  1  0.69315300  0.80608800  0.09724800  1
  C  C26  1  0.30684700  0.69391200  0.09724800  1
  C  C27  1  0.80684700  0.80608800  0.59724800  1
  C  C28  1  0.78021700  0.17961100  0.49803400  1
  C  C29  1  0.33341300  0.81571200  0.62297000  1
  C  C30  1  0.30684700  0.19391200  0.90275200  1
  C  C31  1  0.33341300  0.31571200  0.37703000  1
  C  C32  1  0.00000000  0.75000000  0.93911200  1
  C  C33  1  0.50000000  0.75000000  0.43911200  1
  C  C34  1  0.50000000  0.25000000  0.56088800  1
  C  C35  1  0.00000000  0.25000000  0.06088800  1
  Ni  Ni36  1  0.22347100  0.75898100  0.06109000  1
  Ni  Ni37  1  0.77652900  0.24101900  0.93891000  1
  Ni  Ni38  1  0.27652900  0.75898100  0.56109000  1
  Ni  Ni39  1  0.72347100  0.74101900  0.56109000  1
  Ni  Ni40  1  0.77652900  0.74101900  0.06109000  1
  Ni  Ni41  1  0.27652900  0.25898100  0.43891000  1
  Ni  Ni42  1  0.72347100  0.24101900  0.43891000  1
  Ni  Ni43  1  0.22347100  0.25898100  0.93891000  1
  C  C44  1  0.96079800  0.53854700  0.32774800  1
  C  C45  1  0.53920200  0.53854700  0.82774800  1
  C  C46  1  0.03920200  0.46145300  0.67225200  1
  C  C47  1  0.46079800  0.46145300  0.17225200  1
  C  C48  1  0.46079800  0.96145300  0.82774800  1
  C  C49  1  0.96079800  0.03854700  0.67225200  1
  C  C50  1  0.53920200  0.03854700  0.17225200  1
  C  C51  1  0.03920200  0.96145300  0.32774800  1
  Cu  Cu52  1  0.11013400  0.17511100  0.99516900  1
  Cu  Cu53  1  0.38986600  0.17511100  0.49516900  1
  Cu  Cu54  1  0.54403900  0.57503500  0.70931200  1
  Cu  Cu55  1  0.95596100  0.07503500  0.79068800  1
  Cu  Cu56  1  0.09623600  0.60018100  0.38170000  1
  Cu  Cu57  1  0.97365300  0.89201400  0.66384900  1
  Cu  Cu58  1  0.81071300  0.07950900  0.61837600  1
  Cu  Cu59  1  0.38986600  0.67511100  0.50483100  1
  Cu  Cu60  1  0.18928700  0.92049100  0.38162400  1
  Cu  Cu61  1  0.31071300  0.92049100  0.88162400  1
  Cu  Cu62  1  0.04403900  0.42496500  0.79068800  1
  Cu  Cu63  1  0.02634700  0.60798600  0.66384900  1
  Cu  Cu64  1  0.97365300  0.39201400  0.33615100  1
  Cu  Cu65  1  0.59623600  0.89981900  0.88170000  1
  Cu  Cu66  1  0.88986600  0.32488900  0.99516900  1
  Cu  Cu67  1  0.52634700  0.39201400  0.83615100  1
  Cu  Cu68  1  0.40376400  0.60018100  0.88170000  1
  Cu  Cu69  1  0.09623600  0.10018100  0.61830000  1
  Cu  Cu70  1  0.47365300  0.10798600  0.83615100  1
  Cu  Cu71  1  0.52634700  0.89201400  0.16384900  1
  Cu  Cu72  1  0.68928700  0.57950900  0.88162400  1
  Cu  Cu73  1  0.68928700  0.07950900  0.11837600  1
  Cu  Cu74  1  0.04403900  0.92496500  0.20931200  1
  Cu  Cu75  1  0.45596100  0.42496500  0.29068800  1
  Cu  Cu76  1  0.31071300  0.42049100  0.11837600  1
  Cu  Cu77  1  0.54403900  0.07503500  0.29068800  1
  Cu  Cu78  1  0.95596100  0.57503500  0.20931200  1
  Cu  Cu79  1  0.59623600  0.39981900  0.11830000  1
  Cu  Cu80  1  0.40376400  0.10018100  0.11830000  1
  Cu  Cu81  1  0.90376400  0.39981900  0.61830000  1
  Cu  Cu82  1  0.47365300  0.60798600  0.16384900  1
  Cu  Cu83  1  0.88986600  0.82488900  0.00483100  1
  Cu  Cu84  1  0.11013400  0.67511100  0.00483100  1
  Cu  Cu85  1  0.81071300  0.57950900  0.38162400  1
  Cu  Cu86  1  0.18928700  0.42049100  0.61837600  1
  Cu  Cu87  1  0.61013400  0.32488900  0.49516900  1
  Cu  Cu88  1  0.02634700  0.10798600  0.33615100  1
  Cu  Cu89  1  0.61013400  0.82488900  0.50483100  1
  Cu  Cu90  1  0.90376400  0.89981900  0.38170000  1
  Cu  Cu91  1  0.45596100  0.92496500  0.70931200  1
