# generated using pymatgen
data_CuNiC9
_symmetry_space_group_name_H-M   'P 1'
_cell_length_a   5.49455281
_cell_length_b   5.49455281
_cell_length_c   12.43980600
_cell_angle_alpha   90.00000000
_cell_angle_beta   90.00000000
_cell_angle_gamma   116.49178837
_symmetry_Int_Tables_number   1
_chemical_formula_structural   CuNiC9
_chemical_formula_sum   'Cu2 Ni2 C18'
_cell_volume   336.12477277
_cell_formula_units_Z   2
loop_
 _symmetry_equiv_pos_site_id
 _symmetry_equiv_pos_as_xyz
  1  'x, y, z'
loop_
 _atom_site_type_symbol
 _atom_site_label
 _atom_site_symmetry_multiplicity
 _atom_site_fract_x
 _atom_site_fract_y
 _atom_site_fract_z
 _atom_site_occupancy
  Ni  Ni0  1  0.69570300  0.30429700  0.25000000  1
  Ni  Ni1  1  0.30429700  0.69570300  0.75000000  1
  Cu  Cu2  1  0.00000000  0.00000000  0.00000000  1
  Cu  Cu3  1  0.00000000  0.00000000  0.50000000  1
  C  C4  1  0.35587500  0.64412500  0.37042900  1
  C  C5  1  0.64412500  0.35587500  0.62957100  1
  C  C6  1  0.35587500  0.64412500  0.12957100  1
  C  C7  1  0.64412500  0.35587500  0.87042900  1
  C  C8  1  0.33349700  0.22617900  0.62315600  1
  C  C9  1  0.77279600  0.22720400  0.55508900  1
  C  C10  1  0.66650300  0.77382100  0.37684400  1
  C  C11  1  0.66650300  0.77382100  0.12315600  1
  C  C12  1  0.22720400  0.77279600  0.44491100  1
  C  C13  1  0.77382100  0.66650300  0.87684400  1
  C  C14  1  0.22720400  0.77279600  0.05508900  1
  C  C15  1  0.77279600  0.22720400  0.94491100  1
  C  C16  1  0.77382100  0.66650300  0.62315600  1
  C  C17  1  0.71785400  0.28214600  0.75000000  1
  C  C18  1  0.22617900  0.33349700  0.37684400  1
  C  C19  1  0.22617900  0.33349700  0.12315600  1
  C  C20  1  0.28214600  0.71785400  0.25000000  1
  C  C21  1  0.33349700  0.22617900  0.87684400  1
