# generated using pymatgen
data_Cu2NiC5
_symmetry_space_group_name_H-M   'P 1'
_cell_length_a   5.47876600
_cell_length_b   9.50830800
_cell_length_c   15.85142004
_cell_angle_alpha   71.24064390
_cell_angle_beta   90.00000000
_cell_angle_gamma   90.00000000
_symmetry_Int_Tables_number   1
_chemical_formula_structural   Cu2NiC5
_chemical_formula_sum   'Cu16 Ni8 C40'
_cell_volume   781.89425627
_cell_formula_units_Z   8
loop_
 _symmetry_equiv_pos_site_id
 _symmetry_equiv_pos_as_xyz
  1  'x, y, z'
loop_
 _atom_site_type_symbol
 _atom_site_label
 _atom_site_symmetry_multiplicity
 _atom_site_fract_x
 _atom_site_fract_y
 _atom_site_fract_z
 _atom_site_occupancy
  C  C0  1  0.74974700  0.24085500  0.02695300  1
  C  C1  1  0.24974700  0.75914500  0.47304700  1
  C  C2  1  0.25025300  0.75914500  0.97304700  1
  C  C3  1  0.75025300  0.24085500  0.52695300  1
  Ni  Ni4  1  0.23730500  0.99521000  0.10710000  1
  Ni  Ni5  1  0.73730500  0.00479000  0.39290000  1
  Ni  Ni6  1  0.76269500  0.00479000  0.89290000  1
  Ni  Ni7  1  0.26269500  0.99521000  0.60710000  1
  Ni  Ni8  1  0.73341900  0.58025300  0.10633900  1
  Ni  Ni9  1  0.23341900  0.41974700  0.39366100  1
  Ni  Ni10  1  0.26658100  0.41974700  0.89366100  1
  Ni  Ni11  1  0.76658100  0.58025300  0.60633900  1
  Cu  Cu12  1  0.53964800  0.81682200  0.22798300  1
  Cu  Cu13  1  0.03964800  0.18317800  0.27201700  1
  Cu  Cu14  1  0.46035200  0.18317800  0.77201700  1
  Cu  Cu15  1  0.96035200  0.81682200  0.72798300  1
  Cu  Cu16  1  0.68504800  0.66568300  0.21450900  1
  Cu  Cu17  1  0.18504800  0.33431700  0.28549100  1
  Cu  Cu18  1  0.31495200  0.33431700  0.78549100  1
  Cu  Cu19  1  0.81495200  0.66568300  0.71450900  1
  Cu  Cu20  1  0.71258200  0.14206700  0.24261700  1
  Cu  Cu21  1  0.21258200  0.85793300  0.25738300  1
  Cu  Cu22  1  0.28741800  0.85793300  0.75738300  1
  Cu  Cu23  1  0.78741800  0.14206700  0.74261700  1
  Cu  Cu24  1  0.04908200  0.33574800  0.18894500  1
  Cu  Cu25  1  0.54908200  0.66425200  0.31105500  1
  Cu  Cu26  1  0.95091800  0.66425200  0.81105500  1
  Cu  Cu27  1  0.45091800  0.33574800  0.68894500  1
  C  C28  1  0.19987600  0.86524300  0.07177400  1
  C  C29  1  0.69987600  0.13475700  0.42822600  1
  C  C30  1  0.80012400  0.13475700  0.92822600  1
  C  C31  1  0.30012400  0.86524300  0.57177400  1
  C  C32  1  0.00103900  0.08112500  0.10722800  1
  C  C33  1  0.50103900  0.91887500  0.39277200  1
  C  C34  1  0.99896100  0.91887500  0.89277200  1
  C  C35  1  0.49896100  0.08112500  0.60722800  1
  C  C36  1  0.45025400  0.09367600  0.06272800  1
  C  C37  1  0.95025400  0.90632400  0.43727200  1
  C  C38  1  0.54974600  0.90632400  0.93727200  1
  C  C39  1  0.04974600  0.09367600  0.56272800  1
  C  C40  1  0.32532300  0.92441500  0.20963400  1
  C  C41  1  0.82532300  0.07558500  0.29036600  1
  C  C42  1  0.67467700  0.07558500  0.79036600  1
  C  C43  1  0.17467700  0.92441500  0.70963400  1
  C  C44  1  0.94351900  0.63988000  0.03942300  1
  C  C45  1  0.44351900  0.36012000  0.46057700  1
  C  C46  1  0.05648100  0.36012000  0.96057700  1
  C  C47  1  0.55648100  0.63988000  0.53942300  1
  C  C48  1  0.48383000  0.59871600  0.05693400  1
  C  C49  1  0.98383000  0.40128400  0.44306600  1
  C  C50  1  0.51617000  0.40128400  0.94306600  1
  C  C51  1  0.01617000  0.59871600  0.55693400  1
  C  C52  1  0.63191500  0.27044100  0.14922600  1
  C  C53  1  0.13191500  0.72955900  0.35077400  1
  C  C54  1  0.36808500  0.72955900  0.85077400  1
  C  C55  1  0.86808500  0.27044100  0.64922600  1
  C  C56  1  0.82288500  0.38756800  0.11867900  1
  C  C57  1  0.32288500  0.61243200  0.38132100  1
  C  C58  1  0.17711500  0.61243200  0.88132100  1
  C  C59  1  0.67711500  0.38756800  0.61867900  1
  C  C60  1  0.15102700  0.27489300  0.24238100  1
  C  C61  1  0.65102700  0.72510700  0.25761900  1
  C  C62  1  0.84897300  0.72510700  0.75761900  1
  C  C63  1  0.34897300  0.27489300  0.74238100  1
