# generated using pymatgen
data_CuNiC8
_symmetry_space_group_name_H-M   'P 1'
_cell_length_a   5.70032500
_cell_length_b   7.55809066
_cell_length_c   7.61625666
_cell_angle_alpha   88.35251523
_cell_angle_beta   76.15580268
_cell_angle_gamma   83.42640666
_symmetry_Int_Tables_number   1
_chemical_formula_structural   CuNiC8
_chemical_formula_sum   'Cu2 Ni2 C16'
_cell_volume   316.50828185
_cell_formula_units_Z   2
loop_
 _symmetry_equiv_pos_site_id
 _symmetry_equiv_pos_as_xyz
  1  'x, y, z'
loop_
 _atom_site_type_symbol
 _atom_site_label
 _atom_site_symmetry_multiplicity
 _atom_site_fract_x
 _atom_site_fract_y
 _atom_site_fract_z
 _atom_site_occupancy
  Ni  Ni0  1  0.58248900  0.23059300  0.75587700  1
  Ni  Ni1  1  0.41751100  0.76940700  0.24412300  1
  Cu  Cu2  1  0.22994100  0.19214500  0.16737300  1
  Cu  Cu3  1  0.77005900  0.80785500  0.83262700  1
  C  C4  1  0.56473900  0.73644200  0.97130800  1
  C  C5  1  0.78269100  0.00700200  0.82512800  1
  C  C6  1  0.43526100  0.26355800  0.02869200  1
  C  C7  1  0.21730900  0.99299800  0.17487200  1
  C  C8  1  0.39066400  0.43934400  0.70947300  1
  C  C9  1  0.24198200  0.26301300  0.35162400  1
  C  C10  1  0.01637200  0.72202700  0.85910900  1
  C  C11  1  0.73643700  0.18340100  0.51000700  1
  C  C12  1  0.26356300  0.81659900  0.48999300  1
  C  C13  1  0.60933600  0.56065600  0.29052700  1
  C  C14  1  0.83309600  0.35796500  0.79370200  1
  C  C15  1  0.16690400  0.64203500  0.20629800  1
  C  C16  1  0.33429800  0.08199000  0.75449500  1
  C  C17  1  0.66570200  0.91801000  0.24550500  1
  C  C18  1  0.75801800  0.73698700  0.64837600  1
  C  C19  1  0.98362800  0.27797300  0.14089100  1
