# generated using pymatgen
data_CuNiC5
_symmetry_space_group_name_H-M   'P 1'
_cell_length_a   8.99995500
_cell_length_b   5.08101100
_cell_length_c   8.08676699
_cell_angle_alpha   60.07205427
_cell_angle_beta   90.00000000
_cell_angle_gamma   90.00000000
_symmetry_Int_Tables_number   1
_chemical_formula_structural   CuNiC5
_chemical_formula_sum   'Cu4 Ni4 C20'
_cell_volume   320.48735821
_cell_formula_units_Z   4
loop_
 _symmetry_equiv_pos_site_id
 _symmetry_equiv_pos_as_xyz
  1  'x, y, z'
loop_
 _atom_site_type_symbol
 _atom_site_label
 _atom_site_symmetry_multiplicity
 _atom_site_fract_x
 _atom_site_fract_y
 _atom_site_fract_z
 _atom_site_occupancy
  C  C0  1  0.35577800  0.34939500  0.69659800  1
  C  C1  1  0.14422200  0.34939500  0.19659800  1
  C  C2  1  0.85577800  0.65060500  0.80340200  1
  C  C3  1  0.64422200  0.65060500  0.30340200  1
  Ni  Ni4  1  0.00000000  0.50000000  0.50000000  1
  Ni  Ni5  1  0.50000000  0.00000000  0.50000000  1
  Ni  Ni6  1  0.00000000  0.00000000  0.00000000  1
  Ni  Ni7  1  0.50000000  0.50000000  0.00000000  1
  Cu  Cu8  1  0.32494000  0.85206000  0.19761000  1
  Cu  Cu9  1  0.82494000  0.14794000  0.30239000  1
  Cu  Cu10  1  0.67506000  0.14794000  0.80239000  1
  Cu  Cu11  1  0.17506000  0.85206000  0.69761000  1
  C  C12  1  0.36575300  0.16953600  0.03081300  1
  C  C13  1  0.63424700  0.83046400  0.96918700  1
  C  C14  1  0.86575300  0.83046400  0.46918700  1
  C  C15  1  0.37692000  0.58008300  0.17502400  1
  C  C16  1  0.60549500  0.20812800  0.61012700  1
  C  C17  1  0.13424700  0.16953600  0.53081300  1
  C  C18  1  0.39450500  0.79187200  0.38987300  1
  C  C19  1  0.87692000  0.41991700  0.32497600  1
  C  C20  1  0.62308000  0.41991700  0.82497600  1
  C  C21  1  0.34931000  0.84562800  0.71455600  1
  C  C22  1  0.12308000  0.58008300  0.67502400  1
  C  C23  1  0.15069000  0.84562800  0.21455600  1
  C  C24  1  0.89450500  0.20812800  0.11012700  1
  C  C25  1  0.10549500  0.79187200  0.88987300  1
  C  C26  1  0.84931000  0.15437200  0.78544400  1
  C  C27  1  0.65069000  0.15437200  0.28544400  1
