# generated using pymatgen
data_Cu(NiC2)2
_symmetry_space_group_name_H-M   'P 1'
_cell_length_a   24.01213359
_cell_length_b   24.01213359
_cell_length_c   24.01213314
_cell_angle_alpha   13.80726348
_cell_angle_beta   13.80726348
_cell_angle_gamma   13.80726433
_symmetry_Int_Tables_number   1
_chemical_formula_structural   Cu(NiC2)2
_chemical_formula_sum   'Cu10 Ni20 C40'
_cell_volume   686.22445059
_cell_formula_units_Z   10
loop_
 _symmetry_equiv_pos_site_id
 _symmetry_equiv_pos_as_xyz
  1  'x, y, z'
loop_
 _atom_site_type_symbol
 _atom_site_label
 _atom_site_symmetry_multiplicity
 _atom_site_fract_x
 _atom_site_fract_y
 _atom_site_fract_z
 _atom_site_occupancy
  Ni  Ni0  1  0.65309300  0.65309300  0.65309300  1
  Ni  Ni1  1  0.12815600  0.61797300  0.12815600  1
  Ni  Ni2  1  0.12815600  0.12815600  0.61797300  1
  Ni  Ni3  1  0.25065700  0.25065700  0.25065700  1
  Ni  Ni4  1  0.61797300  0.12815600  0.12815600  1
  Ni  Ni5  1  0.72624000  0.21942600  0.72624000  1
  Ni  Ni6  1  0.72624000  0.72624000  0.21942600  1
  Ni  Ni7  1  0.21942600  0.72624000  0.72624000  1
  Ni  Ni8  1  0.32492500  0.82392500  0.32492500  1
  Ni  Ni9  1  0.32492500  0.32492500  0.82392500  1
  Ni  Ni10  1  0.52455900  0.52455900  0.52455900  1
  Ni  Ni11  1  0.82392500  0.32492500  0.32492500  1
  Ni  Ni12  1  0.92504900  0.42525500  0.92504900  1
  Ni  Ni13  1  0.92504900  0.92504900  0.42525500  1
  Ni  Ni14  1  0.12484300  0.12484300  0.12484300  1
  Ni  Ni15  1  0.42525500  0.92504900  0.92504900  1
  Ni  Ni16  1  0.52644600  0.02537900  0.52644600  1
  Ni  Ni17  1  0.72511500  0.72511500  0.72511500  1
  Ni  Ni18  1  0.52644600  0.52644600  0.02537900  1
  Ni  Ni19  1  0.02537900  0.52644600  0.52644600  1
  Cu  Cu20  1  0.99884100  0.99884100  0.99884100  1
  Cu  Cu21  1  0.59822300  0.59822300  0.59822300  1
  Cu  Cu22  1  0.32200500  0.32200500  0.32200500  1
  Cu  Cu23  1  0.19963800  0.19963800  0.19963800  1
  Cu  Cu24  1  0.92130400  0.92130400  0.92130400  1
  Cu  Cu25  1  0.84920900  0.84920900  0.84920900  1
  Cu  Cu26  1  0.45002900  0.45002900  0.45002900  1
  Cu  Cu27  1  0.40036200  0.40036200  0.40036200  1
  Cu  Cu28  1  0.05120300  0.05120300  0.05120300  1
  Cu  Cu29  1  0.79989500  0.79989500  0.79989500  1
  C  C30  1  0.01419400  0.45809000  0.45809000  1
  C  C31  1  0.45809000  0.45809000  0.01419400  1
  C  C32  1  0.27685300  0.27685300  0.27685300  1
  C  C33  1  0.76992500  0.27887700  0.76992500  1
  C  C34  1  0.61865800  0.05403300  0.05403300  1
  C  C35  1  0.45809000  0.01419400  0.45809000  1
  C  C36  1  0.97542500  0.97542500  0.97542500  1
  C  C37  1  0.76992500  0.76992500  0.27887700  1
  C  C38  1  0.87249600  0.87249600  0.87249600  1
  C  C39  1  0.05403300  0.05403300  0.61865800  1
  C  C40  1  0.36535500  0.89328900  0.36535500  1
  C  C41  1  0.16088500  0.68210100  0.68210100  1
  C  C42  1  0.05403300  0.61865800  0.05403300  1
  C  C43  1  0.27887700  0.76992500  0.76992500  1
  C  C44  1  0.57502600  0.57502600  0.57502600  1
  C  C45  1  0.36535500  0.36535500  0.89328900  1
  C  C46  1  0.68210100  0.68210100  0.16088500  1
  C  C47  1  0.47370400  0.47370400  0.47370400  1
  C  C48  1  0.96649400  0.49083000  0.96649400  1
  C  C49  1  0.75956900  0.28366900  0.28366900  1
  C  C50  1  0.68210100  0.16088500  0.68210100  1
  C  C51  1  0.89328900  0.36535500  0.36535500  1
  C  C52  1  0.96649400  0.96649400  0.49083000  1
  C  C53  1  0.17618600  0.17618600  0.17618600  1
  C  C54  1  0.28366900  0.28366900  0.75956900  1
  C  C55  1  0.07485600  0.07485600  0.07485600  1
  C  C56  1  0.56676200  0.09138800  0.56676200  1
  C  C57  1  0.35507500  0.88720400  0.88720400  1
  C  C58  1  0.28366900  0.75956900  0.28366900  1
  C  C59  1  0.49083000  0.96649400  0.96649400  1
  C  C60  1  0.56676200  0.56676200  0.09138800  1
  C  C61  1  0.77640100  0.77640100  0.77640100  1
  C  C62  1  0.88720400  0.88720400  0.35507500  1
  C  C63  1  0.67957600  0.67957600  0.67957600  1
  C  C64  1  0.17110700  0.67802100  0.17110700  1
  C  C65  1  0.88720400  0.35507500  0.88720400  1
  C  C66  1  0.09138800  0.56676200  0.56676200  1
  C  C67  1  0.37669000  0.37669000  0.37669000  1
  C  C68  1  0.17110700  0.17110700  0.67802100  1
  C  C69  1  0.67802100  0.17110700  0.17110700  1
