# generated using pymatgen
data_Cu22Ni4C9
_symmetry_space_group_name_H-M   'P 1'
_cell_length_a   10.10776000
_cell_length_b   12.87373600
_cell_length_c   18.38980829
_cell_angle_alpha   76.60576987
_cell_angle_beta   90.00000000
_cell_angle_gamma   90.00000000
_symmetry_Int_Tables_number   1
_chemical_formula_structural   Cu22Ni4C9
_chemical_formula_sum   'Cu88 Ni16 C36'
_cell_volume   2327.87647755
_cell_formula_units_Z   4
loop_
 _symmetry_equiv_pos_site_id
 _symmetry_equiv_pos_as_xyz
  1  'x, y, z'
loop_
 _atom_site_type_symbol
 _atom_site_label
 _atom_site_symmetry_multiplicity
 _atom_site_fract_x
 _atom_site_fract_y
 _atom_site_fract_z
 _atom_site_occupancy
  C  C0  1  0.25525600  0.55274900  0.16877100  1
  C  C1  1  0.73954200  0.98988300  0.32410000  1
  C  C2  1  0.23954200  0.01011700  0.17590000  1
  C  C3  1  0.24126700  0.43437000  0.48488600  1
  C  C4  1  0.75518100  0.87913000  0.13421000  1
  C  C5  1  0.74126700  0.56563000  0.01511400  1
  C  C6  1  0.74481900  0.87913000  0.63421000  1
  C  C7  1  0.26045800  0.01011700  0.67590000  1
  C  C8  1  0.75873300  0.56563000  0.51511400  1
  C  C9  1  0.74474400  0.44725100  0.83122900  1
  C  C10  1  0.24474400  0.55274900  0.66877100  1
  C  C11  1  0.76045800  0.98988300  0.82410000  1
  C  C12  1  0.24481900  0.12087000  0.86579000  1
  C  C13  1  0.25518100  0.12087000  0.36579000  1
  C  C14  1  0.75525600  0.44725100  0.33122900  1
  C  C15  1  0.25873300  0.43437000  0.98488600  1
  C  C16  1  0.75835800  0.22810500  0.58852800  1
  C  C17  1  0.24164200  0.77189500  0.41147200  1
  C  C18  1  0.74164200  0.22810500  0.08852800  1
  C  C19  1  0.25835800  0.77189500  0.91147200  1
  C  C20  1  0.87826500  0.27509400  0.15300400  1
  C  C21  1  0.12173500  0.72490600  0.84699600  1
  C  C22  1  0.11358100  0.80384500  0.97659200  1
  C  C23  1  0.11213300  0.82097700  0.47831300  1
  C  C24  1  0.38641900  0.80384500  0.47659200  1
  C  C25  1  0.62173500  0.27509400  0.65300400  1
  C  C26  1  0.09196800  0.73631500  0.35039100  1
  C  C27  1  0.90803200  0.26368500  0.64960900  1
  C  C28  1  0.38786700  0.82097700  0.97831300  1
  C  C29  1  0.61358100  0.19615500  0.52340800  1
  C  C30  1  0.61213300  0.17902300  0.02168700  1
  C  C31  1  0.37826500  0.72490600  0.34699600  1
  C  C32  1  0.88641900  0.19615500  0.02340800  1
  C  C33  1  0.59196800  0.26368500  0.14960900  1
  C  C34  1  0.88786700  0.17902300  0.52168700  1
  C  C35  1  0.40803200  0.73631500  0.85039100  1
  Ni  Ni36  1  0.03361300  0.81955700  0.01573400  1
  Ni  Ni37  1  0.53361300  0.18044300  0.48426600  1
  Ni  Ni38  1  0.54036000  0.30275500  0.68635400  1
  Ni  Ni39  1  0.50398200  0.28544100  0.18110900  1
  Ni  Ni40  1  0.04036000  0.69724500  0.81364600  1
  Ni  Ni41  1  0.95964000  0.30275500  0.18635400  1
  Ni  Ni42  1  0.45964000  0.69724500  0.31364600  1
  Ni  Ni43  1  0.04324000  0.84956000  0.51811100  1
  Ni  Ni44  1  0.99601800  0.28544100  0.68110900  1
  Ni  Ni45  1  0.00398200  0.71455900  0.31889100  1
  Ni  Ni46  1  0.49601800  0.71455900  0.81889100  1
  Ni  Ni47  1  0.54324000  0.15044000  0.98188900  1
  Ni  Ni48  1  0.95676000  0.15044000  0.48188900  1
  Ni  Ni49  1  0.45676000  0.84956000  0.01811100  1
  Ni  Ni50  1  0.96638700  0.18044300  0.98426600  1
  Ni  Ni51  1  0.46638700  0.81955700  0.51573400  1
  Cu  Cu52  1  0.44061200  0.55897500  0.18190500  1
  Cu  Cu53  1  0.73219900  0.31848000  0.90942400  1
  Cu  Cu54  1  0.12052200  0.00522600  0.89258600  1
  Cu  Cu55  1  0.11201100  0.53879400  0.44040700  1
  Cu  Cu56  1  0.36938300  0.34234700  0.54196300  1
  Cu  Cu57  1  0.39010800  0.11504100  0.63666800  1
  Cu  Cu58  1  0.92387400  0.45650700  0.85945200  1
  Cu  Cu59  1  0.75019400  0.85706300  0.53594300  1
  Cu  Cu60  1  0.26201300  0.09349300  0.25873700  1
  Cu  Cu61  1  0.60342600  0.78411400  0.66757200  1
  Cu  Cu62  1  0.24980600  0.14293700  0.46405700  1
  Cu  Cu63  1  0.71904000  0.60408000  0.60539200  1
  Cu  Cu64  1  0.07612600  0.54349300  0.14054800  1
  Cu  Cu65  1  0.36771500  0.91331500  0.22998100  1
  Cu  Cu66  1  0.10497700  0.33118600  0.51448700  1
  Cu  Cu67  1  0.36362400  0.55176400  0.46816600  1
  Cu  Cu68  1  0.57612600  0.45650700  0.35945200  1
  Cu  Cu69  1  0.87589600  0.89794600  0.37279100  1
  Cu  Cu70  1  0.60929100  0.07327000  0.26131000  1
  Cu  Cu71  1  0.26780100  0.68152000  0.09057600  1
  Cu  Cu72  1  0.13061700  0.34234700  0.04196300  1
  Cu  Cu73  1  0.13637600  0.55176400  0.96816600  1
  Cu  Cu74  1  0.19529000  0.47636600  0.58334300  1
  Cu  Cu75  1  0.76201300  0.90650700  0.24126300  1
  Cu  Cu76  1  0.28181400  0.62818700  0.74432500  1
  Cu  Cu77  1  0.10342600  0.21588600  0.83242800  1
  Cu  Cu78  1  0.86771500  0.08668500  0.27001900  1
  Cu  Cu79  1  0.39502300  0.33118600  0.01448700  1
  Cu  Cu80  1  0.30471000  0.47636600  0.08334300  1
  Cu  Cu81  1  0.39657400  0.21588600  0.33242800  1
  Cu  Cu82  1  0.62222300  0.77833000  0.17256900  1
  Cu  Cu83  1  0.60989200  0.88495900  0.36333200  1
  Cu  Cu84  1  0.62286800  0.98931000  0.11377900  1
  Cu  Cu85  1  0.89070900  0.07327000  0.76131000  1
  Cu  Cu86  1  0.87777700  0.77833000  0.67256900  1
  Cu  Cu87  1  0.62410400  0.89794600  0.87279100  1
  Cu  Cu88  1  0.87713200  0.98931000  0.61377900  1
  Cu  Cu89  1  0.12286800  0.01069000  0.38622100  1
  Cu  Cu90  1  0.86362400  0.44823600  0.03183400  1
  Cu  Cu91  1  0.05938800  0.55897500  0.68190500  1
  Cu  Cu92  1  0.86938300  0.65765300  0.95803700  1
  Cu  Cu93  1  0.74780200  0.58645400  0.26969700  1
  Cu  Cu94  1  0.89502300  0.66881400  0.48551300  1
  Cu  Cu95  1  0.12410400  0.10205400  0.62720900  1
  Cu  Cu96  1  0.37777700  0.22167000  0.82743100  1
  Cu  Cu97  1  0.71818600  0.37181300  0.25567500  1
  Cu  Cu98  1  0.10929100  0.92673000  0.23869000  1
  Cu  Cu99  1  0.22302700  0.93599500  0.09828600  1
  Cu  Cu100  1  0.63061700  0.65765300  0.45803700  1
  Cu  Cu101  1  0.77697300  0.06400500  0.90171400  1
  Cu  Cu102  1  0.25219800  0.41354600  0.73030300  1
  Cu  Cu103  1  0.25019400  0.14293700  0.96405700  1
  Cu  Cu104  1  0.61201100  0.46120600  0.05959300  1
  Cu  Cu105  1  0.72302700  0.06400500  0.40171400  1
  Cu  Cu106  1  0.63637600  0.44823600  0.53183400  1
  Cu  Cu107  1  0.55938800  0.44102500  0.81809500  1
  Cu  Cu108  1  0.38798900  0.53879400  0.94040700  1
  Cu  Cu109  1  0.21818600  0.62818700  0.24432500  1
  Cu  Cu110  1  0.23219900  0.68152000  0.59057600  1
  Cu  Cu111  1  0.89657400  0.78411400  0.16757200  1
  Cu  Cu112  1  0.88798900  0.46120600  0.55959300  1
  Cu  Cu113  1  0.75219800  0.58645400  0.76969700  1
  Cu  Cu114  1  0.89010800  0.88495900  0.86333200  1
  Cu  Cu115  1  0.62052200  0.99477400  0.60741400  1
  Cu  Cu116  1  0.80471000  0.52363400  0.41665700  1
  Cu  Cu117  1  0.87947800  0.99477400  0.10741400  1
  Cu  Cu118  1  0.28096000  0.39592000  0.39460800  1
  Cu  Cu119  1  0.13228500  0.91331500  0.72998100  1
  Cu  Cu120  1  0.60497700  0.66881400  0.98551300  1
  Cu  Cu121  1  0.69529000  0.52363400  0.91665700  1
  Cu  Cu122  1  0.78096000  0.60408000  0.10539200  1
  Cu  Cu123  1  0.23798700  0.09349300  0.75873700  1
  Cu  Cu124  1  0.39070900  0.92673000  0.73869000  1
  Cu  Cu125  1  0.63228500  0.08668500  0.77001900  1
  Cu  Cu126  1  0.73798700  0.90650700  0.74126300  1
  Cu  Cu127  1  0.21904000  0.39592000  0.89460800  1
  Cu  Cu128  1  0.76780100  0.31848000  0.40942400  1
  Cu  Cu129  1  0.74980600  0.85706300  0.03594300  1
  Cu  Cu130  1  0.37947800  0.00522600  0.39258600  1
  Cu  Cu131  1  0.37589600  0.10205400  0.12720900  1
  Cu  Cu132  1  0.24780200  0.41354600  0.23030300  1
  Cu  Cu133  1  0.78181400  0.37181300  0.75567500  1
  Cu  Cu134  1  0.10989200  0.11504100  0.13666800  1
  Cu  Cu135  1  0.37713200  0.01069000  0.88622100  1
  Cu  Cu136  1  0.94061200  0.44102500  0.31809500  1
  Cu  Cu137  1  0.12222300  0.22167000  0.32743100  1
  Cu  Cu138  1  0.27697300  0.93599500  0.59828600  1
  Cu  Cu139  1  0.42387400  0.54349300  0.64054800  1
