# generated using pymatgen
data_Cu8Ni2C3
_symmetry_space_group_name_H-M   'P 1'
_cell_length_a   6.69420200
_cell_length_b   11.84409500
_cell_length_c   17.57235165
_cell_angle_alpha   89.96851599
_cell_angle_beta   90.00000000
_cell_angle_gamma   90.00000000
_symmetry_Int_Tables_number   1
_chemical_formula_structural   Cu8Ni2C3
_chemical_formula_sum   'Cu32 Ni8 C12'
_cell_volume   1393.25469577
_cell_formula_units_Z   4
loop_
 _symmetry_equiv_pos_site_id
 _symmetry_equiv_pos_as_xyz
  1  'x, y, z'
loop_
 _atom_site_type_symbol
 _atom_site_label
 _atom_site_symmetry_multiplicity
 _atom_site_fract_x
 _atom_site_fract_y
 _atom_site_fract_z
 _atom_site_occupancy
  C  C0  1  0.48847000  0.83047600  0.42816800  1
  C  C1  1  0.01153000  0.33047600  0.42816800  1
  C  C2  1  0.04130700  0.02267700  0.74877300  1
  C  C3  1  0.49580300  0.83958500  0.92792500  1
  C  C4  1  0.99580300  0.66041500  0.07207500  1
  C  C5  1  0.54130700  0.47732300  0.25122700  1
  C  C6  1  0.00419700  0.33958500  0.92792500  1
  C  C7  1  0.50419700  0.16041500  0.07207500  1
  C  C8  1  0.98847000  0.66952400  0.57183200  1
  C  C9  1  0.51153000  0.16952400  0.57183200  1
  C  C10  1  0.45869300  0.52267700  0.74877300  1
  C  C11  1  0.95869300  0.97732300  0.25122700  1
  Ni  Ni12  1  0.47144200  0.83852800  0.14046600  1
  Ni  Ni13  1  0.48425300  0.82895000  0.64014900  1
  Ni  Ni14  1  0.98425300  0.67105000  0.35985100  1
  Ni  Ni15  1  0.01574700  0.32895000  0.64014900  1
  Ni  Ni16  1  0.51574700  0.17105000  0.35985100  1
  Ni  Ni17  1  0.52855800  0.16147200  0.85953400  1
  Ni  Ni18  1  0.97144200  0.66147200  0.85953400  1
  Ni  Ni19  1  0.02855800  0.33852800  0.14046600  1
  Cu  Cu20  1  0.73570400  0.07754500  0.41227900  1
  Cu  Cu21  1  0.00909700  0.17392500  0.58625200  1
  Cu  Cu22  1  0.27161200  0.09529900  0.90744300  1
  Cu  Cu23  1  0.26554200  0.40636200  0.08162000  1
  Cu  Cu24  1  0.26429600  0.92245500  0.58772100  1
  Cu  Cu25  1  0.23570400  0.42245500  0.58772100  1
  Cu  Cu26  1  0.72838800  0.90470100  0.09255700  1
  Cu  Cu27  1  0.76429600  0.57754500  0.41227900  1
  Cu  Cu28  1  0.73445800  0.59363800  0.91838000  1
  Cu  Cu29  1  0.09514800  0.30280200  0.75057000  1
  Cu  Cu30  1  0.90485200  0.69719800  0.24943000  1
  Cu  Cu31  1  0.49090300  0.67392500  0.58625200  1
  Cu  Cu32  1  0.02647500  0.16875900  0.11706300  1
  Cu  Cu33  1  0.47352500  0.66875900  0.11706300  1
  Cu  Cu34  1  0.50909700  0.32607500  0.41374800  1
  Cu  Cu35  1  0.99090300  0.82607500  0.41374800  1
  Cu  Cu36  1  0.74900500  0.40592500  0.61618600  1
  Cu  Cu37  1  0.22838800  0.59529900  0.90744300  1
  Cu  Cu38  1  0.59514800  0.19719800  0.24943000  1
  Cu  Cu39  1  0.24900500  0.09407500  0.38381400  1
  Cu  Cu40  1  0.97352500  0.83124100  0.88293700  1
  Cu  Cu41  1  0.52647500  0.33124100  0.88293700  1
  Cu  Cu42  1  0.94679400  0.61016800  0.74934400  1
  Cu  Cu43  1  0.75099500  0.90592500  0.61618600  1
  Cu  Cu44  1  0.25099500  0.59407500  0.38381400  1
  Cu  Cu45  1  0.05320600  0.38983200  0.25065600  1
  Cu  Cu46  1  0.44679400  0.88983200  0.25065600  1
  Cu  Cu47  1  0.77161200  0.40470100  0.09255700  1
  Cu  Cu48  1  0.55320600  0.11016800  0.74934400  1
  Cu  Cu49  1  0.76554200  0.09363800  0.91838000  1
  Cu  Cu50  1  0.40485200  0.80280200  0.75057000  1
  Cu  Cu51  1  0.23445800  0.90636200  0.08162000  1
