# generated using pymatgen
data_CuNiC16
_symmetry_space_group_name_H-M   'P 1'
_cell_length_a   7.39837744
_cell_length_b   7.39837744
_cell_length_c   10.51728948
_cell_angle_alpha   78.93951774
_cell_angle_beta   78.93951774
_cell_angle_gamma   115.32313872
_symmetry_Int_Tables_number   1
_chemical_formula_structural   CuNiC16
_chemical_formula_sum   'Cu2 Ni2 C32'
_cell_volume   485.74070638
_cell_formula_units_Z   2
loop_
 _symmetry_equiv_pos_site_id
 _symmetry_equiv_pos_as_xyz
  1  'x, y, z'
loop_
 _atom_site_type_symbol
 _atom_site_label
 _atom_site_symmetry_multiplicity
 _atom_site_fract_x
 _atom_site_fract_y
 _atom_site_fract_z
 _atom_site_occupancy
  Ni  Ni0  1  0.81580100  0.18419900  0.75000000  1
  Ni  Ni1  1  0.18419900  0.81580100  0.25000000  1
  Cu  Cu2  1  0.88016600  0.11983400  0.25000000  1
  Cu  Cu3  1  0.11983400  0.88016600  0.75000000  1
  C  C4  1  0.30264100  0.25478200  0.94290100  1
  C  C5  1  0.25478200  0.30264100  0.44290100  1
  C  C6  1  0.74521800  0.69735900  0.55709900  1
  C  C7  1  0.71489700  0.37379600  0.00333100  1
  C  C8  1  0.62620400  0.28510300  0.49666900  1
  C  C9  1  0.28510300  0.62620400  0.99666900  1
  C  C10  1  0.37379600  0.71489700  0.50333100  1
  C  C11  1  0.69735900  0.74521800  0.05709900  1
  C  C12  1  0.72848300  0.47080400  0.56377100  1
  C  C13  1  0.15625000  0.13603200  0.08597400  1
  C  C14  1  0.75324900  0.81605500  0.17409300  1
  C  C15  1  0.84375000  0.86396800  0.91402600  1
  C  C16  1  0.18394500  0.24675100  0.32590700  1
  C  C17  1  0.91025700  0.51396400  0.88464800  1
  C  C18  1  0.13603200  0.15625000  0.58597400  1
  C  C19  1  0.64190800  0.50053900  0.08997900  1
  C  C20  1  0.24675100  0.18394500  0.82590700  1
  C  C21  1  0.35809200  0.49946100  0.91002100  1
  C  C22  1  0.86396800  0.84375000  0.41402600  1
  C  C23  1  0.08974300  0.48603600  0.11535200  1
  C  C24  1  0.51396400  0.91025700  0.38464800  1
  C  C25  1  0.19113400  0.70457600  0.60237900  1
  C  C26  1  0.52919600  0.27151700  0.93622900  1
  C  C27  1  0.80886600  0.29542400  0.39762100  1
  C  C28  1  0.27151700  0.52919600  0.43622900  1
  C  C29  1  0.70457600  0.19113400  0.10237900  1
  C  C30  1  0.29542400  0.80886600  0.89762100  1
  C  C31  1  0.47080400  0.72848300  0.06377100  1
  C  C32  1  0.50053900  0.64190800  0.58997900  1
  C  C33  1  0.49946100  0.35809200  0.41002100  1
  C  C34  1  0.48603600  0.08974300  0.61535200  1
  C  C35  1  0.81605500  0.75324900  0.67409300  1
