# generated using pymatgen
data_Cu2Ni2C
_symmetry_space_group_name_H-M   'P 1'
_cell_length_a   9.61417400
_cell_length_b   6.06686500
_cell_length_c   12.12094186
_cell_angle_alpha   77.01730731
_cell_angle_beta   90.00000000
_cell_angle_gamma   90.00000000
_symmetry_Int_Tables_number   1
_chemical_formula_structural   Cu2Ni2C
_chemical_formula_sum   'Cu16 Ni16 C8'
_cell_volume   688.91695940
_cell_formula_units_Z   8
loop_
 _symmetry_equiv_pos_site_id
 _symmetry_equiv_pos_as_xyz
  1  'x, y, z'
loop_
 _atom_site_type_symbol
 _atom_site_label
 _atom_site_symmetry_multiplicity
 _atom_site_fract_x
 _atom_site_fract_y
 _atom_site_fract_z
 _atom_site_occupancy
  Ni  Ni0  1  0.55767300  0.96054300  0.17833100  1
  Ni  Ni1  1  0.05767300  0.03945700  0.82166900  1
  Ni  Ni2  1  0.20951700  0.55018300  0.82975100  1
  Ni  Ni3  1  0.70951700  0.44981700  0.17024900  1
  Ni  Ni4  1  0.68538200  0.74898300  0.43730500  1
  Ni  Ni5  1  0.18538200  0.25101700  0.56269500  1
  Ni  Ni6  1  0.91395400  0.74526100  0.91594500  1
  Ni  Ni7  1  0.41395400  0.25473900  0.08405500  1
  Ni  Ni8  1  0.43268400  0.75843800  0.57451100  1
  Ni  Ni9  1  0.93268400  0.24156200  0.42548900  1
  Ni  Ni10  1  0.36287700  0.03388100  0.66781200  1
  Ni  Ni11  1  0.86287700  0.96611900  0.33218800  1
  Ni  Ni12  1  0.23501700  0.55800700  0.63880300  1
  Ni  Ni13  1  0.73501700  0.44199300  0.36119700  1
  Ni  Ni14  1  0.57430900  0.45288800  0.83666000  1
  Ni  Ni15  1  0.07430900  0.54711200  0.16334000  1
  Cu  Cu16  1  0.70989200  0.92852800  0.86086700  1
  Cu  Cu17  1  0.20989200  0.07147200  0.13913300  1
  Cu  Cu18  1  0.24976500  0.76556800  0.06887300  1
  Cu  Cu19  1  0.74976500  0.23443200  0.93112700  1
  Cu  Cu20  1  0.56376000  0.23861000  0.60977200  1
  Cu  Cu21  1  0.06376000  0.76139000  0.39022800  1
  Cu  Cu22  1  0.40057100  0.54891500  0.32466500  1
  Cu  Cu23  1  0.90057100  0.45108500  0.67533500  1
  Cu  Cu24  1  0.72769200  0.95416700  0.67094400  1
  Cu  Cu25  1  0.22769200  0.04583300  0.32905600  1
  Cu  Cu26  1  0.03642800  0.74843600  0.58080700  1
  Cu  Cu27  1  0.53642800  0.25156400  0.41919300  1
  Cu  Cu28  1  0.37060200  0.27137600  0.89664900  1
  Cu  Cu29  1  0.87060200  0.72862400  0.10335100  1
  Cu  Cu30  1  0.02184400  0.26555000  0.07311200  1
  Cu  Cu31  1  0.52184400  0.73445000  0.92688800  1
  C  C32  1  0.95992100  0.09323600  0.62695600  1
  C  C33  1  0.45992100  0.90676400  0.37304400  1
  C  C34  1  0.65520600  0.58675000  0.64344400  1
  C  C35  1  0.15520600  0.41325000  0.35655600  1
  C  C36  1  0.29751600  0.90984700  0.86348100  1
  C  C37  1  0.79751600  0.09015300  0.13651900  1
  C  C38  1  0.48010900  0.60910000  0.12814700  1
  C  C39  1  0.98010900  0.39090000  0.87185300  1
