# generated using pymatgen
data_Cu3NiC2
_symmetry_space_group_name_H-M   'P 1'
_cell_length_a   7.46518400
_cell_length_b   8.30617300
_cell_length_c   8.61371300
_cell_angle_alpha   90.00000000
_cell_angle_beta   90.00000000
_cell_angle_gamma   90.00000000
_symmetry_Int_Tables_number   1
_chemical_formula_structural   Cu3NiC2
_chemical_formula_sum   'Cu12 Ni4 C8'
_cell_volume   534.11144761
_cell_formula_units_Z   4
loop_
 _symmetry_equiv_pos_site_id
 _symmetry_equiv_pos_as_xyz
  1  'x, y, z'
loop_
 _atom_site_type_symbol
 _atom_site_label
 _atom_site_symmetry_multiplicity
 _atom_site_fract_x
 _atom_site_fract_y
 _atom_site_fract_z
 _atom_site_occupancy
  C  C0  1  0.25000000  0.15315500  0.63113000  1
  C  C1  1  0.75000000  0.84684500  0.36887000  1
  C  C2  1  0.25000000  0.34684500  0.13113000  1
  C  C3  1  0.75000000  0.65315500  0.86887000  1
  C  C4  1  0.75000000  0.15645300  0.88007100  1
  C  C5  1  0.25000000  0.65645300  0.61992900  1
  C  C6  1  0.75000000  0.34354700  0.38007100  1
  C  C7  1  0.25000000  0.84354700  0.11992900  1
  Ni  Ni8  1  0.75000000  0.04488100  0.71408600  1
  Ni  Ni9  1  0.75000000  0.45511900  0.21408600  1
  Ni  Ni10  1  0.25000000  0.95511900  0.28591400  1
  Ni  Ni11  1  0.25000000  0.54488100  0.78591400  1
  Cu  Cu12  1  0.75000000  0.02170500  0.03819200  1
  Cu  Cu13  1  0.55559000  0.27792500  0.87904300  1
  Cu  Cu14  1  0.25000000  0.52170500  0.46180800  1
  Cu  Cu15  1  0.94441000  0.22207500  0.37904300  1
  Cu  Cu16  1  0.05559000  0.72207500  0.12095700  1
  Cu  Cu17  1  0.44441000  0.72207500  0.12095700  1
  Cu  Cu18  1  0.25000000  0.97829500  0.96180800  1
  Cu  Cu19  1  0.94441000  0.27792500  0.87904300  1
  Cu  Cu20  1  0.05559000  0.77792500  0.62095700  1
  Cu  Cu21  1  0.55559000  0.22207500  0.37904300  1
  Cu  Cu22  1  0.75000000  0.47829500  0.53819200  1
  Cu  Cu23  1  0.44441000  0.77792500  0.62095700  1
