# generated using pymatgen
data_Cu2Ni5C37
_symmetry_space_group_name_H-M   'P 1'
_cell_length_a   10.60085700
_cell_length_b   10.60085700
_cell_length_c   10.60085700
_cell_angle_alpha   90.00000000
_cell_angle_beta   90.00000000
_cell_angle_gamma   90.00000000
_symmetry_Int_Tables_number   1
_chemical_formula_structural   Cu2Ni5C37
_chemical_formula_sum   'Cu4 Ni10 C74'
_cell_volume   1191.30490092
_cell_formula_units_Z   2
loop_
 _symmetry_equiv_pos_site_id
 _symmetry_equiv_pos_as_xyz
  1  'x, y, z'
loop_
 _atom_site_type_symbol
 _atom_site_label
 _atom_site_symmetry_multiplicity
 _atom_site_fract_x
 _atom_site_fract_y
 _atom_site_fract_z
 _atom_site_occupancy
  C  C0  1  0.00000000  0.00000000  0.00000000  1
  C  C1  1  0.50000000  0.50000000  0.50000000  1
  Ni  Ni2  1  0.25000000  0.25000000  0.75000000  1
  Ni  Ni3  1  0.25000000  0.75000000  0.25000000  1
  Ni  Ni4  1  0.00000000  0.50000000  0.50000000  1
  Ni  Ni5  1  0.50000000  0.00000000  0.00000000  1
  Ni  Ni6  1  0.50000000  0.00000000  0.50000000  1
  Ni  Ni7  1  0.75000000  0.75000000  0.75000000  1
  Ni  Ni8  1  0.50000000  0.50000000  0.00000000  1
  Ni  Ni9  1  0.00000000  0.50000000  0.00000000  1
  Ni  Ni10  1  0.75000000  0.25000000  0.25000000  1
  Ni  Ni11  1  0.00000000  0.00000000  0.50000000  1
  Cu  Cu12  1  0.75000000  0.75000000  0.25000000  1
  Cu  Cu13  1  0.25000000  0.75000000  0.75000000  1
  Cu  Cu14  1  0.75000000  0.25000000  0.75000000  1
  Cu  Cu15  1  0.25000000  0.25000000  0.25000000  1
  C  C16  1  0.25228600  0.25911800  0.43449500  1
  C  C17  1  0.56550500  0.74771400  0.25911800  1
  C  C18  1  0.43449500  0.74771400  0.74088200  1
  C  C19  1  0.25911800  0.56550500  0.74771400  1
  C  C20  1  0.74771400  0.74088200  0.43449500  1
  C  C21  1  0.75911800  0.06550500  0.75228600  1
  C  C22  1  0.06550500  0.75228600  0.75911800  1
  C  C23  1  0.56550500  0.25228600  0.74088200  1
  C  C24  1  0.25911800  0.43449500  0.25228600  1
  C  C25  1  0.75228600  0.24088200  0.93449500  1
  C  C26  1  0.74088200  0.56550500  0.25228600  1
  C  C27  1  0.24771400  0.24088200  0.06550500  1
  C  C28  1  0.25228600  0.74088200  0.56550500  1
  C  C29  1  0.75911800  0.93449500  0.24771400  1
  C  C30  1  0.43449500  0.25228600  0.25911800  1
  C  C31  1  0.24088200  0.93449500  0.75228600  1
  C  C32  1  0.24088200  0.06550500  0.24771400  1
  C  C33  1  0.93449500  0.75228600  0.24088200  1
  C  C34  1  0.74088200  0.43449500  0.74771400  1
  C  C35  1  0.74771400  0.25911800  0.56550500  1
  C  C36  1  0.24771400  0.75911800  0.93449500  1
  C  C37  1  0.75228600  0.75911800  0.06550500  1
  C  C38  1  0.93449500  0.24771400  0.75911800  1
  C  C39  1  0.06550500  0.24771400  0.24088200  1
  C  C40  1  0.25482400  0.99328300  0.65055100  1
  C  C41  1  0.75482400  0.49328300  0.84944900  1
  C  C42  1  0.15055100  0.75482400  0.50671700  1
  C  C43  1  0.00671700  0.34944900  0.25482400  1
  C  C44  1  0.65055100  0.25482400  0.99328300  1
  C  C45  1  0.99657200  0.85185200  0.21401800  1
  C  C46  1  0.14814800  0.21401800  0.00342800  1
  C  C47  1  0.71401800  0.50342800  0.35185200  1
  C  C48  1  0.34944900  0.74517600  0.99328300  1
  C  C49  1  0.78598200  0.99657200  0.14814800  1
  C  C50  1  0.84944900  0.75482400  0.49328300  1
  C  C51  1  0.14814800  0.78598200  0.99657200  1
  C  C52  1  0.50671700  0.15055100  0.75482400  1
  C  C53  1  0.64814800  0.71401800  0.49657200  1
  C  C54  1  0.78598200  0.00342800  0.85185200  1
  C  C55  1  0.65055100  0.74517600  0.00671700  1
  C  C56  1  0.64814800  0.28598200  0.50342800  1
  C  C57  1  0.99328300  0.65055100  0.25482400  1
  C  C58  1  0.84944900  0.24517600  0.50671700  1
  C  C59  1  0.85185200  0.78598200  0.00342800  1
  C  C60  1  0.28598200  0.50342800  0.64814800  1
  C  C61  1  0.99328300  0.34944900  0.74517600  1
  C  C62  1  0.99657200  0.14814800  0.78598200  1
  C  C63  1  0.50671700  0.84944900  0.24517600  1
  C  C64  1  0.75482400  0.50671700  0.15055100  1
  C  C65  1  0.00342800  0.14814800  0.21401800  1
  C  C66  1  0.15055100  0.24517600  0.49328300  1
  C  C67  1  0.74517600  0.99328300  0.34944900  1
  C  C68  1  0.34944900  0.25482400  0.00671700  1
  C  C69  1  0.28598200  0.49657200  0.35185200  1
  C  C70  1  0.50342800  0.35185200  0.71401800  1
  C  C71  1  0.35185200  0.71401800  0.50342800  1
  C  C72  1  0.00671700  0.65055100  0.74517600  1
  C  C73  1  0.49657200  0.64814800  0.71401800  1
  C  C74  1  0.49328300  0.84944900  0.75482400  1
  C  C75  1  0.25482400  0.00671700  0.34944900  1
  C  C76  1  0.50342800  0.64814800  0.28598200  1
  C  C77  1  0.49328300  0.15055100  0.24517600  1
  C  C78  1  0.74517600  0.00671700  0.65055100  1
  C  C79  1  0.24517600  0.50671700  0.84944900  1
  C  C80  1  0.85185200  0.21401800  0.99657200  1
  C  C81  1  0.00342800  0.85185200  0.78598200  1
  C  C82  1  0.21401800  0.00342800  0.14814800  1
  C  C83  1  0.35185200  0.28598200  0.49657200  1
  C  C84  1  0.24517600  0.49328300  0.15055100  1
  C  C85  1  0.71401800  0.49657200  0.64814800  1
  C  C86  1  0.49657200  0.35185200  0.28598200  1
  C  C87  1  0.21401800  0.99657200  0.85185200  1
