# generated using pymatgen
data_CuNiC10
_symmetry_space_group_name_H-M   'P 1'
_cell_length_a   10.19380380
_cell_length_b   10.19380380
_cell_length_c   5.79346500
_cell_angle_alpha   90.00000000
_cell_angle_beta   90.00000000
_cell_angle_gamma   119.99999873
_symmetry_Int_Tables_number   1
_chemical_formula_structural   CuNiC10
_chemical_formula_sum   'Cu2 Ni2 C20'
_cell_volume   521.36463173
_cell_formula_units_Z   2
loop_
 _symmetry_equiv_pos_site_id
 _symmetry_equiv_pos_as_xyz
  1  'x, y, z'
loop_
 _atom_site_type_symbol
 _atom_site_label
 _atom_site_symmetry_multiplicity
 _atom_site_fract_x
 _atom_site_fract_y
 _atom_site_fract_z
 _atom_site_occupancy
  C  C0  1  0.23207600  0.87537800  0.74745000  1
  C  C1  1  0.35669800  0.23207600  0.24745000  1
  C  C2  1  0.12462200  0.35669800  0.74745000  1
  C  C3  1  0.76792400  0.12462200  0.24745000  1
  C  C4  1  0.87537800  0.64330200  0.24745000  1
  C  C5  1  0.64330200  0.76792400  0.74745000  1
  Ni  Ni6  1  0.00000000  0.00000000  0.22105000  1
  Ni  Ni7  1  0.00000000  0.00000000  0.72105000  1
  Cu  Cu8  1  0.66666700  0.33333300  0.83327000  1
  Cu  Cu9  1  0.33333300  0.66666700  0.33327000  1
  C  C10  1  0.52446100  0.11233700  0.97715800  1
  C  C11  1  0.83557300  0.08746900  0.73270100  1
  C  C12  1  0.11233700  0.58787600  0.47715800  1
  C  C13  1  0.47553900  0.88766300  0.47715800  1
  C  C14  1  0.16442700  0.91253100  0.23270100  1
  C  C15  1  0.66666700  0.33333300  0.46845600  1
  C  C16  1  0.91253100  0.74810400  0.73270100  1
  C  C17  1  0.33333300  0.66666700  0.96845600  1
  C  C18  1  0.58787600  0.47553900  0.97715800  1
  C  C19  1  0.74810400  0.83557300  0.23270100  1
  C  C20  1  0.41212400  0.52446100  0.47715800  1
  C  C21  1  0.88766300  0.41212400  0.97715800  1
  C  C22  1  0.08746900  0.25189600  0.23270100  1
  C  C23  1  0.25189600  0.16442700  0.73270100  1
