# generated using pymatgen
data_Cu2Ni5C4
_symmetry_space_group_name_H-M   'P 1'
_cell_length_a   8.50716916
_cell_length_b   8.50716916
_cell_length_c   8.50716916
_cell_angle_alpha   60.00000000
_cell_angle_beta   60.00000000
_cell_angle_gamma   60.00000000
_symmetry_Int_Tables_number   1
_chemical_formula_structural   Cu2Ni5C4
_chemical_formula_sum   'Cu4 Ni10 C8'
_cell_volume   435.35166277
_cell_formula_units_Z   2
loop_
 _symmetry_equiv_pos_site_id
 _symmetry_equiv_pos_as_xyz
  1  'x, y, z'
loop_
 _atom_site_type_symbol
 _atom_site_label
 _atom_site_symmetry_multiplicity
 _atom_site_fract_x
 _atom_site_fract_y
 _atom_site_fract_z
 _atom_site_occupancy
  Ni  Ni0  1  0.91662500  0.25012400  0.91662500  1
  Ni  Ni1  1  0.91662500  0.91662500  0.25012400  1
  Ni  Ni2  1  0.25012400  0.91662500  0.91662500  1
  Ni  Ni3  1  0.91662500  0.91662500  0.91662500  1
  Ni  Ni4  1  0.50556300  0.50556300  0.99443700  1
  Ni  Ni5  1  0.99443700  0.50556300  0.50556300  1
  Ni  Ni6  1  0.50556300  0.99443700  0.99443700  1
  Ni  Ni7  1  0.99443700  0.99443700  0.50556300  1
  Ni  Ni8  1  0.99443700  0.50556300  0.99443700  1
  Ni  Ni9  1  0.50556300  0.99443700  0.50556300  1
  Cu  Cu10  1  0.12233200  0.63300400  0.12233200  1
  Cu  Cu11  1  0.12233200  0.12233200  0.63300400  1
  Cu  Cu12  1  0.63300400  0.12233200  0.12233200  1
  Cu  Cu13  1  0.12233200  0.12233200  0.12233200  1
  C  C14  1  0.75000000  0.75000000  0.75000000  1
  C  C15  1  0.25000000  0.25000000  0.25000000  1
  C  C16  1  0.28927000  0.28927000  0.71073000  1
  C  C17  1  0.71073000  0.28927000  0.28927000  1
  C  C18  1  0.28927000  0.71073000  0.71073000  1
  C  C19  1  0.71073000  0.71073000  0.28927000  1
  C  C20  1  0.71073000  0.28927000  0.71073000  1
  C  C21  1  0.28927000  0.71073000  0.28927000  1
