# generated using pymatgen
data_Cu2(NiC8)3
_symmetry_space_group_name_H-M   'P 1'
_cell_length_a   8.53004400
_cell_length_b   7.80825900
_cell_length_c   12.72240114
_cell_angle_alpha   83.42981435
_cell_angle_beta   90.00000000
_cell_angle_gamma   90.00000000
_symmetry_Int_Tables_number   1
_chemical_formula_structural   Cu2(NiC8)3
_chemical_formula_sum   'Cu4 Ni6 C48'
_cell_volume   841.80771948
_cell_formula_units_Z   2
loop_
 _symmetry_equiv_pos_site_id
 _symmetry_equiv_pos_as_xyz
  1  'x, y, z'
loop_
 _atom_site_type_symbol
 _atom_site_label
 _atom_site_symmetry_multiplicity
 _atom_site_fract_x
 _atom_site_fract_y
 _atom_site_fract_z
 _atom_site_occupancy
  Ni  Ni0  1  0.39840100  0.38392300  0.37701700  1
  Ni  Ni1  1  0.60159900  0.61607700  0.62298300  1
  Ni  Ni2  1  0.50000000  0.00000000  0.50000000  1
  Ni  Ni3  1  0.10159900  0.88392300  0.37701700  1
  Ni  Ni4  1  0.00000000  0.50000000  0.50000000  1
  Ni  Ni5  1  0.89840100  0.11607700  0.62298300  1
  Cu  Cu6  1  0.49504200  0.35795300  0.82875800  1
  Cu  Cu7  1  0.00495800  0.85795300  0.82875800  1
  Cu  Cu8  1  0.50495800  0.64204700  0.17124200  1
  Cu  Cu9  1  0.99504200  0.14204700  0.17124200  1
  C  C10  1  0.59992600  0.94124300  0.77876700  1
  C  C11  1  0.82059800  0.18360000  0.39537500  1
  C  C12  1  0.67940200  0.68360000  0.39537500  1
  C  C13  1  0.80414700  0.86622100  0.04522500  1
  C  C14  1  0.17940200  0.81640000  0.60462500  1
  C  C15  1  0.69585300  0.36622100  0.04522500  1
  C  C16  1  0.90007400  0.44124300  0.77876700  1
  C  C17  1  0.19585300  0.13377900  0.95477500  1
  C  C18  1  0.40007400  0.05875700  0.22123300  1
  C  C19  1  0.09992600  0.55875700  0.22123300  1
  C  C20  1  0.30414700  0.63377900  0.95477500  1
  C  C21  1  0.32059800  0.31640000  0.60462500  1
  C  C22  1  0.47944200  0.85705600  0.24735700  1
  C  C23  1  0.19927200  0.01713200  0.24786500  1
  C  C24  1  0.52839500  0.74085500  0.47604100  1
  C  C25  1  0.04216300  0.64194600  0.33629400  1
  C  C26  1  0.39032000  0.75370400  0.04738500  1
  C  C27  1  0.02839500  0.75914500  0.52395900  1
  C  C28  1  0.22848600  0.80077300  0.86822600  1
  C  C29  1  0.72848600  0.69922700  0.13177400  1
  C  C30  1  0.10968000  0.25370400  0.04738500  1
  C  C31  1  0.03070500  0.08504100  0.88442300  1
  C  C32  1  0.97944200  0.64294400  0.75264300  1
  C  C33  1  0.02055800  0.35705600  0.24735700  1
  C  C34  1  0.23947900  0.45440900  0.50098900  1
  C  C35  1  0.91263300  0.03409500  0.32326500  1
  C  C36  1  0.45783700  0.14194600  0.33629400  1
  C  C37  1  0.69927200  0.48286800  0.75213500  1
  C  C38  1  0.46929500  0.58504100  0.88442300  1
  C  C39  1  0.41263300  0.46590500  0.67673500  1
  C  C40  1  0.54216300  0.85805400  0.66370600  1
  C  C41  1  0.47160500  0.25914500  0.52395900  1
  C  C42  1  0.89032000  0.74629600  0.95261500  1
  C  C43  1  0.77151400  0.19922700  0.13177400  1
  C  C44  1  0.08736700  0.96590500  0.67673500  1
  C  C45  1  0.58736700  0.53409500  0.32326500  1
  C  C46  1  0.97160500  0.24085500  0.47604100  1
  C  C47  1  0.26052100  0.95440900  0.50098900  1
  C  C48  1  0.30072800  0.51713200  0.24786500  1
  C  C49  1  0.95783700  0.35805400  0.66370600  1
  C  C50  1  0.52055800  0.14294400  0.75264300  1
  C  C51  1  0.27151400  0.30077300  0.86822600  1
  C  C52  1  0.60968000  0.24629600  0.95261500  1
  C  C53  1  0.80072800  0.98286800  0.75213500  1
  C  C54  1  0.73947900  0.04559100  0.49901100  1
  C  C55  1  0.96929500  0.91495900  0.11557700  1
  C  C56  1  0.76052100  0.54559100  0.49901100  1
  C  C57  1  0.53070500  0.41495900  0.11557700  1
