# generated using pymatgen
data_Cu12Ni4C3
_symmetry_space_group_name_H-M   'P 1'
_cell_length_a   9.26549182
_cell_length_b   9.26549182
_cell_length_c   9.23762528
_cell_angle_alpha   82.58203626
_cell_angle_beta   82.58203626
_cell_angle_gamma   45.68457991
_symmetry_Int_Tables_number   1
_chemical_formula_structural   Cu12Ni4C3
_chemical_formula_sum   'Cu24 Ni8 C6'
_cell_volume   561.83099027
_cell_formula_units_Z   2
loop_
 _symmetry_equiv_pos_site_id
 _symmetry_equiv_pos_as_xyz
  1  'x, y, z'
loop_
 _atom_site_type_symbol
 _atom_site_label
 _atom_site_symmetry_multiplicity
 _atom_site_fract_x
 _atom_site_fract_y
 _atom_site_fract_z
 _atom_site_occupancy
  C  C0  1  0.89492900  0.58792000  0.28284500  1
  C  C1  1  0.58792000  0.89492900  0.78284500  1
  C  C2  1  0.57016700  0.31139100  0.35097500  1
  C  C3  1  0.31139100  0.57016700  0.85097500  1
  C  C4  1  0.96628000  0.27447200  0.67573900  1
  C  C5  1  0.27447200  0.96628000  0.17573900  1
  Ni  Ni6  1  0.99857200  0.33337300  0.97516300  1
  Ni  Ni7  1  0.45986800  0.13093800  0.09637800  1
  Ni  Ni8  1  0.01395100  0.86720200  0.21256400  1
  Ni  Ni9  1  0.33337300  0.99857200  0.47516300  1
  Ni  Ni10  1  0.61747900  0.50741400  0.58457300  1
  Ni  Ni11  1  0.50741400  0.61747900  0.08457300  1
  Ni  Ni12  1  0.13093800  0.45986800  0.59637800  1
  Ni  Ni13  1  0.86720200  0.01395100  0.71256400  1
  Cu  Cu14  1  0.37724400  0.23271400  0.20713800  1
  Cu  Cu15  1  0.49235300  0.96906500  0.09499500  1
  Cu  Cu16  1  0.96906500  0.49235300  0.59499500  1
  Cu  Cu17  1  0.60637000  0.44450400  0.04877800  1
  Cu  Cu18  1  0.20243200  0.07137000  0.38328200  1
  Cu  Cu19  1  0.15487300  0.70097500  0.15586900  1
  Cu  Cu20  1  0.03417900  0.98765300  0.23230700  1
  Cu  Cu21  1  0.70097500  0.15487300  0.65586900  1
  Cu  Cu22  1  0.05856900  0.26895500  0.10635900  1
  Cu  Cu23  1  0.50758800  0.65266700  0.21530600  1
  Cu  Cu24  1  0.17588700  0.51504300  0.48347600  1
  Cu  Cu25  1  0.92286500  0.84683900  0.75352700  1
  Cu  Cu26  1  0.07137000  0.20243200  0.88328200  1
  Cu  Cu27  1  0.39312800  0.77404500  0.99716100  1
  Cu  Cu28  1  0.51779500  0.87457000  0.44419400  1
  Cu  Cu29  1  0.84683900  0.92286500  0.25352700  1
  Cu  Cu30  1  0.51504300  0.17588700  0.98347600  1
  Cu  Cu31  1  0.98765300  0.03417900  0.73230700  1
  Cu  Cu32  1  0.77404500  0.39312800  0.49716100  1
  Cu  Cu33  1  0.65266700  0.50758800  0.71530600  1
  Cu  Cu34  1  0.87457000  0.51779500  0.94419400  1
  Cu  Cu35  1  0.26895500  0.05856900  0.60635900  1
  Cu  Cu36  1  0.23271400  0.37724400  0.70713800  1
  Cu  Cu37  1  0.44450400  0.60637000  0.54877800  1
