# generated using pymatgen
data_Cu6Ni2C27
_symmetry_space_group_name_H-M   'P 1'
_cell_length_a   12.38980800
_cell_length_b   12.38980800
_cell_length_c   12.38980800
_cell_angle_alpha   90.00000000
_cell_angle_beta   90.00000000
_cell_angle_gamma   90.00000000
_symmetry_Int_Tables_number   1
_chemical_formula_structural   Cu6Ni2C27
_chemical_formula_sum   'Cu24 Ni8 C108'
_cell_volume   1901.92649740
_cell_formula_units_Z   4
loop_
 _symmetry_equiv_pos_site_id
 _symmetry_equiv_pos_as_xyz
  1  'x, y, z'
loop_
 _atom_site_type_symbol
 _atom_site_label
 _atom_site_symmetry_multiplicity
 _atom_site_fract_x
 _atom_site_fract_y
 _atom_site_fract_z
 _atom_site_occupancy
  C  C0  1  0.00000000  0.00000000  0.00000000  1
  C  C1  1  0.50000000  0.50000000  0.00000000  1
  C  C2  1  0.50000000  0.00000000  0.50000000  1
  C  C3  1  0.00000000  0.50000000  0.50000000  1
  C  C4  1  0.63221400  0.34462400  0.36135000  1
  C  C5  1  0.42830800  0.75349300  0.30070700  1
  C  C6  1  0.15537600  0.63865000  0.13221400  1
  C  C7  1  0.30070700  0.42830800  0.75349300  1
  C  C8  1  0.07169200  0.24650700  0.80070700  1
  C  C9  1  0.84462400  0.36135000  0.86778600  1
  C  C10  1  0.86351100  0.20104500  0.23773800  1
  C  C11  1  0.34489200  0.65510800  0.15510800  1
  C  C12  1  0.07169200  0.25349300  0.30070700  1
  C  C13  1  0.13221400  0.34462400  0.13865000  1
  C  C14  1  0.15537600  0.86135000  0.63221400  1
  C  C15  1  0.36135000  0.63221400  0.34462400  1
  C  C16  1  0.92830800  0.75349300  0.19929300  1
  C  C17  1  0.75349300  0.30070700  0.42830800  1
  C  C18  1  0.84489200  0.65510800  0.34489200  1
  C  C19  1  0.86351100  0.29895500  0.73773800  1
  C  C20  1  0.36135000  0.86778600  0.84462400  1
  C  C21  1  0.65510800  0.15510800  0.34489200  1
  C  C22  1  0.70104500  0.26226200  0.13648900  1
  C  C23  1  0.63865000  0.13221400  0.15537600  1
  C  C24  1  0.63648900  0.79895500  0.73773800  1
  C  C25  1  0.19929300  0.92830800  0.75349300  1
  C  C26  1  0.75349300  0.19929300  0.92830800  1
  C  C27  1  0.23773800  0.63648900  0.70104500  1
  C  C28  1  0.15510800  0.15510800  0.15510800  1
  C  C29  1  0.76226200  0.13648900  0.79895500  1
  C  C30  1  0.34462400  0.13865000  0.13221400  1
  C  C31  1  0.73773800  0.63648900  0.79895500  1
  C  C32  1  0.13648900  0.79895500  0.76226200  1
  C  C33  1  0.36778600  0.84462400  0.13865000  1
  C  C34  1  0.36351100  0.20104500  0.26226200  1
  C  C35  1  0.26226200  0.36351100  0.20104500  1
  C  C36  1  0.73773800  0.86351100  0.29895500  1
  C  C37  1  0.36351100  0.29895500  0.76226200  1
  C  C38  1  0.42830800  0.74650700  0.80070700  1
  C  C39  1  0.25349300  0.19929300  0.57169200  1
  C  C40  1  0.13648900  0.70104500  0.26226200  1
  C  C41  1  0.20104500  0.23773800  0.86351100  1
  C  C42  1  0.69929300  0.57169200  0.24650700  1
  C  C43  1  0.65510800  0.34489200  0.84489200  1
  C  C44  1  0.86778600  0.65537600  0.86135000  1
  C  C45  1  0.20104500  0.26226200  0.36351100  1
  C  C46  1  0.13221400  0.15537600  0.63865000  1
  C  C47  1  0.74650700  0.69929300  0.92830800  1
  C  C48  1  0.84489200  0.84489200  0.84489200  1
  C  C49  1  0.86135000  0.86778600  0.65537600  1
  C  C50  1  0.19929300  0.57169200  0.25349300  1
  C  C51  1  0.26226200  0.13648900  0.70104500  1
  C  C52  1  0.13865000  0.13221400  0.34462400  1
  C  C53  1  0.63648900  0.70104500  0.23773800  1
  C  C54  1  0.25349300  0.30070700  0.07169200  1
  C  C55  1  0.13865000  0.36778600  0.84462400  1
  C  C56  1  0.63865000  0.36778600  0.65537600  1
  C  C57  1  0.24650700  0.69929300  0.57169200  1
  C  C58  1  0.29895500  0.76226200  0.36351100  1
  C  C59  1  0.15510800  0.34489200  0.65510800  1
  C  C60  1  0.65537600  0.86135000  0.86778600  1
  C  C61  1  0.70104500  0.23773800  0.63648900  1
  C  C62  1  0.92830800  0.74650700  0.69929300  1
  C  C63  1  0.57169200  0.25349300  0.19929300  1
  C  C64  1  0.74650700  0.80070700  0.42830800  1
  C  C65  1  0.30070700  0.07169200  0.25349300  1
  C  C66  1  0.34489200  0.84489200  0.65510800  1
  C  C67  1  0.36778600  0.65537600  0.63865000  1
  C  C68  1  0.63221400  0.15537600  0.86135000  1
  C  C69  1  0.79895500  0.76226200  0.13648900  1
  C  C70  1  0.57169200  0.24650700  0.69929300  1
  C  C71  1  0.65537600  0.63865000  0.36778600  1
  C  C72  1  0.69929300  0.92830800  0.74650700  1
  C  C73  1  0.24650700  0.80070700  0.07169200  1
  C  C74  1  0.80070700  0.07169200  0.24650700  1
  C  C75  1  0.84462400  0.13865000  0.36778600  1
  C  C76  1  0.23773800  0.86351100  0.20104500  1
  C  C77  1  0.29895500  0.73773800  0.86351100  1
  C  C78  1  0.79895500  0.73773800  0.63648900  1
  C  C79  1  0.34462400  0.36135000  0.63221400  1
  C  C80  1  0.80070700  0.42830800  0.74650700  1
  C  C81  1  0.86778600  0.84462400  0.36135000  1
  C  C82  1  0.76226200  0.36351100  0.29895500  1
  C  C83  1  0.86135000  0.63221400  0.15537600  1
  C  C84  1  0.35042200  0.78684400  0.81103000  1
  C  C85  1  0.21315600  0.18897000  0.64957800  1
  C  C86  1  0.18897000  0.85042200  0.71315600  1
  C  C87  1  0.64957800  0.28684400  0.68897000  1
  C  C88  1  0.68897000  0.85042200  0.78684400  1
  C  C89  1  0.81103000  0.35042200  0.78684400  1
  C  C90  1  0.31103000  0.14957800  0.21315600  1
  C  C91  1  0.64957800  0.21315600  0.18897000  1
  C  C92  1  0.21315600  0.31103000  0.14957800  1
  C  C93  1  0.81103000  0.14957800  0.28684400  1
  C  C94  1  0.28684400  0.81103000  0.14957800  1
  C  C95  1  0.14957800  0.28684400  0.81103000  1
  C  C96  1  0.71315600  0.31103000  0.35042200  1
  C  C97  1  0.35042200  0.71315600  0.31103000  1
  C  C98  1  0.85042200  0.78684400  0.68897000  1
  C  C99  1  0.85042200  0.71315600  0.18897000  1
  C  C100  1  0.71315600  0.18897000  0.85042200  1
  C  C101  1  0.18897000  0.64957800  0.21315600  1
  C  C102  1  0.31103000  0.35042200  0.71315600  1
  C  C103  1  0.78684400  0.68897000  0.85042200  1
  C  C104  1  0.14957800  0.21315600  0.31103000  1
  C  C105  1  0.68897000  0.64957800  0.28684400  1
  C  C106  1  0.28684400  0.68897000  0.64957800  1
  C  C107  1  0.78684400  0.81103000  0.35042200  1
  Ni  Ni108  1  0.20344900  0.29655100  0.70344900  1
  Ni  Ni109  1  0.79655100  0.79655100  0.79655100  1
  Ni  Ni110  1  0.29655100  0.70344900  0.20344900  1
  Ni  Ni111  1  0.70344900  0.20344900  0.29655100  1
  Ni  Ni112  1  0.70344900  0.29655100  0.79655100  1
  Ni  Ni113  1  0.20344900  0.20344900  0.20344900  1
  Ni  Ni114  1  0.79655100  0.70344900  0.29655100  1
  Ni  Ni115  1  0.29655100  0.79655100  0.70344900  1
  Cu  Cu116  1  0.52590100  0.80408400  0.53317000  1
  Cu  Cu117  1  0.69591600  0.03317000  0.52590100  1
  Cu  Cu118  1  0.80408400  0.53317000  0.52590100  1
  Cu  Cu119  1  0.97409900  0.19591600  0.03317000  1
  Cu  Cu120  1  0.03317000  0.52590100  0.69591600  1
  Cu  Cu121  1  0.19591600  0.03317000  0.97409900  1
  Cu  Cu122  1  0.30408400  0.53317000  0.97409900  1
  Cu  Cu123  1  0.53317000  0.97409900  0.30408400  1
  Cu  Cu124  1  0.80408400  0.96683000  0.02590100  1
  Cu  Cu125  1  0.96683000  0.02590100  0.80408400  1
  Cu  Cu126  1  0.30408400  0.96683000  0.47409900  1
  Cu  Cu127  1  0.19591600  0.46683000  0.47409900  1
  Cu  Cu128  1  0.52590100  0.69591600  0.03317000  1
  Cu  Cu129  1  0.46683000  0.47409900  0.19591600  1
  Cu  Cu130  1  0.69591600  0.46683000  0.02590100  1
  Cu  Cu131  1  0.03317000  0.97409900  0.19591600  1
  Cu  Cu132  1  0.02590100  0.80408400  0.96683000  1
  Cu  Cu133  1  0.02590100  0.69591600  0.46683000  1
  Cu  Cu134  1  0.47409900  0.19591600  0.46683000  1
  Cu  Cu135  1  0.46683000  0.02590100  0.69591600  1
  Cu  Cu136  1  0.96683000  0.47409900  0.30408400  1
  Cu  Cu137  1  0.97409900  0.30408400  0.53317000  1
  Cu  Cu138  1  0.53317000  0.52590100  0.80408400  1
  Cu  Cu139  1  0.47409900  0.30408400  0.96683000  1
