# generated using pymatgen
data_Cu4NiC2
_symmetry_space_group_name_H-M   'P 1'
_cell_length_a   6.36448500
_cell_length_b   8.24701300
_cell_length_c   13.82406500
_cell_angle_alpha   90.00000000
_cell_angle_beta   90.00000000
_cell_angle_gamma   90.00000000
_symmetry_Int_Tables_number   1
_chemical_formula_structural   Cu4NiC2
_chemical_formula_sum   'Cu16 Ni4 C8'
_cell_volume   725.59739285
_cell_formula_units_Z   4
loop_
 _symmetry_equiv_pos_site_id
 _symmetry_equiv_pos_as_xyz
  1  'x, y, z'
loop_
 _atom_site_type_symbol
 _atom_site_label
 _atom_site_symmetry_multiplicity
 _atom_site_fract_x
 _atom_site_fract_y
 _atom_site_fract_z
 _atom_site_occupancy
  C  C0  1  0.00000000  0.00000000  0.00000000  1
  C  C1  1  0.50000000  0.00000000  0.50000000  1
  C  C2  1  0.00000000  0.50000000  0.00000000  1
  C  C3  1  0.50000000  0.50000000  0.50000000  1
  C  C4  1  0.48474600  0.75000000  0.22594500  1
  C  C5  1  0.98474600  0.25000000  0.27405500  1
  C  C6  1  0.51525400  0.25000000  0.77405500  1
  C  C7  1  0.01525400  0.75000000  0.72594500  1
  Ni  Ni8  1  0.90637500  0.75000000  0.40549700  1
  Ni  Ni9  1  0.40637500  0.25000000  0.09450300  1
  Ni  Ni10  1  0.09362500  0.25000000  0.59450300  1
  Ni  Ni11  1  0.59362500  0.75000000  0.90549700  1
  Cu  Cu12  1  0.77018100  0.75000000  0.55614000  1
  Cu  Cu13  1  0.27018100  0.25000000  0.94386000  1
  Cu  Cu14  1  0.22981900  0.25000000  0.44386000  1
  Cu  Cu15  1  0.72981900  0.75000000  0.05614000  1
  Cu  Cu16  1  0.25518300  0.75000000  0.40557700  1
  Cu  Cu17  1  0.75518300  0.25000000  0.09442300  1
  Cu  Cu18  1  0.74481700  0.25000000  0.59442300  1
  Cu  Cu19  1  0.24481700  0.75000000  0.90557700  1
  Cu  Cu20  1  0.75679300  0.96307300  0.33098000  1
  Cu  Cu21  1  0.25679300  0.03692700  0.16902000  1
  Cu  Cu22  1  0.24320700  0.46307300  0.66902000  1
  Cu  Cu23  1  0.74320700  0.53692700  0.83098000  1
  Cu  Cu24  1  0.24320700  0.03692700  0.66902000  1
  Cu  Cu25  1  0.74320700  0.96307300  0.83098000  1
  Cu  Cu26  1  0.75679300  0.53692700  0.33098000  1
  Cu  Cu27  1  0.25679300  0.46307300  0.16902000  1
