# generated using pymatgen
data_Cu30Ni6C7
_symmetry_space_group_name_H-M   'P 1'
_cell_length_a   10.02324228
_cell_length_b   10.02324228
_cell_length_c   10.36681714
_cell_angle_alpha   77.25794585
_cell_angle_beta   77.25794585
_cell_angle_gamma   116.28622478
_symmetry_Int_Tables_number   1
_chemical_formula_structural   Cu30Ni6C7
_chemical_formula_sum   'Cu30 Ni6 C7'
_cell_volume   848.36152841
_cell_formula_units_Z   1
loop_
 _symmetry_equiv_pos_site_id
 _symmetry_equiv_pos_as_xyz
  1  'x, y, z'
loop_
 _atom_site_type_symbol
 _atom_site_label
 _atom_site_symmetry_multiplicity
 _atom_site_fract_x
 _atom_site_fract_y
 _atom_site_fract_z
 _atom_site_occupancy
  C  C0  1  0.00000000  0.00000000  0.00000000  1
  C  C1  1  0.40269700  0.07937700  0.73522000  1
  C  C2  1  0.76471000  0.76471000  0.78586000  1
  C  C3  1  0.59730300  0.92062300  0.26478000  1
  C  C4  1  0.07937700  0.40269700  0.73522000  1
  C  C5  1  0.23529000  0.23529000  0.21414000  1
  C  C6  1  0.92062300  0.59730300  0.26478000  1
  Ni  Ni7  1  0.95369100  0.78256500  0.12764000  1
  Ni  Ni8  1  0.10746500  0.10746500  0.12717300  1
  Ni  Ni9  1  0.89253500  0.89253500  0.87282700  1
  Ni  Ni10  1  0.78256500  0.95369100  0.12764000  1
  Ni  Ni11  1  0.21743500  0.04630900  0.87236000  1
  Ni  Ni12  1  0.04630900  0.21743500  0.87236000  1
  Cu  Cu13  1  0.58056300  0.73596600  0.91257200  1
  Cu  Cu14  1  0.29711900  0.50999600  0.70636100  1
  Cu  Cu15  1  0.11987700  0.32775700  0.58985100  1
  Cu  Cu16  1  0.49000400  0.70288100  0.29363900  1
  Cu  Cu17  1  0.95975200  0.51894300  0.12213500  1
  Cu  Cu18  1  0.88946600  0.41720700  0.39811700  1
  Cu  Cu19  1  0.20877300  0.05328400  0.34153700  1
  Cu  Cu20  1  0.67224300  0.88012300  0.41014900  1
  Cu  Cu21  1  0.63961200  0.63961200  0.70179500  1
  Cu  Cu22  1  0.11053400  0.58279300  0.60188300  1
  Cu  Cu23  1  0.48105700  0.04024800  0.87786500  1
  Cu  Cu24  1  0.05328400  0.20877300  0.34153700  1
  Cu  Cu25  1  0.70288100  0.49000400  0.29363900  1
  Cu  Cu26  1  0.73596600  0.58056300  0.91257200  1
  Cu  Cu27  1  0.79122700  0.94671600  0.65846300  1
  Cu  Cu28  1  0.36038800  0.36038800  0.29820500  1
  Cu  Cu29  1  0.29786700  0.86163300  0.76315000  1
  Cu  Cu30  1  0.13836700  0.70213300  0.23685000  1
  Cu  Cu31  1  0.41943700  0.26403400  0.08742800  1
  Cu  Cu32  1  0.86163300  0.29786700  0.76315000  1
  Cu  Cu33  1  0.32775700  0.11987700  0.58985100  1
  Cu  Cu34  1  0.70213300  0.13836700  0.23685000  1
  Cu  Cu35  1  0.04024800  0.48105700  0.87786500  1
  Cu  Cu36  1  0.26403400  0.41943700  0.08742800  1
  Cu  Cu37  1  0.58279300  0.11053400  0.60188300  1
  Cu  Cu38  1  0.88012300  0.67224300  0.41014900  1
  Cu  Cu39  1  0.50999600  0.29711900  0.70636100  1
  Cu  Cu40  1  0.94671600  0.79122700  0.65846300  1
  Cu  Cu41  1  0.41720700  0.88946600  0.39811700  1
  Cu  Cu42  1  0.51894300  0.95975200  0.12213500  1
