# generated using pymatgen
data_Cu(NiC2)2
_symmetry_space_group_name_H-M   'P 1'
_cell_length_a   19.19913044
_cell_length_b   19.19913044
_cell_length_c   19.19913024
_cell_angle_alpha   17.32776425
_cell_angle_beta   17.32776425
_cell_angle_gamma   17.32776286
_symmetry_Int_Tables_number   1
_chemical_formula_structural   Cu(NiC2)2
_chemical_formula_sum   'Cu8 Ni16 C32'
_cell_volume   547.81141452
_cell_formula_units_Z   8
loop_
 _symmetry_equiv_pos_site_id
 _symmetry_equiv_pos_as_xyz
  1  'x, y, z'
loop_
 _atom_site_type_symbol
 _atom_site_label
 _atom_site_symmetry_multiplicity
 _atom_site_fract_x
 _atom_site_fract_y
 _atom_site_fract_z
 _atom_site_occupancy
  Ni  Ni0  1  0.68804000  0.68804000  0.68804000  1
  Ni  Ni1  1  0.72197200  0.21710400  0.21710400  1
  Ni  Ni2  1  0.21710400  0.21710400  0.72197200  1
  Ni  Ni3  1  0.21710400  0.72197200  0.21710400  1
  Ni  Ni4  1  0.46923800  0.96859900  0.96859900  1
  Ni  Ni5  1  0.96859900  0.96859900  0.46923800  1
  Ni  Ni6  1  0.09394300  0.09394300  0.09394300  1
  Ni  Ni7  1  0.96859900  0.46923800  0.96859900  1
  Ni  Ni8  1  0.21888900  0.71902300  0.71902300  1
  Ni  Ni9  1  0.71902300  0.71902300  0.21888900  1
  Ni  Ni10  1  0.84390300  0.84390300  0.84390300  1
  Ni  Ni11  1  0.71902300  0.21888900  0.71902300  1
  Ni  Ni12  1  0.97265900  0.46646600  0.46646600  1
  Ni  Ni13  1  0.46646600  0.46646600  0.97265900  1
  Ni  Ni14  1  0.59385400  0.59385400  0.59385400  1
  Ni  Ni15  1  0.46646600  0.97265900  0.46646600  1
  Cu  Cu16  1  0.99925500  0.99925500  0.99925500  1
  Cu  Cu17  1  0.43702600  0.43702600  0.43702600  1
  Cu  Cu18  1  0.34310500  0.34310500  0.34310500  1
  Cu  Cu19  1  0.74996100  0.74996100  0.74996100  1
  Cu  Cu20  1  0.18759900  0.18759900  0.18759900  1
  Cu  Cu21  1  0.93837800  0.93837800  0.93837800  1
  Cu  Cu22  1  0.50017400  0.50017400  0.50017400  1
  Cu  Cu23  1  0.24972700  0.24972700  0.24972700  1
  C  C24  1  0.53170700  0.03711200  0.53170700  1
  C  C25  1  0.40140900  0.40140900  0.40140900  1
  C  C26  1  0.53170700  0.53170700  0.03711200  1
  C  C27  1  0.03711200  0.53170700  0.53170700  1
  C  C28  1  0.26365800  0.81988400  0.26365800  1
  C  C29  1  0.36486700  0.92554900  0.92554900  1
  C  C30  1  0.03466100  0.03466100  0.03466100  1
  C  C31  1  0.15255300  0.15255300  0.15255300  1
  C  C32  1  0.92554900  0.92554900  0.36486700  1
  C  C33  1  0.26365800  0.26365800  0.81988400  1
  C  C34  1  0.81988400  0.26365800  0.26365800  1
  C  C35  1  0.92554900  0.36486700  0.92554900  1
  C  C36  1  0.01316900  0.57137300  0.01316900  1
  C  C37  1  0.11638200  0.67438200  0.67438200  1
  C  C38  1  0.67438200  0.67438200  0.11638200  1
  C  C39  1  0.90303600  0.90303600  0.90303600  1
  C  C40  1  0.01316900  0.01316900  0.57137300  1
  C  C41  1  0.78482400  0.78482400  0.78482400  1
  C  C42  1  0.57137300  0.01316900  0.01316900  1
  C  C43  1  0.67438200  0.11638200  0.67438200  1
  C  C44  1  0.76097800  0.32608900  0.76097800  1
  C  C45  1  0.86597200  0.42461700  0.42461700  1
  C  C46  1  0.65576100  0.65576100  0.65576100  1
  C  C47  1  0.76097800  0.76097800  0.32608900  1
  C  C48  1  0.42461700  0.42461700  0.86597200  1
  C  C49  1  0.53493000  0.53493000  0.53493000  1
  C  C50  1  0.32608900  0.76097800  0.76097800  1
  C  C51  1  0.42461700  0.86597200  0.42461700  1
  C  C52  1  0.62755400  0.16559600  0.16559600  1
  C  C53  1  0.16559600  0.16559600  0.62755400  1
  C  C54  1  0.28417500  0.28417500  0.28417500  1
  C  C55  1  0.16559600  0.62755400  0.16559600  1
