# generated using pymatgen
data_Cu8NiC6
_symmetry_space_group_name_H-M   'P 1'
_cell_length_a   6.42135600
_cell_length_b   7.32125000
_cell_length_c   9.75914600
_cell_angle_alpha   90.00000000
_cell_angle_beta   90.00000000
_cell_angle_gamma   90.00000000
_symmetry_Int_Tables_number   1
_chemical_formula_structural   Cu8NiC6
_chemical_formula_sum   'Cu16 Ni2 C12'
_cell_volume   458.80041297
_cell_formula_units_Z   2
loop_
 _symmetry_equiv_pos_site_id
 _symmetry_equiv_pos_as_xyz
  1  'x, y, z'
loop_
 _atom_site_type_symbol
 _atom_site_label
 _atom_site_symmetry_multiplicity
 _atom_site_fract_x
 _atom_site_fract_y
 _atom_site_fract_z
 _atom_site_occupancy
  C  C0  1  0.75000000  0.00000000  0.75000000  1
  C  C1  1  0.25000000  0.00000000  0.75000000  1
  C  C2  1  0.25000000  0.00000000  0.25000000  1
  C  C3  1  0.75000000  0.00000000  0.25000000  1
  C  C4  1  0.50000000  0.79350700  0.50000000  1
  C  C5  1  0.00000000  0.20649300  0.00000000  1
  C  C6  1  0.50000000  0.24761000  0.50000000  1
  C  C7  1  0.00000000  0.75239000  0.00000000  1
  C  C8  1  0.50000000  0.60894000  0.19281000  1
  C  C9  1  0.00000000  0.39106000  0.30719000  1
  C  C10  1  0.50000000  0.60894000  0.80719000  1
  C  C11  1  0.00000000  0.39106000  0.69281000  1
  Ni  Ni12  1  0.50000000  0.15115700  0.00000000  1
  Ni  Ni13  1  0.00000000  0.84884300  0.50000000  1
  Cu  Cu14  1  0.50000000  0.99124200  0.63635700  1
  Cu  Cu15  1  0.00000000  0.00875800  0.86364300  1
  Cu  Cu16  1  0.50000000  0.99124200  0.36364300  1
  Cu  Cu17  1  0.00000000  0.00875800  0.13635700  1
  Cu  Cu18  1  0.71137500  0.75466200  0.16591600  1
  Cu  Cu19  1  0.21137500  0.24533800  0.33408400  1
  Cu  Cu20  1  0.28862500  0.75466200  0.83408400  1
  Cu  Cu21  1  0.78862500  0.24533800  0.66591600  1
  Cu  Cu22  1  0.78862500  0.24533800  0.33408400  1
  Cu  Cu23  1  0.28862500  0.75466200  0.16591600  1
  Cu  Cu24  1  0.21137500  0.24533800  0.66591600  1
  Cu  Cu25  1  0.71137500  0.75466200  0.83408400  1
  Cu  Cu26  1  0.50000000  0.58763600  0.63206500  1
  Cu  Cu27  1  0.00000000  0.41236400  0.86793500  1
  Cu  Cu28  1  0.50000000  0.58763600  0.36793500  1
  Cu  Cu29  1  0.00000000  0.41236400  0.13206500  1
