# generated using pymatgen
data_Cu(NiC4)2
_symmetry_space_group_name_H-M   'P 1'
_cell_length_a   9.76886944
_cell_length_b   9.76886944
_cell_length_c   11.69810501
_cell_angle_alpha   55.48054529
_cell_angle_beta   55.48054529
_cell_angle_gamma   49.32034974
_symmetry_Int_Tables_number   1
_chemical_formula_structural   Cu(NiC4)2
_chemical_formula_sum   'Cu2 Ni4 C16'
_cell_volume   661.86142451
_cell_formula_units_Z   2
loop_
 _symmetry_equiv_pos_site_id
 _symmetry_equiv_pos_as_xyz
  1  'x, y, z'
loop_
 _atom_site_type_symbol
 _atom_site_label
 _atom_site_symmetry_multiplicity
 _atom_site_fract_x
 _atom_site_fract_y
 _atom_site_fract_z
 _atom_site_occupancy
  Ni  Ni0  1  0.32687100  0.84162300  0.46973900  1
  Ni  Ni1  1  0.15837700  0.67312900  0.03026100  1
  Ni  Ni2  1  0.67312900  0.15837700  0.53026100  1
  Ni  Ni3  1  0.84162300  0.32687100  0.96973900  1
  Cu  Cu4  1  0.00210200  0.99789800  0.75000000  1
  Cu  Cu5  1  0.99789800  0.00210200  0.25000000  1
  C  C6  1  0.61592400  0.69237400  0.44924300  1
  C  C7  1  0.38407600  0.30762600  0.55075700  1
  C  C8  1  0.87563200  0.82935300  0.01161600  1
  C  C9  1  0.28121600  0.84261100  0.82248300  1
  C  C10  1  0.12436800  0.17064700  0.98838400  1
  C  C11  1  0.15738900  0.71878400  0.67751700  1
  C  C12  1  0.69237400  0.61592400  0.94924300  1
  C  C13  1  0.71878400  0.15739000  0.17751700  1
  C  C14  1  0.14309600  0.69541400  0.21371500  1
  C  C15  1  0.82935300  0.87563200  0.51161600  1
  C  C16  1  0.85690400  0.30458600  0.78628500  1
  C  C17  1  0.84261000  0.28121600  0.32248300  1
  C  C18  1  0.17064700  0.12436800  0.48838400  1
  C  C19  1  0.30458600  0.85690400  0.28628500  1
  C  C20  1  0.30762600  0.38407600  0.05075700  1
  C  C21  1  0.69541400  0.14309600  0.71371500  1
