# generated using pymatgen
data_Cu5NiC3
_symmetry_space_group_name_H-M   'P 1'
_cell_length_a   8.34573849
_cell_length_b   8.34573849
_cell_length_c   8.34573849
_cell_angle_alpha   127.75090374
_cell_angle_beta   126.60583815
_cell_angle_gamma   77.96340311
_symmetry_Int_Tables_number   1
_chemical_formula_structural   Cu5NiC3
_chemical_formula_sum   'Cu10 Ni2 C6'
_cell_volume   357.56270465
_cell_formula_units_Z   2
loop_
 _symmetry_equiv_pos_site_id
 _symmetry_equiv_pos_as_xyz
  1  'x, y, z'
loop_
 _atom_site_type_symbol
 _atom_site_label
 _atom_site_symmetry_multiplicity
 _atom_site_fract_x
 _atom_site_fract_y
 _atom_site_fract_z
 _atom_site_occupancy
  C  C0  1  0.82607900  0.54806600  0.27801300  1
  C  C1  1  0.61638100  0.25000000  0.36638100  1
  C  C2  1  0.17392100  0.45193400  0.72198700  1
  C  C3  1  0.38361900  0.75000000  0.63361900  1
  C  C4  1  0.22994700  0.95193400  0.27801300  1
  C  C5  1  0.77005300  0.04806600  0.72198700  1
  Ni  Ni6  1  0.21608700  0.25000000  0.96608700  1
  Ni  Ni7  1  0.78391300  0.75000000  0.03391300  1
  Cu  Cu8  1  0.16929100  0.90187600  0.85944800  1
  Cu  Cu9  1  0.83070900  0.09812400  0.14055200  1
  Cu  Cu10  1  0.45757200  0.19015700  0.85944800  1
  Cu  Cu11  1  0.54242800  0.40187600  0.73258500  1
  Cu  Cu12  1  0.83070900  0.69015700  0.73258500  1
  Cu  Cu13  1  0.45757200  0.59812400  0.26741500  1
  Cu  Cu14  1  0.54242800  0.80984300  0.14055200  1
  Cu  Cu15  1  0.16929100  0.30984300  0.26741500  1
  Cu  Cu16  1  0.00000000  0.00000000  0.50000000  1
  Cu  Cu17  1  0.00000000  0.50000000  0.00000000  1
