# generated using pymatgen
data_Cu2Ni5C
_symmetry_space_group_name_H-M   'P 1'
_cell_length_a   7.79291500
_cell_length_b   19.71865900
_cell_length_c   19.89901005
_cell_angle_alpha   89.96826404
_cell_angle_beta   90.00000000
_cell_angle_gamma   90.00000000
_symmetry_Int_Tables_number   1
_chemical_formula_structural   Cu2Ni5C
_chemical_formula_sum   'Cu32 Ni80 C16'
_cell_volume   3057.79749650
_cell_formula_units_Z   16
loop_
 _symmetry_equiv_pos_site_id
 _symmetry_equiv_pos_as_xyz
  1  'x, y, z'
loop_
 _atom_site_type_symbol
 _atom_site_label
 _atom_site_symmetry_multiplicity
 _atom_site_fract_x
 _atom_site_fract_y
 _atom_site_fract_z
 _atom_site_occupancy
  Ni  Ni0  1  0.00991300  0.86790200  0.73677400  1
  Ni  Ni1  1  0.12453800  0.98797600  0.08921600  1
  Ni  Ni2  1  0.75562400  0.20488000  0.59179700  1
  Ni  Ni3  1  0.25562400  0.79512000  0.90820300  1
  Ni  Ni4  1  0.10828700  0.93226100  0.49990800  1
  Ni  Ni5  1  0.87546200  0.01202400  0.91078400  1
  Ni  Ni6  1  0.85777900  0.43719100  0.68213000  1
  Ni  Ni7  1  0.78724500  0.71855300  0.07726600  1
  Ni  Ni8  1  0.94997900  0.83398200  0.59496900  1
  Ni  Ni9  1  0.11476300  0.83400300  0.23449500  1
  Ni  Ni10  1  0.99132200  0.38578300  0.23668100  1
  Ni  Ni11  1  0.35530500  0.06788600  0.31348500  1
  Ni  Ni12  1  0.09016700  0.25900100  0.16982500  1
  Ni  Ni13  1  0.40983300  0.25900100  0.66982500  1
  Ni  Ni14  1  0.64222100  0.43719100  0.18213000  1
  Ni  Ni15  1  0.49008700  0.86790200  0.23677400  1
  Ni  Ni16  1  0.57952100  0.31041300  0.52167100  1
  Ni  Ni17  1  0.97937800  0.49154900  0.12974400  1
  Ni  Ni18  1  0.25542100  0.18132300  0.53049400  1
  Ni  Ni19  1  0.56364600  0.28376500  0.98831700  1
  Ni  Ni20  1  0.43635400  0.71623500  0.01168300  1
  Ni  Ni21  1  0.99008700  0.13209800  0.26322600  1
  Ni  Ni22  1  0.35777900  0.56280900  0.81787000  1
  Ni  Ni23  1  0.74437600  0.20488000  0.09179700  1
  Ni  Ni24  1  0.55002100  0.83398200  0.09496900  1
  Ni  Ni25  1  0.01568200  0.01939300  0.36788400  1
  Ni  Ni26  1  0.47937800  0.50845100  0.37025600  1
  Ni  Ni27  1  0.49132200  0.61421700  0.26331900  1
  Ni  Ni28  1  0.62852100  0.65934200  0.76483300  1
  Ni  Ni29  1  0.28724500  0.28144700  0.42273400  1
  Ni  Ni30  1  0.38523700  0.83400300  0.73449500  1
  Ni  Ni31  1  0.11172300  0.49845600  0.58139500  1
  Ni  Ni32  1  0.64469500  0.93211400  0.68651500  1
  Ni  Ni33  1  0.75542100  0.81867700  0.96950600  1
  Ni  Ni34  1  0.61172300  0.50154400  0.91860500  1
  Ni  Ni35  1  0.24457900  0.18132300  0.03049400  1
  Ni  Ni36  1  0.92047900  0.31041300  0.02167100  1
  Ni  Ni37  1  0.89171300  0.06773900  0.50009200  1
  Ni  Ni38  1  0.98431800  0.98060700  0.63211600  1
  Ni  Ni39  1  0.37546200  0.98797600  0.58921600  1
  Ni  Ni40  1  0.02062200  0.50845100  0.87025600  1
  Ni  Ni41  1  0.90983300  0.74099900  0.83017500  1
  Ni  Ni42  1  0.21275500  0.28144700  0.92273400  1
  Ni  Ni43  1  0.74457900  0.81867700  0.46950600  1
  Ni  Ni44  1  0.52062200  0.49154900  0.62974400  1
  Ni  Ni45  1  0.62453800  0.01202400  0.41078400  1
  Ni  Ni46  1  0.38827700  0.49845600  0.08139500  1
  Ni  Ni47  1  0.88827700  0.50154400  0.41860500  1
  Ni  Ni48  1  0.88841700  0.56162500  0.99959900  1
  Ni  Ni49  1  0.50867800  0.38578300  0.73668100  1
  Ni  Ni50  1  0.37147900  0.34065800  0.23516700  1
  Ni  Ni51  1  0.06364600  0.71623500  0.51168300  1
  Ni  Ni52  1  0.71275500  0.71855300  0.57726600  1
  Ni  Ni53  1  0.51568200  0.98060700  0.13211600  1
  Ni  Ni54  1  0.59016700  0.74099900  0.33017500  1
  Ni  Ni55  1  0.61476300  0.16599700  0.26550500  1
  Ni  Ni56  1  0.12852100  0.34065800  0.73516700  1
  Ni  Ni57  1  0.39171300  0.93226100  0.99990800  1
  Ni  Ni58  1  0.80869600  0.26698700  0.34123000  1
  Ni  Ni59  1  0.93635400  0.28376500  0.48831700  1
  Ni  Ni60  1  0.07952100  0.68958700  0.97832900  1
  Ni  Ni61  1  0.05002100  0.16601800  0.40503100  1
  Ni  Ni62  1  0.61158300  0.56162500  0.49959900  1
  Ni  Ni63  1  0.87147900  0.65934200  0.26483300  1
  Ni  Ni64  1  0.88523700  0.16599700  0.76550500  1
  Ni  Ni65  1  0.19130400  0.73301300  0.65877000  1
  Ni  Ni66  1  0.48431800  0.01939300  0.86788400  1
  Ni  Ni67  1  0.50991300  0.13209800  0.76322600  1
  Ni  Ni68  1  0.38841700  0.43837500  0.50040100  1
  Ni  Ni69  1  0.14222100  0.56280900  0.31787000  1
  Ni  Ni70  1  0.85530500  0.93211400  0.18651500  1
  Ni  Ni71  1  0.69130400  0.26698700  0.84123000  1
  Ni  Ni72  1  0.14469500  0.06788600  0.81348500  1
  Ni  Ni73  1  0.00867800  0.61421700  0.76331900  1
  Ni  Ni74  1  0.11158300  0.43837500  0.00040100  1
  Ni  Ni75  1  0.60828700  0.06773900  0.00009200  1
  Ni  Ni76  1  0.24437600  0.79512000  0.40820300  1
  Ni  Ni77  1  0.30869600  0.73301300  0.15877000  1
  Ni  Ni78  1  0.44997900  0.16601800  0.90503100  1
  Ni  Ni79  1  0.42047900  0.68958700  0.47832900  1
  Cu  Cu80  1  0.72877500  0.43679500  0.04157000  1
  Cu  Cu81  1  0.73197600  0.52571000  0.78585700  1
  Cu  Cu82  1  0.71628400  0.94578900  0.54022300  1
  Cu  Cu83  1  0.76250800  0.03308900  0.77895200  1
  Cu  Cu84  1  0.77379300  0.67822300  0.43794900  1
  Cu  Cu85  1  0.77099700  0.29185300  0.70448100  1
  Cu  Cu86  1  0.26250800  0.96691100  0.72104800  1
  Cu  Cu87  1  0.22746700  0.21265400  0.79552800  1
  Cu  Cu88  1  0.23197600  0.47429000  0.71414300  1
  Cu  Cu89  1  0.72746700  0.78734600  0.70447200  1
  Cu  Cu90  1  0.19586300  0.81527700  0.05028600  1
  Cu  Cu91  1  0.77122500  0.43679500  0.54157000  1
  Cu  Cu92  1  0.77253300  0.78734600  0.20447200  1
  Cu  Cu93  1  0.76802400  0.52571000  0.28585700  1
  Cu  Cu94  1  0.72620700  0.67822300  0.93794900  1
  Cu  Cu95  1  0.72900300  0.29185300  0.20448100  1
  Cu  Cu96  1  0.27253300  0.21265400  0.29552900  1
  Cu  Cu97  1  0.26802400  0.47429000  0.21414300  1
  Cu  Cu98  1  0.30413700  0.81527700  0.55028600  1
  Cu  Cu99  1  0.27122500  0.56320500  0.95843000  1
  Cu  Cu100  1  0.73749200  0.03308900  0.27895200  1
  Cu  Cu101  1  0.22620700  0.32177700  0.56205100  1
  Cu  Cu102  1  0.23749200  0.96691100  0.22104800  1
  Cu  Cu103  1  0.22900300  0.70814700  0.29551900  1
  Cu  Cu104  1  0.21628400  0.05421100  0.95977700  1
  Cu  Cu105  1  0.80413700  0.18472300  0.94971400  1
  Cu  Cu106  1  0.27099700  0.70814700  0.79551900  1
  Cu  Cu107  1  0.27379300  0.32177700  0.06205100  1
  Cu  Cu108  1  0.69586300  0.18472300  0.44971400  1
  Cu  Cu109  1  0.28371600  0.05421100  0.45977700  1
  Cu  Cu110  1  0.78371600  0.94578900  0.04022300  1
  Cu  Cu111  1  0.22877500  0.56320500  0.45843000  1
  C  C112  1  0.98629300  0.36996700  0.87238200  1
  C  C113  1  0.98660700  0.87683100  0.87477100  1
  C  C114  1  0.01186700  0.37456300  0.37692200  1
  C  C115  1  0.51319000  0.87866600  0.87922200  1
  C  C116  1  0.48660700  0.12316900  0.62522900  1
  C  C117  1  0.48813300  0.37456300  0.87692200  1
  C  C118  1  0.51186700  0.62543700  0.12307800  1
  C  C119  1  0.48681000  0.12133400  0.12077800  1
  C  C120  1  0.01370700  0.63003300  0.12761800  1
  C  C121  1  0.98681000  0.87866600  0.37922200  1
  C  C122  1  0.51370700  0.36996700  0.37238200  1
  C  C123  1  0.98813300  0.62543700  0.62307800  1
  C  C124  1  0.48629300  0.63003300  0.62761800  1
  C  C125  1  0.01339300  0.12316900  0.12522900  1
  C  C126  1  0.51339300  0.87683100  0.37477100  1
  C  C127  1  0.01319000  0.12133400  0.62077800  1
