# generated using pymatgen
data_Cu(NiC8)3
_symmetry_space_group_name_H-M   'P 1'
_cell_length_a   5.72392932
_cell_length_b   5.72392932
_cell_length_c   18.56697500
_cell_angle_alpha   90.00000000
_cell_angle_beta   90.00000000
_cell_angle_gamma   119.99999210
_symmetry_Int_Tables_number   1
_chemical_formula_structural   Cu(NiC8)3
_chemical_formula_sum   'Cu2 Ni6 C48'
_cell_volume   526.81768203
_cell_formula_units_Z   2
loop_
 _symmetry_equiv_pos_site_id
 _symmetry_equiv_pos_as_xyz
  1  'x, y, z'
loop_
 _atom_site_type_symbol
 _atom_site_label
 _atom_site_symmetry_multiplicity
 _atom_site_fract_x
 _atom_site_fract_y
 _atom_site_fract_z
 _atom_site_occupancy
  Ni  Ni0  1  0.66666700  0.33333300  0.64270700  1
  Ni  Ni1  1  0.33333300  0.66666700  0.95509400  1
  Ni  Ni2  1  0.33333300  0.66666700  0.14270700  1
  Ni  Ni3  1  0.00000000  0.00000000  0.89196300  1
  Ni  Ni4  1  0.00000000  0.00000000  0.39196300  1
  Ni  Ni5  1  0.66666700  0.33333300  0.45509400  1
  Cu  Cu6  1  0.66666700  0.33333300  0.19184300  1
  Cu  Cu7  1  0.33333300  0.66666700  0.69184300  1
  C  C8  1  0.83505400  0.16494600  0.05194100  1
  C  C9  1  0.83505400  0.67010800  0.05194100  1
  C  C10  1  0.67010800  0.83505400  0.55194100  1
  C  C11  1  0.32989200  0.16494600  0.05194100  1
  C  C12  1  0.16494600  0.83505400  0.55194100  1
  C  C13  1  0.00000000  0.00000000  0.18190000  1
  C  C14  1  0.49812200  0.50187800  0.29730900  1
  C  C15  1  0.49812200  0.99624400  0.29730900  1
  C  C16  1  0.00000000  0.00000000  0.68190000  1
  C  C17  1  0.16494600  0.32989200  0.55194100  1
  C  C18  1  0.50187800  0.00375600  0.79730900  1
  C  C19  1  0.33333300  0.66666700  0.42535900  1
  C  C20  1  0.99624400  0.49812200  0.79730900  1
  C  C21  1  0.50187800  0.49812200  0.79730900  1
  C  C22  1  0.00375600  0.50187800  0.29730900  1
  C  C23  1  0.66666700  0.33333300  0.92535900  1
  C  C24  1  0.51782200  0.03564400  0.99237100  1
  C  C25  1  0.96435600  0.48217800  0.99237100  1
  C  C26  1  0.85239600  0.70479300  0.61111300  1
  C  C27  1  0.66666700  0.33333300  0.34815700  1
  C  C28  1  0.48217800  0.51782200  0.49237100  1
  C  C29  1  0.48217800  0.96435600  0.49237100  1
  C  C30  1  0.03564400  0.51782200  0.49237100  1
  C  C31  1  0.33333300  0.66666700  0.84815700  1
  C  C32  1  0.18491600  0.81508400  0.35834600  1
  C  C33  1  0.18491600  0.36983300  0.35834600  1
  C  C34  1  0.82110600  0.17889400  0.23536400  1
  C  C35  1  0.17889400  0.82110600  0.73536400  1
  C  C36  1  0.70479300  0.85239600  0.11111300  1
  C  C37  1  0.14760400  0.85239600  0.11111300  1
  C  C38  1  0.17889400  0.35778900  0.73536400  1
  C  C39  1  0.81508400  0.18491600  0.85834600  1
  C  C40  1  0.33333300  0.66666700  0.60692700  1
  C  C41  1  0.00000000  0.00000000  0.99728700  1
  C  C42  1  0.29520700  0.14760400  0.61111300  1
  C  C43  1  0.51782200  0.48217800  0.99237100  1
  C  C44  1  0.33333300  0.66666700  0.24633300  1
  C  C45  1  0.63016700  0.81508400  0.35834600  1
  C  C46  1  0.64221100  0.82110600  0.73536400  1
  C  C47  1  0.36983300  0.18491600  0.85834600  1
  C  C48  1  0.66666700  0.33333300  0.10692700  1
  C  C49  1  0.85239600  0.14760400  0.61111300  1
  C  C50  1  0.66666700  0.33333300  0.74633300  1
  C  C51  1  0.14760400  0.29520700  0.11111300  1
  C  C52  1  0.00000000  0.00000000  0.49728700  1
  C  C53  1  0.82110600  0.64221100  0.23536400  1
  C  C54  1  0.35778900  0.17889400  0.23536400  1
  C  C55  1  0.81508400  0.63016700  0.85834600  1
