# generated using pymatgen
data_Cu2NiC5
_symmetry_space_group_name_H-M   'P 1'
_cell_length_a   6.43957834
_cell_length_b   6.43957834
_cell_length_c   7.51786900
_cell_angle_alpha   90.00000000
_cell_angle_beta   90.00000000
_cell_angle_gamma   96.43241344
_symmetry_Int_Tables_number   1
_chemical_formula_structural   Cu2NiC5
_chemical_formula_sum   'Cu4 Ni2 C10'
_cell_volume   309.78968966
_cell_formula_units_Z   2
loop_
 _symmetry_equiv_pos_site_id
 _symmetry_equiv_pos_as_xyz
  1  'x, y, z'
loop_
 _atom_site_type_symbol
 _atom_site_label
 _atom_site_symmetry_multiplicity
 _atom_site_fract_x
 _atom_site_fract_y
 _atom_site_fract_z
 _atom_site_occupancy
  Ni  Ni0  1  0.00000000  0.00000000  0.50000000  1
  Ni  Ni1  1  0.00000000  0.00000000  0.00000000  1
  Cu  Cu2  1  0.52313000  0.93478500  0.25000000  1
  Cu  Cu3  1  0.47687000  0.06521500  0.75000000  1
  Cu  Cu4  1  0.93478500  0.52313000  0.75000000  1
  Cu  Cu5  1  0.06521500  0.47687000  0.25000000  1
  C  C6  1  0.21159100  0.21159100  0.50000000  1
  C  C7  1  0.78840900  0.78840900  0.00000000  1
  C  C8  1  0.78840900  0.78840900  0.50000000  1
  C  C9  1  0.21159100  0.21159100  0.00000000  1
  C  C10  1  0.03067600  0.96932400  0.25000000  1
  C  C11  1  0.96932400  0.03067600  0.75000000  1
  C  C12  1  0.18686600  0.81313400  0.53791100  1
  C  C13  1  0.81313400  0.18686600  0.03791100  1
  C  C14  1  0.81313400  0.18686600  0.46208900  1
  C  C15  1  0.18686600  0.81313400  0.96208900  1
