# generated using pymatgen
data_Cu4NiC9
_symmetry_space_group_name_H-M   'P 1'
_cell_length_a   9.22314700
_cell_length_b   9.22314700
_cell_length_c   4.41487000
_cell_angle_alpha   90.00000000
_cell_angle_beta   90.00000000
_cell_angle_gamma   90.00000000
_symmetry_Int_Tables_number   1
_chemical_formula_structural   Cu4NiC9
_chemical_formula_sum   'Cu8 Ni2 C18'
_cell_volume   375.55727654
_cell_formula_units_Z   2
loop_
 _symmetry_equiv_pos_site_id
 _symmetry_equiv_pos_as_xyz
  1  'x, y, z'
loop_
 _atom_site_type_symbol
 _atom_site_label
 _atom_site_symmetry_multiplicity
 _atom_site_fract_x
 _atom_site_fract_y
 _atom_site_fract_z
 _atom_site_occupancy
  C  C0  1  0.00000000  0.50000000  0.50000000  1
  C  C1  1  0.50000000  0.00000000  0.50000000  1
  C  C2  1  0.60768200  0.24023600  0.88070000  1
  C  C3  1  0.24023600  0.39231800  0.88070000  1
  C  C4  1  0.75976400  0.60768200  0.88070000  1
  C  C5  1  0.39231800  0.75976400  0.88070000  1
  C  C6  1  0.39231800  0.24023600  0.11930000  1
  C  C7  1  0.60768200  0.75976400  0.11930000  1
  C  C8  1  0.24023600  0.60768200  0.11930000  1
  C  C9  1  0.75976400  0.39231800  0.11930000  1
  C  C10  1  0.89231800  0.25976400  0.11930000  1
  C  C11  1  0.25976400  0.10768200  0.11930000  1
  C  C12  1  0.74023600  0.89231800  0.11930000  1
  C  C13  1  0.10768200  0.74023600  0.11930000  1
  C  C14  1  0.10768200  0.25976400  0.88070000  1
  C  C15  1  0.89231800  0.74023600  0.88070000  1
  C  C16  1  0.25976400  0.89231800  0.88070000  1
  C  C17  1  0.74023600  0.10768200  0.88070000  1
  Ni  Ni18  1  0.00000000  0.00000000  0.00000000  1
  Ni  Ni19  1  0.50000000  0.50000000  0.00000000  1
  Cu  Cu20  1  0.69716600  0.19716600  0.98587800  1
  Cu  Cu21  1  0.19716600  0.30283400  0.98587800  1
  Cu  Cu22  1  0.80283400  0.69716600  0.98587800  1
  Cu  Cu23  1  0.30283400  0.80283400  0.98587800  1
  Cu  Cu24  1  0.30283400  0.19716600  0.01412200  1
  Cu  Cu25  1  0.69716600  0.80283400  0.01412200  1
  Cu  Cu26  1  0.19716600  0.69716600  0.01412200  1
  Cu  Cu27  1  0.80283400  0.30283400  0.01412200  1
