# generated using pymatgen
data_Cu3NiC
_symmetry_space_group_name_H-M   'P 1'
_cell_length_a   7.34896400
_cell_length_b   7.67704660
_cell_length_c   7.67704660
_cell_angle_alpha   75.13622512
_cell_angle_beta   61.40389058
_cell_angle_gamma   61.40389058
_symmetry_Int_Tables_number   1
_chemical_formula_structural   Cu3NiC
_chemical_formula_sum   'Cu6 Ni2 C2'
_cell_volume   333.69036721
_cell_formula_units_Z   2
loop_
 _symmetry_equiv_pos_site_id
 _symmetry_equiv_pos_as_xyz
  1  'x, y, z'
loop_
 _atom_site_type_symbol
 _atom_site_label
 _atom_site_symmetry_multiplicity
 _atom_site_fract_x
 _atom_site_fract_y
 _atom_site_fract_z
 _atom_site_occupancy
  C  C0  1  0.00000000  0.73899700  0.26100300  1
  C  C1  1  0.00000000  0.26100300  0.73899700  1
  Ni  Ni2  1  0.34556800  0.65443200  0.65443200  1
  Ni  Ni3  1  0.65443200  0.34556800  0.34556800  1
  Cu  Cu4  1  0.50000000  0.33274000  0.66726000  1
  Cu  Cu5  1  0.50000000  0.66726000  0.33274000  1
  Cu  Cu6  1  0.47177100  0.75934700  0.75934700  1
  Cu  Cu7  1  0.99046500  0.24065300  0.24065300  1
  Cu  Cu8  1  0.52822900  0.24065300  0.24065300  1
  Cu  Cu9  1  0.00953500  0.75934700  0.75934700  1
