# generated using pymatgen
data_CuNi4C13
_symmetry_space_group_name_H-M   'P 1'
_cell_length_a   11.98197411
_cell_length_b   11.98197411
_cell_length_c   20.89001205
_cell_angle_alpha   58.77761698
_cell_angle_beta   58.77761698
_cell_angle_gamma   30.52572228
_symmetry_Int_Tables_number   1
_chemical_formula_structural   CuNi4C13
_chemical_formula_sum   'Cu2 Ni8 C26'
_cell_volume   1284.75380599
_cell_formula_units_Z   2
loop_
 _symmetry_equiv_pos_site_id
 _symmetry_equiv_pos_as_xyz
  1  'x, y, z'
loop_
 _atom_site_type_symbol
 _atom_site_label
 _atom_site_symmetry_multiplicity
 _atom_site_fract_x
 _atom_site_fract_y
 _atom_site_fract_z
 _atom_site_occupancy
  C  C0  1  0.99534000  0.88318000  0.35368300  1
  C  C1  1  0.11682000  0.00466000  0.14631700  1
  C  C2  1  0.88318000  0.99534000  0.85368300  1
  C  C3  1  0.21956200  0.62485800  0.23622800  1
  C  C4  1  0.62485800  0.21956200  0.73622800  1
  C  C5  1  0.78043800  0.37514200  0.76377200  1
  C  C6  1  0.37514200  0.78043800  0.26377200  1
  C  C7  1  0.00466000  0.11682000  0.64631700  1
  C  C8  1  0.93942500  0.95176200  0.12699400  1
  C  C9  1  0.62157500  0.33047800  0.92696400  1
  C  C10  1  0.47668900  0.18809300  0.90119400  1
  C  C11  1  0.06057500  0.04823800  0.87300600  1
  C  C12  1  0.33047800  0.62157500  0.42696400  1
  C  C13  1  0.37842500  0.66952200  0.07303600  1
  C  C14  1  0.30425200  0.69574800  0.75000000  1
  C  C15  1  0.52331100  0.81190700  0.09880600  1
  C  C16  1  0.69574800  0.30425200  0.25000000  1
  C  C17  1  0.95176200  0.93942500  0.62699400  1
  C  C18  1  0.81972000  0.83083800  0.33268400  1
  C  C19  1  0.16916200  0.18028000  0.16731600  1
  C  C20  1  0.66952200  0.37842500  0.57303600  1
  C  C21  1  0.18809300  0.47668900  0.40119400  1
  C  C22  1  0.18028000  0.16916200  0.66731600  1
  C  C23  1  0.83083800  0.81972000  0.83268400  1
  C  C24  1  0.81190700  0.52331100  0.59880600  1
  C  C25  1  0.04823800  0.06057500  0.37300600  1
  Ni  Ni26  1  0.66471000  0.06084600  0.48630200  1
  Ni  Ni27  1  0.93915400  0.33529000  0.01369800  1
  Ni  Ni28  1  0.60783100  0.72842600  0.78026900  1
  Ni  Ni29  1  0.06084600  0.66471000  0.98630200  1
  Ni  Ni30  1  0.33529000  0.93915400  0.51369800  1
  Ni  Ni31  1  0.72842600  0.60783100  0.28026900  1
  Ni  Ni32  1  0.39216900  0.27157400  0.21973100  1
  Ni  Ni33  1  0.27157400  0.39216900  0.71973100  1
  Cu  Cu34  1  0.24035200  0.75964800  0.25000000  1
  Cu  Cu35  1  0.75964800  0.24035200  0.75000000  1
