# generated using pymatgen
data_Cu8Ni9C38
_symmetry_space_group_name_H-M   'P 1'
_cell_length_a   8.92467184
_cell_length_b   9.09140150
_cell_length_c   9.44497034
_cell_angle_alpha   112.84467865
_cell_angle_beta   100.26810726
_cell_angle_gamma   102.93504812
_symmetry_Int_Tables_number   1
_chemical_formula_structural   Cu8Ni9C38
_chemical_formula_sum   'Cu8 Ni9 C38'
_cell_volume   657.63284835
_cell_formula_units_Z   1
loop_
 _symmetry_equiv_pos_site_id
 _symmetry_equiv_pos_as_xyz
  1  'x, y, z'
loop_
 _atom_site_type_symbol
 _atom_site_label
 _atom_site_symmetry_multiplicity
 _atom_site_fract_x
 _atom_site_fract_y
 _atom_site_fract_z
 _atom_site_occupancy
  C  C0  1  0.64789500  0.93224300  0.06373100  1
  C  C1  1  0.33115500  0.31025000  0.34954100  1
  C  C2  1  0.99317700  0.70280000  0.25803200  1
  C  C3  1  0.66884500  0.68975000  0.65045900  1
  C  C4  1  0.00682300  0.29720000  0.74196800  1
  C  C5  1  0.35210500  0.06775700  0.93626900  1
  Ni  Ni6  1  0.80337700  0.27167700  0.06181300  1
  Ni  Ni7  1  0.71330100  0.88669500  0.43235400  1
  Ni  Ni8  1  0.19662300  0.72832300  0.93818700  1
  Ni  Ni9  1  0.34109500  0.69992800  0.44721900  1
  Ni  Ni10  1  0.00000000  0.00000000  0.00000000  1
  Ni  Ni11  1  0.28669900  0.11330500  0.56764600  1
  Ni  Ni12  1  0.65890500  0.30007200  0.55278100  1
  Ni  Ni13  1  0.00000000  0.50000000  0.50000000  1
  Ni  Ni14  1  0.50000000  0.50000000  0.00000000  1
  Cu  Cu15  1  0.03576600  0.87846500  0.64852800  1
  Cu  Cu16  1  0.39557800  0.94242000  0.28970500  1
  Cu  Cu17  1  0.96423400  0.12153500  0.35147200  1
  Cu  Cu18  1  0.60442200  0.05758000  0.71029500  1
  Cu  Cu19  1  0.65962400  0.41839500  0.26818900  1
  Cu  Cu20  1  0.83252000  0.62452200  0.90753000  1
  Cu  Cu21  1  0.16748000  0.37547800  0.09247000  1
  Cu  Cu22  1  0.34037600  0.58160500  0.73181100  1
  C  C23  1  0.90326300  0.26145400  0.45910500  1
  C  C24  1  0.80631200  0.79563200  0.92802700  1
  C  C25  1  0.87557700  0.94486600  0.33351100  1
  C  C26  1  0.44222300  0.12668100  0.43435300  1
  C  C27  1  0.15087400  0.53068200  0.70383000  1
  C  C28  1  0.38412800  0.58181600  0.58122200  1
  C  C29  1  0.19368800  0.20436800  0.07197300  1
  C  C30  1  0.92748000  0.11814900  0.18203900  1
  C  C31  1  0.80128300  0.51690700  0.72447200  1
  C  C32  1  0.99025700  0.33880200  0.00017600  1
  C  C33  1  0.72014200  0.17756100  0.66788600  1
  C  C34  1  0.27985800  0.82243900  0.33211400  1
  C  C35  1  0.00974300  0.66119800  0.99982400  1
  C  C36  1  0.84912600  0.46931800  0.29617000  1
  C  C37  1  0.69488900  0.05546600  0.86425500  1
  C  C38  1  0.30511100  0.94453400  0.13574500  1
  C  C39  1  0.61587200  0.41818400  0.41877800  1
  C  C40  1  0.39824400  0.76145100  0.87630300  1
  C  C41  1  0.44852500  0.09933000  0.72870800  1
  C  C42  1  0.19871700  0.48309300  0.27552800  1
  C  C43  1  0.41243900  0.45979000  0.77519800  1
  C  C44  1  0.85242900  0.83364800  0.57669700  1
  C  C45  1  0.55777700  0.87331900  0.56564700  1
  C  C46  1  0.27493900  0.45819400  0.01367100  1
  C  C47  1  0.72506100  0.54180600  0.98632900  1
  C  C48  1  0.14757100  0.16635200  0.42330300  1
  C  C49  1  0.07252000  0.88185100  0.81796100  1
  C  C50  1  0.55147500  0.90067000  0.27129200  1
  C  C51  1  0.60175600  0.23854900  0.12369700  1
  C  C52  1  0.09673700  0.73854600  0.54089500  1
  C  C53  1  0.58756100  0.54021000  0.22480200  1
  C  C54  1  0.12442300  0.05513400  0.66648900  1
