# generated using pymatgen
data_CuNiC20
_symmetry_space_group_name_H-M   'P 1'
_cell_length_a   7.78134500
_cell_length_b   6.07505000
_cell_length_c   9.40047792
_cell_angle_alpha   77.21136756
_cell_angle_beta   90.00000000
_cell_angle_gamma   90.00000000
_symmetry_Int_Tables_number   1
_chemical_formula_structural   CuNiC20
_chemical_formula_sum   'Cu2 Ni2 C40'
_cell_volume   433.35635148
_cell_formula_units_Z   2
loop_
 _symmetry_equiv_pos_site_id
 _symmetry_equiv_pos_as_xyz
  1  'x, y, z'
loop_
 _atom_site_type_symbol
 _atom_site_label
 _atom_site_symmetry_multiplicity
 _atom_site_fract_x
 _atom_site_fract_y
 _atom_site_fract_z
 _atom_site_occupancy
  C  C0  1  0.25000000  0.93754300  0.76254200  1
  C  C1  1  0.75000000  0.06245700  0.23745800  1
  C  C2  1  0.36620800  0.25081900  0.41222200  1
  C  C3  1  0.63410200  0.81049600  0.82653700  1
  C  C4  1  0.40209500  0.69583500  0.07727200  1
  C  C5  1  0.75000000  0.62600600  0.97076700  1
  C  C6  1  0.13379200  0.25081900  0.41222200  1
  C  C7  1  0.13410200  0.18950400  0.17346300  1
  C  C8  1  0.86620800  0.74918100  0.58777800  1
  C  C9  1  0.47814300  0.49019600  0.78158700  1
  C  C10  1  0.36589800  0.18950400  0.17346300  1
  C  C11  1  0.59790500  0.30416500  0.92272800  1
  C  C12  1  0.90209500  0.30416500  0.92272800  1
  C  C13  1  0.97814300  0.50980400  0.21841300  1
  C  C14  1  0.09004800  0.74669800  0.25831600  1
  C  C15  1  0.09790500  0.69583500  0.07727200  1
  C  C16  1  0.86589800  0.81049600  0.82653700  1
  C  C17  1  0.25000000  0.37399400  0.02923300  1
  C  C18  1  0.02185700  0.49019600  0.78158700  1
  C  C19  1  0.52185700  0.50980400  0.21841300  1
  C  C20  1  0.90995200  0.25330200  0.74168400  1
  C  C21  1  0.59004800  0.25330200  0.74168400  1
  C  C22  1  0.40995200  0.74669800  0.25831600  1
  C  C23  1  0.63379200  0.74918100  0.58777800  1
  C  C24  1  0.25000000  0.35484100  0.39114700  1
  C  C25  1  0.90813500  0.38248900  0.80622300  1
  C  C26  1  0.40813500  0.61751100  0.19377700  1
  C  C27  1  0.75000000  0.70782600  0.85477800  1
  C  C28  1  0.25000000  0.29217400  0.14522200  1
  C  C29  1  0.59186500  0.38248900  0.80622300  1
  C  C30  1  0.75000000  0.64515900  0.60885300  1
  C  C31  1  0.09186500  0.61751100  0.19377700  1
  Ni  Ni32  1  0.25000000  0.47407900  0.23135300  1
  Ni  Ni33  1  0.75000000  0.52592100  0.76864700  1
  Cu  Cu34  1  0.25000000  0.54689500  0.50692900  1
  Cu  Cu35  1  0.75000000  0.45310500  0.49307100  1
  C  C36  1  0.25000000  0.08141300  0.86179500  1
  C  C37  1  0.75000000  0.91858700  0.13820500  1
  C  C38  1  0.25000000  0.70783300  0.84306100  1
  C  C39  1  0.39935100  0.97461200  0.67371600  1
  C  C40  1  0.10064900  0.97461200  0.67371600  1
  C  C41  1  0.60064900  0.02538800  0.32628400  1
  C  C42  1  0.75000000  0.29216700  0.15693900  1
  C  C43  1  0.89935100  0.02538800  0.32628400  1
