# generated using pymatgen
data_Cu4NiC6
_symmetry_space_group_name_H-M   'P 1'
_cell_length_a   8.28299200
_cell_length_b   8.28299200
_cell_length_c   12.51500500
_cell_angle_alpha   90.00000000
_cell_angle_beta   90.00000000
_cell_angle_gamma   90.00000000
_symmetry_Int_Tables_number   1
_chemical_formula_structural   Cu4NiC6
_chemical_formula_sum   'Cu16 Ni4 C24'
_cell_volume   858.62891829
_cell_formula_units_Z   4
loop_
 _symmetry_equiv_pos_site_id
 _symmetry_equiv_pos_as_xyz
  1  'x, y, z'
loop_
 _atom_site_type_symbol
 _atom_site_label
 _atom_site_symmetry_multiplicity
 _atom_site_fract_x
 _atom_site_fract_y
 _atom_site_fract_z
 _atom_site_occupancy
  Ni  Ni0  1  0.50000000  0.00000000  0.65549800  1
  Ni  Ni1  1  0.00000000  0.50000000  0.84450200  1
  Ni  Ni2  1  0.50000000  0.00000000  0.15549800  1
  Ni  Ni3  1  0.00000000  0.50000000  0.34450200  1
  Cu  Cu4  1  0.16684100  0.88097800  0.41270100  1
  Cu  Cu5  1  0.88097800  0.83315900  0.58729900  1
  Cu  Cu6  1  0.33315900  0.61902200  0.58729900  1
  Cu  Cu7  1  0.83315900  0.11902200  0.41270100  1
  Cu  Cu8  1  0.16684100  0.11902200  0.91270100  1
  Cu  Cu9  1  0.33315900  0.38097800  0.08729900  1
  Cu  Cu10  1  0.38097800  0.66684100  0.91270100  1
  Cu  Cu11  1  0.83315900  0.88097800  0.91270100  1
  Cu  Cu12  1  0.88097800  0.16684100  0.08729900  1
  Cu  Cu13  1  0.61902200  0.33315900  0.91270100  1
  Cu  Cu14  1  0.61902200  0.66684100  0.41270100  1
  Cu  Cu15  1  0.66684100  0.38097800  0.58729900  1
  Cu  Cu16  1  0.11902200  0.16684100  0.58729900  1
  Cu  Cu17  1  0.38097800  0.33315900  0.41270100  1
  Cu  Cu18  1  0.66684100  0.61902200  0.08729900  1
  Cu  Cu19  1  0.11902200  0.83315900  0.08729900  1
  C  C20  1  0.15303600  0.15303600  0.25000000  1
  C  C21  1  0.65303600  0.34696400  0.25000000  1
  C  C22  1  0.15303600  0.84696400  0.75000000  1
  C  C23  1  0.84696400  0.84696400  0.25000000  1
  C  C24  1  0.84696400  0.15303600  0.75000000  1
  C  C25  1  0.65303600  0.65303600  0.75000000  1
  C  C26  1  0.34696400  0.65303600  0.25000000  1
  C  C27  1  0.34696400  0.34696400  0.75000000  1
  C  C28  1  0.87440300  0.18052000  0.89690900  1
  C  C29  1  0.31948000  0.37440300  0.89690900  1
  C  C30  1  0.62559700  0.68052000  0.60309100  1
  C  C31  1  0.18052000  0.12559700  0.10309100  1
  C  C32  1  0.31948000  0.62559700  0.39690900  1
  C  C33  1  0.18052000  0.87440300  0.60309100  1
  C  C34  1  0.68052000  0.62559700  0.89690900  1
  C  C35  1  0.81948000  0.12559700  0.60309100  1
  C  C36  1  0.81948000  0.87440300  0.10309100  1
  C  C37  1  0.12559700  0.18052000  0.39690900  1
  C  C38  1  0.87440300  0.81948000  0.39690900  1
  C  C39  1  0.68052000  0.37440300  0.39690900  1
  C  C40  1  0.62559700  0.31948000  0.10309100  1
  C  C41  1  0.12559700  0.81948000  0.89690900  1
  C  C42  1  0.37440300  0.31948000  0.60309100  1
  C  C43  1  0.37440300  0.68052000  0.10309100  1
