# generated using pymatgen
data_Cu(NiC2)2
_symmetry_space_group_name_H-M   'P 1'
_cell_length_a   23.89953425
_cell_length_b   23.89953425
_cell_length_c   23.89953377
_cell_angle_alpha   13.89435276
_cell_angle_beta   13.89435276
_cell_angle_gamma   13.89435050
_symmetry_Int_Tables_number   1
_chemical_formula_structural   Cu(NiC2)2
_chemical_formula_sum   'Cu10 Ni20 C40'
_cell_volume   685.05156035
_cell_formula_units_Z   10
loop_
 _symmetry_equiv_pos_site_id
 _symmetry_equiv_pos_as_xyz
  1  'x, y, z'
loop_
 _atom_site_type_symbol
 _atom_site_label
 _atom_site_symmetry_multiplicity
 _atom_site_fract_x
 _atom_site_fract_y
 _atom_site_fract_z
 _atom_site_occupancy
  Ni  Ni0  1  0.64901100  0.64901100  0.64901100  1
  Ni  Ni1  1  0.12158600  0.63196800  0.12158600  1
  Ni  Ni2  1  0.24969400  0.24969400  0.24969400  1
  Ni  Ni3  1  0.63196800  0.12158600  0.12158600  1
  Ni  Ni4  1  0.12158600  0.12158600  0.63196800  1
  Ni  Ni5  1  0.72289900  0.22906200  0.72289900  1
  Ni  Ni6  1  0.22906200  0.72289900  0.72289900  1
  Ni  Ni7  1  0.32468700  0.82544400  0.32468700  1
  Ni  Ni8  1  0.72289900  0.72289900  0.22906200  1
  Ni  Ni9  1  0.52478700  0.52478700  0.52478700  1
  Ni  Ni10  1  0.82544400  0.32468700  0.32468700  1
  Ni  Ni11  1  0.32468700  0.32468700  0.82544400  1
  Ni  Ni12  1  0.92486300  0.42466900  0.92486300  1
  Ni  Ni13  1  0.42466900  0.92486300  0.92486300  1
  Ni  Ni14  1  0.12486500  0.12486500  0.12486500  1
  Ni  Ni15  1  0.52322600  0.02904200  0.52322600  1
  Ni  Ni16  1  0.92486300  0.92486300  0.42466900  1
  Ni  Ni17  1  0.72491300  0.72491300  0.72491300  1
  Ni  Ni18  1  0.02904200  0.52322600  0.52322600  1
  Ni  Ni19  1  0.52322600  0.52322600  0.02904200  1
  Cu  Cu20  1  0.00076800  0.00076800  0.00076800  1
  Cu  Cu21  1  0.32560100  0.32560100  0.32560100  1
  Cu  Cu22  1  0.60053800  0.60053800  0.60053800  1
  Cu  Cu23  1  0.92521600  0.92521600  0.92521600  1
  Cu  Cu24  1  0.19998800  0.19998800  0.19998800  1
  Cu  Cu25  1  0.85037100  0.85037100  0.85037100  1
  Cu  Cu26  1  0.44994700  0.44994700  0.44994700  1
  Cu  Cu27  1  0.79977700  0.79977700  0.79977700  1
  Cu  Cu28  1  0.04920300  0.04920300  0.04920300  1
  Cu  Cu29  1  0.40019300  0.40019300  0.40019300  1
  C  C30  1  0.46771000  0.46771000  0.98363600  1
  C  C31  1  0.27603600  0.27603600  0.27603600  1
  C  C32  1  0.98363600  0.46771000  0.46771000  1
  C  C33  1  0.46771000  0.98363600  0.46771000  1
  C  C34  1  0.07199800  0.07199800  0.57547300  1
  C  C35  1  0.79111800  0.24950000  0.79111800  1
  C  C36  1  0.97269000  0.97269000  0.97269000  1
  C  C37  1  0.24950000  0.79111800  0.79111800  1
  C  C38  1  0.87893800  0.87893800  0.87893800  1
  C  C39  1  0.57547300  0.07199800  0.07199800  1
  C  C40  1  0.07199800  0.57547300  0.07199800  1
  C  C41  1  0.79111800  0.79111800  0.24950000  1
  C  C42  1  0.65540100  0.65540100  0.21155500  1
  C  C43  1  0.39598500  0.83520000  0.39598500  1
  C  C44  1  0.57223900  0.57223900  0.57223900  1
  C  C45  1  0.21155500  0.65540100  0.65540100  1
  C  C46  1  0.83520000  0.39598500  0.39598500  1
  C  C47  1  0.47801800  0.47801800  0.47801800  1
  C  C48  1  0.65540100  0.21155500  0.65540100  1
  C  C49  1  0.39598500  0.39598500  0.83520000  1
  C  C50  1  0.25459000  0.25459000  0.81280500  1
  C  C51  1  0.99525200  0.43752100  0.99525200  1
  C  C52  1  0.43752100  0.99525200  0.99525200  1
  C  C53  1  0.17216000  0.17216000  0.17216000  1
  C  C54  1  0.07759000  0.07759000  0.07759000  1
  C  C55  1  0.81280500  0.25459000  0.25459000  1
  C  C56  1  0.25459000  0.81280500  0.25459000  1
  C  C57  1  0.99525200  0.99525200  0.43752100  1
  C  C58  1  0.85192700  0.85192700  0.41775200  1
  C  C59  1  0.59553800  0.03689200  0.59553800  1
  C  C60  1  0.03689200  0.59553800  0.59553800  1
  C  C61  1  0.77206300  0.77206300  0.77206300  1
  C  C62  1  0.67499900  0.67499900  0.67499900  1
  C  C63  1  0.41775200  0.85192700  0.85192700  1
  C  C64  1  0.85192700  0.41775200  0.85192700  1
  C  C65  1  0.59553800  0.59553800  0.03689200  1
  C  C66  1  0.19079100  0.65196200  0.19079100  1
  C  C67  1  0.37277200  0.37277200  0.37277200  1
  C  C68  1  0.65196200  0.19079100  0.19079100  1
  C  C69  1  0.19079100  0.19079100  0.65196200  1
