# generated using pymatgen
data_CuNiC5
_symmetry_space_group_name_H-M   'P 1'
_cell_length_a   5.49974800
_cell_length_b   9.40294400
_cell_length_c   9.50502900
_cell_angle_alpha   90.00000000
_cell_angle_beta   90.00000000
_cell_angle_gamma   90.00000000
_symmetry_Int_Tables_number   1
_chemical_formula_structural   CuNiC5
_chemical_formula_sum   'Cu4 Ni4 C20'
_cell_volume   491.54138217
_cell_formula_units_Z   4
loop_
 _symmetry_equiv_pos_site_id
 _symmetry_equiv_pos_as_xyz
  1  'x, y, z'
loop_
 _atom_site_type_symbol
 _atom_site_label
 _atom_site_symmetry_multiplicity
 _atom_site_fract_x
 _atom_site_fract_y
 _atom_site_fract_z
 _atom_site_occupancy
  C  C0  1  0.76195000  0.00351600  0.79653800  1
  C  C1  1  0.26195000  0.49648400  0.29653800  1
  C  C2  1  0.26195000  0.99648400  0.20346200  1
  C  C3  1  0.76195000  0.50351600  0.70346200  1
  Ni  Ni4  1  0.25157600  0.32585000  0.91736300  1
  Ni  Ni5  1  0.75157600  0.17415000  0.41736300  1
  Ni  Ni6  1  0.25157600  0.82585000  0.58263700  1
  Ni  Ni7  1  0.75157600  0.67415000  0.08263700  1
  Cu  Cu8  1  0.75199100  0.80432200  0.41235400  1
  Cu  Cu9  1  0.25199100  0.19567800  0.58764600  1
  Cu  Cu10  1  0.75199100  0.30432200  0.08764600  1
  Cu  Cu11  1  0.25199100  0.69567800  0.91235400  1
  C  C12  1  0.57674100  0.75805100  0.53323000  1
  C  C13  1  0.07674100  0.74194900  0.03323000  1
  C  C14  1  0.66228500  0.23489000  0.22608300  1
  C  C15  1  0.57674100  0.25805100  0.96677000  1
  C  C16  1  0.01170200  0.74798200  0.44914500  1
  C  C17  1  0.16228500  0.26511000  0.72608300  1
  C  C18  1  0.51170200  0.25201800  0.55085500  1
  C  C19  1  0.01170200  0.24798200  0.05085500  1
  C  C20  1  0.25565500  0.03277200  0.60525200  1
  C  C21  1  0.07674100  0.24194900  0.46677000  1
  C  C22  1  0.75565500  0.46722800  0.10525200  1
  C  C23  1  0.75565500  0.96722800  0.39474800  1
  C  C24  1  0.25565500  0.53277200  0.89474800  1
  C  C25  1  0.16228500  0.76511000  0.77391700  1
  C  C26  1  0.66228500  0.73489000  0.27391700  1
  C  C27  1  0.51170200  0.75201800  0.94914500  1
