# generated using pymatgen
data_Cu9Ni2C5
_symmetry_space_group_name_H-M   'P 1'
_cell_length_a   17.45651600
_cell_length_b   10.92481400
_cell_length_c   14.28130085
_cell_angle_alpha   58.34175398
_cell_angle_beta   90.00000000
_cell_angle_gamma   90.00000000
_symmetry_Int_Tables_number   1
_chemical_formula_structural   Cu9Ni2C5
_chemical_formula_sum   'Cu36 Ni8 C20'
_cell_volume   2318.29047828
_cell_formula_units_Z   4
loop_
 _symmetry_equiv_pos_site_id
 _symmetry_equiv_pos_as_xyz
  1  'x, y, z'
loop_
 _atom_site_type_symbol
 _atom_site_label
 _atom_site_symmetry_multiplicity
 _atom_site_fract_x
 _atom_site_fract_y
 _atom_site_fract_z
 _atom_site_occupancy
  C  C0  1  0.44658400  0.51287700  0.74749000  1
  C  C1  1  0.17903100  0.30177700  0.55385700  1
  C  C2  1  0.65494800  0.51689400  0.78379500  1
  C  C3  1  0.53939100  0.34974400  0.03374200  1
  C  C4  1  0.94658400  0.48712300  0.75251000  1
  C  C5  1  0.82096900  0.69822300  0.44614300  1
  C  C6  1  0.03939100  0.65025600  0.46625800  1
  C  C7  1  0.46060900  0.65025600  0.96625800  1
  C  C8  1  0.05765900  0.16254200  0.80054900  1
  C  C9  1  0.67903100  0.69822300  0.94614300  1
  C  C10  1  0.44234100  0.16254200  0.30054900  1
  C  C11  1  0.84505200  0.51689400  0.28379500  1
  C  C12  1  0.15494800  0.48310600  0.71620500  1
  C  C13  1  0.55765900  0.83745800  0.69945100  1
  C  C14  1  0.94234100  0.83745800  0.19945100  1
  C  C15  1  0.55341600  0.48712300  0.25251000  1
  C  C16  1  0.32096900  0.30177700  0.05385700  1
  C  C17  1  0.34505200  0.48310600  0.21620500  1
  C  C18  1  0.96060900  0.34974400  0.53374200  1
  C  C19  1  0.05341600  0.51287700  0.24749000  1
  Ni  Ni20  1  0.46956600  0.43041500  0.16259900  1
  Ni  Ni21  1  0.08428800  0.37733100  0.61664800  1
  Ni  Ni22  1  0.53043400  0.56958500  0.83740100  1
  Ni  Ni23  1  0.58428800  0.62266900  0.88335200  1
  Ni  Ni24  1  0.03043400  0.43041500  0.66259900  1
  Ni  Ni25  1  0.41571200  0.37733100  0.11664800  1
  Ni  Ni26  1  0.96956600  0.56958500  0.33740100  1
  Ni  Ni27  1  0.91571200  0.62266900  0.38335200  1
  Cu  Cu28  1  0.43479600  0.58899900  0.34517800  1
  Cu  Cu29  1  0.18077500  0.00454900  0.74969600  1
  Cu  Cu30  1  0.05845900  0.81582100  0.04312700  1
  Cu  Cu31  1  0.80712900  0.59401500  0.85792400  1
  Cu  Cu32  1  0.30305800  0.59495400  0.83265400  1
  Cu  Cu33  1  0.69287100  0.59401500  0.35792400  1
  Cu  Cu34  1  0.68295500  0.79946400  0.56052300  1
  Cu  Cu35  1  0.43379100  0.20149000  0.94375600  1
  Cu  Cu36  1  0.31704500  0.20053600  0.43947700  1
  Cu  Cu37  1  0.19287100  0.40598500  0.14207600  1
  Cu  Cu38  1  0.44154100  0.81582100  0.54312700  1
  Cu  Cu39  1  0.19694200  0.59495400  0.33265400  1
  Cu  Cu40  1  0.82661700  0.21908100  0.46647900  1
  Cu  Cu41  1  0.80305800  0.40504600  0.66734600  1
  Cu  Cu42  1  0.67338300  0.21908100  0.96647900  1
  Cu  Cu43  1  0.94154100  0.18417900  0.95687300  1
  Cu  Cu44  1  0.93736300  0.03625800  0.73429000  1
  Cu  Cu45  1  0.93479600  0.41100100  0.15482200  1
  Cu  Cu46  1  0.06263700  0.96374200  0.26571000  1
  Cu  Cu47  1  0.17338300  0.78091900  0.53352100  1
  Cu  Cu48  1  0.56263700  0.03625800  0.23429000  1
  Cu  Cu49  1  0.81704500  0.79946400  0.06052300  1
  Cu  Cu50  1  0.32661700  0.78091900  0.03352100  1
  Cu  Cu51  1  0.30712900  0.40598500  0.64207600  1
  Cu  Cu52  1  0.18295500  0.20053600  0.93947700  1
  Cu  Cu53  1  0.56520400  0.41100100  0.65482200  1
  Cu  Cu54  1  0.31922500  0.00454900  0.24969600  1
  Cu  Cu55  1  0.55845900  0.18417900  0.45687300  1
  Cu  Cu56  1  0.56620900  0.79851000  0.05624400  1
  Cu  Cu57  1  0.93379100  0.79851000  0.55624400  1
  Cu  Cu58  1  0.68077500  0.99545100  0.75030400  1
  Cu  Cu59  1  0.06620900  0.20149000  0.44375600  1
  Cu  Cu60  1  0.06520400  0.58899900  0.84517800  1
  Cu  Cu61  1  0.81922500  0.99545100  0.25030400  1
  Cu  Cu62  1  0.43736300  0.96374200  0.76571000  1
  Cu  Cu63  1  0.69694200  0.40504600  0.16734600  1
