# generated using pymatgen
data_CuNi2C5
_symmetry_space_group_name_H-M   'P 1'
_cell_length_a   7.81866614
_cell_length_b   7.81866635
_cell_length_c   10.14696441
_cell_angle_alpha   110.70893084
_cell_angle_beta   110.70893220
_cell_angle_gamma   94.71222972
_symmetry_Int_Tables_number   1
_chemical_formula_structural   CuNi2C5
_chemical_formula_sum   'Cu4 Ni8 C20'
_cell_volume   527.29492628
_cell_formula_units_Z   4
loop_
 _symmetry_equiv_pos_site_id
 _symmetry_equiv_pos_as_xyz
  1  'x, y, z'
loop_
 _atom_site_type_symbol
 _atom_site_label
 _atom_site_symmetry_multiplicity
 _atom_site_fract_x
 _atom_site_fract_y
 _atom_site_fract_z
 _atom_site_occupancy
  Ni  Ni0  1  0.05795500  0.30795500  0.25000000  1
  Ni  Ni1  1  0.69204500  0.94204500  0.25000000  1
  Ni  Ni2  1  0.30795500  0.05795500  0.75000000  1
  Ni  Ni3  1  0.73530000  0.48530000  0.97060000  1
  Ni  Ni4  1  0.48530000  0.73530000  0.47060000  1
  Ni  Ni5  1  0.26470000  0.51470000  0.02940000  1
  Ni  Ni6  1  0.94204500  0.69204500  0.75000000  1
  Ni  Ni7  1  0.51470000  0.26470000  0.52940000  1
  Cu  Cu8  1  0.71669500  0.96669500  0.93338900  1
  Cu  Cu9  1  0.96669500  0.71669500  0.43338900  1
  Cu  Cu10  1  0.28330500  0.03330500  0.06661100  1
  Cu  Cu11  1  0.03330500  0.28330500  0.56661100  1
  C  C12  1  0.86881400  0.13118600  0.75000000  1
  C  C13  1  0.13118600  0.86881400  0.25000000  1
  C  C14  1  0.61881400  0.38118600  0.25000000  1
  C  C15  1  0.38118600  0.61881400  0.75000000  1
  C  C16  1  0.91793900  0.35643700  0.76244200  1
  C  C17  1  0.35643700  0.91793900  0.26244200  1
  C  C18  1  0.61582000  0.20398000  0.08843400  1
  C  C19  1  0.08206100  0.64356300  0.23755800  1
  C  C20  1  0.38418000  0.79602000  0.91156600  1
  C  C21  1  0.20398000  0.61582000  0.58843400  1
  C  C22  1  0.88445500  0.97261500  0.58843400  1
  C  C23  1  0.64356300  0.08206100  0.73755800  1
  C  C24  1  0.97261500  0.88445500  0.08843400  1
  C  C25  1  0.40600400  0.34450200  0.26244200  1
  C  C26  1  0.65549700  0.59399600  0.23755800  1
  C  C27  1  0.34450200  0.40600400  0.76244200  1
  C  C28  1  0.59399600  0.65549700  0.73755800  1
  C  C29  1  0.02738500  0.11554500  0.91156600  1
  C  C30  1  0.79602000  0.38418000  0.41156600  1
  C  C31  1  0.11554500  0.02738500  0.41156600  1
