# generated using pymatgen
data_Cu2(NiC4)3
_symmetry_space_group_name_H-M   'P 1'
_cell_length_a   8.37150965
_cell_length_b   8.37150965
_cell_length_c   8.37150964
_cell_angle_alpha   62.55807396
_cell_angle_beta   62.55807396
_cell_angle_gamma   62.55807668
_symmetry_Int_Tables_number   1
_chemical_formula_structural   Cu2(NiC4)3
_chemical_formula_sum   'Cu4 Ni6 C24'
_cell_volume   438.49450319
_cell_formula_units_Z   2
loop_
 _symmetry_equiv_pos_site_id
 _symmetry_equiv_pos_as_xyz
  1  'x, y, z'
loop_
 _atom_site_type_symbol
 _atom_site_label
 _atom_site_symmetry_multiplicity
 _atom_site_fract_x
 _atom_site_fract_y
 _atom_site_fract_z
 _atom_site_occupancy
  Ni  Ni0  1  0.58450800  0.91549200  0.25000000  1
  Ni  Ni1  1  0.41549200  0.08450800  0.75000000  1
  Ni  Ni2  1  0.25000000  0.58450800  0.91549200  1
  Ni  Ni3  1  0.08450800  0.75000000  0.41549200  1
  Ni  Ni4  1  0.91549200  0.25000000  0.58450800  1
  Ni  Ni5  1  0.75000000  0.41549200  0.08450800  1
  Cu  Cu6  1  0.82811500  0.82811500  0.82811500  1
  Cu  Cu7  1  0.17188500  0.17188500  0.17188500  1
  Cu  Cu8  1  0.67188500  0.67188500  0.67188500  1
  Cu  Cu9  1  0.32811500  0.32811500  0.32811500  1
  C  C10  1  0.91113800  0.58886200  0.25000000  1
  C  C11  1  0.25000000  0.91113800  0.58886200  1
  C  C12  1  0.08886200  0.41113800  0.75000000  1
  C  C13  1  0.41113800  0.75000000  0.08886200  1
  C  C14  1  0.58886200  0.25000000  0.91113800  1
  C  C15  1  0.75000000  0.08886200  0.41113800  1
  C  C16  1  0.90652400  0.15078400  0.31392200  1
  C  C17  1  0.40652400  0.81392200  0.65078400  1
  C  C18  1  0.09347600  0.84921600  0.68607800  1
  C  C19  1  0.31392200  0.90652400  0.15078400  1
  C  C20  1  0.81392200  0.65078400  0.40652400  1
  C  C21  1  0.57123700  0.75000000  0.92876300  1
  C  C22  1  0.34921600  0.59347600  0.18607800  1
  C  C23  1  0.42876300  0.25000000  0.07123700  1
  C  C24  1  0.18607800  0.34921600  0.59347600  1
  C  C25  1  0.15078400  0.31392200  0.90652400  1
  C  C26  1  0.59347600  0.18607800  0.34921600  1
  C  C27  1  0.84921600  0.68607800  0.09347600  1
  C  C28  1  0.92876300  0.57123700  0.75000000  1
  C  C29  1  0.65078400  0.40652400  0.81392200  1
  C  C30  1  0.25000000  0.07123700  0.42876300  1
  C  C31  1  0.07123700  0.42876300  0.25000000  1
  C  C32  1  0.68607800  0.09347600  0.84921600  1
  C  C33  1  0.75000000  0.92876300  0.57123700  1
