# generated using pymatgen
data_Cu2Ni4C7
_symmetry_space_group_name_H-M   'P 1'
_cell_length_a   13.96074988
_cell_length_b   14.21917385
_cell_length_c   17.44182232
_cell_angle_alpha   90.00000000
_cell_angle_beta   90.00000000
_cell_angle_gamma   90.00000000
_symmetry_Int_Tables_number   1
_chemical_formula_structural   Cu2Ni4C7
_chemical_formula_sum   'Cu16 Ni32 C56'
_cell_volume   3462.38189792
_cell_formula_units_Z   8
loop_
 _symmetry_equiv_pos_site_id
 _symmetry_equiv_pos_as_xyz
  1  'x, y, z'
loop_
 _atom_site_type_symbol
 _atom_site_label
 _atom_site_symmetry_multiplicity
 _atom_site_fract_x
 _atom_site_fract_y
 _atom_site_fract_z
 _atom_site_occupancy
  C  C0  1  0.19993880  0.49017910  0.61415199  1
  C  C1  1  0.30006120  0.50982090  0.11415199  1
  C  C2  1  0.80006120  0.99017910  0.88584801  1
  C  C3  1  0.80006120  0.50982090  0.38584801  1
  C  C4  1  0.30006120  0.99017910  0.61415199  1
  C  C5  1  0.69993880  0.00982090  0.38584801  1
  C  C6  1  0.69993880  0.49017910  0.88584801  1
  C  C7  1  0.19993880  0.00982090  0.11415199  1
  Ni  Ni8  1  0.91065249  0.00994774  0.64384288  1
  Ni  Ni9  1  0.91065249  0.49005226  0.14384288  1
  Ni  Ni10  1  0.52178224  0.20829179  0.99765362  1
  Ni  Ni11  1  0.97557060  0.75673325  0.74819711  1
  Ni  Ni12  1  0.41065249  0.49005226  0.35615712  1
  Ni  Ni13  1  0.72774548  0.73449330  0.12760316  1
  Ni  Ni14  1  0.77225452  0.26550670  0.62760316  1
  Ni  Ni15  1  0.02442940  0.24326675  0.25180289  1
  Ni  Ni16  1  0.58934751  0.50994774  0.64384288  1
  Ni  Ni17  1  0.08934751  0.99005226  0.35615712  1
  Ni  Ni18  1  0.02442940  0.25673325  0.75180289  1
  Ni  Ni19  1  0.27225452  0.26550670  0.87239684  1
  Ni  Ni20  1  0.47821776  0.79170821  0.00234638  1
  Ni  Ni21  1  0.08934751  0.50994774  0.85615712  1
  Ni  Ni22  1  0.97821776  0.70829179  0.99765362  1
  Ni  Ni23  1  0.52442940  0.25673325  0.74819711  1
  Ni  Ni24  1  0.02178224  0.20829179  0.50234638  1
  Ni  Ni25  1  0.27225452  0.23449330  0.37239684  1
  Ni  Ni26  1  0.47557060  0.75673325  0.75180289  1
  Ni  Ni27  1  0.02178224  0.29170821  0.00234638  1
  Ni  Ni28  1  0.58934751  0.99005226  0.14384288  1
  Ni  Ni29  1  0.52442940  0.24326675  0.24819711  1
  Ni  Ni30  1  0.97821776  0.79170821  0.49765362  1
  Ni  Ni31  1  0.22774548  0.73449330  0.37239684  1
  Ni  Ni32  1  0.41065249  0.00994774  0.85615712  1
  Ni  Ni33  1  0.47557060  0.74326675  0.25180289  1
  Ni  Ni34  1  0.22774548  0.76550670  0.87239684  1
  Ni  Ni35  1  0.97557060  0.74326675  0.24819711  1
  Ni  Ni36  1  0.47821776  0.70829179  0.50234638  1
  Ni  Ni37  1  0.72774548  0.76550670  0.62760316  1
  Ni  Ni38  1  0.52178224  0.29170821  0.49765362  1
  Ni  Ni39  1  0.77225452  0.23449330  0.12760316  1
  Cu  Cu40  1  0.39911885  0.67033580  0.37208856  1
  Cu  Cu41  1  0.93818231  0.31083699  0.13342313  1
  Cu  Cu42  1  0.56181769  0.68916301  0.63342313  1
  Cu  Cu43  1  0.60088115  0.32966420  0.62791144  1
  Cu  Cu44  1  0.56181769  0.81083699  0.13342313  1
  Cu  Cu45  1  0.93818231  0.18916301  0.63342313  1
  Cu  Cu46  1  0.06181769  0.81083699  0.36657687  1
  Cu  Cu47  1  0.10088115  0.17033580  0.37208856  1
  Cu  Cu48  1  0.10088115  0.32966420  0.87208856  1
  Cu  Cu49  1  0.60088115  0.17033580  0.12791144  1
  Cu  Cu50  1  0.06181769  0.68916301  0.86657687  1
  Cu  Cu51  1  0.89911885  0.82966420  0.62791144  1
  Cu  Cu52  1  0.43818231  0.18916301  0.86657687  1
  Cu  Cu53  1  0.43818231  0.31083699  0.36657687  1
  Cu  Cu54  1  0.39911885  0.82966420  0.87208856  1
  Cu  Cu55  1  0.89911885  0.67033580  0.12791144  1
  C  C56  1  0.76636718  0.92493540  0.26533813  1
  C  C57  1  0.46935264  0.51284369  0.17687968  1
  C  C58  1  0.26376697  0.83223028  0.68152324  1
  C  C59  1  0.83776766  0.35170605  0.45335212  1
  C  C60  1  0.16223234  0.64829395  0.54664788  1
  C  C61  1  0.23623303  0.16776972  0.18152324  1
  C  C62  1  0.96935264  0.51284369  0.32312032  1
  C  C63  1  0.73363282  0.07506460  0.76533813  1
  C  C64  1  0.73363282  0.42493540  0.26533813  1
  C  C65  1  0.37216156  0.49053093  0.55419258  1
  C  C66  1  0.03064736  0.01284369  0.17687968  1
  C  C67  1  0.33776766  0.14829395  0.54664788  1
  C  C68  1  0.16223234  0.85170605  0.04664788  1
  C  C69  1  0.66223234  0.85170605  0.45335212  1
  C  C70  1  0.53064736  0.48715631  0.82312032  1
  C  C71  1  0.73623303  0.33223028  0.81847676  1
  C  C72  1  0.13934012  0.39868930  0.49496168  1
  C  C73  1  0.63934012  0.10131070  0.50503832  1
  C  C74  1  0.36065988  0.89868930  0.49496168  1
  C  C75  1  0.26636718  0.92493540  0.23466187  1
  C  C76  1  0.76376697  0.66776972  0.31847676  1
  C  C77  1  0.46935264  0.98715631  0.67687968  1
  C  C78  1  0.96935264  0.98715631  0.82312032  1
  C  C79  1  0.37216156  0.00946907  0.05419258  1
  C  C80  1  0.87216156  0.49053093  0.94580742  1
  C  C81  1  0.63934012  0.39868930  0.00503832  1
  C  C82  1  0.53064736  0.01284369  0.32312032  1
  C  C83  1  0.03064736  0.48715631  0.67687968  1
  C  C84  1  0.26376697  0.66776972  0.18152324  1
  C  C85  1  0.86065988  0.89868930  0.00503832  1
  C  C86  1  0.23363282  0.42493540  0.23466187  1
  C  C87  1  0.23623303  0.33223028  0.68152324  1
  C  C88  1  0.83776766  0.14829395  0.95335212  1
  C  C89  1  0.66223234  0.64829395  0.95335212  1
  C  C90  1  0.62783844  0.99053093  0.94580742  1
  C  C91  1  0.76376697  0.83223028  0.81847676  1
  C  C92  1  0.33776766  0.35170605  0.04664788  1
  C  C93  1  0.12783844  0.99053093  0.55419258  1
  C  C94  1  0.13934012  0.10131070  0.99496168  1
  C  C95  1  0.23363282  0.07506460  0.73466187  1
  C  C96  1  0.62783844  0.50946907  0.44580742  1
  C  C97  1  0.26636718  0.57506460  0.73466187  1
  C  C98  1  0.73623303  0.16776972  0.31847676  1
  C  C99  1  0.12783844  0.50946907  0.05419258  1
  C  C100  1  0.36065988  0.60131070  0.99496168  1
  C  C101  1  0.86065988  0.60131070  0.50503832  1
  C  C102  1  0.76636718  0.57506460  0.76533813  1
  C  C103  1  0.87216156  0.00946907  0.44580742  1
