# generated using pymatgen
data_CuNi
_symmetry_space_group_name_H-M   'P 1'
_cell_length_a   3.09439999
_cell_length_b   3.09439999
_cell_length_c   48.09961700
_cell_angle_alpha   90.00000000
_cell_angle_beta   90.00000000
_cell_angle_gamma   119.99999982
_symmetry_Int_Tables_number   1
_chemical_formula_structural   CuNi
_chemical_formula_sum   'Cu19 Ni19'
_cell_volume   398.86428744
_cell_formula_units_Z   19
loop_
 _symmetry_equiv_pos_site_id
 _symmetry_equiv_pos_as_xyz
  1  'x, y, z'
loop_
 _atom_site_type_symbol
 _atom_site_label
 _atom_site_symmetry_multiplicity
 _atom_site_fract_x
 _atom_site_fract_y
 _atom_site_fract_z
 _atom_site_occupancy
  Ni  Ni0  1  0.00000000  0.00000000  0.73684500  1
  Ni  Ni1  1  0.00000000  0.00000000  0.94735100  1
  Ni  Ni2  1  0.00000000  0.00000000  0.15789100  1
  Ni  Ni3  1  0.66666700  0.33333300  0.68418700  1
  Ni  Ni4  1  0.33333300  0.66666700  0.78942800  1
  Ni  Ni5  1  0.66666700  0.33333300  0.36838700  1
  Ni  Ni6  1  0.33333300  0.66666700  0.42103400  1
  Ni  Ni7  1  0.00000000  0.00000000  0.63154500  1
  Ni  Ni8  1  0.33333300  0.66666700  0.21053600  1
  Ni  Ni9  1  0.00000000  0.00000000  0.52626500  1
  Ni  Ni10  1  0.66666700  0.33333300  0.47368400  1
  Ni  Ni11  1  0.33333300  0.66666700  0.89470900  1
  Ni  Ni12  1  0.33333300  0.66666700  0.99997800  1
  Ni  Ni13  1  0.66666700  0.33333300  0.84209000  1
  Ni  Ni14  1  0.66666700  0.33333300  0.26310700  1
  Ni  Ni15  1  0.00000000  0.00000000  0.31577000  1
  Ni  Ni16  1  0.33333300  0.66666700  0.10524500  1
  Ni  Ni17  1  0.33333300  0.66666700  0.57892900  1
  Ni  Ni18  1  0.66666700  0.33333300  0.05262200  1
  Cu  Cu19  1  0.33333300  0.66666700  0.61850900  1
  Cu  Cu20  1  0.33333300  0.66666700  0.82890900  1
  Cu  Cu21  1  0.66666700  0.33333300  0.72378000  1
  Cu  Cu22  1  0.00000000  0.00000000  0.77633500  1
  Cu  Cu23  1  0.66666700  0.33333300  0.40784500  1
  Cu  Cu24  1  0.00000000  0.00000000  0.35535300  1
  Cu  Cu25  1  0.00000000  0.00000000  0.67100000  1
  Cu  Cu26  1  0.33333300  0.66666700  0.14471200  1
  Cu  Cu27  1  0.00000000  0.00000000  0.98694100  1
  Cu  Cu28  1  0.33333300  0.66666700  0.46062500  1
  Cu  Cu29  1  0.33333300  0.66666700  0.93416800  1
  Cu  Cu30  1  0.00000000  0.00000000  0.19748100  1
  Cu  Cu31  1  0.66666700  0.33333300  0.51316700  1
  Cu  Cu32  1  0.00000000  0.00000000  0.56574400  1
  Cu  Cu33  1  0.66666700  0.33333300  0.30258700  1
  Cu  Cu34  1  0.33333300  0.66666700  0.25001400  1
  Cu  Cu35  1  0.33333300  0.66666700  0.03943400  1
  Cu  Cu36  1  0.66666700  0.33333300  0.88167700  1
  Cu  Cu37  1  0.66666700  0.33333300  0.09221400  1
