# generated using pymatgen
data_Cu8Ni7C2
_symmetry_space_group_name_H-M   'P 1'
_cell_length_a   9.65174900
_cell_length_b   11.72308700
_cell_length_c   12.18493000
_cell_angle_alpha   90.00000000
_cell_angle_beta   90.00000000
_cell_angle_gamma   90.00000000
_symmetry_Int_Tables_number   1
_chemical_formula_structural   Cu8Ni7C2
_chemical_formula_sum   'Cu32 Ni28 C8'
_cell_volume   1378.70403262
_cell_formula_units_Z   4
loop_
 _symmetry_equiv_pos_site_id
 _symmetry_equiv_pos_as_xyz
  1  'x, y, z'
loop_
 _atom_site_type_symbol
 _atom_site_label
 _atom_site_symmetry_multiplicity
 _atom_site_fract_x
 _atom_site_fract_y
 _atom_site_fract_z
 _atom_site_occupancy
  C  C0  1  0.46762300  0.22343000  0.06669700  1
  C  C1  1  0.96762300  0.77657000  0.93330300  1
  C  C2  1  0.03237700  0.72343000  0.43330300  1
  C  C3  1  0.53237700  0.27657000  0.56669700  1
  C  C4  1  0.53237700  0.77657000  0.93330300  1
  C  C5  1  0.03237700  0.22343000  0.06669700  1
  C  C6  1  0.96762300  0.27657000  0.56669700  1
  C  C7  1  0.46762300  0.72343000  0.43330300  1
  Ni  Ni8  1  0.75000000  0.04408800  0.72287800  1
  Ni  Ni9  1  0.25000000  0.95591200  0.27712200  1
  Ni  Ni10  1  0.75000000  0.54408800  0.77712200  1
  Ni  Ni11  1  0.25000000  0.45591200  0.22287800  1
  Ni  Ni12  1  0.75000000  0.04786800  0.95965000  1
  Ni  Ni13  1  0.25000000  0.95213200  0.04035000  1
  Ni  Ni14  1  0.75000000  0.54786800  0.54035000  1
  Ni  Ni15  1  0.25000000  0.45213200  0.45965000  1
  Ni  Ni16  1  0.75000000  0.26047300  0.83826900  1
  Ni  Ni17  1  0.25000000  0.73952700  0.16173100  1
  Ni  Ni18  1  0.75000000  0.76047300  0.66173100  1
  Ni  Ni19  1  0.25000000  0.23952700  0.33826900  1
  Ni  Ni20  1  0.75000000  0.65395300  0.19768900  1
  Ni  Ni21  1  0.25000000  0.34604700  0.80231100  1
  Ni  Ni22  1  0.75000000  0.15395300  0.30231100  1
  Ni  Ni23  1  0.25000000  0.84604700  0.69768900  1
  Ni  Ni24  1  0.75000000  0.45552100  0.06929400  1
  Ni  Ni25  1  0.25000000  0.54447900  0.93070600  1
  Ni  Ni26  1  0.75000000  0.95552100  0.43070600  1
  Ni  Ni27  1  0.25000000  0.04447900  0.56929400  1
  Ni  Ni28  1  0.60770800  0.46218800  0.26706200  1
  Ni  Ni29  1  0.10770800  0.53781200  0.73293800  1
  Ni  Ni30  1  0.89229200  0.96218800  0.23293800  1
  Ni  Ni31  1  0.39229200  0.03781200  0.76706200  1
  Ni  Ni32  1  0.39229200  0.53781200  0.73293800  1
  Ni  Ni33  1  0.89229200  0.46218800  0.26706200  1
  Ni  Ni34  1  0.10770800  0.03781200  0.76706200  1
  Ni  Ni35  1  0.60770800  0.96218800  0.23293800  1
  Cu  Cu36  1  0.75000000  0.18744800  0.95330900  1
  Cu  Cu37  1  0.25000000  0.81255200  0.04669100  1
  Cu  Cu38  1  0.75000000  0.68744800  0.54669100  1
  Cu  Cu39  1  0.25000000  0.31255200  0.45330900  1
  Cu  Cu40  1  0.75000000  0.98176100  0.84185400  1
  Cu  Cu41  1  0.25000000  0.01823900  0.15814600  1
  Cu  Cu42  1  0.75000000  0.48176100  0.65814600  1
  Cu  Cu43  1  0.25000000  0.51823900  0.34185400  1
  Cu  Cu44  1  0.75000000  0.18317000  0.72585300  1
  Cu  Cu45  1  0.25000000  0.81683000  0.27414700  1
  Cu  Cu46  1  0.75000000  0.68317000  0.77414700  1
  Cu  Cu47  1  0.25000000  0.31683000  0.22585300  1
  Cu  Cu48  1  0.75000000  0.59639600  0.07378000  1
  Cu  Cu49  1  0.25000000  0.40360400  0.92622000  1
  Cu  Cu50  1  0.75000000  0.09639600  0.42622000  1
  Cu  Cu51  1  0.25000000  0.90360400  0.57378000  1
  Cu  Cu52  1  0.61679000  0.40792100  0.14451000  1
  Cu  Cu53  1  0.11679000  0.59207900  0.85549000  1
  Cu  Cu54  1  0.88321000  0.90792100  0.35549000  1
  Cu  Cu55  1  0.38321000  0.09207900  0.64451000  1
  Cu  Cu56  1  0.38321000  0.59207900  0.85549000  1
  Cu  Cu57  1  0.88321000  0.40792100  0.14451000  1
  Cu  Cu58  1  0.11679000  0.09207900  0.64451000  1
  Cu  Cu59  1  0.61679000  0.90792100  0.35549000  1
  Cu  Cu60  1  0.61633300  0.60063600  0.26841700  1
  Cu  Cu61  1  0.11633300  0.39936400  0.73158300  1
  Cu  Cu62  1  0.88366700  0.10063600  0.23158300  1
  Cu  Cu63  1  0.38366700  0.89936400  0.76841700  1
  Cu  Cu64  1  0.38366700  0.39936400  0.73158300  1
  Cu  Cu65  1  0.88366700  0.60063600  0.26841700  1
  Cu  Cu66  1  0.11633300  0.89936400  0.76841700  1
  Cu  Cu67  1  0.61633300  0.10063600  0.23158300  1
