# generated using pymatgen
data_Cu2NiC10
_symmetry_space_group_name_H-M   'P 1'
_cell_length_a   6.95239271
_cell_length_b   9.36338922
_cell_length_c   10.96346283
_cell_angle_alpha   101.76320896
_cell_angle_beta   98.15171735
_cell_angle_gamma   110.67820170
_symmetry_Int_Tables_number   1
_chemical_formula_structural   Cu2NiC10
_chemical_formula_sum   'Cu8 Ni4 C40'
_cell_volume   635.64261292
_cell_formula_units_Z   4
loop_
 _symmetry_equiv_pos_site_id
 _symmetry_equiv_pos_as_xyz
  1  'x, y, z'
loop_
 _atom_site_type_symbol
 _atom_site_label
 _atom_site_symmetry_multiplicity
 _atom_site_fract_x
 _atom_site_fract_y
 _atom_site_fract_z
 _atom_site_occupancy
  C  C0  1  0.79898000  0.05116500  0.12432900  1
  C  C1  1  0.79898000  0.05116500  0.62432900  1
  C  C2  1  0.20102000  0.94883500  0.37567100  1
  C  C3  1  0.20102000  0.94883500  0.87567100  1
  Ni  Ni4  1  0.38414100  0.64723300  0.49491000  1
  Ni  Ni5  1  0.38414100  0.64723300  0.99491000  1
  Ni  Ni6  1  0.61585900  0.35276700  0.00509000  1
  Ni  Ni7  1  0.61585900  0.35276700  0.50509000  1
  C  C8  1  0.85270600  0.56059300  0.81921500  1
  C  C9  1  0.14729400  0.43940700  0.68078500  1
  C  C10  1  0.85270600  0.56059300  0.31921500  1
  C  C11  1  0.14729400  0.43940700  0.18078500  1
  Cu  Cu12  1  0.42439000  0.23657800  0.19788800  1
  Cu  Cu13  1  0.42439000  0.23657800  0.69788800  1
  Cu  Cu14  1  0.57561000  0.76342200  0.30211200  1
  Cu  Cu15  1  0.57561000  0.76342200  0.80211200  1
  Cu  Cu16  1  0.02402600  0.30239300  0.42144500  1
  Cu  Cu17  1  0.02402600  0.30239300  0.92144500  1
  Cu  Cu18  1  0.97597400  0.69760700  0.07855500  1
  Cu  Cu19  1  0.97597400  0.69760700  0.57855500  1
  C  C20  1  0.55433100  0.89219200  0.40612600  1
  C  C21  1  0.55433100  0.89219200  0.90612600  1
  C  C22  1  0.44566900  0.10780800  0.09387400  1
  C  C23  1  0.44566900  0.10780800  0.59387400  1
  C  C24  1  0.47470600  0.20922800  0.33244100  1
  C  C25  1  0.47470600  0.20922800  0.83244100  1
  C  C26  1  0.52529400  0.79077200  0.16755900  1
  C  C27  1  0.52529400  0.79077200  0.66755900  1
  C  C28  1  0.79834200  0.76186600  0.32945300  1
  C  C29  1  0.79834200  0.76186600  0.82945300  1
  C  C30  1  0.20165800  0.23813400  0.17054700  1
  C  C31  1  0.20165800  0.23813400  0.67054700  1
  C  C32  1  0.11539900  0.69559900  0.47630100  1
  C  C33  1  0.11539900  0.69559900  0.97630100  1
  C  C34  1  0.88460100  0.30440100  0.02369900  1
  C  C35  1  0.88460100  0.30440100  0.52369900  1
  C  C36  1  0.74820300  0.57815100  0.49793200  1
  C  C37  1  0.74820300  0.57815100  0.99793200  1
  C  C38  1  0.25179700  0.42184900  0.00206800  1
  C  C39  1  0.25179700  0.42184900  0.50206800  1
  C  C40  1  0.99677900  0.86712300  0.13102800  1
  C  C41  1  0.99677900  0.86712300  0.63102800  1
  C  C42  1  0.00322100  0.13287700  0.36897200  1
  C  C43  1  0.00322100  0.13287700  0.86897200  1
  C  C44  1  0.59157100  0.39830100  0.18868800  1
  C  C45  1  0.59157100  0.39830100  0.68868800  1
  C  C46  1  0.40842900  0.60169900  0.31131200  1
  C  C47  1  0.40842900  0.60169900  0.81131200  1
  C  C48  1  0.95381600  0.36892100  0.31062200  1
  C  C49  1  0.95381600  0.36892100  0.81062200  1
  C  C50  1  0.04618400  0.63107900  0.18937800  1
  C  C51  1  0.04618400  0.63107900  0.68937800  1
