# generated using pymatgen
data_Cu2Ni15C2
_symmetry_space_group_name_H-M   'P 1'
_cell_length_a   6.89838081
_cell_length_b   6.89838081
_cell_length_c   6.89838143
_cell_angle_alpha   84.88699491
_cell_angle_beta   84.88699491
_cell_angle_gamma   84.88700270
_symmetry_Int_Tables_number   1
_chemical_formula_structural   Cu2Ni15C2
_chemical_formula_sum   'Cu2 Ni15 C2'
_cell_volume   324.57834853
_cell_formula_units_Z   1
loop_
 _symmetry_equiv_pos_site_id
 _symmetry_equiv_pos_as_xyz
  1  'x, y, z'
loop_
 _atom_site_type_symbol
 _atom_site_label
 _atom_site_symmetry_multiplicity
 _atom_site_fract_x
 _atom_site_fract_y
 _atom_site_fract_z
 _atom_site_occupancy
  C  C0  1  0.33357300  0.33357300  0.33357300  1
  C  C1  1  0.66642700  0.66642700  0.66642700  1
  Ni  Ni2  1  0.00000000  0.00000000  0.50000000  1
  Ni  Ni3  1  0.00000000  0.50000000  0.00000000  1
  Ni  Ni4  1  0.50000000  0.00000000  0.00000000  1
  Ni  Ni5  1  0.69117100  0.30882900  0.00000000  1
  Ni  Ni6  1  0.30882900  0.00000000  0.69117100  1
  Ni  Ni7  1  0.00000000  0.69117100  0.30882900  1
  Ni  Ni8  1  0.30882900  0.69117100  0.00000000  1
  Ni  Ni9  1  0.69117100  0.00000000  0.30882900  1
  Ni  Ni10  1  0.00000000  0.30882900  0.69117100  1
  Ni  Ni11  1  0.17053800  0.64841100  0.64841100  1
  Ni  Ni12  1  0.64841100  0.64841100  0.17053800  1
  Ni  Ni13  1  0.64841100  0.17053800  0.64841100  1
  Ni  Ni14  1  0.35158900  0.82946200  0.35158900  1
  Ni  Ni15  1  0.82946200  0.35158900  0.35158900  1
  Ni  Ni16  1  0.35158900  0.35158900  0.82946200  1
  Cu  Cu17  1  0.09913600  0.09913600  0.09913600  1
  Cu  Cu18  1  0.90086400  0.90086400  0.90086400  1
