# generated using pymatgen
data_Cu(NiC3)3
_symmetry_space_group_name_H-M   'P 1'
_cell_length_a   5.51606600
_cell_length_b   5.51606600
_cell_length_c   5.51606600
_cell_angle_alpha   90.00000000
_cell_angle_beta   90.00000000
_cell_angle_gamma   90.00000000
_symmetry_Int_Tables_number   1
_chemical_formula_structural   Cu(NiC3)3
_chemical_formula_sum   'Cu1 Ni3 C9'
_cell_volume   167.83725257
_cell_formula_units_Z   1
loop_
 _symmetry_equiv_pos_site_id
 _symmetry_equiv_pos_as_xyz
  1  'x, y, z'
loop_
 _atom_site_type_symbol
 _atom_site_label
 _atom_site_symmetry_multiplicity
 _atom_site_fract_x
 _atom_site_fract_y
 _atom_site_fract_z
 _atom_site_occupancy
  C  C0  1  0.78240700  0.21759300  0.78240700  1
  C  C1  1  0.21759300  0.21759300  0.21759300  1
  C  C2  1  0.78240700  0.78240700  0.78240700  1
  C  C3  1  0.21759300  0.78240700  0.21759300  1
  C  C4  1  0.78240700  0.21759300  0.21759300  1
  C  C5  1  0.78240700  0.78240700  0.21759300  1
  C  C6  1  0.50000000  0.50000000  0.50000000  1
  C  C7  1  0.21759300  0.78240700  0.78240700  1
  C  C8  1  0.21759300  0.21759300  0.78240700  1
  Ni  Ni9  1  0.50000000  0.50000000  0.00000000  1
  Ni  Ni10  1  0.00000000  0.50000000  0.50000000  1
  Ni  Ni11  1  0.50000000  0.00000000  0.50000000  1
  Cu  Cu12  1  0.00000000  0.00000000  0.00000000  1
