# generated using pymatgen
data_Cu2Ni2C
_symmetry_space_group_name_H-M   'P 1'
_cell_length_a   4.52563800
_cell_length_b   8.99836200
_cell_length_c   10.09417957
_cell_angle_alpha   89.20627133
_cell_angle_beta   90.00000000
_cell_angle_gamma   90.00000000
_symmetry_Int_Tables_number   1
_chemical_formula_structural   Cu2Ni2C
_chemical_formula_sum   'Cu8 Ni8 C4'
_cell_volume   411.02915227
_cell_formula_units_Z   4
loop_
 _symmetry_equiv_pos_site_id
 _symmetry_equiv_pos_as_xyz
  1  'x, y, z'
loop_
 _atom_site_type_symbol
 _atom_site_label
 _atom_site_symmetry_multiplicity
 _atom_site_fract_x
 _atom_site_fract_y
 _atom_site_fract_z
 _atom_site_occupancy
  C  C0  1  0.76040800  0.62627500  0.75146800  1
  C  C1  1  0.73959200  0.12627500  0.75146800  1
  C  C2  1  0.26040800  0.87372500  0.24853200  1
  C  C3  1  0.23959200  0.37372500  0.24853200  1
  Ni  Ni4  1  0.25435300  0.62358700  0.99941500  1
  Ni  Ni5  1  0.24564700  0.12358700  0.99941500  1
  Ni  Ni6  1  0.20539600  0.38630300  0.62859300  1
  Ni  Ni7  1  0.74564700  0.37641300  0.00058500  1
  Ni  Ni8  1  0.79460400  0.61369700  0.37140700  1
  Ni  Ni9  1  0.75435300  0.87641300  0.00058500  1
  Ni  Ni10  1  0.29460400  0.88630300  0.62859300  1
  Ni  Ni11  1  0.70539600  0.11369700  0.37140700  1
  Cu  Cu12  1  0.67726800  0.35868500  0.49784500  1
  Cu  Cu13  1  0.82273200  0.85868500  0.49784500  1
  Cu  Cu14  1  0.74661100  0.12573600  0.12039000  1
  Cu  Cu15  1  0.32273200  0.64131500  0.50215500  1
  Cu  Cu16  1  0.75338900  0.62573600  0.12039000  1
  Cu  Cu17  1  0.25338900  0.87426400  0.87961000  1
  Cu  Cu18  1  0.24661100  0.37426400  0.87961000  1
  Cu  Cu19  1  0.17726800  0.14131500  0.50215500  1
