# generated using pymatgen
data_Cu2NiC8
_symmetry_space_group_name_H-M   'P 1'
_cell_length_a   8.31438800
_cell_length_b   5.38833500
_cell_length_c   14.00014388
_cell_angle_alpha   67.58806605
_cell_angle_beta   90.00000000
_cell_angle_gamma   90.00000000
_symmetry_Int_Tables_number   1
_chemical_formula_structural   Cu2NiC8
_chemical_formula_sum   'Cu8 Ni4 C32'
_cell_volume   579.84059845
_cell_formula_units_Z   4
loop_
 _symmetry_equiv_pos_site_id
 _symmetry_equiv_pos_as_xyz
  1  'x, y, z'
loop_
 _atom_site_type_symbol
 _atom_site_label
 _atom_site_symmetry_multiplicity
 _atom_site_fract_x
 _atom_site_fract_y
 _atom_site_fract_z
 _atom_site_occupancy
  C  C0  1  0.66124000  0.00907100  0.27909200  1
  C  C1  1  0.16124000  0.99092900  0.22090800  1
  C  C2  1  0.33876000  0.99092900  0.72090800  1
  C  C3  1  0.83876000  0.00907100  0.77909200  1
  Ni  Ni4  1  0.65281800  0.72254900  0.60471000  1
  Ni  Ni5  1  0.34718200  0.27745100  0.39529000  1
  Ni  Ni6  1  0.15281800  0.27745100  0.89529000  1
  Ni  Ni7  1  0.84718200  0.72254900  0.10471000  1
  Cu  Cu8  1  0.96437100  0.41703200  0.33443100  1
  Cu  Cu9  1  0.03562900  0.58296800  0.66556900  1
  Cu  Cu10  1  0.80160600  0.33519400  0.98005400  1
  Cu  Cu11  1  0.19839400  0.66480600  0.01994600  1
  Cu  Cu12  1  0.30160600  0.66480600  0.51994600  1
  Cu  Cu13  1  0.69839400  0.33519400  0.48005400  1
  Cu  Cu14  1  0.53562900  0.41703200  0.83443100  1
  Cu  Cu15  1  0.46437100  0.58296800  0.16556900  1
  C  C16  1  0.40406800  0.72752700  0.60015000  1
  C  C17  1  0.38492400  0.68097000  0.05132800  1
  C  C18  1  0.88036700  0.68032800  0.26587700  1
  C  C19  1  0.31445700  0.88672800  0.41143100  1
  C  C20  1  0.64036500  0.51937800  0.15223200  1
  C  C21  1  0.05888600  0.80811100  0.70492400  1
  C  C22  1  0.90406800  0.27247300  0.89985000  1
  C  C23  1  0.61507600  0.31903000  0.94867200  1
  C  C24  1  0.33238400  0.37835300  0.52547000  1
  C  C25  1  0.18554300  0.88672800  0.91143100  1
  C  C26  1  0.16761600  0.37835300  0.02547000  1
  C  C27  1  0.35963500  0.48062200  0.84776800  1
  C  C28  1  0.94111400  0.19188900  0.29507600  1
  C  C29  1  0.61963300  0.68032800  0.76587700  1
  C  C30  1  0.59593200  0.27247300  0.39985000  1
  C  C31  1  0.11507600  0.68097000  0.55132800  1
  C  C32  1  0.38036700  0.31967200  0.23412300  1
  C  C33  1  0.68554300  0.11327200  0.58856900  1
  C  C34  1  0.81445700  0.11327200  0.08856900  1
  C  C35  1  0.14036500  0.48062200  0.34776800  1
  C  C36  1  0.11963300  0.31967200  0.73412300  1
  C  C37  1  0.85963500  0.51937800  0.65223200  1
  C  C38  1  0.09593200  0.72752700  0.10015000  1
  C  C39  1  0.88492400  0.31903000  0.44867200  1
  C  C40  1  0.66761600  0.62164700  0.47453000  1
  C  C41  1  0.55888600  0.19188900  0.79507600  1
  C  C42  1  0.44111400  0.80811100  0.20492400  1
  C  C43  1  0.83238400  0.62164700  0.97453000  1
