# generated using pymatgen
data_Cu(NiC2)2
_symmetry_space_group_name_H-M   'P 1'
_cell_length_a   5.84097548
_cell_length_b   5.84097619
_cell_length_c   23.70933512
_cell_angle_alpha   60.48079234
_cell_angle_beta   60.48078901
_cell_angle_gamma   59.99999551
_symmetry_Int_Tables_number   1
_chemical_formula_structural   Cu(NiC2)2
_chemical_formula_sum   'Cu8 Ni16 C32'
_cell_volume   576.09397146
_cell_formula_units_Z   8
loop_
 _symmetry_equiv_pos_site_id
 _symmetry_equiv_pos_as_xyz
  1  'x, y, z'
loop_
 _atom_site_type_symbol
 _atom_site_label
 _atom_site_symmetry_multiplicity
 _atom_site_fract_x
 _atom_site_fract_y
 _atom_site_fract_z
 _atom_site_occupancy
  Ni  Ni0  1  0.12619400  0.12619400  0.03035500  1
  Ni  Ni1  1  0.99543100  0.50235400  0.12496500  1
  Ni  Ni2  1  0.12376800  0.12376800  0.28217400  1
  Ni  Ni3  1  0.50235400  0.99543100  0.12496500  1
  Ni  Ni4  1  0.50235400  0.50235400  0.12496500  1
  Ni  Ni5  1  0.99287400  0.49518800  0.37918800  1
  Ni  Ni6  1  0.49518800  0.99287400  0.37918800  1
  Ni  Ni7  1  0.49518800  0.49518800  0.37918800  1
  Ni  Ni8  1  0.99971700  0.49961500  0.62526300  1
  Ni  Ni9  1  0.49619900  0.49619900  0.50285100  1
  Ni  Ni10  1  0.49961500  0.99971700  0.62526300  1
  Ni  Ni11  1  0.49961500  0.49961500  0.62526300  1
  Ni  Ni12  1  0.00133900  0.50655900  0.87138600  1
  Ni  Ni13  1  0.50231500  0.50231500  0.74826400  1
  Ni  Ni14  1  0.50655900  0.00133900  0.87138600  1
  Ni  Ni15  1  0.50655900  0.50655900  0.87138600  1
  Cu  Cu16  1  0.50277100  0.50277100  0.99792200  1
  Cu  Cu17  1  0.49675400  0.49675400  0.25243400  1
  Cu  Cu18  1  0.12417600  0.12417600  0.53186800  1
  Cu  Cu19  1  0.12771800  0.12771800  0.77921200  1
  Cu  Cu20  1  0.87320800  0.87320800  0.22009400  1
  Cu  Cu21  1  0.87090700  0.87090700  0.47182000  1
  Cu  Cu22  1  0.87676000  0.87676000  0.71743000  1
  Cu  Cu23  1  0.87804100  0.87804100  0.96647000  1
  C  C24  1  0.25330100  0.25330100  0.06960700  1
  C  C25  1  0.26189000  0.26189000  0.17858300  1
  C  C26  1  0.25330100  0.71496900  0.06960700  1
  C  C27  1  0.71496900  0.25330100  0.06960700  1
  C  C28  1  0.24425300  0.24425300  0.32485500  1
  C  C29  1  0.28918100  0.74744100  0.17898400  1
  C  C30  1  0.24425300  0.71207200  0.32485500  1
  C  C31  1  0.74744100  0.28918100  0.17898400  1
  C  C32  1  0.73972300  0.73972300  0.07020700  1
  C  C33  1  0.25933900  0.25933900  0.43049600  1
  C  C34  1  0.71207200  0.24425300  0.32485500  1
  C  C35  1  0.74744100  0.74744100  0.17898400  1
  C  C36  1  0.26145200  0.26145200  0.56722500  1
  C  C37  1  0.28707300  0.73081600  0.43782400  1
  C  C38  1  0.73281500  0.73281500  0.32538900  1
  C  C39  1  0.73081600  0.28707300  0.43782400  1
  C  C40  1  0.26145200  0.70819600  0.56722500  1
  C  C41  1  0.26435700  0.26435700  0.67673200  1
  C  C42  1  0.73081600  0.73081600  0.43782400  1
  C  C43  1  0.70819600  0.26145200  0.56722500  1
  C  C44  1  0.29176000  0.73771500  0.68320300  1
  C  C45  1  0.26861700  0.26861700  0.81274500  1
  C  C46  1  0.73497900  0.73497900  0.57376600  1
  C  C47  1  0.73771500  0.29176000  0.68320300  1
  C  C48  1  0.26653700  0.26653700  0.92509800  1
  C  C49  1  0.26861700  0.71178800  0.81274500  1
  C  C50  1  0.73771500  0.73771500  0.68320300  1
  C  C51  1  0.71178800  0.26861700  0.81274500  1
  C  C52  1  0.29325400  0.75377000  0.92480200  1
  C  C53  1  0.75377000  0.29325400  0.92480200  1
  C  C54  1  0.74173800  0.74173800  0.81869700  1
  C  C55  1  0.75377000  0.75377000  0.92480200  1
