# generated using pymatgen
data_Cu29Ni49
_symmetry_space_group_name_H-M   'P 1'
_cell_length_a   2.80596711
_cell_length_b   7.05316961
_cell_length_c   60.12659840
_cell_angle_alpha   93.36247950
_cell_angle_beta   90.00000000
_cell_angle_gamma   90.00000000
_symmetry_Int_Tables_number   1
_chemical_formula_structural   Cu29Ni49
_chemical_formula_sum   'Cu29 Ni49'
_cell_volume   1187.91464101
_cell_formula_units_Z   1
loop_
 _symmetry_equiv_pos_site_id
 _symmetry_equiv_pos_as_xyz
  1  'x, y, z'
loop_
 _atom_site_type_symbol
 _atom_site_label
 _atom_site_symmetry_multiplicity
 _atom_site_fract_x
 _atom_site_fract_y
 _atom_site_fract_z
 _atom_site_occupancy
  Ni  Ni0  1  0.00000000  0.70565127  0.13741522  1
  Ni  Ni1  1  0.00000000  0.45510131  0.32622464  1
  Ni  Ni2  1  0.00000000  0.56823605  0.86258478  1
  Ni  Ni3  1  0.00000000  0.27155331  0.24086075  1
  Ni  Ni4  1  0.00000000  0.48398940  0.28008687  1
  Ni  Ni5  1  0.00000000  0.25561698  0.16952809  1
  Ni  Ni6  1  0.00000000  0.67887312  0.06748379  1
  Ni  Ni7  1  0.00000000  0.71240694  0.82193448  1
  Ni  Ni8  1  0.00000000  0.94480639  0.55153832  1
  Ni  Ni9  1  0.00000000  0.49516207  0.65506762  1
  Ni  Ni10  1  0.00000000  0.61138933  0.93251621  1
  Ni  Ni11  1  0.00000000  0.19817656  0.87445803  1
  Ni  Ni12  1  0.00000000  0.88606415  0.22607203  1
  Ni  Ni13  1  0.00000000  0.08608890  0.83047191  1
  Ni  Ni14  1  0.00000000  0.93156409  0.10295209  1
  Ni  Ni15  1  0.00000000  0.57727233  0.57520130  1
  Ni  Ni16  1  0.00000000  0.62237904  0.41395326  1
  Ni  Ni17  1  0.00000000  0.32371853  0.12554197  1
  Ni  Ni18  1  0.00000000  0.37711755  0.00000000  1
  Ni  Ni19  1  0.00000000  0.39326807  0.44846168  1
  Ni  Ni20  1  0.00000000  0.06740337  0.31032935  1
  Ni  Ni21  1  0.00000000  0.03069256  0.75913925  1
  Ni  Ni22  1  0.00000000  0.08001735  0.38143889  1
  Ni  Ni23  1  0.00000000  0.20390253  0.71991313  1
  Ni  Ni24  1  0.00000000  0.12887667  0.67377536  1
  Ni  Ni25  1  0.00000000  0.82861200  0.89704791  1
  Ni  Ni26  1  0.00000000  0.84009445  0.34493238  1
  Ni  Ni27  1  0.00000000  0.20842578  0.58604674  1
  Ni  Ni28  1  0.00000000  0.54551961  0.52574524  1
  Ni  Ni29  1  0.00000000  0.69857845  0.61856111  1
  Ni  Ni30  1  0.00000000  0.31153518  0.07641161  1
  Ni  Ni31  1  0.00000000  0.00207103  0.42479870  1
  Ni  Ni32  1  0.00000000  0.84816512  0.27170110  1
  Ni  Ni33  1  0.00000000  0.44505868  0.37338086  1
  Ni  Ni34  1  0.00000000  0.57646402  0.72829890  1
  Ni  Ni35  1  0.00000000  0.01977436  0.47425476  1
  Ni  Ni36  1  0.00000000  0.11721948  0.96538448  1
  Ni  Ni37  1  0.00000000  0.65999212  0.77392797  1
  Ni  Ni38  1  0.00000000  0.75707402  0.68967065  1
  Ni  Ni39  1  0.00000000  0.28983639  0.79347466  1
  Ni  Ni40  1  0.00000000  0.89047245  0.17806552  1
  Ni  Ni41  1  0.00000000  0.65138007  0.48342930  1
  Ni  Ni42  1  0.00000000  0.74785213  0.97523155  1
  Ni  Ni43  1  0.00000000  0.07167782  0.62661914  1
  Ni  Ni44  1  0.00000000  0.15183500  0.03461552  1
  Ni  Ni45  1  0.00000000  0.49636173  0.20652534  1
  Ni  Ni46  1  0.00000000  0.77262058  0.02476845  1
  Ni  Ni47  1  0.00000000  0.23512357  0.92358839  1
  Ni  Ni48  1  0.00000000  0.16795078  0.51657070  1
  Cu  Cu49  1  0.50000000  0.89091618  0.72457885  1
  Cu  Cu50  1  0.50000000  0.88266611  0.58850643  1
  Cu  Cu51  1  0.50000000  0.93237328  0.79492130  1
  Cu  Cu52  1  0.50000000  0.33118183  0.48520737  1
  Cu  Cu53  1  0.50000000  0.43897369  0.96322730  1
  Cu  Cu54  1  0.50000000  0.93171242  0.93351555  1
  Cu  Cu55  1  0.50000000  0.16633734  0.27542115  1
  Cu  Cu56  1  0.50000000  0.19808930  0.34612494  1
  Cu  Cu57  1  0.50000000  0.36946422  0.75680683  1
  Cu  Cu58  1  0.50000000  0.41507249  0.69173912  1
  Cu  Cu59  1  0.50000000  0.13745198  0.20507870  1
  Cu  Cu60  1  0.50000000  0.47574639  0.03677270  1
  Cu  Cu61  1  0.50000000  0.00165575  0.00000000  1
  Cu  Cu62  1  0.50000000  0.61265740  0.24319317  1
  Cu  Cu63  1  0.50000000  0.72333337  0.30826088  1
  Cu  Cu64  1  0.50000000  0.31953993  0.55125302  1
  Cu  Cu65  1  0.50000000  0.76828692  0.44874698  1
  Cu  Cu66  1  0.50000000  0.84597445  0.51479263  1
  Cu  Cu67  1  0.50000000  0.40350449  0.82936930  1
  Cu  Cu68  1  0.50000000  0.57413519  0.17063070  1
  Cu  Cu69  1  0.50000000  0.89639808  0.86017302  1
  Cu  Cu70  1  0.50000000  0.45956274  0.89764776  1
  Cu  Cu71  1  0.50000000  0.99819687  0.06648445  1
  Cu  Cu72  1  0.50000000  0.76177649  0.38107018  1
  Cu  Cu73  1  0.50000000  0.38070630  0.61892982  1
  Cu  Cu74  1  0.50000000  0.29415968  0.41149357  1
  Cu  Cu75  1  0.50000000  0.56191498  0.10235224  1
  Cu  Cu76  1  0.50000000  0.03622506  0.13982698  1
  Cu  Cu77  1  0.50000000  0.85196436  0.65387506  1
