# generated using pymatgen
data_Cu24NiC3
_symmetry_space_group_name_H-M   'P 1'
_cell_length_a   15.25233786
_cell_length_b   15.25233786
_cell_length_c   15.25233768
_cell_angle_alpha   118.77501647
_cell_angle_beta   118.77501647
_cell_angle_gamma   118.77501423
_symmetry_Int_Tables_number   1
_chemical_formula_structural   Cu24NiC3
_chemical_formula_sum   'Cu24 Ni1 C3'
_cell_volume   1014.55847342
_cell_formula_units_Z   1
loop_
 _symmetry_equiv_pos_site_id
 _symmetry_equiv_pos_as_xyz
  1  'x, y, z'
loop_
 _atom_site_type_symbol
 _atom_site_label
 _atom_site_symmetry_multiplicity
 _atom_site_fract_x
 _atom_site_fract_y
 _atom_site_fract_z
 _atom_site_occupancy
  Ni  Ni0  1  0.27819200  0.27819200  0.27819200  1
  Cu  Cu1  1  0.01430900  0.60852300  0.60852300  1
  Cu  Cu2  1  0.60852300  0.60852300  0.01430900  1
  Cu  Cu3  1  0.60852300  0.01430900  0.60852300  1
  Cu  Cu4  1  0.23192900  0.84175300  0.71377600  1
  Cu  Cu5  1  0.84175300  0.71377600  0.23192900  1
  Cu  Cu6  1  0.71377600  0.23192900  0.84175300  1
  Cu  Cu7  1  0.84175300  0.23192900  0.71377600  1
  Cu  Cu8  1  0.23192900  0.71377600  0.84175300  1
  Cu  Cu9  1  0.71377600  0.84175300  0.23192900  1
  Cu  Cu10  1  0.10268300  0.63054800  0.44944900  1
  Cu  Cu11  1  0.63054800  0.44944900  0.10268300  1
  Cu  Cu12  1  0.44944900  0.10268300  0.63054800  1
  Cu  Cu13  1  0.63054800  0.10268300  0.44944900  1
  Cu  Cu14  1  0.10268300  0.44944900  0.63054800  1
  Cu  Cu15  1  0.44944900  0.63054800  0.10268300  1
  Cu  Cu16  1  0.35627100  0.74442200  0.61629900  1
  Cu  Cu17  1  0.74442200  0.61629900  0.35627100  1
  Cu  Cu18  1  0.61629900  0.35627100  0.74442200  1
  Cu  Cu19  1  0.74442200  0.35627100  0.61629900  1
  Cu  Cu20  1  0.35627100  0.61629900  0.74442200  1
  Cu  Cu21  1  0.61629900  0.74442200  0.35627100  1
  Cu  Cu22  1  0.18964400  0.47016300  0.47016300  1
  Cu  Cu23  1  0.47016300  0.47016300  0.18964400  1
  Cu  Cu24  1  0.47016300  0.18964400  0.47016300  1
  C  C25  1  0.11740300  0.95796000  0.95796000  1
  C  C26  1  0.95796000  0.95796000  0.11740300  1
  C  C27  1  0.95796000  0.11740300  0.95796000  1
