# generated using pymatgen
data_Cu2NiC4
_symmetry_space_group_name_H-M   'P 1'
_cell_length_a   3.41378100
_cell_length_b   10.11533000
_cell_length_c   11.95325600
_cell_angle_alpha   90.00000000
_cell_angle_beta   90.00000000
_cell_angle_gamma   90.00000000
_symmetry_Int_Tables_number   1
_chemical_formula_structural   Cu2NiC4
_chemical_formula_sum   'Cu8 Ni4 C16'
_cell_volume   412.76411492
_cell_formula_units_Z   4
loop_
 _symmetry_equiv_pos_site_id
 _symmetry_equiv_pos_as_xyz
  1  'x, y, z'
loop_
 _atom_site_type_symbol
 _atom_site_label
 _atom_site_symmetry_multiplicity
 _atom_site_fract_x
 _atom_site_fract_y
 _atom_site_fract_z
 _atom_site_occupancy
  Ni  Ni0  1  0.25000000  0.24736800  0.35080300  1
  Ni  Ni1  1  0.25000000  0.74736800  0.14919700  1
  Ni  Ni2  1  0.75000000  0.25263200  0.85080300  1
  Ni  Ni3  1  0.75000000  0.75263200  0.64919700  1
  Cu  Cu4  1  0.75000000  0.92325200  0.38938600  1
  Cu  Cu5  1  0.25000000  0.57697200  0.38791300  1
  Cu  Cu6  1  0.75000000  0.92302800  0.88791300  1
  Cu  Cu7  1  0.25000000  0.57674800  0.88938600  1
  Cu  Cu8  1  0.75000000  0.42325200  0.11061400  1
  Cu  Cu9  1  0.75000000  0.42302800  0.61208700  1
  Cu  Cu10  1  0.25000000  0.07674800  0.61061400  1
  Cu  Cu11  1  0.25000000  0.07697200  0.11208700  1
  C  C12  1  0.25000000  0.07398200  0.92278700  1
  C  C13  1  0.75000000  0.62493200  0.01952000  1
  C  C14  1  0.25000000  0.98556800  0.28378900  1
  C  C15  1  0.75000000  0.01443200  0.71621100  1
  C  C16  1  0.75000000  0.51443200  0.78378900  1
  C  C17  1  0.75000000  0.12493200  0.48048000  1
  C  C18  1  0.25000000  0.78832700  0.82594300  1
  C  C19  1  0.75000000  0.42601800  0.42278700  1
  C  C20  1  0.75000000  0.71167300  0.32594300  1
  C  C21  1  0.25000000  0.37506800  0.98048000  1
  C  C22  1  0.75000000  0.21167300  0.17405700  1
  C  C23  1  0.25000000  0.28832700  0.67405700  1
  C  C24  1  0.25000000  0.48556800  0.21621100  1
  C  C25  1  0.75000000  0.92601800  0.07721300  1
  C  C26  1  0.25000000  0.57398200  0.57721300  1
  C  C27  1  0.25000000  0.87506800  0.51952000  1
