# generated using pymatgen
data_Cu2NiC10
_symmetry_space_group_name_H-M   'P 1'
_cell_length_a   10.03978768
_cell_length_b   10.03978768
_cell_length_c   7.75455544
_cell_angle_alpha   73.06394989
_cell_angle_beta   73.06394989
_cell_angle_gamma   121.68258538
_symmetry_Int_Tables_number   1
_chemical_formula_structural   Cu2NiC10
_chemical_formula_sum   'Cu4 Ni2 C20'
_cell_volume   533.17711233
_cell_formula_units_Z   2
loop_
 _symmetry_equiv_pos_site_id
 _symmetry_equiv_pos_as_xyz
  1  'x, y, z'
loop_
 _atom_site_type_symbol
 _atom_site_label
 _atom_site_symmetry_multiplicity
 _atom_site_fract_x
 _atom_site_fract_y
 _atom_site_fract_z
 _atom_site_occupancy
  C  C0  1  0.59394800  0.98556600  0.72798400  1
  C  C1  1  0.01141900  0.98858100  0.75000000  1
  C  C2  1  0.98556600  0.59394800  0.22798400  1
  C  C3  1  0.98858100  0.01141900  0.25000000  1
  C  C4  1  0.01443400  0.40605200  0.77201600  1
  C  C5  1  0.40605200  0.01443400  0.27201600  1
  Ni  Ni6  1  0.44235600  0.55764400  0.75000000  1
  Ni  Ni7  1  0.55764400  0.44235600  0.25000000  1
  Cu  Cu8  1  0.76081500  0.56250100  0.76193800  1
  Cu  Cu9  1  0.43749900  0.23918500  0.73806200  1
  Cu  Cu10  1  0.56250100  0.76081500  0.26193800  1
  Cu  Cu11  1  0.23918500  0.43749900  0.23806200  1
  C  C12  1  0.65727600  0.66067600  0.73205600  1
  C  C13  1  0.66067600  0.65727600  0.23205600  1
  C  C14  1  0.52130700  0.28001400  0.47438200  1
  C  C15  1  0.33932400  0.34272400  0.76794400  1
  C  C16  1  0.00396100  0.27726400  0.43625700  1
  C  C17  1  0.47869300  0.71998600  0.52561800  1
  C  C18  1  0.27726400  0.00396100  0.93625700  1
  C  C19  1  0.28001400  0.52130700  0.97438200  1
  C  C20  1  0.35491800  0.64508200  0.25000000  1
  C  C21  1  0.34272400  0.33932400  0.26794400  1
  C  C22  1  0.72273600  0.99603900  0.06374300  1
  C  C23  1  0.64508200  0.35491800  0.75000000  1
  C  C24  1  0.99603900  0.72273600  0.56374300  1
  C  C25  1  0.71998600  0.47869300  0.02561800  1
