# generated using pymatgen
data_Cu2Ni2C11
_symmetry_space_group_name_H-M   'P 1'
_cell_length_a   7.06421196
_cell_length_b   7.06421196
_cell_length_c   12.97756300
_cell_angle_alpha   90.00000000
_cell_angle_beta   90.00000000
_cell_angle_gamma   119.99999960
_symmetry_Int_Tables_number   1
_chemical_formula_structural   Cu2Ni2C11
_chemical_formula_sum   'Cu6 Ni6 C33'
_cell_volume   560.85580885
_cell_formula_units_Z   3
loop_
 _symmetry_equiv_pos_site_id
 _symmetry_equiv_pos_as_xyz
  1  'x, y, z'
loop_
 _atom_site_type_symbol
 _atom_site_label
 _atom_site_symmetry_multiplicity
 _atom_site_fract_x
 _atom_site_fract_y
 _atom_site_fract_z
 _atom_site_occupancy
  C  C0  1  0.52690700  0.52690700  0.50000000  1
  C  C1  1  0.47309300  0.00000000  0.83333300  1
  C  C2  1  0.00000000  0.47309300  0.16666700  1
  C  C3  1  0.43838400  0.00000000  0.33333300  1
  C  C4  1  0.00000000  0.43838400  0.66666700  1
  C  C5  1  0.56161600  0.56161600  0.00000000  1
  Ni  Ni6  1  0.05150700  0.09577900  0.37324400  1
  Ni  Ni7  1  0.09577900  0.05150700  0.62675600  1
  Ni  Ni8  1  0.95572800  0.90422100  0.29342300  1
  Ni  Ni9  1  0.94849300  0.04427200  0.96008900  1
  Ni  Ni10  1  0.90422100  0.95572800  0.70657700  1
  Ni  Ni11  1  0.04427200  0.94849300  0.03991100  1
  Cu  Cu12  1  0.45369400  0.01104900  0.08990300  1
  Cu  Cu13  1  0.55735500  0.54630600  0.75656900  1
  Cu  Cu14  1  0.98895100  0.44264500  0.42323600  1
  Cu  Cu15  1  0.01104900  0.45369400  0.91009700  1
  Cu  Cu16  1  0.44264500  0.98895100  0.57676400  1
  Cu  Cu17  1  0.54630600  0.55735500  0.24343100  1
  C  C18  1  0.48881900  0.35855800  0.82879100  1
  C  C19  1  0.00000000  0.08638000  0.66666700  1
  C  C20  1  0.61235400  0.74019300  0.82366900  1
  C  C21  1  0.91362000  0.91362000  0.00000000  1
  C  C22  1  0.08638000  0.00000000  0.33333300  1
  C  C23  1  0.12783900  0.38764600  0.49033600  1
  C  C24  1  0.41010200  0.16418200  0.02946500  1
  C  C25  1  0.38192200  0.50694300  0.68231900  1
  C  C26  1  0.50694300  0.38192200  0.31768100  1
  C  C27  1  0.86974000  0.51118100  0.49545800  1
  C  C28  1  0.35855800  0.48881900  0.17120900  1
  C  C29  1  0.58989800  0.75408000  0.30386900  1
  C  C30  1  0.74019300  0.61235400  0.17633100  1
  C  C31  1  0.75408000  0.58989800  0.69613100  1
  C  C32  1  0.49305700  0.87497900  0.01565200  1
  C  C33  1  0.83581800  0.24592000  0.36279800  1
  C  C34  1  0.51118100  0.86974000  0.50454200  1
  C  C35  1  0.61807800  0.12502100  0.65101500  1
  C  C36  1  0.12502100  0.61807800  0.34898500  1
  C  C37  1  0.64144200  0.13026000  0.16212500  1
  C  C38  1  0.13026000  0.64144200  0.83787500  1
  C  C39  1  0.24592000  0.83581800  0.63720200  1
  C  C40  1  0.16418200  0.41010200  0.97053500  1
  C  C41  1  0.87216100  0.25980700  0.84299800  1
  C  C42  1  0.38764600  0.12783900  0.50966400  1
  C  C43  1  0.87497900  0.49305700  0.98434800  1
  C  C44  1  0.25980700  0.87216100  0.15700200  1
