# generated using pymatgen
data_CuNiC4
_symmetry_space_group_name_H-M   'P 1'
_cell_length_a   6.92033900
_cell_length_b   7.25278100
_cell_length_c   8.77976500
_cell_angle_alpha   90.00000000
_cell_angle_beta   90.00000000
_cell_angle_gamma   90.00000000
_symmetry_Int_Tables_number   1
_chemical_formula_structural   CuNiC4
_chemical_formula_sum   'Cu4 Ni4 C16'
_cell_volume   440.67135916
_cell_formula_units_Z   4
loop_
 _symmetry_equiv_pos_site_id
 _symmetry_equiv_pos_as_xyz
  1  'x, y, z'
loop_
 _atom_site_type_symbol
 _atom_site_label
 _atom_site_symmetry_multiplicity
 _atom_site_fract_x
 _atom_site_fract_y
 _atom_site_fract_z
 _atom_site_occupancy
  C  C0  1  0.75000000  0.39807000  0.03917600  1
  C  C1  1  0.75000000  0.89807000  0.46082400  1
  C  C2  1  0.25000000  0.60193000  0.96082400  1
  C  C3  1  0.25000000  0.10193000  0.53917600  1
  Ni  Ni4  1  0.75000000  0.29125400  0.63383400  1
  Ni  Ni5  1  0.75000000  0.79125400  0.86616600  1
  Ni  Ni6  1  0.25000000  0.70874600  0.36616600  1
  Ni  Ni7  1  0.25000000  0.20874600  0.13383400  1
  Cu  Cu8  1  0.75000000  0.06146700  0.18343700  1
  Cu  Cu9  1  0.25000000  0.43853300  0.68343700  1
  Cu  Cu10  1  0.75000000  0.56146700  0.31656300  1
  Cu  Cu11  1  0.25000000  0.93853300  0.81656300  1
  C  C12  1  0.75000000  0.24884800  0.82422500  1
  C  C13  1  0.57125900  0.13966500  0.56760200  1
  C  C14  1  0.92874100  0.13966500  0.56760200  1
  C  C15  1  0.25000000  0.25115200  0.32422500  1
  C  C16  1  0.07125900  0.36033500  0.06760200  1
  C  C17  1  0.42874100  0.36033500  0.06760200  1
  C  C18  1  0.25000000  0.75115200  0.17577500  1
  C  C19  1  0.92874100  0.63966500  0.93239800  1
  C  C20  1  0.75000000  0.74884800  0.67577500  1
  C  C21  1  0.42874100  0.86033500  0.43239800  1
  C  C22  1  0.07125900  0.86033500  0.43239800  1
  C  C23  1  0.57125900  0.63966500  0.93239800  1
