# generated using pymatgen
data_Cu7(Ni2C)4
_symmetry_space_group_name_H-M   'P 1'
_cell_length_a   16.60345000
_cell_length_b   9.21300700
_cell_length_c   20.64915783
_cell_angle_alpha   75.52910312
_cell_angle_beta   90.00000000
_cell_angle_gamma   90.00000000
_symmetry_Int_Tables_number   1
_chemical_formula_structural   Cu7(Ni2C)4
_chemical_formula_sum   'Cu28 Ni32 C16'
_cell_volume   3058.44493444
_cell_formula_units_Z   4
loop_
 _symmetry_equiv_pos_site_id
 _symmetry_equiv_pos_as_xyz
  1  'x, y, z'
loop_
 _atom_site_type_symbol
 _atom_site_label
 _atom_site_symmetry_multiplicity
 _atom_site_fract_x
 _atom_site_fract_y
 _atom_site_fract_z
 _atom_site_occupancy
  C  C0  1  0.14368900  0.81653800  0.62085000  1
  C  C1  1  0.79445100  0.26705400  0.94879800  1
  C  C2  1  0.64368900  0.18346200  0.87915000  1
  C  C3  1  0.29445100  0.73294600  0.55120200  1
  C  C4  1  0.86938300  0.20347800  0.82358800  1
  C  C5  1  0.85631100  0.18346200  0.37915000  1
  C  C6  1  0.63061700  0.20347800  0.32358800  1
  C  C7  1  0.13061700  0.79652200  0.17641200  1
  C  C8  1  0.70554900  0.26705400  0.44879800  1
  C  C9  1  0.20554900  0.73294600  0.05120200  1
  C  C10  1  0.36938300  0.79652200  0.67641200  1
  C  C11  1  0.35631100  0.81653800  0.12085000  1
  Ni  Ni12  1  0.62892200  0.07487300  0.75549900  1
  Ni  Ni13  1  0.79659200  0.39781400  0.70516800  1
  Ni  Ni14  1  0.86856000  0.38573000  0.24601700  1
  Ni  Ni15  1  0.13616000  0.78065600  0.48991200  1
  Ni  Ni16  1  0.36856000  0.61427000  0.25398300  1
  Ni  Ni17  1  0.87107800  0.07487300  0.25549900  1
  Ni  Ni18  1  0.12892200  0.92512700  0.74450100  1
  Ni  Ni19  1  0.61563700  0.49057200  0.35246400  1
  Ni  Ni20  1  0.96665500  0.25136400  0.92773000  1
  Ni  Ni21  1  0.20340800  0.60218600  0.29483200  1
  Ni  Ni22  1  0.13144000  0.61427000  0.75398300  1
  Ni  Ni23  1  0.53334500  0.25136400  0.42773000  1
  Ni  Ni24  1  0.11563700  0.50942800  0.14753600  1
  Ni  Ni25  1  0.15995600  0.53017800  0.59079900  1
  Ni  Ni26  1  0.70340800  0.39781400  0.20516800  1
  Ni  Ni27  1  0.86384000  0.21934400  0.51008800  1
  Ni  Ni28  1  0.70627000  0.08602900  0.21570200  1
  Ni  Ni29  1  0.37107800  0.92512700  0.24450100  1
  Ni  Ni30  1  0.36384000  0.78065600  0.98991200  1
  Ni  Ni31  1  0.63144000  0.38573000  0.74601700  1
  Ni  Ni32  1  0.29659200  0.60218600  0.79483200  1
  Ni  Ni33  1  0.79373000  0.08602900  0.71570200  1
  Ni  Ni34  1  0.46665500  0.74863600  0.57227000  1
  Ni  Ni35  1  0.63616000  0.21934400  0.01008800  1
  Ni  Ni36  1  0.29373000  0.91397100  0.78429800  1
  Ni  Ni37  1  0.03334500  0.74863600  0.07227000  1
  Ni  Ni38  1  0.34004400  0.53017800  0.09079900  1
  Ni  Ni39  1  0.38436300  0.50942800  0.64753600  1
  Ni  Ni40  1  0.65995600  0.46982200  0.90920100  1
  Ni  Ni41  1  0.20627000  0.91397100  0.28429800  1
  Ni  Ni42  1  0.84004400  0.46982200  0.40920100  1
  Ni  Ni43  1  0.88436300  0.49057200  0.85246400  1
  Cu  Cu44  1  0.12613400  0.11729600  0.55635400  1
  Cu  Cu45  1  0.27094700  0.28757600  0.24879200  1
  Cu  Cu46  1  0.98460200  0.27354800  0.71534300  1
  Cu  Cu47  1  0.37386600  0.11729600  0.05635400  1
  Cu  Cu48  1  0.47578000  0.22481300  0.84611800  1
  Cu  Cu49  1  0.33350400  0.55565700  0.46074300  1
  Cu  Cu50  1  0.67672000  0.99358700  0.53960300  1
  Cu  Cu51  1  0.42292500  0.08914700  0.62946200  1
  Cu  Cu52  1  0.52422000  0.77518700  0.15388200  1
  Cu  Cu53  1  0.82328000  0.99358700  0.03960300  1
  Cu  Cu54  1  0.32328000  0.00641300  0.46039700  1
  Cu  Cu55  1  0.97578000  0.77518700  0.65388200  1
  Cu  Cu56  1  0.77094700  0.71242400  0.25120800  1
  Cu  Cu57  1  0.16649600  0.55565700  0.96074300  1
  Cu  Cu58  1  0.07707500  0.08914700  0.12946200  1
  Cu  Cu59  1  0.72905300  0.71242400  0.75120800  1
  Cu  Cu60  1  0.66649600  0.44434300  0.53925700  1
  Cu  Cu61  1  0.83350400  0.44434300  0.03925700  1
  Cu  Cu62  1  0.92292500  0.91085300  0.87053800  1
  Cu  Cu63  1  0.17672000  0.00641300  0.96039700  1
  Cu  Cu64  1  0.22905300  0.28757600  0.74879200  1
  Cu  Cu65  1  0.62613400  0.88270400  0.94364600  1
  Cu  Cu66  1  0.51539800  0.27354800  0.21534300  1
  Cu  Cu67  1  0.57707500  0.91085300  0.37053800  1
  Cu  Cu68  1  0.48460200  0.72645200  0.78465700  1
  Cu  Cu69  1  0.01539800  0.72645200  0.28465700  1
  Cu  Cu70  1  0.02422000  0.22481300  0.34611800  1
  Cu  Cu71  1  0.87386600  0.88270400  0.44364600  1
  C  C72  1  0.73869800  0.17868900  0.36447800  1
  C  C73  1  0.26130200  0.82131100  0.63552200  1
  C  C74  1  0.76130200  0.17868900  0.86447800  1
  C  C75  1  0.23869800  0.82131100  0.13552200  1
