# generated using pymatgen
data_Cu2Ni4C21
_symmetry_space_group_name_H-M   'P 1'
_cell_length_a   10.70230198
_cell_length_b   10.70230198
_cell_length_c   12.87780084
_cell_angle_alpha   64.07127074
_cell_angle_beta   64.07127074
_cell_angle_gamma   40.48567449
_symmetry_Int_Tables_number   1
_chemical_formula_structural   Cu2Ni4C21
_chemical_formula_sum   'Cu4 Ni8 C42'
_cell_volume   847.30777930
_cell_formula_units_Z   2
loop_
 _symmetry_equiv_pos_site_id
 _symmetry_equiv_pos_as_xyz
  1  'x, y, z'
loop_
 _atom_site_type_symbol
 _atom_site_label
 _atom_site_symmetry_multiplicity
 _atom_site_fract_x
 _atom_site_fract_y
 _atom_site_fract_z
 _atom_site_occupancy
  Ni  Ni0  1  0.43674100  0.68811200  0.33437000  1
  Ni  Ni1  1  0.31188800  0.56325900  0.16563000  1
  Ni  Ni2  1  0.56325900  0.31188800  0.66563000  1
  Ni  Ni3  1  0.68811200  0.43674100  0.83437000  1
  Ni  Ni4  1  0.92632100  0.57522400  0.16502800  1
  Ni  Ni5  1  0.42477600  0.07367900  0.33497200  1
  Ni  Ni6  1  0.07367900  0.42477600  0.83497200  1
  Ni  Ni7  1  0.57522400  0.92632100  0.66502800  1
  Cu  Cu8  1  0.99320700  0.16898500  0.40801900  1
  Cu  Cu9  1  0.83101500  0.00679300  0.09198100  1
  Cu  Cu10  1  0.00679300  0.83101500  0.59198100  1
  Cu  Cu11  1  0.16898500  0.99320700  0.90801900  1
  C  C12  1  0.75738000  0.54599100  0.49773500  1
  C  C13  1  0.45400900  0.24262000  0.00226500  1
  C  C14  1  0.24262000  0.45400900  0.50226500  1
  C  C15  1  0.54599100  0.75738000  0.99773500  1
  C  C16  1  0.32043500  0.81292500  0.61387400  1
  C  C17  1  0.18707500  0.67956500  0.88612600  1
  C  C18  1  0.67956500  0.18707500  0.38612600  1
  C  C19  1  0.81292500  0.32043500  0.11387400  1
  C  C20  1  0.87430700  0.77703100  0.38479500  1
  C  C21  1  0.22296900  0.12569300  0.11520500  1
  C  C22  1  0.12569300  0.22296900  0.61520500  1
  C  C23  1  0.77703100  0.87430700  0.88479500  1
  C  C24  1  0.75641900  0.53075000  0.38083200  1
  C  C25  1  0.46925000  0.24358100  0.11916800  1
  C  C26  1  0.24358100  0.46925000  0.61916800  1
  C  C27  1  0.53075000  0.75641900  0.88083200  1
  C  C28  1  0.77059100  0.69859300  0.48223500  1
  C  C29  1  0.30140700  0.22940900  0.01776500  1
  C  C30  1  0.22940900  0.30140700  0.51776500  1
  C  C31  1  0.69859300  0.77059100  0.98223500  1
  C  C32  1  0.94271000  0.32656600  0.56136500  1
  C  C33  1  0.67343400  0.05729000  0.93863500  1
  C  C34  1  0.05729000  0.67343400  0.43863500  1
  C  C35  1  0.32656600  0.94271000  0.06136500  1
  C  C36  1  0.56252900  0.61414600  0.60318400  1
  C  C37  1  0.38585400  0.43747100  0.89681600  1
  C  C38  1  0.43747100  0.38585400  0.39681600  1
  C  C39  1  0.61414600  0.56252900  0.10318400  1
  C  C40  1  0.22559300  0.85840100  0.52060100  1
  C  C41  1  0.14159900  0.77440700  0.97939900  1
  C  C42  1  0.77440700  0.14159900  0.47939900  1
  C  C43  1  0.85840100  0.22559300  0.02060100  1
  C  C44  1  0.29902200  0.98990700  0.60093400  1
  C  C45  1  0.01009300  0.70097800  0.89906600  1
  C  C46  1  0.70097800  0.01009300  0.39906600  1
  C  C47  1  0.98990700  0.29902200  0.10093400  1
  C  C48  1  0.23066700  0.76933300  0.75000000  1
  C  C49  1  0.76933300  0.23066700  0.25000000  1
  C  C50  1  0.93082600  0.75234000  0.25433100  1
  C  C51  1  0.24766000  0.06917400  0.24566900  1
  C  C52  1  0.06917400  0.24766000  0.74566900  1
  C  C53  1  0.75234000  0.93082600  0.75433100  1
