# generated using pymatgen
data_Cu3Ni
_symmetry_space_group_name_H-M   'P 1'
_cell_length_a   11.71589500
_cell_length_b   7.91228200
_cell_length_c   8.87492002
_cell_angle_alpha   70.63412656
_cell_angle_beta   90.00000000
_cell_angle_gamma   90.00000000
_symmetry_Int_Tables_number   1
_chemical_formula_structural   Cu3Ni
_chemical_formula_sum   'Cu12 Ni4'
_cell_volume   776.15222759
_cell_formula_units_Z   4
loop_
 _symmetry_equiv_pos_site_id
 _symmetry_equiv_pos_as_xyz
  1  'x, y, z'
loop_
 _atom_site_type_symbol
 _atom_site_label
 _atom_site_symmetry_multiplicity
 _atom_site_fract_x
 _atom_site_fract_y
 _atom_site_fract_z
 _atom_site_occupancy
  Ni  Ni0  1  0.66211600  0.95235100  0.67601300  1
  Ni  Ni1  1  0.83788400  0.95235100  0.17601300  1
  Ni  Ni2  1  0.16211600  0.04764900  0.82398700  1
  Ni  Ni3  1  0.33788400  0.04764900  0.32398700  1
  Cu  Cu4  1  0.44629500  0.78821000  0.69643400  1
  Cu  Cu5  1  0.75277500  0.68285100  0.45285000  1
  Cu  Cu6  1  0.74722500  0.68285100  0.95285000  1
  Cu  Cu7  1  0.89816100  0.20667800  0.32008200  1
  Cu  Cu8  1  0.10183900  0.79332200  0.67991800  1
  Cu  Cu9  1  0.60183900  0.20667800  0.82008200  1
  Cu  Cu10  1  0.55370500  0.21179000  0.30356600  1
  Cu  Cu11  1  0.05370500  0.78821000  0.19643400  1
  Cu  Cu12  1  0.94629500  0.21179000  0.80356600  1
  Cu  Cu13  1  0.39816100  0.79332200  0.17991800  1
  Cu  Cu14  1  0.25277500  0.31714900  0.04715000  1
  Cu  Cu15  1  0.24722500  0.31714900  0.54715000  1
