# generated using pymatgen
data_Cu9Ni3C
_symmetry_space_group_name_H-M   'P 1'
_cell_length_a   8.60988800
_cell_length_b   7.20898900
_cell_length_c   13.55204256
_cell_angle_alpha   79.69650314
_cell_angle_beta   90.00000000
_cell_angle_gamma   90.00000000
_symmetry_Int_Tables_number   1
_chemical_formula_structural   Cu9Ni3C
_chemical_formula_sum   'Cu36 Ni12 C4'
_cell_volume   827.59176482
_cell_formula_units_Z   4
loop_
 _symmetry_equiv_pos_site_id
 _symmetry_equiv_pos_as_xyz
  1  'x, y, z'
loop_
 _atom_site_type_symbol
 _atom_site_label
 _atom_site_symmetry_multiplicity
 _atom_site_fract_x
 _atom_site_fract_y
 _atom_site_fract_z
 _atom_site_occupancy
  C  C0  1  0.25422200  0.17184400  0.35373600  1
  C  C1  1  0.74577800  0.82815600  0.64626400  1
  C  C2  1  0.75422200  0.82815600  0.14626400  1
  C  C3  1  0.24577800  0.17184400  0.85373600  1
  Ni  Ni4  1  0.04316200  0.66713700  0.35615600  1
  Ni  Ni5  1  0.45683800  0.66713700  0.85615600  1
  Ni  Ni6  1  0.54316200  0.33286300  0.14384400  1
  Ni  Ni7  1  0.79402400  0.16492400  0.39041400  1
  Ni  Ni8  1  0.29402400  0.83507600  0.10958600  1
  Ni  Ni9  1  0.97961600  0.73315200  0.89013700  1
  Ni  Ni10  1  0.95683800  0.33286300  0.64384400  1
  Ni  Ni11  1  0.47961600  0.26684800  0.60986300  1
  Ni  Ni12  1  0.52038400  0.73315200  0.39013700  1
  Ni  Ni13  1  0.02038400  0.26684800  0.10986300  1
  Ni  Ni14  1  0.20597600  0.83507600  0.60958600  1
  Ni  Ni15  1  0.70597600  0.16492400  0.89041400  1
  Cu  Cu16  1  0.02611300  0.84230300  0.68131900  1
  Cu  Cu17  1  0.42028100  0.32154400  0.47906500  1
  Cu  Cu18  1  0.20827400  0.22636900  0.17641900  1
  Cu  Cu19  1  0.30907500  0.85197300  0.82267300  1
  Cu  Cu20  1  0.52996600  0.01933500  0.61300800  1
  Cu  Cu21  1  0.46639800  0.33834000  0.26953700  1
  Cu  Cu22  1  0.70827400  0.77363100  0.32358100  1
  Cu  Cu23  1  0.79172600  0.77363100  0.82358100  1
  Cu  Cu24  1  0.02996600  0.98066500  0.88699200  1
  Cu  Cu25  1  0.17394700  0.46855100  0.36128300  1
  Cu  Cu26  1  0.96639800  0.66166000  0.23046300  1
  Cu  Cu27  1  0.16825500  0.03532500  0.50914700  1
  Cu  Cu28  1  0.29172600  0.22636900  0.67641900  1
  Cu  Cu29  1  0.69092500  0.14802700  0.17732700  1
  Cu  Cu30  1  0.52611300  0.15769700  0.81868100  1
  Cu  Cu31  1  0.57971900  0.67845600  0.52093500  1
  Cu  Cu32  1  0.07971900  0.32154400  0.97906500  1
  Cu  Cu33  1  0.32605300  0.46855100  0.86128300  1
  Cu  Cu34  1  0.33174500  0.03532500  0.00914700  1
  Cu  Cu35  1  0.33353400  0.63761200  0.04536300  1
  Cu  Cu36  1  0.53360200  0.66166000  0.73046300  1
  Cu  Cu37  1  0.66825500  0.96467500  0.99085300  1
  Cu  Cu38  1  0.82605300  0.53144900  0.63871700  1
  Cu  Cu39  1  0.16646600  0.63761200  0.54536300  1
  Cu  Cu40  1  0.66646600  0.36238800  0.95463700  1
  Cu  Cu41  1  0.97003400  0.01933500  0.11300800  1
  Cu  Cu42  1  0.97388700  0.15769700  0.31868100  1
  Cu  Cu43  1  0.47388700  0.84230300  0.18131900  1
  Cu  Cu44  1  0.67394700  0.53144900  0.13871700  1
  Cu  Cu45  1  0.19092500  0.85197300  0.32267300  1
  Cu  Cu46  1  0.47003400  0.98066500  0.38699200  1
  Cu  Cu47  1  0.83353400  0.36238800  0.45463700  1
  Cu  Cu48  1  0.83174500  0.96467500  0.49085300  1
  Cu  Cu49  1  0.80907500  0.14802700  0.67732700  1
  Cu  Cu50  1  0.03360200  0.33834000  0.76953700  1
  Cu  Cu51  1  0.92028100  0.67845600  0.02093500  1
