# generated using pymatgen
data_CuNi5C9
_symmetry_space_group_name_H-M   'P 1'
_cell_length_a   16.10275000
_cell_length_b   6.32563000
_cell_length_c   10.73956482
_cell_angle_alpha   70.42337512
_cell_angle_beta   90.00000000
_cell_angle_gamma   90.00000000
_symmetry_Int_Tables_number   1
_chemical_formula_structural   CuNi5C9
_chemical_formula_sum   'Cu4 Ni20 C36'
_cell_volume   1030.69687556
_cell_formula_units_Z   4
loop_
 _symmetry_equiv_pos_site_id
 _symmetry_equiv_pos_as_xyz
  1  'x, y, z'
loop_
 _atom_site_type_symbol
 _atom_site_label
 _atom_site_symmetry_multiplicity
 _atom_site_fract_x
 _atom_site_fract_y
 _atom_site_fract_z
 _atom_site_occupancy
  Ni  Ni0  1  0.56768100  0.75303200  0.41715500  1
  Ni  Ni1  1  0.06768100  0.24696800  0.08284500  1
  Ni  Ni2  1  0.94343900  0.73976500  0.57954200  1
  Ni  Ni3  1  0.16458500  0.70024200  0.08610000  1
  Ni  Ni4  1  0.55656100  0.73976500  0.07954200  1
  Ni  Ni5  1  0.93231900  0.75303200  0.91715500  1
  Ni  Ni6  1  0.33541500  0.70024200  0.58610000  1
  Ni  Ni7  1  0.66458500  0.29975800  0.41390000  1
  Ni  Ni8  1  0.05656100  0.26023500  0.42045800  1
  Ni  Ni9  1  0.43231900  0.24696800  0.58284500  1
  Ni  Ni10  1  0.65362900  0.21927300  0.11024700  1
  Ni  Ni11  1  0.44343900  0.26023500  0.92045800  1
  Ni  Ni12  1  0.34637100  0.78072700  0.88975300  1
  Ni  Ni13  1  0.63176400  0.22920600  0.76613300  1
  Ni  Ni14  1  0.86823600  0.22920600  0.26613300  1
  Ni  Ni15  1  0.15362900  0.78072700  0.38975300  1
  Ni  Ni16  1  0.36823600  0.77079400  0.23386700  1
  Ni  Ni17  1  0.83541500  0.29975800  0.91390000  1
  Ni  Ni18  1  0.13176400  0.77079400  0.73386700  1
  Ni  Ni19  1  0.84637100  0.21927300  0.61024700  1
  Cu  Cu20  1  0.71984300  0.70355200  0.89625700  1
  Cu  Cu21  1  0.21984300  0.29644800  0.60374300  1
  Cu  Cu22  1  0.78015700  0.70355200  0.39625700  1
  Cu  Cu23  1  0.28015700  0.29644800  0.10374300  1
  C  C24  1  0.94615400  0.73521000  0.25545800  1
  C  C25  1  0.44615400  0.26479000  0.24454200  1
  C  C26  1  0.23459200  0.23044100  0.88695200  1
  C  C27  1  0.05384600  0.26479000  0.74454200  1
  C  C28  1  0.55384600  0.73521000  0.75545800  1
  C  C29  1  0.76540800  0.76955900  0.11304800  1
  C  C30  1  0.73459200  0.76955900  0.61304800  1
  C  C31  1  0.26540800  0.23044100  0.38695200  1
  C  C32  1  0.00033400  0.93810900  0.30479800  1
  C  C33  1  0.88892700  0.54951400  0.38915100  1
  C  C34  1  0.29761500  0.26595500  0.74756400  1
  C  C35  1  0.28065800  0.03311700  0.02959400  1
  C  C36  1  0.28190000  0.47656300  0.42806000  1
  C  C37  1  0.71810000  0.52343700  0.57194000  1
  C  C38  1  0.70238500  0.73404500  0.25243600  1
  C  C39  1  0.79761500  0.73404500  0.75243600  1
  C  C40  1  0.49966600  0.93810900  0.80479800  1
  C  C41  1  0.50033400  0.06189100  0.19520200  1
  C  C42  1  0.78065800  0.96688300  0.47040600  1
  C  C43  1  0.78190000  0.52343700  0.07194000  1
  C  C44  1  0.36644700  0.10126300  0.36781100  1
  C  C45  1  0.11107300  0.45048600  0.61084900  1
  C  C46  1  0.38892700  0.45048600  0.11084900  1
  C  C47  1  0.61107300  0.54951400  0.88915100  1
  C  C48  1  0.21810000  0.47656300  0.92806000  1
  C  C49  1  0.49124200  0.59073700  0.67488300  1
  C  C50  1  0.00875800  0.59073700  0.17488300  1
  C  C51  1  0.99966600  0.06189100  0.69520200  1
  C  C52  1  0.63355300  0.89873700  0.63218900  1
  C  C53  1  0.21934200  0.03311700  0.52959400  1
  C  C54  1  0.99124200  0.40926300  0.82511700  1
  C  C55  1  0.20238500  0.26595500  0.24756400  1
  C  C56  1  0.13355300  0.10126300  0.86781100  1
  C  C57  1  0.86644700  0.89873700  0.13218900  1
  C  C58  1  0.71934200  0.96688300  0.97040600  1
  C  C59  1  0.50875800  0.40926300  0.32511700  1
