# generated using pymatgen
data_Cu3Ni6C5
_symmetry_space_group_name_H-M   'P 1'
_cell_length_a   13.31688649
_cell_length_b   13.31688649
_cell_length_c   13.31688649
_cell_angle_alpha   109.47122063
_cell_angle_beta   109.47122063
_cell_angle_gamma   109.47122063
_symmetry_Int_Tables_number   1
_chemical_formula_structural   Cu3Ni6C5
_chemical_formula_sum   'Cu12 Ni24 C20'
_cell_volume   1817.96786867
_cell_formula_units_Z   4
loop_
 _symmetry_equiv_pos_site_id
 _symmetry_equiv_pos_as_xyz
  1  'x, y, z'
loop_
 _atom_site_type_symbol
 _atom_site_label
 _atom_site_symmetry_multiplicity
 _atom_site_fract_x
 _atom_site_fract_y
 _atom_site_fract_z
 _atom_site_occupancy
  C  C0  1  0.70407200  0.50000000  0.00000000  1
  C  C1  1  0.50000000  0.00000000  0.70407200  1
  C  C2  1  0.00000000  0.70407200  0.50000000  1
  C  C3  1  0.79592800  0.79592800  0.79592800  1
  C  C4  1  0.50000000  0.00000000  0.20407200  1
  C  C5  1  0.20407200  0.50000000  0.00000000  1
  C  C6  1  0.00000000  0.20407200  0.50000000  1
  C  C7  1  0.29592800  0.29592800  0.29592800  1
  C  C8  1  0.87500000  0.25000000  0.12500000  1
  C  C9  1  0.62500000  0.75000000  0.37500000  1
  C  C10  1  0.25000000  0.12500000  0.87500000  1
  C  C11  1  0.75000000  0.37500000  0.62500000  1
  C  C12  1  0.12500000  0.87500000  0.25000000  1
  C  C13  1  0.37500000  0.62500000  0.75000000  1
  C  C14  1  0.12500000  0.75000000  0.87500000  1
  C  C15  1  0.37500000  0.25000000  0.62500000  1
  C  C16  1  0.75000000  0.87500000  0.12500000  1
  C  C17  1  0.25000000  0.62500000  0.37500000  1
  C  C18  1  0.87500000  0.12500000  0.75000000  1
  C  C19  1  0.62500000  0.37500000  0.25000000  1
  Ni  Ni20  1  0.18933700  0.97492100  0.04585600  1
  Ni  Ni21  1  0.07093500  0.52507900  0.71441600  1
  Ni  Ni22  1  0.42906500  0.14348100  0.45414400  1
  Ni  Ni23  1  0.31066300  0.35651900  0.78558400  1
  Ni  Ni24  1  0.54585600  0.47492100  0.68933700  1
  Ni  Ni25  1  0.21441600  0.02507900  0.57093500  1
  Ni  Ni26  1  0.95414400  0.64348100  0.92906500  1
  Ni  Ni27  1  0.28558400  0.85651900  0.81066300  1
  Ni  Ni28  1  0.97492100  0.04585600  0.18933700  1
  Ni  Ni29  1  0.52507900  0.71441600  0.07093500  1
  Ni  Ni30  1  0.14348100  0.45414400  0.42906500  1
  Ni  Ni31  1  0.35651900  0.78558400  0.31066300  1
  Ni  Ni32  1  0.47492100  0.68933700  0.54585600  1
  Ni  Ni33  1  0.02507900  0.57093500  0.21441600  1
  Ni  Ni34  1  0.64348100  0.92906500  0.95414400  1
  Ni  Ni35  1  0.85651900  0.81066300  0.28558400  1
  Ni  Ni36  1  0.04585600  0.18933700  0.97492100  1
  Ni  Ni37  1  0.71441600  0.07093500  0.52507900  1
  Ni  Ni38  1  0.45414400  0.42906500  0.14348100  1
  Ni  Ni39  1  0.78558400  0.31066300  0.35651900  1
  Ni  Ni40  1  0.68933700  0.54585600  0.47492100  1
  Ni  Ni41  1  0.57093500  0.21441600  0.02507900  1
  Ni  Ni42  1  0.92906500  0.95414400  0.64348100  1
  Ni  Ni43  1  0.81066300  0.28558400  0.85651900  1
  Cu  Cu44  1  0.24283200  0.75000000  0.99283200  1
  Cu  Cu45  1  0.25716800  0.25000000  0.50716800  1
  Cu  Cu46  1  0.49283200  0.25000000  0.74283200  1
  Cu  Cu47  1  0.00716800  0.75000000  0.75716800  1
  Cu  Cu48  1  0.75000000  0.99283200  0.24283200  1
  Cu  Cu49  1  0.25000000  0.50716800  0.25716800  1
  Cu  Cu50  1  0.25000000  0.74283200  0.49283200  1
  Cu  Cu51  1  0.75000000  0.75716800  0.00716800  1
  Cu  Cu52  1  0.99283200  0.24283200  0.75000000  1
  Cu  Cu53  1  0.50716800  0.25716800  0.25000000  1
  Cu  Cu54  1  0.74283200  0.49283200  0.25000000  1
  Cu  Cu55  1  0.75716800  0.00716800  0.75000000  1
