# generated using pymatgen
data_Cu26Ni58C39
_symmetry_space_group_name_H-M   'P 1'
_cell_length_a   19.30775126
_cell_length_b   19.30775130
_cell_length_c   19.30775102
_cell_angle_alpha   59.99999881
_cell_angle_beta   59.99999874
_cell_angle_gamma   60.00000022
_symmetry_Int_Tables_number   1
_chemical_formula_structural   Cu26Ni58C39
_chemical_formula_sum   'Cu26 Ni58 C39'
_cell_volume   5089.55809615
_cell_formula_units_Z   1
loop_
 _symmetry_equiv_pos_site_id
 _symmetry_equiv_pos_as_xyz
  1  'x, y, z'
loop_
 _atom_site_type_symbol
 _atom_site_label
 _atom_site_symmetry_multiplicity
 _atom_site_fract_x
 _atom_site_fract_y
 _atom_site_fract_z
 _atom_site_occupancy
  C  C0  1  0.53272230  0.15575923  0.15575923  1
  C  C1  1  0.37951336  0.62665920  0.99691372  1
  C  C2  1  0.90567951  0.28296147  0.90567951  1
  C  C3  1  0.77357101  0.54456538  0.54456538  1
  C  C4  1  0.54456538  0.13729824  0.54456538  1
  C  C5  1  0.99691372  0.99691372  0.37951336  1
  C  C6  1  0.99691372  0.99691372  0.62665920  1
  C  C7  1  0.37951336  0.99691372  0.62665920  1
  C  C8  1  0.90567951  0.90567951  0.90567951  1
  C  C9  1  0.54456538  0.77357101  0.13729824  1
  C  C10  1  0.99691372  0.62665920  0.37951336  1
  C  C11  1  0.77357101  0.13729824  0.54456538  1
  C  C12  1  0.40691197  0.40691197  0.77926410  1
  C  C13  1  0.25000000  0.25000000  0.25000000  1
  C  C14  1  0.62665920  0.99691372  0.99691372  1
  C  C15  1  0.54456538  0.54456538  0.77357101  1
  C  C16  1  0.15575923  0.53272230  0.15575923  1
  C  C17  1  0.90567951  0.90567951  0.28296147  1
  C  C18  1  0.40691197  0.40691197  0.40691197  1
  C  C19  1  0.15575923  0.15575923  0.53272230  1
  C  C20  1  0.54456538  0.54456538  0.13729824  1
  C  C21  1  0.28296147  0.90567951  0.90567951  1
  C  C22  1  0.40691197  0.77926410  0.40691197  1
  C  C23  1  0.13729824  0.54456538  0.77357101  1
  C  C24  1  0.54456538  0.13729824  0.77357101  1
  C  C25  1  0.99691372  0.62665920  0.99691372  1
  C  C26  1  0.77357101  0.54456538  0.13729824  1
  C  C27  1  0.99691372  0.37951336  0.99691372  1
  C  C28  1  0.15575923  0.15575923  0.15575923  1
  C  C29  1  0.77926410  0.40691197  0.40691197  1
  C  C30  1  0.62665920  0.37951336  0.99691372  1
  C  C31  1  0.62665920  0.99691372  0.37951336  1
  C  C32  1  0.00000000  0.00000000  0.00000000  1
  C  C33  1  0.99691372  0.37951336  0.62665920  1
  C  C34  1  0.54456538  0.77357101  0.54456538  1
  C  C35  1  0.37951336  0.99691372  0.99691372  1
  C  C36  1  0.13729824  0.54456538  0.54456538  1
  C  C37  1  0.13729824  0.77357101  0.54456538  1
  Ni  Ni38  1  0.13925308  0.95503653  0.76645731  1
  Ni  Ni39  1  0.19860126  0.01238816  0.39450529  1
  Ni  Ni40  1  0.89307306  0.58114635  0.26289030  1
  Ni  Ni41  1  0.54984305  0.54984305  0.54984305  1
  Ni  Ni42  1  0.95503653  0.13925308  0.13925308  1
  Ni  Ni43  1  0.13199442  0.76764591  0.76764591  1
  Ni  Ni44  1  0.76764591  0.13199442  0.76764591  1
  Ni  Ni45  1  0.26289030  0.89307306  0.26289030  1
  Ni  Ni46  1  0.39450529  0.01238816  0.39450529  1
  Ni  Ni47  1  0.26289030  0.26289030  0.89307306  1
  Ni  Ni48  1  0.19860126  0.39450529  0.01238816  1
  Ni  Ni49  1  0.13199442  0.76764591  0.33271376  1
  Ni  Ni50  1  0.39450529  0.39450529  0.19860126  1
  Ni  Ni51  1  0.76764591  0.13199442  0.33271376  1
  Ni  Ni52  1  0.58114635  0.26289030  0.26289030  1
  Ni  Ni53  1  0.65968567  0.34031433  0.34031433  1
  Ni  Ni54  1  0.34031433  0.65968567  0.34031433  1
  Ni  Ni55  1  0.26289030  0.26289030  0.58114635  1
  Ni  Ni56  1  0.19860126  0.39450529  0.39450529  1
  Ni  Ni57  1  0.95503653  0.13925308  0.76645731  1
  Ni  Ni58  1  0.39450529  0.39450529  0.01238816  1
  Ni  Ni59  1  0.39450529  0.19860126  0.01238816  1
  Ni  Ni60  1  0.26289030  0.58114635  0.26289030  1
  Ni  Ni61  1  0.34031433  0.34031433  0.65968567  1
  Ni  Ni62  1  0.35047086  0.54984305  0.54984305  1
  Ni  Ni63  1  0.33271376  0.76764591  0.76764591  1
  Ni  Ni64  1  0.13925308  0.13925308  0.95503653  1
  Ni  Ni65  1  0.76764591  0.33271376  0.13199442  1
  Ni  Ni66  1  0.65968567  0.34031433  0.65968567  1
  Ni  Ni67  1  0.76764591  0.76764591  0.13199442  1
  Ni  Ni68  1  0.58114635  0.26289030  0.89307306  1
  Ni  Ni69  1  0.76764591  0.76764591  0.33271376  1
  Ni  Ni70  1  0.33271376  0.76764591  0.13199442  1
  Ni  Ni71  1  0.01238816  0.39450529  0.19860126  1
  Ni  Ni72  1  0.39450529  0.19860126  0.39450529  1
  Ni  Ni73  1  0.76645731  0.13925308  0.95503653  1
  Ni  Ni74  1  0.76645731  0.95503653  0.13925308  1
  Ni  Ni75  1  0.26289030  0.58114635  0.89307306  1
  Ni  Ni76  1  0.54984305  0.54984305  0.35047086  1
  Ni  Ni77  1  0.95503653  0.76645731  0.13925308  1
  Ni  Ni78  1  0.76764591  0.33271376  0.76764591  1
  Ni  Ni79  1  0.13925308  0.76645731  0.13925308  1
  Ni  Ni80  1  0.34031433  0.65968567  0.65968567  1
  Ni  Ni81  1  0.26289030  0.89307306  0.58114635  1
  Ni  Ni82  1  0.01238816  0.19860126  0.39450529  1
  Ni  Ni83  1  0.13925308  0.76645731  0.95503653  1
  Ni  Ni84  1  0.13199442  0.33271376  0.76764591  1
  Ni  Ni85  1  0.65968567  0.65968567  0.34031433  1
  Ni  Ni86  1  0.58114635  0.89307306  0.26289030  1
  Ni  Ni87  1  0.54984305  0.35047086  0.54984305  1
  Ni  Ni88  1  0.13925308  0.13925308  0.76645731  1
  Ni  Ni89  1  0.33271376  0.13199442  0.76764591  1
  Ni  Ni90  1  0.89307306  0.26289030  0.26289030  1
  Ni  Ni91  1  0.39450529  0.01238816  0.19860126  1
  Ni  Ni92  1  0.89307306  0.26289030  0.58114635  1
  Ni  Ni93  1  0.01238816  0.39450529  0.39450529  1
  Ni  Ni94  1  0.76645731  0.13925308  0.13925308  1
  Ni  Ni95  1  0.13925308  0.95503653  0.13925308  1
  Cu  Cu96  1  0.63092599  0.78969134  0.78969134  1
  Cu  Cu97  1  0.77598726  0.95478225  0.77598726  1
  Cu  Cu98  1  0.78969134  0.78969134  0.63092599  1
  Cu  Cu99  1  0.69207156  0.92378531  0.69207156  1
  Cu  Cu100  1  0.77598726  0.77598726  0.95478225  1
  Cu  Cu101  1  0.61061850  0.61061850  0.88938150  1
  Cu  Cu102  1  0.95478225  0.49324324  0.77598726  1
  Cu  Cu103  1  0.95478225  0.77598726  0.49324324  1
  Cu  Cu104  1  0.77598726  0.95478225  0.49324324  1
  Cu  Cu105  1  0.88938150  0.61061850  0.88938150  1
  Cu  Cu106  1  0.88938150  0.61061850  0.61061850  1
  Cu  Cu107  1  0.77598726  0.49324324  0.77598726  1
  Cu  Cu108  1  0.77598726  0.49324324  0.95478225  1
  Cu  Cu109  1  0.69207156  0.69207156  0.69207156  1
  Cu  Cu110  1  0.78969134  0.63092599  0.78969134  1
  Cu  Cu111  1  0.61061850  0.88938150  0.61061850  1
  Cu  Cu112  1  0.69207156  0.69207156  0.92378531  1
  Cu  Cu113  1  0.95478225  0.77598726  0.77598726  1
  Cu  Cu114  1  0.49324324  0.77598726  0.77598726  1
  Cu  Cu115  1  0.78969134  0.78969134  0.78969134  1
  Cu  Cu116  1  0.49324324  0.77598726  0.95478225  1
  Cu  Cu117  1  0.49324324  0.95478225  0.77598726  1
  Cu  Cu118  1  0.92378531  0.69207156  0.69207156  1
  Cu  Cu119  1  0.77598726  0.77598726  0.49324324  1
  Cu  Cu120  1  0.88938150  0.88938150  0.61061850  1
  Cu  Cu121  1  0.61061850  0.88938150  0.88938150  1
  C  C122  1  0.75000000  0.75000000  0.75000000  1
