# generated using pymatgen
data_CuNiC4
_symmetry_space_group_name_H-M   'P 1'
_cell_length_a   5.05499158
_cell_length_b   5.05499158
_cell_length_c   11.16223200
_cell_angle_alpha   90.00000000
_cell_angle_beta   90.00000000
_cell_angle_gamma   119.99999447
_symmetry_Int_Tables_number   1
_chemical_formula_structural   CuNiC4
_chemical_formula_sum   'Cu3 Ni3 C12'
_cell_volume   247.01457155
_cell_formula_units_Z   3
loop_
 _symmetry_equiv_pos_site_id
 _symmetry_equiv_pos_as_xyz
  1  'x, y, z'
loop_
 _atom_site_type_symbol
 _atom_site_label
 _atom_site_symmetry_multiplicity
 _atom_site_fract_x
 _atom_site_fract_y
 _atom_site_fract_z
 _atom_site_occupancy
  Ni  Ni0  1  0.47298400  0.00000000  0.33333300  1
  Ni  Ni1  1  0.00000000  0.47298400  0.66666700  1
  Ni  Ni2  1  0.52701600  0.52701600  0.00000000  1
  Cu  Cu3  1  0.47360200  0.00000000  0.83333300  1
  Cu  Cu4  1  0.00000000  0.47360200  0.16666700  1
  Cu  Cu5  1  0.52639800  0.52639800  0.50000000  1
  C  C6  1  0.24655400  0.41756300  0.11150200  1
  C  C7  1  0.58243700  0.82899100  0.44483500  1
  C  C8  1  0.17100900  0.75344600  0.77816900  1
  C  C9  1  0.82899100  0.58243700  0.55516500  1
  C  C10  1  0.75344600  0.17100900  0.22183100  1
  C  C11  1  0.41756300  0.24655400  0.88849800  1
  C  C12  1  0.41748700  0.28007600  0.40175900  1
  C  C13  1  0.71992400  0.13741100  0.73509200  1
  C  C14  1  0.86258900  0.58251300  0.06842600  1
  C  C15  1  0.13741100  0.71992400  0.26490800  1
  C  C16  1  0.58251300  0.86258900  0.93157400  1
  C  C17  1  0.28007600  0.41748700  0.59824100  1
