# generated using pymatgen
data_CuNiC5
_symmetry_space_group_name_H-M   'P 1'
_cell_length_a   5.22888600
_cell_length_b   5.24580700
_cell_length_c   13.56216800
_cell_angle_alpha   90.00000000
_cell_angle_beta   90.00000000
_cell_angle_gamma   90.00000000
_symmetry_Int_Tables_number   1
_chemical_formula_structural   CuNiC5
_chemical_formula_sum   'Cu4 Ni4 C20'
_cell_volume   372.00656280
_cell_formula_units_Z   4
loop_
 _symmetry_equiv_pos_site_id
 _symmetry_equiv_pos_as_xyz
  1  'x, y, z'
loop_
 _atom_site_type_symbol
 _atom_site_label
 _atom_site_symmetry_multiplicity
 _atom_site_fract_x
 _atom_site_fract_y
 _atom_site_fract_z
 _atom_site_occupancy
  C  C0  1  0.75000000  0.00737500  0.89680800  1
  C  C1  1  0.75000000  0.50737500  0.10319200  1
  C  C2  1  0.25000000  0.99262500  0.10319200  1
  C  C3  1  0.25000000  0.49262500  0.89680800  1
  Ni  Ni4  1  0.75000000  0.00234000  0.26624700  1
  Ni  Ni5  1  0.75000000  0.50234000  0.73375300  1
  Ni  Ni6  1  0.25000000  0.99766000  0.73375300  1
  Ni  Ni7  1  0.25000000  0.49766000  0.26624700  1
  Cu  Cu8  1  0.75000000  0.99086100  0.57351800  1
  Cu  Cu9  1  0.75000000  0.49086100  0.42648200  1
  Cu  Cu10  1  0.25000000  0.00913900  0.42648200  1
  Cu  Cu11  1  0.25000000  0.50913900  0.57351800  1
  C  C12  1  0.00000000  0.75000000  0.22901600  1
  C  C13  1  0.50000000  0.25000000  0.77098400  1
  C  C14  1  0.00000000  0.25000000  0.77098400  1
  C  C15  1  0.50000000  0.75000000  0.22901600  1
  C  C16  1  0.00000000  0.75000000  0.77714100  1
  C  C17  1  0.50000000  0.25000000  0.22285900  1
  C  C18  1  0.00000000  0.25000000  0.22285900  1
  C  C19  1  0.50000000  0.75000000  0.77714100  1
  C  C20  1  0.75000000  0.97981800  0.06548400  1
  C  C21  1  0.75000000  0.47981800  0.93451600  1
  C  C22  1  0.25000000  0.02018200  0.93451600  1
  C  C23  1  0.25000000  0.52018200  0.06548400  1
  C  C24  1  0.75000000  0.00882700  0.39902600  1
  C  C25  1  0.75000000  0.50882700  0.60097400  1
  C  C26  1  0.25000000  0.99117300  0.60097400  1
  C  C27  1  0.25000000  0.49117300  0.39902600  1
