# generated using pymatgen
data_Cu20(NiC2)3
_symmetry_space_group_name_H-M   'P 1'
_cell_length_a   8.55559183
_cell_length_b   8.55559183
_cell_length_c   8.55559183
_cell_angle_alpha   60.00000000
_cell_angle_beta   60.00000000
_cell_angle_gamma   60.00000000
_symmetry_Int_Tables_number   1
_chemical_formula_structural   Cu20(NiC2)3
_chemical_formula_sum   'Cu20 Ni3 C6'
_cell_volume   442.82810186
_cell_formula_units_Z   1
loop_
 _symmetry_equiv_pos_site_id
 _symmetry_equiv_pos_as_xyz
  1  'x, y, z'
loop_
 _atom_site_type_symbol
 _atom_site_label
 _atom_site_symmetry_multiplicity
 _atom_site_fract_x
 _atom_site_fract_y
 _atom_site_fract_z
 _atom_site_occupancy
  Ni  Ni0  1  0.25000000  0.25000000  0.25000000  1
  Ni  Ni1  1  0.75000000  0.75000000  0.75000000  1
  Ni  Ni2  1  0.00000000  0.00000000  0.00000000  1
  C  C3  1  0.73437200  0.73437200  0.26562800  1
  C  C4  1  0.26562800  0.26562800  0.73437200  1
  C  C5  1  0.26562800  0.73437200  0.73437200  1
  C  C6  1  0.73437200  0.26562800  0.73437200  1
  C  C7  1  0.26562800  0.73437200  0.26562800  1
  C  C8  1  0.73437200  0.26562800  0.26562800  1
  Cu  Cu9  1  0.61855100  0.61855100  0.61855100  1
  Cu  Cu10  1  0.38144900  0.85565200  0.38144900  1
  Cu  Cu11  1  0.65805100  0.34194900  0.00000000  1
  Cu  Cu12  1  0.00000000  0.34194900  0.65805100  1
  Cu  Cu13  1  0.65805100  0.00000000  0.00000000  1
  Cu  Cu14  1  0.61855100  0.61855100  0.14434800  1
  Cu  Cu15  1  0.00000000  0.00000000  0.65805100  1
  Cu  Cu16  1  0.00000000  0.34194900  0.00000000  1
  Cu  Cu17  1  0.65805100  0.00000000  0.34194900  1
  Cu  Cu18  1  0.34194900  0.00000000  0.00000000  1
  Cu  Cu19  1  0.00000000  0.65805100  0.00000000  1
  Cu  Cu20  1  0.34194900  0.00000000  0.65805100  1
  Cu  Cu21  1  0.00000000  0.65805100  0.34194900  1
  Cu  Cu22  1  0.34194900  0.65805100  0.00000000  1
  Cu  Cu23  1  0.14434800  0.61855100  0.61855100  1
  Cu  Cu24  1  0.38144900  0.38144900  0.38144900  1
  Cu  Cu25  1  0.85565200  0.38144900  0.38144900  1
  Cu  Cu26  1  0.38144900  0.38144900  0.85565200  1
  Cu  Cu27  1  0.61855100  0.14434800  0.61855100  1
  Cu  Cu28  1  0.00000000  0.00000000  0.34194900  1
