# generated using pymatgen
data_Cu13Ni11C36
_symmetry_space_group_name_H-M   'P 1'
_cell_length_a   5.17929700
_cell_length_b   5.55186928
_cell_length_c   25.76070977
_cell_angle_alpha   93.31716882
_cell_angle_beta   90.07885072
_cell_angle_gamma   117.74872948
_symmetry_Int_Tables_number   1
_chemical_formula_structural   Cu13Ni11C36
_chemical_formula_sum   'Cu13 Ni11 C36'
_cell_volume   654.12192794
_cell_formula_units_Z   1
loop_
 _symmetry_equiv_pos_site_id
 _symmetry_equiv_pos_as_xyz
  1  'x, y, z'
loop_
 _atom_site_type_symbol
 _atom_site_label
 _atom_site_symmetry_multiplicity
 _atom_site_fract_x
 _atom_site_fract_y
 _atom_site_fract_z
 _atom_site_occupancy
  Ni  Ni0  1  0.19308000  0.39083900  0.97675800  1
  Ni  Ni1  1  0.47122500  0.93502600  0.94039900  1
  Ni  Ni2  1  0.53304300  0.07931700  0.80854700  1
  Ni  Ni3  1  0.80103900  0.61605500  0.77306300  1
  Ni  Ni4  1  0.87274400  0.73639600  0.63966400  1
  Ni  Ni5  1  0.19283900  0.38765100  0.47559200  1
  Ni  Ni6  1  0.52762500  0.05454700  0.30908700  1
  Ni  Ni7  1  0.80097100  0.60606500  0.52361400  1
  Ni  Ni8  1  0.86406300  0.72361200  0.14190900  1
  Ni  Ni9  1  0.13987400  0.27881700  0.35746200  1
  Ni  Ni10  1  0.47550200  0.94462600  0.19113800  1
  Cu  Cu11  1  0.85619100  0.71258100  0.89259500  1
  Cu  Cu12  1  0.13961300  0.27341700  0.85771400  1
  Cu  Cu13  1  0.14335400  0.28601200  0.60718700  1
  Cu  Cu14  1  0.18618600  0.37969700  0.72504000  1
  Cu  Cu15  1  0.46397600  0.93892400  0.69050200  1
  Cu  Cu16  1  0.47279600  0.94768600  0.44044300  1
  Cu  Cu17  1  0.53031700  0.05128500  0.56077300  1
  Cu  Cu18  1  0.80659200  0.61454700  0.27348000  1
  Cu  Cu19  1  0.85825300  0.71787900  0.39223200  1
  Cu  Cu20  1  0.14205000  0.28281800  0.10878200  1
  Cu  Cu21  1  0.19411300  0.38537100  0.22606600  1
  Cu  Cu22  1  0.52212000  0.04828400  0.05941700  1
  Cu  Cu23  1  0.81013900  0.61318900  0.02560900  1
  C  C24  1  0.88319800  0.11136500  0.93036200  1
  C  C25  1  0.33236700  0.99574900  0.87605400  1
  C  C26  1  0.44466900  0.22546500  0.98523500  1
  C  C27  1  0.85065200  0.42119400  0.83810200  1
  C  C28  1  0.04836000  0.67481500  0.96114600  1
  C  C29  1  0.21873100  0.77856300  0.76478100  1
  C  C30  1  0.42152600  0.57683600  0.90961600  1
  C  C31  1  0.66594800  0.67672800  0.70950300  1
  C  C32  1  0.78100500  0.89041400  0.81905800  1
  C  C33  1  0.21010000  0.09341400  0.67297600  1
  C  C34  1  0.38282100  0.33831100  0.79133500  1
  C  C35  1  0.59771600  0.45174000  0.59463500  1
  C  C36  1  0.74297700  0.22379500  0.74271500  1
  C  C37  1  0.97785600  0.33290300  0.53645600  1
  C  C38  1  0.11726600  0.58015800  0.65984000  1
  C  C39  1  0.55136100  0.75476100  0.50771400  1
  C  C40  1  0.69539500  0.98681700  0.62918100  1
  C  C41  1  0.92562000  0.11723400  0.42763500  1
  C  C42  1  0.07639400  0.87443000  0.57237000  1
  C  C43  1  0.30785800  0.00154900  0.37002300  1
  C  C44  1  0.45126300  0.24734600  0.49240500  1
  C  C45  1  0.88442900  0.42170500  0.34125600  1
  C  C46  1  0.02418300  0.66248900  0.46373000  1
  C  C47  1  0.25934300  0.78270500  0.26128100  1
  C  C48  1  0.40824600  0.54868100  0.40567000  1
  C  C49  1  0.64268000  0.66877300  0.20290900  1
  C  C50  1  0.78363100  0.91435300  0.32534500  1
  C  C51  1  0.21843800  0.08670900  0.17593500  1
  C  C52  1  0.35890800  0.33094800  0.29721600  1
  C  C53  1  0.59232300  0.45506800  0.09329300  1
  C  C54  1  0.74105400  0.21437800  0.23937700  1
  C  C55  1  0.97336700  0.33217200  0.03570100  1
  C  C56  1  0.11580900  0.57892700  0.15882700  1
  C  C57  1  0.53290500  0.74970900  0.00599600  1
  C  C58  1  0.69549900  0.00007000  0.13065100  1
  C  C59  1  0.08839500  0.89508300  0.07459900  1
