# generated using pymatgen
data_Cu4Ni4C19
_symmetry_space_group_name_H-M   'P 1'
_cell_length_a   10.71293080
_cell_length_b   10.71293080
_cell_length_c   10.71293080
_cell_angle_alpha   132.92422205
_cell_angle_beta   124.54964808
_cell_angle_gamma   75.63189634
_symmetry_Int_Tables_number   1
_chemical_formula_structural   Cu4Ni4C19
_chemical_formula_sum   'Cu8 Ni8 C38'
_cell_volume   721.82458216
_cell_formula_units_Z   2
loop_
 _symmetry_equiv_pos_site_id
 _symmetry_equiv_pos_as_xyz
  1  'x, y, z'
loop_
 _atom_site_type_symbol
 _atom_site_label
 _atom_site_symmetry_multiplicity
 _atom_site_fract_x
 _atom_site_fract_y
 _atom_site_fract_z
 _atom_site_occupancy
  C  C0  1  0.58040600  0.36277200  0.13386000  1
  C  C1  1  0.72891200  0.86277200  0.78236600  1
  C  C2  1  0.08040600  0.94654600  0.21763400  1
  C  C3  1  0.22891200  0.44654600  0.86614000  1
  C  C4  1  0.65403100  0.65403100  0.00000000  1
  C  C5  1  0.15403100  0.15403100  0.00000000  1
  Ni  Ni6  1  0.37240200  0.99409000  0.23970300  1
  Ni  Ni7  1  0.76045900  0.08804100  0.22724000  1
  Ni  Ni8  1  0.25438700  0.49409000  0.62168800  1
  Ni  Ni9  1  0.36080100  0.58804100  0.32758200  1
  Ni  Ni10  1  0.26045900  0.03321900  0.67241800  1
  Ni  Ni11  1  0.86080100  0.53321900  0.77276000  1
  Ni  Ni12  1  0.75438700  0.13269900  0.76029700  1
  Ni  Ni13  1  0.87240200  0.63269900  0.37831200  1
  Cu  Cu14  1  0.55305700  0.76185400  0.31836200  1
  Cu  Cu15  1  0.05305700  0.73469500  0.79120300  1
  Cu  Cu16  1  0.94349200  0.26185400  0.20879700  1
  Cu  Cu17  1  0.44349200  0.23469500  0.68163800  1
  Cu  Cu18  1  0.44463600  0.82156200  0.77469600  1
  Cu  Cu19  1  0.04686600  0.66994000  0.22530400  1
  Cu  Cu20  1  0.54686600  0.32156200  0.37692600  1
  Cu  Cu21  1  0.94463600  0.16994000  0.62307400  1
  C  C22  1  0.41858800  0.39347900  0.26822500  1
  C  C23  1  0.12525400  0.15036300  0.73177500  1
  C  C24  1  0.41692800  0.62346700  0.22474200  1
  C  C25  1  0.34215700  0.97216200  0.81664100  1
  C  C26  1  0.62525400  0.89347900  0.97489100  1
  C  C27  1  0.84215700  0.02551600  0.36999500  1
  C  C28  1  0.45829700  0.75793300  0.59474900  1
  C  C29  1  0.94084200  0.65555600  0.28029800  1
  C  C30  1  0.87525800  0.15555600  0.71471400  1
  C  C31  1  0.37525800  0.66054400  0.71970200  1
  C  C32  1  0.16318400  0.86354800  0.40525100  1
  C  C33  1  0.38901800  0.41669900  0.74050500  1
  C  C34  1  0.89872500  0.12346700  0.20653900  1
  C  C35  1  0.35194600  0.07426700  0.43355900  1
  C  C36  1  0.63300700  0.28276600  0.80174000  1
  C  C37  1  0.88901800  0.14851300  0.97231900  1
  C  C38  1  0.65552100  0.47216200  0.63000500  1
  C  C39  1  0.67619400  0.64851300  0.25949500  1
  C  C40  1  0.98102600  0.78276600  0.64975900  1
  C  C41  1  0.66318400  0.25793300  0.29963600  1
  C  C42  1  0.95829700  0.36354800  0.70036400  1
  C  C43  1  0.85194600  0.41838700  0.27767900  1
  C  C44  1  0.14070800  0.57426700  0.72232100  1
  C  C45  1  0.91858800  0.65036300  0.02510900  1
  C  C46  1  0.44084200  0.16054400  0.28528600  1
  C  C47  1  0.15552100  0.52551600  0.18335900  1
  C  C48  1  0.17619400  0.91669900  0.02768100  1
  C  C49  1  0.91692800  0.69218600  0.79346100  1
  C  C50  1  0.39872500  0.19218600  0.77525800  1
  C  C51  1  0.64070800  0.91838700  0.56644100  1
  C  C52  1  0.13300700  0.33126700  0.35024100  1
  C  C53  1  0.48102600  0.83126700  0.19826000  1
