# generated using pymatgen
data_Cu(NiC2)2
_symmetry_space_group_name_H-M   'P 1'
_cell_length_a   7.67334700
_cell_length_b   7.67334700
_cell_length_c   12.25078500
_cell_angle_alpha   90.00000000
_cell_angle_beta   90.00000000
_cell_angle_gamma   90.00000000
_symmetry_Int_Tables_number   1
_chemical_formula_structural   Cu(NiC2)2
_chemical_formula_sum   'Cu4 Ni8 C16'
_cell_volume   721.32933473
_cell_formula_units_Z   4
loop_
 _symmetry_equiv_pos_site_id
 _symmetry_equiv_pos_as_xyz
  1  'x, y, z'
loop_
 _atom_site_type_symbol
 _atom_site_label
 _atom_site_symmetry_multiplicity
 _atom_site_fract_x
 _atom_site_fract_y
 _atom_site_fract_z
 _atom_site_occupancy
  Ni  Ni0  1  0.00000000  0.50000000  0.25000000  1
  Ni  Ni1  1  0.00000000  0.50000000  0.00000000  1
  Ni  Ni2  1  0.00000000  0.50000000  0.75000000  1
  Ni  Ni3  1  0.50000000  0.00000000  0.50000000  1
  Ni  Ni4  1  0.50000000  0.00000000  0.00000000  1
  Ni  Ni5  1  0.50000000  0.00000000  0.75000000  1
  Ni  Ni6  1  0.00000000  0.50000000  0.50000000  1
  Ni  Ni7  1  0.50000000  0.00000000  0.25000000  1
  Cu  Cu8  1  0.00000000  0.00000000  0.12903900  1
  Cu  Cu9  1  0.50000000  0.50000000  0.37096100  1
  Cu  Cu10  1  0.50000000  0.50000000  0.62903900  1
  Cu  Cu11  1  0.00000000  0.00000000  0.87096100  1
  C  C12  1  0.65800700  0.16181100  0.62483600  1
  C  C13  1  0.34199300  0.16181100  0.37516400  1
  C  C14  1  0.65800700  0.83818900  0.37516400  1
  C  C15  1  0.84199300  0.33818900  0.87516400  1
  C  C16  1  0.83818900  0.65800700  0.62483600  1
  C  C17  1  0.66181100  0.84199300  0.87516400  1
  C  C18  1  0.83818900  0.34199300  0.37516400  1
  C  C19  1  0.84199300  0.66181100  0.12483600  1
  C  C20  1  0.16181100  0.65800700  0.37516400  1
  C  C21  1  0.15800700  0.33818900  0.12483600  1
  C  C22  1  0.16181100  0.34199300  0.62483600  1
  C  C23  1  0.33818900  0.84199300  0.12483600  1
  C  C24  1  0.34199300  0.83818900  0.62483600  1
  C  C25  1  0.15800700  0.66181100  0.87516400  1
  C  C26  1  0.33818900  0.15800700  0.87516400  1
  C  C27  1  0.66181100  0.15800700  0.12483600  1
