# generated using pymatgen
data_CuNiC5
_symmetry_space_group_name_H-M   'P 1'
_cell_length_a   8.13476016
_cell_length_b   8.13476016
_cell_length_c   7.78641900
_cell_angle_alpha   90.00000000
_cell_angle_beta   90.00000000
_cell_angle_gamma   120.00000131
_symmetry_Int_Tables_number   1
_chemical_formula_structural   CuNiC5
_chemical_formula_sum   'Cu6 Ni6 C30'
_cell_volume   446.22911401
_cell_formula_units_Z   6
loop_
 _symmetry_equiv_pos_site_id
 _symmetry_equiv_pos_as_xyz
  1  'x, y, z'
loop_
 _atom_site_type_symbol
 _atom_site_label
 _atom_site_symmetry_multiplicity
 _atom_site_fract_x
 _atom_site_fract_y
 _atom_site_fract_z
 _atom_site_occupancy
  C  C0  1  0.00000000  0.00000000  0.23134600  1
  C  C1  1  0.33333300  0.66666700  0.26850000  1
  C  C2  1  0.66666700  0.33333300  0.76850000  1
  C  C3  1  0.66666700  0.33333300  0.20105300  1
  C  C4  1  0.00000000  0.00000000  0.73134600  1
  C  C5  1  0.33333300  0.66666700  0.70105300  1
  Ni  Ni6  1  0.68221500  0.66058400  0.51254200  1
  Ni  Ni7  1  0.33941600  0.02163100  0.51254200  1
  Ni  Ni8  1  0.31778500  0.33941600  0.01254200  1
  Ni  Ni9  1  0.02163100  0.68221500  0.01254200  1
  Ni  Ni10  1  0.97836900  0.31778500  0.51254200  1
  Ni  Ni11  1  0.66058400  0.97836900  0.01254200  1
  Cu  Cu12  1  0.01786500  0.67977000  0.39245900  1
  Cu  Cu13  1  0.33809500  0.01786500  0.89245900  1
  Cu  Cu14  1  0.32023000  0.33809500  0.39245900  1
  Cu  Cu15  1  0.67977000  0.66190500  0.89245900  1
  Cu  Cu16  1  0.98213500  0.32023000  0.89245900  1
  Cu  Cu17  1  0.66190500  0.98213500  0.39245900  1
  C  C18  1  0.18947600  0.39861200  0.89273700  1
  C  C19  1  0.09089500  0.72313600  0.21279200  1
  C  C20  1  0.13991600  0.25423500  0.48961200  1
  C  C21  1  0.36775900  0.09089500  0.71279200  1
  C  C22  1  0.88568100  0.13991600  0.98961200  1
  C  C23  1  0.63224100  0.90910500  0.21279200  1
  C  C24  1  0.39861200  0.20913600  0.39273700  1
  C  C25  1  0.11431900  0.86008400  0.48961200  1
  C  C26  1  0.47207000  0.92860900  0.46669200  1
  C  C27  1  0.20913600  0.81052400  0.89273700  1
  C  C28  1  0.07139100  0.54346100  0.46669200  1
  C  C29  1  0.25423500  0.11431900  0.98961200  1
  C  C30  1  0.92860900  0.45653900  0.96669200  1
  C  C31  1  0.90910500  0.27686400  0.71279200  1
  C  C32  1  0.27686400  0.36775900  0.21279200  1
  C  C33  1  0.86008400  0.74576500  0.98961200  1
  C  C34  1  0.45653900  0.52793000  0.46669200  1
  C  C35  1  0.54346100  0.47207000  0.96669200  1
  C  C36  1  0.81052400  0.60138800  0.39273700  1
  C  C37  1  0.72313600  0.63224100  0.71279200  1
  C  C38  1  0.74576500  0.88568100  0.48961200  1
  C  C39  1  0.52793000  0.07139100  0.96669200  1
  C  C40  1  0.60138800  0.79086400  0.89273700  1
  C  C41  1  0.79086400  0.18947600  0.39273700  1
