# generated using pymatgen
data_Cu2NiC2
_symmetry_space_group_name_H-M   'P 1'
_cell_length_a   5.73557000
_cell_length_b   5.85980600
_cell_length_c   7.21026401
_cell_angle_alpha   66.02414094
_cell_angle_beta   90.00000000
_cell_angle_gamma   90.00000000
_symmetry_Int_Tables_number   1
_chemical_formula_structural   Cu2NiC2
_chemical_formula_sum   'Cu4 Ni2 C4'
_cell_volume   221.42292126
_cell_formula_units_Z   2
loop_
 _symmetry_equiv_pos_site_id
 _symmetry_equiv_pos_as_xyz
  1  'x, y, z'
loop_
 _atom_site_type_symbol
 _atom_site_label
 _atom_site_symmetry_multiplicity
 _atom_site_fract_x
 _atom_site_fract_y
 _atom_site_fract_z
 _atom_site_occupancy
  C  C0  1  0.75000000  0.89904200  0.20191600  1
  C  C1  1  0.25000000  0.10095800  0.79808400  1
  C  C2  1  0.25000000  0.42237800  0.15524400  1
  C  C3  1  0.75000000  0.57762200  0.84475600  1
  Ni  Ni4  1  0.75000000  0.24536200  0.50927600  1
  Ni  Ni5  1  0.25000000  0.75463800  0.49072400  1
  Cu  Cu6  1  0.50000000  0.73387300  0.00000000  1
  Cu  Cu7  1  0.00000000  0.26612700  0.00000000  1
  Cu  Cu8  1  0.50000000  0.26612700  0.00000000  1
  Cu  Cu9  1  0.00000000  0.73387300  0.00000000  1
