# generated using pymatgen
data_Cu2NiC8
_symmetry_space_group_name_H-M   'P 1'
_cell_length_a   7.99861500
_cell_length_b   8.86373573
_cell_length_c   10.69576725
_cell_angle_alpha   91.16349427
_cell_angle_beta   89.94365113
_cell_angle_gamma   105.73091060
_symmetry_Int_Tables_number   1
_chemical_formula_structural   Cu2NiC8
_chemical_formula_sum   'Cu8 Ni4 C32'
_cell_volume   729.74396798
_cell_formula_units_Z   4
loop_
 _symmetry_equiv_pos_site_id
 _symmetry_equiv_pos_as_xyz
  1  'x, y, z'
loop_
 _atom_site_type_symbol
 _atom_site_label
 _atom_site_symmetry_multiplicity
 _atom_site_fract_x
 _atom_site_fract_y
 _atom_site_fract_z
 _atom_site_occupancy
  C  C0  1  0.30956500  0.94432600  0.18739700  1
  C  C1  1  0.69043500  0.05567400  0.81260300  1
  C  C2  1  0.66058800  0.53886400  0.68285900  1
  C  C3  1  0.33941200  0.46113600  0.31714100  1
  Ni  Ni4  1  0.73527900  0.76756000  0.10214100  1
  Ni  Ni5  1  0.26209900  0.73888300  0.59582900  1
  Ni  Ni6  1  0.73790100  0.26111700  0.40417100  1
  Ni  Ni7  1  0.26472100  0.23244000  0.89785900  1
  Cu  Cu8  1  0.05118400  0.79907800  0.86756000  1
  Cu  Cu9  1  0.65534300  0.85001200  0.42647500  1
  Cu  Cu10  1  0.37096100  0.66882800  0.90022000  1
  Cu  Cu11  1  0.06837700  0.32657300  0.64067000  1
  Cu  Cu12  1  0.94881600  0.20092200  0.13244000  1
  Cu  Cu13  1  0.62903900  0.33117200  0.09978000  1
  Cu  Cu14  1  0.34465700  0.14998800  0.57352500  1
  Cu  Cu15  1  0.93162300  0.67342700  0.35933000  1
  C  C16  1  0.15986600  0.25726900  0.08306200  1
  C  C17  1  0.13804900  0.18773300  0.54329400  1
  C  C18  1  0.04353000  0.76525900  0.70923100  1
  C  C19  1  0.68994700  0.03479800  0.48581000  1
  C  C20  1  0.95647000  0.23474100  0.29076900  1
  C  C21  1  0.12842500  0.66576500  0.41415600  1
  C  C22  1  0.57821300  0.22457000  0.23330600  1
  C  C23  1  0.49289200  0.28341100  0.48875500  1
  C  C24  1  0.60244400  0.81926700  0.27179100  1
  C  C25  1  0.04345500  0.25240300  0.78846600  1
  C  C26  1  0.50710800  0.71658900  0.51124500  1
  C  C27  1  0.16770900  0.97634000  0.92443500  1
  C  C28  1  0.95654500  0.74759700  0.21153400  1
  C  C29  1  0.39755600  0.18073300  0.72820900  1
  C  C30  1  0.76815200  0.50681700  0.37291800  1
  C  C31  1  0.39152800  0.48476200  0.88407900  1
  C  C32  1  0.85100900  0.34071700  0.06168000  1
  C  C33  1  0.87157500  0.33423500  0.58584400  1
  C  C34  1  0.50892200  0.22123700  0.98118600  1
  C  C35  1  0.42178700  0.77543000  0.76669400  1
  C  C36  1  0.14899100  0.65928300  0.93832000  1
  C  C37  1  0.60847200  0.51523800  0.11592100  1
  C  C38  1  0.31005300  0.96520200  0.51419000  1
  C  C39  1  0.23184800  0.49318300  0.62708200  1
  C  C40  1  0.84013400  0.74273100  0.91693800  1
  C  C41  1  0.49107800  0.77876300  0.01881400  1
  C  C42  1  0.86195100  0.81226700  0.45670600  1
  C  C43  1  0.83229100  0.02366000  0.07556500  1
