# generated using pymatgen
data_Cu7(Ni2C3)2
_symmetry_space_group_name_H-M   'P 1'
_cell_length_a   7.14886824
_cell_length_b   7.14886824
_cell_length_c   7.14886824
_cell_angle_alpha   109.47122063
_cell_angle_beta   109.47122063
_cell_angle_gamma   109.47122063
_symmetry_Int_Tables_number   1
_chemical_formula_structural   Cu7(Ni2C3)2
_chemical_formula_sum   'Cu7 Ni4 C6'
_cell_volume   281.24835210
_cell_formula_units_Z   1
loop_
 _symmetry_equiv_pos_site_id
 _symmetry_equiv_pos_as_xyz
  1  'x, y, z'
loop_
 _atom_site_type_symbol
 _atom_site_label
 _atom_site_symmetry_multiplicity
 _atom_site_fract_x
 _atom_site_fract_y
 _atom_site_fract_z
 _atom_site_occupancy
  Ni  Ni0  1  0.50000000  0.50000000  0.50000000  1
  Ni  Ni1  1  0.00000000  0.00000000  0.50000000  1
  Ni  Ni2  1  0.50000000  0.00000000  0.00000000  1
  Ni  Ni3  1  0.00000000  0.50000000  0.00000000  1
  Cu  Cu4  1  0.75000000  0.25000000  0.50000000  1
  Cu  Cu5  1  0.50000000  0.25000000  0.75000000  1
  Cu  Cu6  1  0.50000000  0.75000000  0.25000000  1
  Cu  Cu7  1  0.25000000  0.50000000  0.75000000  1
  Cu  Cu8  1  0.75000000  0.50000000  0.25000000  1
  Cu  Cu9  1  0.25000000  0.75000000  0.50000000  1
  Cu  Cu10  1  0.00000000  0.00000000  0.00000000  1
  C  C11  1  0.30958600  0.30958600  0.00000000  1
  C  C12  1  0.00000000  0.30958600  0.30958600  1
  C  C13  1  0.00000000  0.69041400  0.69041400  1
  C  C14  1  0.69041400  0.00000000  0.69041400  1
  C  C15  1  0.30958600  0.00000000  0.30958600  1
  C  C16  1  0.69041400  0.69041400  0.00000000  1
