# generated using pymatgen
data_Cu12Ni2C9
_symmetry_space_group_name_H-M   'P 1'
_cell_length_a   10.43641419
_cell_length_b   10.43641419
_cell_length_c   16.55861689
_cell_angle_alpha   56.35015507
_cell_angle_beta   56.35015507
_cell_angle_gamma   29.58212787
_symmetry_Int_Tables_number   1
_chemical_formula_structural   Cu12Ni2C9
_chemical_formula_sum   'Cu24 Ni4 C18'
_cell_volume   729.62995378
_cell_formula_units_Z   2
loop_
 _symmetry_equiv_pos_site_id
 _symmetry_equiv_pos_as_xyz
  1  'x, y, z'
loop_
 _atom_site_type_symbol
 _atom_site_label
 _atom_site_symmetry_multiplicity
 _atom_site_fract_x
 _atom_site_fract_y
 _atom_site_fract_z
 _atom_site_occupancy
  C  C0  1  0.30751400  0.87454100  0.52445500  1
  C  C1  1  0.87454100  0.30751400  0.02445500  1
  C  C2  1  0.12545900  0.69248600  0.97554500  1
  C  C3  1  0.78976700  0.22690800  0.88171300  1
  C  C4  1  0.22690800  0.78976700  0.38171300  1
  C  C5  1  0.23384200  0.76615800  0.75000000  1
  C  C6  1  0.21023300  0.77309200  0.11828700  1
  C  C7  1  0.77309200  0.21023300  0.61828700  1
  C  C8  1  0.69248600  0.12545900  0.47554500  1
  C  C9  1  0.76615800  0.23384200  0.25000000  1
  C  C10  1  0.14645500  0.56164300  0.37782100  1
  C  C11  1  0.80948600  0.44244000  0.36033400  1
  C  C12  1  0.43835700  0.85354500  0.12217900  1
  C  C13  1  0.55756000  0.19051400  0.13966600  1
  C  C14  1  0.44244000  0.80948600  0.86033400  1
  C  C15  1  0.56164300  0.14645500  0.87782100  1
  C  C16  1  0.19051400  0.55756000  0.63966600  1
  C  C17  1  0.85354500  0.43835700  0.62217900  1
  Ni  Ni18  1  0.43139300  0.09872100  0.59319600  1
  Ni  Ni19  1  0.09872100  0.43139300  0.09319600  1
  Ni  Ni20  1  0.56860700  0.90127900  0.40680400  1
  Ni  Ni21  1  0.90127900  0.56860700  0.90680400  1
  Cu  Cu22  1  0.22579500  0.54442100  0.24894500  1
  Cu  Cu23  1  0.45597800  0.68513000  0.43070500  1
  Cu  Cu24  1  0.57219600  0.55478800  0.13276100  1
  Cu  Cu25  1  0.75749200  0.04670700  0.02211500  1
  Cu  Cu26  1  0.12086300  0.79730500  0.64241100  1
  Cu  Cu27  1  0.55478800  0.57219600  0.63276100  1
  Cu  Cu28  1  0.91053300  0.93326700  0.85622800  1
  Cu  Cu29  1  0.20269500  0.87913700  0.85758900  1
  Cu  Cu30  1  0.68513000  0.45597800  0.93070500  1
  Cu  Cu31  1  0.54442100  0.22579500  0.74894500  1
  Cu  Cu32  1  0.95329300  0.24250800  0.47788500  1
  Cu  Cu33  1  0.31487000  0.54402200  0.06929500  1
  Cu  Cu34  1  0.79730500  0.12086300  0.14241100  1
  Cu  Cu35  1  0.77420500  0.45557900  0.75105500  1
  Cu  Cu36  1  0.45557900  0.77420500  0.25105500  1
  Cu  Cu37  1  0.08946700  0.06673300  0.14377200  1
  Cu  Cu38  1  0.44521200  0.42780400  0.36723900  1
  Cu  Cu39  1  0.04670700  0.75749200  0.52211500  1
  Cu  Cu40  1  0.87913700  0.20269500  0.35758900  1
  Cu  Cu41  1  0.54402200  0.31487000  0.56929500  1
  Cu  Cu42  1  0.42780400  0.44521200  0.86723900  1
  Cu  Cu43  1  0.24250800  0.95329300  0.97788500  1
  Cu  Cu44  1  0.93326700  0.91053300  0.35622800  1
  Cu  Cu45  1  0.06673300  0.08946700  0.64377200  1
