# generated using pymatgen
data_CuNi
_symmetry_space_group_name_H-M   'P 1'
_cell_length_a   3.09446003
_cell_length_b   3.09446003
_cell_length_c   12.66203500
_cell_angle_alpha   90.00000000
_cell_angle_beta   90.00000000
_cell_angle_gamma   120.00000054
_symmetry_Int_Tables_number   1
_chemical_formula_structural   CuNi
_chemical_formula_sum   'Cu5 Ni5'
_cell_volume   105.00352834
_cell_formula_units_Z   5
loop_
 _symmetry_equiv_pos_site_id
 _symmetry_equiv_pos_as_xyz
  1  'x, y, z'
loop_
 _atom_site_type_symbol
 _atom_site_label
 _atom_site_symmetry_multiplicity
 _atom_site_fract_x
 _atom_site_fract_y
 _atom_site_fract_z
 _atom_site_occupancy
  Ni  Ni0  1  0.00000000  0.00000000  0.39975900  1
  Ni  Ni1  1  0.00000000  0.00000000  0.80003300  1
  Ni  Ni2  1  0.33333300  0.66666700  0.00005100  1
  Ni  Ni3  1  0.66666700  0.33333300  0.19990900  1
  Ni  Ni4  1  0.33333300  0.66666700  0.59981800  1
  Cu  Cu5  1  0.00000000  0.00000000  0.95038000  1
  Cu  Cu6  1  0.66666700  0.33333300  0.34999800  1
  Cu  Cu7  1  0.33333300  0.66666700  0.15012400  1
  Cu  Cu8  1  0.00000000  0.00000000  0.54980500  1
  Cu  Cu9  1  0.33333300  0.66666700  0.75012300  1
