# generated using pymatgen
data_Cu14Ni3C5
_symmetry_space_group_name_H-M   'P 1'
_cell_length_a   7.85017900
_cell_length_b   10.77358300
_cell_length_c   17.37504700
_cell_angle_alpha   90.00000000
_cell_angle_beta   90.00000000
_cell_angle_gamma   90.00000000
_symmetry_Int_Tables_number   1
_chemical_formula_structural   Cu14Ni3C5
_chemical_formula_sum   'Cu56 Ni12 C20'
_cell_volume   1469.48686850
_cell_formula_units_Z   4
loop_
 _symmetry_equiv_pos_site_id
 _symmetry_equiv_pos_as_xyz
  1  'x, y, z'
loop_
 _atom_site_type_symbol
 _atom_site_label
 _atom_site_symmetry_multiplicity
 _atom_site_fract_x
 _atom_site_fract_y
 _atom_site_fract_z
 _atom_site_occupancy
  C  C0  1  0.06140700  0.25689600  0.09005800  1
  C  C1  1  0.23931500  0.89016200  0.11095900  1
  C  C2  1  0.26068500  0.39016200  0.88904100  1
  C  C3  1  0.73931500  0.60983800  0.11095900  1
  C  C4  1  0.43859300  0.75689600  0.59005800  1
  C  C5  1  0.56140700  0.24310400  0.09005800  1
  C  C6  1  0.06140700  0.25689600  0.40994200  1
  C  C7  1  0.93859300  0.74310400  0.90994200  1
  C  C8  1  0.56140700  0.24310400  0.40994200  1
  C  C9  1  0.26068500  0.39016200  0.61095900  1
  C  C10  1  0.73931500  0.60983800  0.38904100  1
  C  C11  1  0.23931500  0.89016200  0.38904100  1
  C  C12  1  0.76068500  0.10983800  0.88904100  1
  C  C13  1  0.93859300  0.74310400  0.59005800  1
  C  C14  1  0.43859300  0.75689600  0.90994200  1
  C  C15  1  0.76068500  0.10983800  0.61095900  1
  C  C16  1  0.67516900  0.93349100  0.25000000  1
  C  C17  1  0.82483100  0.43349100  0.75000000  1
  C  C18  1  0.32483100  0.06650900  0.75000000  1
  C  C19  1  0.17516900  0.56650900  0.25000000  1
  Ni  Ni20  1  0.26500100  0.56029600  0.06544400  1
  Ni  Ni21  1  0.73499900  0.43970400  0.56544400  1
  Ni  Ni22  1  0.38011300  0.09774200  0.25000000  1
  Ni  Ni23  1  0.88011300  0.40225800  0.25000000  1
  Ni  Ni24  1  0.26500100  0.56029600  0.43455600  1
  Ni  Ni25  1  0.76500100  0.93970400  0.43455600  1
  Ni  Ni26  1  0.23499900  0.06029600  0.56544400  1
  Ni  Ni27  1  0.73499900  0.43970400  0.93455600  1
  Ni  Ni28  1  0.61988700  0.90225800  0.75000000  1
  Ni  Ni29  1  0.23499900  0.06029600  0.93455600  1
  Ni  Ni30  1  0.76500100  0.93970400  0.06544400  1
  Ni  Ni31  1  0.11988700  0.59774200  0.75000000  1
  Cu  Cu32  1  0.93401100  0.63607500  0.75000000  1
  Cu  Cu33  1  0.66647900  0.89918800  0.99793700  1
  Cu  Cu34  1  0.79458500  0.36340200  0.32079600  1
  Cu  Cu35  1  0.13196400  0.55254500  0.36645100  1
  Cu  Cu36  1  0.29458500  0.13659800  0.17920400  1
  Cu  Cu37  1  0.36803600  0.05254500  0.63354900  1
  Cu  Cu38  1  0.10437200  0.15206400  0.58696400  1
  Cu  Cu39  1  0.56598900  0.13607500  0.25000000  1
  Cu  Cu40  1  0.16647900  0.60081200  0.99793700  1
  Cu  Cu41  1  0.89562800  0.84793600  0.08696400  1
  Cu  Cu42  1  0.89562800  0.84793600  0.41303600  1
  Cu  Cu43  1  0.86803600  0.44745500  0.86645100  1
  Cu  Cu44  1  0.36803600  0.05254500  0.86645100  1
  Cu  Cu45  1  0.70541500  0.86340200  0.82079600  1
  Cu  Cu46  1  0.29458500  0.13659800  0.32079600  1
  Cu  Cu47  1  0.69192200  0.77332500  0.25000000  1
  Cu  Cu48  1  0.63196400  0.94745500  0.13354900  1
  Cu  Cu49  1  0.79458500  0.36340200  0.17920400  1
  Cu  Cu50  1  0.60437200  0.34793600  0.91303600  1
  Cu  Cu51  1  0.70541500  0.86340200  0.67920400  1
  Cu  Cu52  1  0.13196400  0.55254500  0.13354900  1
  Cu  Cu53  1  0.39604600  0.95446000  0.25000000  1
  Cu  Cu54  1  0.83352100  0.39918800  0.00206300  1
  Cu  Cu55  1  0.63196400  0.94745500  0.36645100  1
  Cu  Cu56  1  0.33285800  0.43348100  0.05563600  1
  Cu  Cu57  1  0.60437200  0.34793600  0.58696400  1
  Cu  Cu58  1  0.16714200  0.93348100  0.94436400  1
  Cu  Cu59  1  0.83285800  0.06651900  0.05563600  1
  Cu  Cu60  1  0.38077700  0.51050300  0.25000000  1
  Cu  Cu61  1  0.66647900  0.89918800  0.50206300  1
  Cu  Cu62  1  0.39562800  0.65206400  0.08696400  1
  Cu  Cu63  1  0.16647900  0.60081200  0.50206300  1
  Cu  Cu64  1  0.20541500  0.63659800  0.67920400  1
  Cu  Cu65  1  0.61922300  0.48949700  0.75000000  1
  Cu  Cu66  1  0.33352100  0.10081200  0.00206300  1
  Cu  Cu67  1  0.11922300  0.01050300  0.75000000  1
  Cu  Cu68  1  0.30807800  0.22667500  0.75000000  1
  Cu  Cu69  1  0.80807800  0.27332500  0.75000000  1
  Cu  Cu70  1  0.20541500  0.63659800  0.82079600  1
  Cu  Cu71  1  0.33352100  0.10081200  0.49793700  1
  Cu  Cu72  1  0.89604600  0.54554000  0.25000000  1
  Cu  Cu73  1  0.16714200  0.93348100  0.55563600  1
  Cu  Cu74  1  0.66714200  0.56651900  0.94436400  1
  Cu  Cu75  1  0.19192200  0.72667500  0.25000000  1
  Cu  Cu76  1  0.66714200  0.56651900  0.55563600  1
  Cu  Cu77  1  0.10395400  0.45446000  0.75000000  1
  Cu  Cu78  1  0.06598900  0.36392500  0.25000000  1
  Cu  Cu79  1  0.39562800  0.65206400  0.41303600  1
  Cu  Cu80  1  0.86803600  0.44745500  0.63354900  1
  Cu  Cu81  1  0.10437200  0.15206400  0.91303600  1
  Cu  Cu82  1  0.43401100  0.86392500  0.75000000  1
  Cu  Cu83  1  0.88077700  0.98949700  0.25000000  1
  Cu  Cu84  1  0.60395400  0.04554000  0.75000000  1
  Cu  Cu85  1  0.83285800  0.06651900  0.44436400  1
  Cu  Cu86  1  0.33285800  0.43348100  0.44436400  1
  Cu  Cu87  1  0.83352100  0.39918800  0.49793700  1
