# generated using pymatgen
data_Cu2NiC6
_symmetry_space_group_name_H-M   'P 1'
_cell_length_a   4.26583749
_cell_length_b   4.26571510
_cell_length_c   19.94658516
_cell_angle_alpha   89.99747917
_cell_angle_beta   89.99713969
_cell_angle_gamma   90.00067607
_symmetry_Int_Tables_number   1
_chemical_formula_structural   Cu2NiC6
_chemical_formula_sum   'Cu4 Ni2 C12'
_cell_volume   362.96496523
_cell_formula_units_Z   2
loop_
 _symmetry_equiv_pos_site_id
 _symmetry_equiv_pos_as_xyz
  1  'x, y, z'
loop_
 _atom_site_type_symbol
 _atom_site_label
 _atom_site_symmetry_multiplicity
 _atom_site_fract_x
 _atom_site_fract_y
 _atom_site_fract_z
 _atom_site_occupancy
  C  C0  1  0.99998700  0.99998700  0.32974400  1
  C  C1  1  0.49998700  0.49998700  0.82974400  1
  C  C2  1  0.50001300  0.50001300  0.17025600  1
  C  C3  1  0.00001300  0.00001300  0.67025600  1
  C  C4  1  0.50000000  0.00000000  0.50000000  1
  C  C5  1  0.50000000  0.00000000  0.00000000  1
  C  C6  1  0.00000000  0.50000000  0.00000000  1
  C  C7  1  0.00000000  0.50000000  0.50000000  1
  C  C8  1  0.49977600  0.49978000  0.40955600  1
  C  C9  1  0.99977600  0.99978000  0.90955600  1
  C  C10  1  0.00022400  0.00022100  0.09044400  1
  C  C11  1  0.50022400  0.50022100  0.59044400  1
  Ni  Ni12  1  0.50000000  0.50000000  0.00000000  1
  Ni  Ni13  1  0.00000000  0.00000000  0.50000000  1
  Cu  Cu14  1  0.99999500  0.50000200  0.25000600  1
  Cu  Cu15  1  0.49999500  0.00000200  0.75000600  1
  Cu  Cu16  1  0.50000500  0.99999800  0.24999400  1
  Cu  Cu17  1  0.00000500  0.49999800  0.74999400  1
