# generated using pymatgen
data_Cu14Ni2C15
_symmetry_space_group_name_H-M   'P 1'
_cell_length_a   12.31597800
_cell_length_b   6.25914100
_cell_length_c   9.10038106
_cell_angle_alpha   75.63937299
_cell_angle_beta   90.00000000
_cell_angle_gamma   90.00000000
_symmetry_Int_Tables_number   1
_chemical_formula_structural   Cu14Ni2C15
_chemical_formula_sum   'Cu28 Ni4 C30'
_cell_volume   679.60513174
_cell_formula_units_Z   2
loop_
 _symmetry_equiv_pos_site_id
 _symmetry_equiv_pos_as_xyz
  1  'x, y, z'
loop_
 _atom_site_type_symbol
 _atom_site_label
 _atom_site_symmetry_multiplicity
 _atom_site_fract_x
 _atom_site_fract_y
 _atom_site_fract_z
 _atom_site_occupancy
  C  C0  1  0.34693300  0.65497300  0.13140700  1
  C  C1  1  0.84693300  0.34502700  0.36859300  1
  C  C2  1  0.65306700  0.34502700  0.86859300  1
  C  C3  1  0.15306700  0.65497300  0.63140700  1
  C  C4  1  0.00000000  0.00000000  0.00000000  1
  C  C5  1  0.50000000  0.00000000  0.50000000  1
  C  C6  1  0.09063600  0.67713800  0.21557900  1
  C  C7  1  0.59063600  0.32286200  0.28442100  1
  C  C8  1  0.90936400  0.32286200  0.78442100  1
  C  C9  1  0.40936400  0.67713800  0.71557900  1
  C  C10  1  0.12458400  0.90785600  0.25014000  1
  C  C11  1  0.62458400  0.09214400  0.24986000  1
  C  C12  1  0.87541600  0.09214400  0.74986000  1
  C  C13  1  0.37541600  0.90785600  0.75014000  1
  C  C14  1  0.10206200  0.07501600  0.72385300  1
  C  C15  1  0.60206200  0.92498400  0.77614700  1
  C  C16  1  0.89793800  0.92498400  0.27614700  1
  C  C17  1  0.39793800  0.07501600  0.22385300  1
  C  C18  1  0.19098000  0.00064800  0.85154500  1
  C  C19  1  0.69098000  0.99935200  0.64845500  1
  C  C20  1  0.80902000  0.99935200  0.14845500  1
  C  C21  1  0.30902000  0.00064800  0.35154500  1
  C  C22  1  0.93883000  0.66609100  0.89449800  1
  C  C23  1  0.43883000  0.33390900  0.60550200  1
  C  C24  1  0.06117000  0.33390900  0.10550200  1
  C  C25  1  0.56117000  0.66609100  0.39449800  1
  C  C26  1  0.85685300  0.67278700  0.02910100  1
  C  C27  1  0.35685300  0.32721300  0.47089900  1
  C  C28  1  0.14314700  0.32721300  0.97089900  1
  C  C29  1  0.64314700  0.67278700  0.52910100  1
  Ni  Ni30  1  0.13799700  0.27486500  0.40707000  1
  Ni  Ni31  1  0.63799700  0.72513500  0.09293000  1
  Ni  Ni32  1  0.86200300  0.72513500  0.59293000  1
  Ni  Ni33  1  0.36200300  0.27486500  0.90707000  1
  Cu  Cu34  1  0.23617000  0.41684800  0.40394200  1
  Cu  Cu35  1  0.73617000  0.58315200  0.09605800  1
  Cu  Cu36  1  0.76383000  0.58315200  0.59605800  1
  Cu  Cu37  1  0.26383000  0.41684800  0.90394200  1
  Cu  Cu38  1  0.07870100  0.25086200  0.55243000  1
  Cu  Cu39  1  0.57870100  0.74913800  0.94757000  1
  Cu  Cu40  1  0.92129900  0.74913800  0.44757000  1
  Cu  Cu41  1  0.42129900  0.25086200  0.05243000  1
  Cu  Cu42  1  0.06467400  0.38767400  0.27963600  1
  Cu  Cu43  1  0.56467400  0.61232600  0.22036400  1
  Cu  Cu44  1  0.93532600  0.61232600  0.72036400  1
  Cu  Cu45  1  0.43532600  0.38767400  0.77963600  1
  Cu  Cu46  1  0.17124000  0.05290500  0.38733300  1
  Cu  Cu47  1  0.67124000  0.94709500  0.11266700  1
  Cu  Cu48  1  0.82876000  0.94709500  0.61266700  1
  Cu  Cu49  1  0.32876000  0.05290500  0.88733300  1
  Cu  Cu50  1  0.11314300  0.83153200  0.16805400  1
  Cu  Cu51  1  0.61314300  0.16846800  0.33194600  1
  Cu  Cu52  1  0.88685700  0.16846800  0.83194600  1
  Cu  Cu53  1  0.38685700  0.83153200  0.66805400  1
  Cu  Cu54  1  0.11608200  0.96723100  0.82311700  1
  Cu  Cu55  1  0.61608200  0.03276900  0.67688300  1
  Cu  Cu56  1  0.88391800  0.03276900  0.17688300  1
  Cu  Cu57  1  0.38391800  0.96723100  0.32311700  1
  Cu  Cu58  1  0.93311700  0.70587100  0.99344500  1
  Cu  Cu59  1  0.43311700  0.29412900  0.50655500  1
  Cu  Cu60  1  0.06688300  0.29412900  0.00655500  1
  Cu  Cu61  1  0.56688300  0.70587100  0.49344500  1
