# generated using pymatgen
data_CuNi2C39
_symmetry_space_group_name_H-M   'P 1'
_cell_length_a   5.49723400
_cell_length_b   7.21002449
_cell_length_c   15.00263077
_cell_angle_alpha   98.82547133
_cell_angle_beta   94.76206788
_cell_angle_gamma   89.97888566
_symmetry_Int_Tables_number   1
_chemical_formula_structural   CuNi2C39
_chemical_formula_sum   'Cu1 Ni2 C39'
_cell_volume   585.51733076
_cell_formula_units_Z   1
loop_
 _symmetry_equiv_pos_site_id
 _symmetry_equiv_pos_as_xyz
  1  'x, y, z'
loop_
 _atom_site_type_symbol
 _atom_site_label
 _atom_site_symmetry_multiplicity
 _atom_site_fract_x
 _atom_site_fract_y
 _atom_site_fract_z
 _atom_site_occupancy
  C  C0  1  0.41617900  0.16946800  0.61747300  1
  C  C1  1  0.93229400  0.70678700  0.70495500  1
  C  C2  1  0.00260600  0.99440100  0.01815000  1
  C  C3  1  0.48247900  0.45745200  0.93040200  1
  Ni  Ni4  1  0.70911200  0.57852200  0.31815200  1
  Ni  Ni5  1  0.20821700  0.31574200  0.31808600  1
  Cu  Cu6  1  0.21060500  0.85742500  0.31763000  1
  C  C7  1  0.39108200  0.64404800  0.51926800  1
  C  C8  1  0.71024900  0.09531600  0.31829900  1
  C  C9  1  0.02679000  0.52037800  0.11631800  1
  C  C10  1  0.53129200  0.80434600  0.12661300  1
  C  C11  1  0.88730800  0.35832000  0.50824100  1
  C  C12  1  0.53129800  0.24044100  0.12939400  1
  C  C13  1  0.88746500  0.92305900  0.50735500  1
  C  C14  1  0.95007600  0.28322800  0.79344700  1
  C  C15  1  0.46140400  0.88131100  0.84130500  1
  C  C16  1  0.90030900  0.15371900  0.54909100  1
  C  C17  1  0.93671000  0.08355500  0.75360900  1
  C  C18  1  0.46842500  0.08165200  0.88000300  1
  C  C19  1  0.14386500  0.46730200  0.55394900  1
  C  C20  1  0.04880800  0.56232100  0.23065600  1
  C  C21  1  0.76382000  0.69542400  0.07890100  1
  C  C22  1  0.27517500  0.32150400  0.08445100  1
  C  C23  1  0.14447200  0.84316200  0.55302000  1
  C  C24  1  0.65599200  0.84153400  0.55395500  1
  C  C25  1  0.86996200  0.32371700  0.39910000  1
  C  C26  1  0.97403400  0.30993200  0.89496000  1
  C  C27  1  0.72298900  0.38078400  0.76321000  1
  C  C28  1  0.76380700  0.32177800  0.08326800  1
  C  C29  1  0.24769400  0.78601800  0.87245100  1
  C  C30  1  0.45263900  0.09399500  0.39032500  1
  C  C31  1  0.87344900  0.88942000  0.39861000  1
  C  C32  1  0.69035700  0.78776100  0.87257900  1
  C  C33  1  0.43824800  0.85235500  0.73978200  1
  C  C34  1  0.36832500  0.61237400  0.40491000  1
  C  C35  1  0.54932600  0.27301600  0.23845100  1
  C  C36  1  0.27329000  0.69648100  0.08015000  1
  C  C37  1  0.96771700  0.04997500  0.24609500  1
  C  C38  1  0.54593600  0.83730700  0.23542300  1
  C  C39  1  0.16537100  0.37634200  0.76234500  1
  C  C40  1  0.65307300  0.46687200  0.55478300  1
  C  C41  1  0.51855000  0.01035400  0.08673000  1
