# generated using pymatgen
data_Cu8NiC2
_symmetry_space_group_name_H-M   'P 1'
_cell_length_a   8.39701400
_cell_length_b   9.10644600
_cell_length_c   17.11422600
_cell_angle_alpha   90.00000000
_cell_angle_beta   90.00000000
_cell_angle_gamma   90.00000000
_symmetry_Int_Tables_number   1
_chemical_formula_structural   Cu8NiC2
_chemical_formula_sum   'Cu32 Ni4 C8'
_cell_volume   1308.67274174
_cell_formula_units_Z   4
loop_
 _symmetry_equiv_pos_site_id
 _symmetry_equiv_pos_as_xyz
  1  'x, y, z'
loop_
 _atom_site_type_symbol
 _atom_site_label
 _atom_site_symmetry_multiplicity
 _atom_site_fract_x
 _atom_site_fract_y
 _atom_site_fract_z
 _atom_site_occupancy
  C  C0  1  0.25000000  0.92309700  0.14803900  1
  C  C1  1  0.75000000  0.07690300  0.85196100  1
  C  C2  1  0.75000000  0.42309700  0.35196100  1
  C  C3  1  0.25000000  0.57690300  0.64803900  1
  Ni  Ni4  1  0.75000000  0.78245200  0.42289600  1
  Ni  Ni5  1  0.25000000  0.28245200  0.07710400  1
  Ni  Ni6  1  0.75000000  0.71754800  0.92289600  1
  Ni  Ni7  1  0.25000000  0.21754800  0.57710400  1
  Cu  Cu8  1  0.06093300  0.13267900  0.62961700  1
  Cu  Cu9  1  0.56093300  0.86732100  0.37038300  1
  Cu  Cu10  1  0.75000000  0.21149300  0.96715800  1
  Cu  Cu11  1  0.47831400  0.44515000  0.35908600  1
  Cu  Cu12  1  0.52168600  0.55485000  0.64091400  1
  Cu  Cu13  1  0.43906700  0.13267900  0.62961700  1
  Cu  Cu14  1  0.56093300  0.63267900  0.87038300  1
  Cu  Cu15  1  0.93906700  0.86732100  0.37038300  1
  Cu  Cu16  1  0.52168600  0.94515000  0.14091400  1
  Cu  Cu17  1  0.25000000  0.14037200  0.46892100  1
  Cu  Cu18  1  0.75000000  0.21924600  0.27766700  1
  Cu  Cu19  1  0.75000000  0.57468900  0.24113000  1
  Cu  Cu20  1  0.02168600  0.44515000  0.35908600  1
  Cu  Cu21  1  0.02168600  0.05485000  0.85908600  1
  Cu  Cu22  1  0.97831400  0.55485000  0.64091400  1
  Cu  Cu23  1  0.75000000  0.85962800  0.53107900  1
  Cu  Cu24  1  0.43906700  0.36732100  0.12961700  1
  Cu  Cu25  1  0.06093300  0.36732100  0.12961700  1
  Cu  Cu26  1  0.75000000  0.28850700  0.46715800  1
  Cu  Cu27  1  0.93906700  0.63267900  0.87038300  1
  Cu  Cu28  1  0.25000000  0.78850700  0.03284200  1
  Cu  Cu29  1  0.25000000  0.35962800  0.96892100  1
  Cu  Cu30  1  0.25000000  0.71924600  0.22233300  1
  Cu  Cu31  1  0.75000000  0.92531100  0.74113000  1
  Cu  Cu32  1  0.97831400  0.94515000  0.14091400  1
  Cu  Cu33  1  0.75000000  0.64037200  0.03107900  1
  Cu  Cu34  1  0.25000000  0.78075400  0.72233300  1
  Cu  Cu35  1  0.25000000  0.42531100  0.75887000  1
  Cu  Cu36  1  0.47831400  0.05485000  0.85908600  1
  Cu  Cu37  1  0.25000000  0.07468900  0.25887000  1
  Cu  Cu38  1  0.25000000  0.71149300  0.53284200  1
  Cu  Cu39  1  0.75000000  0.28075400  0.77766700  1
  C  C40  1  0.25000000  0.11815600  0.07512700  1
  C  C41  1  0.75000000  0.88184400  0.92487300  1
  C  C42  1  0.25000000  0.38184400  0.57512700  1
  C  C43  1  0.75000000  0.61815600  0.42487300  1
