# generated using pymatgen
data_Cu4NiC6
_symmetry_space_group_name_H-M   'P 1'
_cell_length_a   25.70921900
_cell_length_b   7.69204400
_cell_length_c   9.97006668
_cell_angle_alpha   49.65782215
_cell_angle_beta   90.00000000
_cell_angle_gamma   90.00000000
_symmetry_Int_Tables_number   1
_chemical_formula_structural   Cu4NiC6
_chemical_formula_sum   'Cu32 Ni8 C48'
_cell_volume   1502.77198051
_cell_formula_units_Z   8
loop_
 _symmetry_equiv_pos_site_id
 _symmetry_equiv_pos_as_xyz
  1  'x, y, z'
loop_
 _atom_site_type_symbol
 _atom_site_label
 _atom_site_symmetry_multiplicity
 _atom_site_fract_x
 _atom_site_fract_y
 _atom_site_fract_z
 _atom_site_occupancy
  C  C0  1  0.99078000  0.91693000  0.32513500  1
  C  C1  1  0.26197900  0.06038600  0.58672100  1
  C  C2  1  0.66374700  0.26518700  0.90060800  1
  C  C3  1  0.09339400  0.40577100  0.13921900  1
  C  C4  1  0.59339400  0.59422900  0.36078100  1
  C  C5  1  0.16374700  0.73481300  0.59939200  1
  C  C6  1  0.90660600  0.59422900  0.86078100  1
  C  C7  1  0.33625300  0.73481300  0.09939200  1
  C  C8  1  0.83625300  0.26518700  0.40060800  1
  C  C9  1  0.40660600  0.40577100  0.63921900  1
  C  C10  1  0.50922000  0.91693000  0.82513500  1
  C  C11  1  0.49078000  0.08307000  0.17486500  1
  C  C12  1  0.00922000  0.08307000  0.67486500  1
  C  C13  1  0.23802100  0.06038600  0.08672100  1
  C  C14  1  0.76197900  0.93961400  0.91327900  1
  C  C15  1  0.73802100  0.93961400  0.41327900  1
  C  C16  1  0.79001200  0.12730500  0.24247500  1
  C  C17  1  0.29001200  0.87269500  0.25752500  1
  C  C18  1  0.70998800  0.12730500  0.74247500  1
  C  C19  1  0.53590600  0.87158200  0.36478200  1
  C  C20  1  0.03590600  0.12841800  0.13521800  1
  C  C21  1  0.20998800  0.87269500  0.75752500  1
  C  C22  1  0.96409400  0.87158200  0.86478200  1
  C  C23  1  0.46409400  0.12841800  0.63521800  1
  Ni  Ni24  1  0.85122500  0.52230400  0.34714500  1
  Ni  Ni25  1  0.14877500  0.47769600  0.65285500  1
  Ni  Ni26  1  0.60914400  0.51919100  0.23620600  1
  Ni  Ni27  1  0.64877500  0.52230400  0.84714500  1
  Ni  Ni28  1  0.89085600  0.51919100  0.73620600  1
  Ni  Ni29  1  0.35122500  0.47769600  0.15285500  1
  Ni  Ni30  1  0.39085600  0.48080900  0.76379400  1
  Ni  Ni31  1  0.10914400  0.48080900  0.26379400  1
  Cu  Cu32  1  0.26472000  0.73561900  0.42477500  1
  Cu  Cu33  1  0.66517900  0.99072300  0.78430800  1
  Cu  Cu34  1  0.88859500  0.51267100  0.00166700  1
  Cu  Cu35  1  0.42287100  0.00583000  0.63302800  1
  Cu  Cu36  1  0.55630800  0.76445700  0.27128000  1
  Cu  Cu37  1  0.92287100  0.99417000  0.86697200  1
  Cu  Cu38  1  0.69911300  0.31060400  0.77530400  1
  Cu  Cu39  1  0.33482100  0.00927700  0.21569200  1
  Cu  Cu40  1  0.99536500  0.70628900  0.01540900  1
  Cu  Cu41  1  0.05630800  0.23554300  0.22872000  1
  Cu  Cu42  1  0.19911300  0.68939600  0.72469600  1
  Cu  Cu43  1  0.35275500  0.91750200  0.97614900  1
  Cu  Cu44  1  0.16517900  0.00927700  0.71569200  1
  Cu  Cu45  1  0.85275500  0.08249800  0.52385100  1
  Cu  Cu46  1  0.30088700  0.68939600  0.22469600  1
  Cu  Cu47  1  0.73528000  0.26438100  0.57522500  1
  Cu  Cu48  1  0.14724500  0.91750200  0.47614900  1
  Cu  Cu49  1  0.00463500  0.29371100  0.98459100  1
  Cu  Cu50  1  0.50463500  0.70628900  0.51540900  1
  Cu  Cu51  1  0.64724500  0.08249800  0.02385100  1
  Cu  Cu52  1  0.76472000  0.26438100  0.07522500  1
  Cu  Cu53  1  0.49536500  0.29371100  0.48459100  1
  Cu  Cu54  1  0.38859500  0.48732900  0.49833300  1
  Cu  Cu55  1  0.83482100  0.99072300  0.28430800  1
  Cu  Cu56  1  0.23528000  0.73561900  0.92477500  1
  Cu  Cu57  1  0.61140500  0.51267100  0.50166700  1
  Cu  Cu58  1  0.57712900  0.99417000  0.36697200  1
  Cu  Cu59  1  0.44369200  0.23554300  0.72872000  1
  Cu  Cu60  1  0.07712900  0.00583000  0.13302800  1
  Cu  Cu61  1  0.94369200  0.76445700  0.77128000  1
  Cu  Cu62  1  0.80088700  0.31060400  0.27530400  1
  Cu  Cu63  1  0.11140500  0.48732900  0.99833300  1
  C  C64  1  0.95656000  0.02676000  0.34833900  1
  C  C65  1  0.77666100  0.79232100  0.89059400  1
  C  C66  1  0.19741600  0.93235000  0.11264600  1
  C  C67  1  0.54344000  0.02676000  0.84833900  1
  C  C68  1  0.98185100  0.23372500  0.52688200  1
  C  C69  1  0.22333900  0.20767900  0.10940600  1
  C  C70  1  0.27666100  0.20767900  0.60940600  1
  C  C71  1  0.04344000  0.97324000  0.65166100  1
  C  C72  1  0.30258400  0.93235000  0.61264600  1
  C  C73  1  0.74286000  0.82474000  0.07611500  1
  C  C74  1  0.80258400  0.06765000  0.88735400  1
  C  C75  1  0.03434800  0.19226700  0.71995600  1
  C  C76  1  0.48185100  0.76627500  0.97311800  1
  C  C77  1  0.24286000  0.17526000  0.42388500  1
  C  C78  1  0.53434800  0.80773300  0.78004400  1
  C  C79  1  0.72333900  0.79232100  0.39059400  1
  C  C80  1  0.46565200  0.19226700  0.21995600  1
  C  C81  1  0.75714000  0.82474000  0.57611500  1
  C  C82  1  0.01814900  0.76627500  0.47311800  1
  C  C83  1  0.25714000  0.17526000  0.92388500  1
  C  C84  1  0.96565200  0.80773300  0.28004400  1
  C  C85  1  0.69741600  0.06765000  0.38735400  1
  C  C86  1  0.45656000  0.97324000  0.15166100  1
  C  C87  1  0.51814900  0.23372500  0.02688200  1
