# generated using pymatgen
data_CuNi8C5
_symmetry_space_group_name_H-M   'P 1'
_cell_length_a   8.82741794
_cell_length_b   8.82741794
_cell_length_c   11.09180241
_cell_angle_alpha   83.73882290
_cell_angle_beta   83.73882290
_cell_angle_gamma   52.64815786
_symmetry_Int_Tables_number   1
_chemical_formula_structural   CuNi8C5
_chemical_formula_sum   'Cu2 Ni16 C10'
_cell_volume   681.95624259
_cell_formula_units_Z   2
loop_
 _symmetry_equiv_pos_site_id
 _symmetry_equiv_pos_as_xyz
  1  'x, y, z'
loop_
 _atom_site_type_symbol
 _atom_site_label
 _atom_site_symmetry_multiplicity
 _atom_site_fract_x
 _atom_site_fract_y
 _atom_site_fract_z
 _atom_site_occupancy
  C  C0  1  0.07273200  0.31137700  0.81467300  1
  C  C1  1  0.68862300  0.92726800  0.68532700  1
  C  C2  1  0.31137700  0.07273200  0.31467300  1
  C  C3  1  0.61756900  0.38243100  0.25000000  1
  C  C4  1  0.92726800  0.68862300  0.18532700  1
  C  C5  1  0.38243100  0.61756900  0.75000000  1
  C  C6  1  0.37102800  0.30841100  0.03001100  1
  C  C7  1  0.62897200  0.69158900  0.96998900  1
  C  C8  1  0.69158900  0.62897200  0.46998900  1
  C  C9  1  0.30841100  0.37102800  0.53001100  1
  Ni  Ni10  1  0.72023100  0.41100800  0.94885800  1
  Ni  Ni11  1  0.44115900  0.26173500  0.84149000  1
  Ni  Ni12  1  0.89380500  0.40003700  0.35796800  1
  Ni  Ni13  1  0.40003700  0.89380500  0.85796800  1
  Ni  Ni14  1  0.73826500  0.55884100  0.65851000  1
  Ni  Ni15  1  0.27976900  0.58899200  0.05114200  1
  Ni  Ni16  1  0.85773900  0.70947700  0.91540700  1
  Ni  Ni17  1  0.26173500  0.44115900  0.34149000  1
  Ni  Ni18  1  0.58899200  0.27976900  0.55114200  1
  Ni  Ni19  1  0.29052300  0.14226100  0.58459300  1
  Ni  Ni20  1  0.14226100  0.29052300  0.08459300  1
  Ni  Ni21  1  0.41100800  0.72023100  0.44885800  1
  Ni  Ni22  1  0.70947700  0.85773900  0.41540700  1
  Ni  Ni23  1  0.59996300  0.10619500  0.14203200  1
  Ni  Ni24  1  0.10619500  0.59996300  0.64203200  1
  Ni  Ni25  1  0.55884100  0.73826500  0.15851000  1
  Cu  Cu26  1  0.00432800  0.99567200  0.75000000  1
  Cu  Cu27  1  0.99567200  0.00432800  0.25000000  1
