# generated using pymatgen
data_Cu(NiC11)3
_symmetry_space_group_name_H-M   'P 1'
_cell_length_a   8.99925056
_cell_length_b   8.99651092
_cell_length_c   18.01403426
_cell_angle_alpha   58.47334077
_cell_angle_beta   58.44973777
_cell_angle_gamma   58.42588095
_symmetry_Int_Tables_number   1
_chemical_formula_structural   Cu(NiC11)3
_chemical_formula_sum   'Cu2 Ni6 C66'
_cell_volume   994.69409753
_cell_formula_units_Z   2
loop_
 _symmetry_equiv_pos_site_id
 _symmetry_equiv_pos_as_xyz
  1  'x, y, z'
loop_
 _atom_site_type_symbol
 _atom_site_label
 _atom_site_symmetry_multiplicity
 _atom_site_fract_x
 _atom_site_fract_y
 _atom_site_fract_z
 _atom_site_occupancy
  C  C0  1  0.99966600  0.99791300  0.00084900  1
  C  C1  1  0.02033900  0.00362300  0.49208600  1
  C  C2  1  0.49647200  0.52369400  0.23749100  1
  C  C3  1  0.59468500  0.24124800  0.44177900  1
  C  C4  1  0.46956000  0.49994200  0.76139100  1
  C  C5  1  0.87446000  0.59803000  0.62049500  1
  Ni  Ni6  1  0.34957000  0.35012000  0.18045600  1
  Ni  Ni7  1  0.14598100  0.14120600  0.57415400  1
  Ni  Ni8  1  0.35713400  0.35223100  0.67541200  1
  Ni  Ni9  1  0.64900300  0.65654600  0.32439000  1
  Ni  Ni10  1  0.85659500  0.84751300  0.41885100  1
  Ni  Ni11  1  0.64605400  0.64711400  0.82557900  1
  Cu  Cu12  1  0.14800900  0.14606100  0.07545100  1
  Cu  Cu13  1  0.85004200  0.84964100  0.92602500  1
  C  C14  1  0.04764300  0.74627500  0.22610900  1
  C  C15  1  0.45579100  0.05162100  0.37482600  1
  C  C16  1  0.74523400  0.45164900  0.02461600  1
  C  C17  1  0.25030400  0.54552000  0.47800800  1
  C  C18  1  0.54764000  0.95147400  0.12780400  1
  C  C19  1  0.04603500  0.74672600  0.72278800  1
  C  C20  1  0.94918600  0.25197200  0.27608100  1
  C  C21  1  0.45152000  0.04877600  0.87307900  1
  C  C22  1  0.75004000  0.45069700  0.52435600  1
  C  C23  1  0.25398100  0.54518200  0.97704600  1
  C  C24  1  0.54317400  0.95280900  0.62635200  1
  C  C25  1  0.95873100  0.24991700  0.77140100  1
  C  C26  1  0.97035600  0.21544200  0.19846500  1
  C  C27  1  0.20741400  0.39854300  0.98525100  1
  C  C28  1  0.40084300  0.96814700  0.10450900  1
  C  C29  1  0.10708800  0.29125000  0.25601100  1
  C  C30  1  0.29312400  0.49757000  0.05724700  1
  C  C31  1  0.06177900  0.91027300  0.13628500  1
  C  C32  1  0.49898400  0.11148800  0.14816000  1
  C  C33  1  0.22590600  0.59028800  0.21281600  1
  C  C34  1  0.28097800  0.06789100  0.45604300  1
  C  C35  1  0.98956800  0.20972800  0.69379000  1
  C  C36  1  0.43201700  0.22697800  0.29475200  1
  C  C37  1  0.58740300  0.42483400  0.11150200  1
  C  C38  1  0.21848400  0.38219800  0.49569100  1
  C  C39  1  0.08228900  0.71608400  0.46882300  1
  C  C40  1  0.38875400  0.98833800  0.60471200  1
  C  C41  1  0.11289300  0.29234000  0.75431300  1
  C  C42  1  0.90999500  0.27495700  0.03036800  1
  C  C43  1  0.41234300  0.56838900  0.39058400  1
  C  C44  1  0.28637800  0.51637000  0.55659600  1
  C  C45  1  0.57496000  0.77588800  0.20640800  1
  C  C46  1  0.06437100  0.91073600  0.63735200  1
  C  C47  1  0.72449700  0.93949500  0.04520300  1
  C  C48  1  0.51302900  0.10923500  0.64511000  1
  C  C49  1  0.22170000  0.58714600  0.71351400  1
  C  C50  1  0.77018700  0.40896000  0.29146600  1
  C  C51  1  0.49964000  0.89294200  0.35362700  1
  C  C52  1  0.27396600  0.06032400  0.95494700  1
  C  C53  1  0.92863200  0.08736000  0.36323400  1
  C  C54  1  0.42580700  0.22470900  0.79483500  1
  C  C55  1  0.70424900  0.48573200  0.44738100  1
  C  C56  1  0.59040400  0.43094000  0.61270400  1
  C  C57  1  0.09017800  0.72338900  0.96943600  1
  C  C58  1  0.89410900  0.70072700  0.24513000  1
  C  C59  1  0.60883300  0.02521500  0.39682000  1
  C  C60  1  0.91328100  0.27684800  0.53326400  1
  C  C61  1  0.79467000  0.60750300  0.50647100  1
  C  C62  1  0.41241900  0.57123900  0.88944700  1
  C  C63  1  0.57179100  0.77324500  0.70494800  1
  C  C64  1  0.01737300  0.79671600  0.29990800  1
  C  C65  1  0.72122800  0.93055300  0.54404200  1
  C  C66  1  0.78168000  0.41285600  0.78137800  1
  C  C67  1  0.50027100  0.89008100  0.85138100  1
  C  C68  1  0.93726900  0.08874300  0.86072100  1
  C  C69  1  0.70660000  0.50076200  0.94377600  1
  C  C70  1  0.89077100  0.70364800  0.74009100  1
  C  C71  1  0.59701100  0.02902800  0.89813300  1
  C  C72  1  0.79086600  0.59854400  0.01686800  1
  C  C73  1  0.01376200  0.78682700  0.80211100  1
