# generated using pymatgen
data_CuNiC5
_symmetry_space_group_name_H-M   'P 1'
_cell_length_a   8.84417592
_cell_length_b   8.84417592
_cell_length_c   8.36032600
_cell_angle_alpha   90.00000000
_cell_angle_beta   90.00000000
_cell_angle_gamma   119.99999941
_symmetry_Int_Tables_number   1
_chemical_formula_structural   CuNiC5
_chemical_formula_sum   'Cu6 Ni6 C30'
_cell_volume   566.32872734
_cell_formula_units_Z   6
loop_
 _symmetry_equiv_pos_site_id
 _symmetry_equiv_pos_as_xyz
  1  'x, y, z'
loop_
 _atom_site_type_symbol
 _atom_site_label
 _atom_site_symmetry_multiplicity
 _atom_site_fract_x
 _atom_site_fract_y
 _atom_site_fract_z
 _atom_site_occupancy
  C  C0  1  0.66666700  0.33333300  0.06333400  1
  C  C1  1  0.00000000  0.00000000  0.06941600  1
  C  C2  1  0.33333300  0.66666700  0.56333400  1
  C  C3  1  0.66666700  0.33333300  0.49079600  1
  C  C4  1  0.00000000  0.00000000  0.56941600  1
  C  C5  1  0.33333300  0.66666700  0.99079600  1
  Ni  Ni6  1  0.31527100  0.34280200  0.25021400  1
  Ni  Ni7  1  0.68472900  0.65719800  0.75021400  1
  Ni  Ni8  1  0.02753100  0.68472900  0.25021400  1
  Ni  Ni9  1  0.65719800  0.97246900  0.25021400  1
  Ni  Ni10  1  0.97246900  0.31527100  0.75021400  1
  Ni  Ni11  1  0.34280200  0.02753100  0.75021400  1
  Cu  Cu12  1  0.97529800  0.31698900  0.36517400  1
  Cu  Cu13  1  0.68301100  0.65830900  0.36517400  1
  Cu  Cu14  1  0.31698900  0.34169100  0.86517400  1
  Cu  Cu15  1  0.65830900  0.97529800  0.86517400  1
  Cu  Cu16  1  0.34169100  0.02470200  0.36517400  1
  Cu  Cu17  1  0.02470200  0.68301100  0.86517400  1
  C  C18  1  0.40925400  0.22050200  0.87970600  1
  C  C19  1  0.61877800  0.88623500  0.04413900  1
  C  C20  1  0.18875200  0.40925400  0.37970600  1
  C  C21  1  0.59074600  0.77949800  0.37970600  1
  C  C22  1  0.81124800  0.59074600  0.87970600  1
  C  C23  1  0.44630900  0.53348000  0.78247000  1
  C  C24  1  0.86686400  0.76150300  0.26414800  1
  C  C25  1  0.08717000  0.55369100  0.78247000  1
  C  C26  1  0.26745700  0.38122200  0.04413900  1
  C  C27  1  0.89463900  0.13313600  0.26414800  1
  C  C28  1  0.77949800  0.18875200  0.87970600  1
  C  C29  1  0.38122200  0.11376500  0.54413900  1
  C  C30  1  0.76150300  0.89463900  0.76414800  1
  C  C31  1  0.22050200  0.81124800  0.37970600  1
  C  C32  1  0.11376500  0.73254300  0.04413900  1
  C  C33  1  0.10536100  0.86686400  0.76414800  1
  C  C34  1  0.55369100  0.46652000  0.28247000  1
  C  C35  1  0.91283000  0.44630900  0.28247000  1
  C  C36  1  0.46652000  0.91283000  0.78247000  1
  C  C37  1  0.88623500  0.26745700  0.54413900  1
  C  C38  1  0.23849700  0.10536100  0.26414800  1
  C  C39  1  0.13313600  0.23849700  0.76414800  1
  C  C40  1  0.53348000  0.08717000  0.28247000  1
  C  C41  1  0.73254300  0.61877800  0.54413900  1
