# generated using pymatgen
data_Cu2(Ni2C7)3
_symmetry_space_group_name_H-M   'P 1'
_cell_length_a   5.92056775
_cell_length_b   5.92056775
_cell_length_c   30.11224700
_cell_angle_alpha   90.00000000
_cell_angle_beta   90.00000000
_cell_angle_gamma   119.99999717
_symmetry_Int_Tables_number   1
_chemical_formula_structural   Cu2(Ni2C7)3
_chemical_formula_sum   'Cu4 Ni12 C42'
_cell_volume   914.11433188
_cell_formula_units_Z   2
loop_
 _symmetry_equiv_pos_site_id
 _symmetry_equiv_pos_as_xyz
  1  'x, y, z'
loop_
 _atom_site_type_symbol
 _atom_site_label
 _atom_site_symmetry_multiplicity
 _atom_site_fract_x
 _atom_site_fract_y
 _atom_site_fract_z
 _atom_site_occupancy
  Ni  Ni0  1  0.33333300  0.66666700  0.17970700  1
  Ni  Ni1  1  0.66666700  0.33333300  0.67970700  1
  Ni  Ni2  1  0.66666700  0.33333300  0.82029300  1
  Ni  Ni3  1  0.33333300  0.66666700  0.32029300  1
  Ni  Ni4  1  0.33333300  0.66666700  0.59192000  1
  Ni  Ni5  1  0.66666700  0.33333300  0.09192000  1
  Ni  Ni6  1  0.66666700  0.33333300  0.40808000  1
  Ni  Ni7  1  0.33333300  0.66666700  0.90808000  1
  Ni  Ni8  1  0.00000000  0.00000000  0.00000000  1
  Ni  Ni9  1  0.00000000  0.00000000  0.50000000  1
  Ni  Ni10  1  0.00000000  0.00000000  0.25000000  1
  Ni  Ni11  1  0.00000000  0.00000000  0.75000000  1
  Cu  Cu12  1  0.00000000  0.00000000  0.12431500  1
  Cu  Cu13  1  0.00000000  0.00000000  0.62431500  1
  Cu  Cu14  1  0.00000000  0.00000000  0.87568500  1
  Cu  Cu15  1  0.00000000  0.00000000  0.37568500  1
  C  C16  1  0.33333300  0.66666700  0.05231200  1
  C  C17  1  0.66666700  0.33333300  0.55231200  1
  C  C18  1  0.66666700  0.33333300  0.94768800  1
  C  C19  1  0.33333300  0.66666700  0.44768800  1
  C  C20  1  0.33333300  0.66666700  0.70373000  1
  C  C21  1  0.66666700  0.33333300  0.20373000  1
  C  C22  1  0.66666700  0.33333300  0.29627000  1
  C  C23  1  0.33333300  0.66666700  0.79627000  1
  C  C24  1  0.17648200  0.35296400  0.42685600  1
  C  C25  1  0.82351800  0.17648200  0.92685600  1
  C  C26  1  0.35296400  0.17648200  0.92685600  1
  C  C27  1  0.64703600  0.82351800  0.42685600  1
  C  C28  1  0.17648200  0.82351800  0.42685600  1
  C  C29  1  0.82351800  0.64703600  0.57314400  1
  C  C30  1  0.82351800  0.17648200  0.57314400  1
  C  C31  1  0.82351800  0.64703600  0.92685600  1
  C  C32  1  0.35296400  0.17648200  0.57314400  1
  C  C33  1  0.64703600  0.82351800  0.07314400  1
  C  C34  1  0.17648200  0.35296400  0.07314400  1
  C  C35  1  0.17648200  0.82351800  0.07314400  1
  C  C36  1  0.17679300  0.35358600  0.83011500  1
  C  C37  1  0.82320700  0.17679300  0.33011500  1
  C  C38  1  0.35358600  0.17679300  0.33011500  1
  C  C39  1  0.64641400  0.82320700  0.83011500  1
  C  C40  1  0.17679300  0.82320700  0.83011500  1
  C  C41  1  0.82320700  0.64641400  0.16988500  1
  C  C42  1  0.82320700  0.17679300  0.16988500  1
  C  C43  1  0.82320700  0.64641400  0.33011500  1
  C  C44  1  0.35358600  0.17679300  0.16988500  1
  C  C45  1  0.64641400  0.82320700  0.66988500  1
  C  C46  1  0.17679300  0.35358600  0.66988500  1
  C  C47  1  0.17679300  0.82320700  0.66988500  1
  C  C48  1  0.51372900  0.02745900  0.25000000  1
  C  C49  1  0.48627100  0.51372900  0.75000000  1
  C  C50  1  0.02745900  0.51372900  0.75000000  1
  C  C51  1  0.97254100  0.48627100  0.25000000  1
  C  C52  1  0.51372900  0.48627100  0.25000000  1
  C  C53  1  0.48627100  0.97254100  0.75000000  1
  C  C54  1  0.33333300  0.66666700  0.50394600  1
  C  C55  1  0.66666700  0.33333300  0.00394600  1
  C  C56  1  0.66666700  0.33333300  0.49605400  1
  C  C57  1  0.33333300  0.66666700  0.99605400  1
