# generated using pymatgen
data_Cu3NiC3
_symmetry_space_group_name_H-M   'P 1'
_cell_length_a   7.85329841
_cell_length_b   7.85329841
_cell_length_c   18.85966100
_cell_angle_alpha   90.00000000
_cell_angle_beta   90.00000000
_cell_angle_gamma   120.08547607
_symmetry_Int_Tables_number   1
_chemical_formula_structural   Cu3NiC3
_chemical_formula_sum   'Cu24 Ni8 C24'
_cell_volume   1006.45417506
_cell_formula_units_Z   8
loop_
 _symmetry_equiv_pos_site_id
 _symmetry_equiv_pos_as_xyz
  1  'x, y, z'
loop_
 _atom_site_type_symbol
 _atom_site_label
 _atom_site_symmetry_multiplicity
 _atom_site_fract_x
 _atom_site_fract_y
 _atom_site_fract_z
 _atom_site_occupancy
  C  C0  1  0.73541700  0.74238500  0.73165300  1
  C  C1  1  0.26458300  0.25761500  0.23165300  1
  C  C2  1  0.75428800  0.24571200  0.77656000  1
  C  C3  1  0.74639300  0.25360700  0.22199200  1
  C  C4  1  0.74238500  0.73541700  0.23165300  1
  C  C5  1  0.25360700  0.74639300  0.72199200  1
  C  C6  1  0.25761500  0.26458300  0.73165300  1
  C  C7  1  0.24571200  0.75428800  0.27656000  1
  C  C8  1  0.57793700  0.89771000  0.58224700  1
  C  C9  1  0.42206300  0.10229000  0.08224700  1
  C  C10  1  0.89771000  0.57793700  0.08224700  1
  C  C11  1  0.08343400  0.91656600  0.58021100  1
  C  C12  1  0.39826100  0.07625500  0.41902600  1
  C  C13  1  0.57912800  0.42087200  0.92178500  1
  C  C14  1  0.91656600  0.08343400  0.08021100  1
  C  C15  1  0.57499700  0.42500300  0.58357600  1
  C  C16  1  0.42087200  0.57912800  0.42178500  1
  C  C17  1  0.42500300  0.57499700  0.08357600  1
  C  C18  1  0.92374500  0.60173900  0.41902600  1
  C  C19  1  0.60173900  0.92374500  0.91902600  1
  C  C20  1  0.07075400  0.92924600  0.91929400  1
  C  C21  1  0.07625500  0.39826100  0.91902600  1
  C  C22  1  0.92924600  0.07075400  0.41929400  1
  C  C23  1  0.10229000  0.42206300  0.58224700  1
  Ni  Ni24  1  0.41269500  0.58730500  0.77213700  1
  Ni  Ni25  1  0.91441100  0.08558900  0.72834400  1
  Ni  Ni26  1  0.58088900  0.91514300  0.24729600  1
  Ni  Ni27  1  0.08485700  0.41911100  0.24729600  1
  Ni  Ni28  1  0.08558900  0.91441100  0.22834400  1
  Ni  Ni29  1  0.91514300  0.58088900  0.74729600  1
  Ni  Ni30  1  0.41911100  0.08485700  0.74729600  1
  Ni  Ni31  1  0.58730500  0.41269500  0.27213700  1
  Cu  Cu32  1  0.45731900  0.16775300  0.97869900  1
  Cu  Cu33  1  0.83224700  0.54268100  0.97869900  1
  Cu  Cu34  1  0.04470900  0.95529100  0.02515800  1
  Cu  Cu35  1  0.16775300  0.45731900  0.47869900  1
  Cu  Cu36  1  0.45257300  0.54742700  0.97900700  1
  Cu  Cu37  1  0.96035600  0.66260600  0.52389000  1
  Cu  Cu38  1  0.66932100  0.70755900  0.61188100  1
  Cu  Cu39  1  0.83454200  0.79130000  0.39431900  1
  Cu  Cu40  1  0.16545800  0.20870000  0.89431900  1
  Cu  Cu41  1  0.54268100  0.83224700  0.47869900  1
  Cu  Cu42  1  0.95529100  0.04470900  0.52515800  1
  Cu  Cu43  1  0.66260600  0.96035600  0.02389000  1
  Cu  Cu44  1  0.29244100  0.33067900  0.61188100  1
  Cu  Cu45  1  0.54742700  0.45257300  0.47900700  1
  Cu  Cu46  1  0.20870000  0.16545800  0.39431900  1
  Cu  Cu47  1  0.33739400  0.03964400  0.52389000  1
  Cu  Cu48  1  0.29381800  0.70618200  0.61244500  1
  Cu  Cu49  1  0.70755900  0.66932100  0.11188100  1
  Cu  Cu50  1  0.03964400  0.33739400  0.02389000  1
  Cu  Cu51  1  0.79017400  0.20982600  0.88805200  1
  Cu  Cu52  1  0.33067900  0.29244100  0.11188100  1
  Cu  Cu53  1  0.20982600  0.79017400  0.38805200  1
  Cu  Cu54  1  0.70618200  0.29381800  0.11244500  1
  Cu  Cu55  1  0.79130000  0.83454200  0.89431900  1
