# generated using pymatgen
data_Cu3Ni8C5
_symmetry_space_group_name_H-M   'P 1'
_cell_length_a   8.65380432
_cell_length_b   8.65380432
_cell_length_c   8.30392041
_cell_angle_alpha   66.56926724
_cell_angle_beta   66.56926724
_cell_angle_gamma   47.67354479
_symmetry_Int_Tables_number   1
_chemical_formula_structural   Cu3Ni8C5
_chemical_formula_sum   'Cu6 Ni16 C10'
_cell_volume   414.04250878
_cell_formula_units_Z   2
loop_
 _symmetry_equiv_pos_site_id
 _symmetry_equiv_pos_as_xyz
  1  'x, y, z'
loop_
 _atom_site_type_symbol
 _atom_site_label
 _atom_site_symmetry_multiplicity
 _atom_site_fract_x
 _atom_site_fract_y
 _atom_site_fract_z
 _atom_site_occupancy
  C  C0  1  0.61780300  0.38219700  0.25000000  1
  C  C1  1  0.38219700  0.61780300  0.75000000  1
  C  C2  1  0.78900800  0.97130100  0.96213800  1
  C  C3  1  0.02869900  0.21099200  0.53786200  1
  C  C4  1  0.97130100  0.78900800  0.46213800  1
  C  C5  1  0.21099200  0.02869900  0.03786200  1
  C  C6  1  0.40756300  0.23397300  0.66121100  1
  C  C7  1  0.59243700  0.76602700  0.33878900  1
  C  C8  1  0.76602700  0.59243700  0.83878900  1
  C  C9  1  0.23397300  0.40756300  0.16121100  1
  Ni  Ni10  1  0.84578800  0.54360600  0.65554900  1
  Ni  Ni11  1  0.39430200  0.86993700  0.47373000  1
  Ni  Ni12  1  0.86993700  0.39430200  0.97373000  1
  Ni  Ni13  1  0.82347700  0.72745300  0.82051900  1
  Ni  Ni14  1  0.70730800  0.53256900  0.38881700  1
  Ni  Ni15  1  0.15421200  0.45639400  0.34445100  1
  Ni  Ni16  1  0.45639400  0.15421200  0.84445100  1
  Ni  Ni17  1  0.29269200  0.46743100  0.61118300  1
  Ni  Ni18  1  0.13006300  0.60569800  0.02627000  1
  Ni  Ni19  1  0.72745300  0.82347700  0.32051900  1
  Ni  Ni20  1  0.46743100  0.29269200  0.11118300  1
  Ni  Ni21  1  0.27254700  0.17652300  0.67948100  1
  Ni  Ni22  1  0.53256900  0.70730800  0.88881700  1
  Ni  Ni23  1  0.60569800  0.13006300  0.52627000  1
  Ni  Ni24  1  0.54360600  0.84578800  0.15554900  1
  Ni  Ni25  1  0.17652300  0.27254700  0.17948100  1
  Cu  Cu26  1  0.89737700  0.01241500  0.16009200  1
  Cu  Cu27  1  0.01241500  0.89737700  0.66009200  1
  Cu  Cu28  1  0.10262300  0.98758500  0.83990800  1
  Cu  Cu29  1  0.98758500  0.10262300  0.33990800  1
  Cu  Cu30  1  0.28386800  0.71613200  0.25000000  1
  Cu  Cu31  1  0.71613200  0.28386800  0.75000000  1
