# generated using pymatgen
data_Cu(NiC)4
_symmetry_space_group_name_H-M   'P 1'
_cell_length_a   5.71498000
_cell_length_b   7.65141500
_cell_length_c   13.08383600
_cell_angle_alpha   90.00000000
_cell_angle_beta   90.00000000
_cell_angle_gamma   90.00000000
_symmetry_Int_Tables_number   1
_chemical_formula_structural   Cu(NiC)4
_chemical_formula_sum   'Cu4 Ni16 C16'
_cell_volume   572.12584215
_cell_formula_units_Z   4
loop_
 _symmetry_equiv_pos_site_id
 _symmetry_equiv_pos_as_xyz
  1  'x, y, z'
loop_
 _atom_site_type_symbol
 _atom_site_label
 _atom_site_symmetry_multiplicity
 _atom_site_fract_x
 _atom_site_fract_y
 _atom_site_fract_z
 _atom_site_occupancy
  C  C0  1  0.77472400  0.45834000  0.81978300  1
  C  C1  1  0.22527600  0.95834000  0.18021700  1
  C  C2  1  0.27640400  0.75000000  0.39230600  1
  C  C3  1  0.72527600  0.54166000  0.31978300  1
  C  C4  1  0.77472400  0.04166000  0.81978300  1
  C  C5  1  0.77640400  0.75000000  0.10769400  1
  C  C6  1  0.72359600  0.25000000  0.60769400  1
  C  C7  1  0.27472400  0.45834000  0.68021700  1
  C  C8  1  0.22359600  0.25000000  0.89230600  1
  C  C9  1  0.72527600  0.95834000  0.31978300  1
  C  C10  1  0.27472400  0.04166000  0.68021700  1
  C  C11  1  0.22527600  0.54166000  0.18021700  1
  C  C12  1  0.28839900  0.75000000  0.91570800  1
  C  C13  1  0.78839900  0.75000000  0.58429200  1
  C  C14  1  0.21160100  0.25000000  0.41570800  1
  C  C15  1  0.71160100  0.25000000  0.08429200  1
  Ni  Ni16  1  0.31367700  0.44354700  0.34876600  1
  Ni  Ni17  1  0.67358600  0.75000000  0.45496500  1
  Ni  Ni18  1  0.18632300  0.55645300  0.84876600  1
  Ni  Ni19  1  0.18632300  0.94354700  0.84876600  1
  Ni  Ni20  1  0.89245700  0.25000000  0.42062700  1
  Ni  Ni21  1  0.81367700  0.05645300  0.15123400  1
  Ni  Ni22  1  0.10754300  0.75000000  0.57937300  1
  Ni  Ni23  1  0.39245700  0.25000000  0.07937300  1
  Ni  Ni24  1  0.81367700  0.44354700  0.15123400  1
  Ni  Ni25  1  0.68632300  0.94354700  0.65123400  1
  Ni  Ni26  1  0.82641400  0.25000000  0.95496500  1
  Ni  Ni27  1  0.60754300  0.75000000  0.92062700  1
  Ni  Ni28  1  0.32641400  0.25000000  0.54503500  1
  Ni  Ni29  1  0.68632300  0.55645300  0.65123400  1
  Ni  Ni30  1  0.17358600  0.75000000  0.04503500  1
  Ni  Ni31  1  0.31367700  0.05645300  0.34876600  1
  Cu  Cu32  1  0.00254000  0.25000000  0.73041000  1
  Cu  Cu33  1  0.99746000  0.75000000  0.26959000  1
  Cu  Cu34  1  0.49746000  0.75000000  0.23041000  1
  Cu  Cu35  1  0.50254000  0.25000000  0.76959000  1
