# generated using pymatgen
data_Cu2NiC3
_symmetry_space_group_name_H-M   'P 1'
_cell_length_a   4.07508164
_cell_length_b   4.07508164
_cell_length_c   9.83491884
_cell_angle_alpha   78.04319645
_cell_angle_beta   78.04319645
_cell_angle_gamma   60.00000586
_symmetry_Int_Tables_number   1
_chemical_formula_structural   Cu2NiC3
_chemical_formula_sum   'Cu2 Ni1 C3'
_cell_volume   137.33377498
_cell_formula_units_Z   1
loop_
 _symmetry_equiv_pos_site_id
 _symmetry_equiv_pos_as_xyz
  1  'x, y, z'
loop_
 _atom_site_type_symbol
 _atom_site_label
 _atom_site_symmetry_multiplicity
 _atom_site_fract_x
 _atom_site_fract_y
 _atom_site_fract_z
 _atom_site_occupancy
  C  C0  1  0.25299900  0.25299900  0.24100300  1
  C  C1  1  0.74700100  0.74700100  0.75899700  1
  C  C2  1  0.50000000  0.50000000  0.50000000  1
  Ni  Ni3  1  0.00000000  0.00000000  0.00000000  1
  Cu  Cu4  1  0.43638800  0.43638800  0.69083600  1
  Cu  Cu5  1  0.56361200  0.56361200  0.30916400  1
