# generated using pymatgen
data_Cu2Ni3C5
_symmetry_space_group_name_H-M   'P 1'
_cell_length_a   9.25542600
_cell_length_b   6.46279800
_cell_length_c   18.21867388
_cell_angle_alpha   87.04103254
_cell_angle_beta   90.00000000
_cell_angle_gamma   90.00000000
_symmetry_Int_Tables_number   1
_chemical_formula_structural   Cu2Ni3C5
_chemical_formula_sum   'Cu8 Ni12 C20'
_cell_volume   1088.31433892
_cell_formula_units_Z   4
loop_
 _symmetry_equiv_pos_site_id
 _symmetry_equiv_pos_as_xyz
  1  'x, y, z'
loop_
 _atom_site_type_symbol
 _atom_site_label
 _atom_site_symmetry_multiplicity
 _atom_site_fract_x
 _atom_site_fract_y
 _atom_site_fract_z
 _atom_site_occupancy
  C  C0  1  0.25647200  0.78287400  0.23978400  1
  C  C1  1  0.39688400  0.99156800  0.10557000  1
  C  C2  1  0.15697500  0.53462300  0.18621500  1
  C  C3  1  0.74352800  0.21712600  0.76021600  1
  C  C4  1  0.60311600  0.00843200  0.89443000  1
  C  C5  1  0.75647200  0.21712600  0.26021600  1
  C  C6  1  0.75699700  0.34992900  0.46869900  1
  C  C7  1  0.89688400  0.00843200  0.39443000  1
  C  C8  1  0.24300300  0.65007100  0.53130100  1
  C  C9  1  0.65697500  0.46537700  0.31378500  1
  C  C10  1  0.10311600  0.99156800  0.60557000  1
  C  C11  1  0.34302500  0.53462300  0.68621500  1
  C  C12  1  0.74300300  0.34992900  0.96869900  1
  C  C13  1  0.24352800  0.78287400  0.73978400  1
  C  C14  1  0.84302500  0.46537700  0.81378500  1
  C  C15  1  0.25699700  0.65007100  0.03130100  1
  C  C16  1  0.70985300  0.77628600  0.62779500  1
  C  C17  1  0.29014700  0.22371400  0.37220500  1
  C  C18  1  0.20985300  0.22371400  0.87220500  1
  C  C19  1  0.79014700  0.77628600  0.12779500  1
  Ni  Ni20  1  0.85067900  0.14774100  0.45946200  1
  Ni  Ni21  1  0.31003500  0.54398500  0.60165300  1
  Ni  Ni22  1  0.81003500  0.45601500  0.89834700  1
  Ni  Ni23  1  0.35067900  0.85225900  0.04053800  1
  Ni  Ni24  1  0.34285800  0.92872300  0.18404400  1
  Ni  Ni25  1  0.68996500  0.45601500  0.39834700  1
  Ni  Ni26  1  0.84285800  0.07127700  0.31595600  1
  Ni  Ni27  1  0.14932100  0.85225900  0.54053800  1
  Ni  Ni28  1  0.18996500  0.54398500  0.10165300  1
  Ni  Ni29  1  0.64932100  0.14774100  0.95946200  1
  Ni  Ni30  1  0.65714200  0.07127700  0.81595600  1
  Ni  Ni31  1  0.15714200  0.92872300  0.68404400  1
  Cu  Cu32  1  0.08884000  0.51019600  0.34720800  1
  Cu  Cu33  1  0.91116000  0.48980400  0.65279200  1
  Cu  Cu34  1  0.58884000  0.48980400  0.15279200  1
  Cu  Cu35  1  0.41116000  0.51019600  0.84720800  1
  Cu  Cu36  1  0.48178200  0.95300800  0.39232200  1
  Cu  Cu37  1  0.51821800  0.04699200  0.60767800  1
  Cu  Cu38  1  0.01821800  0.95300800  0.89232200  1
  Cu  Cu39  1  0.98178200  0.04699200  0.10767800  1
