# generated using pymatgen
data_Cu7(Ni2C)2
_symmetry_space_group_name_H-M   'P 1'
_cell_length_a   4.05059400
_cell_length_b   11.31528800
_cell_length_c   19.81063100
_cell_angle_alpha   90.00000000
_cell_angle_beta   90.00000000
_cell_angle_gamma   90.00000000
_symmetry_Int_Tables_number   1
_chemical_formula_structural   Cu7(Ni2C)2
_chemical_formula_sum   'Cu28 Ni16 C8'
_cell_volume   907.99328349
_cell_formula_units_Z   4
loop_
 _symmetry_equiv_pos_site_id
 _symmetry_equiv_pos_as_xyz
  1  'x, y, z'
loop_
 _atom_site_type_symbol
 _atom_site_label
 _atom_site_symmetry_multiplicity
 _atom_site_fract_x
 _atom_site_fract_y
 _atom_site_fract_z
 _atom_site_occupancy
  C  C0  1  0.25000000  0.97875700  0.71763100  1
  C  C1  1  0.25000000  0.52124300  0.21763100  1
  C  C2  1  0.75000000  0.47875700  0.78236900  1
  C  C3  1  0.75000000  0.24312600  0.47107600  1
  C  C4  1  0.25000000  0.74312600  0.02892400  1
  C  C5  1  0.25000000  0.75687400  0.52892400  1
  C  C6  1  0.75000000  0.25687400  0.97107600  1
  C  C7  1  0.75000000  0.02124300  0.28236900  1
  Ni  Ni8  1  0.25000000  0.79953500  0.24517000  1
  Ni  Ni9  1  0.75000000  0.57522400  0.58650800  1
  Ni  Ni10  1  0.25000000  0.42477600  0.41349200  1
  Ni  Ni11  1  0.75000000  0.20046500  0.75483000  1
  Ni  Ni12  1  0.75000000  0.74796900  0.90552500  1
  Ni  Ni13  1  0.25000000  0.06141400  0.41469200  1
  Ni  Ni14  1  0.25000000  0.24796900  0.59447500  1
  Ni  Ni15  1  0.25000000  0.43858600  0.91469200  1
  Ni  Ni16  1  0.75000000  0.93858500  0.58530800  1
  Ni  Ni17  1  0.75000000  0.75203100  0.40552500  1
  Ni  Ni18  1  0.75000000  0.56141500  0.08530800  1
  Ni  Ni19  1  0.25000000  0.25203100  0.09447500  1
  Ni  Ni20  1  0.75000000  0.29953500  0.25483000  1
  Ni  Ni21  1  0.25000000  0.07522400  0.91349200  1
  Ni  Ni22  1  0.75000000  0.92477600  0.08650800  1
  Ni  Ni23  1  0.25000000  0.70046500  0.74517000  1
  Cu  Cu24  1  0.25000000  0.25940800  0.85105400  1
  Cu  Cu25  1  0.25000000  0.62895900  0.86343900  1
  Cu  Cu26  1  0.75000000  0.44212400  0.34126800  1
  Cu  Cu27  1  0.75000000  0.80618800  0.78488400  1
  Cu  Cu28  1  0.25000000  0.62129000  0.37184100  1
  Cu  Cu29  1  0.25000000  0.87871000  0.87184100  1
  Cu  Cu30  1  0.25000000  0.24059200  0.35105400  1
  Cu  Cu31  1  0.75000000  0.05787600  0.84126800  1
  Cu  Cu32  1  0.25000000  0.43400200  0.53277800  1
  Cu  Cu33  1  0.25000000  0.06599800  0.03277800  1
  Cu  Cu34  1  0.75000000  0.55081200  0.95866500  1
  Cu  Cu35  1  0.75000000  0.94918800  0.45866500  1
  Cu  Cu36  1  0.75000000  0.37871000  0.62815900  1
  Cu  Cu37  1  0.25000000  0.55787600  0.65873200  1
  Cu  Cu38  1  0.25000000  0.87104100  0.36343900  1
  Cu  Cu39  1  0.75000000  0.56599800  0.46722200  1
  Cu  Cu40  1  0.25000000  0.19381200  0.21511600  1
  Cu  Cu41  1  0.25000000  0.30618800  0.71511600  1
  Cu  Cu42  1  0.75000000  0.74059200  0.14894600  1
  Cu  Cu43  1  0.25000000  0.94212400  0.15873200  1
  Cu  Cu44  1  0.75000000  0.12129000  0.12815900  1
  Cu  Cu45  1  0.75000000  0.93400200  0.96722200  1
  Cu  Cu46  1  0.75000000  0.75940800  0.64894600  1
  Cu  Cu47  1  0.75000000  0.37104100  0.13656100  1
  Cu  Cu48  1  0.25000000  0.05081200  0.54133500  1
  Cu  Cu49  1  0.75000000  0.12895900  0.63656100  1
  Cu  Cu50  1  0.75000000  0.69381200  0.28488400  1
  Cu  Cu51  1  0.25000000  0.44918800  0.04133500  1
