# generated using pymatgen
data_Cu2Ni5C36
_symmetry_space_group_name_H-M   'P 1'
_cell_length_a   6.78855269
_cell_length_b   6.78855269
_cell_length_c   24.90352590
_cell_angle_alpha   84.73173447
_cell_angle_beta   84.73173447
_cell_angle_gamma   96.68119006
_symmetry_Int_Tables_number   1
_chemical_formula_structural   Cu2Ni5C36
_chemical_formula_sum   'Cu4 Ni10 C72'
_cell_volume   1128.94370885
_cell_formula_units_Z   2
loop_
 _symmetry_equiv_pos_site_id
 _symmetry_equiv_pos_as_xyz
  1  'x, y, z'
loop_
 _atom_site_type_symbol
 _atom_site_label
 _atom_site_symmetry_multiplicity
 _atom_site_fract_x
 _atom_site_fract_y
 _atom_site_fract_z
 _atom_site_occupancy
  Ni  Ni0  1  0.68037000  0.69948900  0.00911000  1
  Ni  Ni1  1  0.31963000  0.30051100  0.99089000  1
  Ni  Ni2  1  0.20197200  0.79802800  0.75000000  1
  Ni  Ni3  1  0.79802800  0.20197200  0.25000000  1
  Ni  Ni4  1  0.11713000  0.41601600  0.86231700  1
  Ni  Ni5  1  0.88287000  0.58398400  0.13768300  1
  Ni  Ni6  1  0.41601600  0.11713000  0.36231700  1
  Ni  Ni7  1  0.30051100  0.31963000  0.49089000  1
  Ni  Ni8  1  0.69948900  0.68037000  0.50911000  1
  Ni  Ni9  1  0.58398400  0.88287000  0.63768300  1
  Cu  Cu10  1  0.02497800  0.71962900  0.38296600  1
  Cu  Cu11  1  0.28037100  0.97502200  0.11703400  1
  Cu  Cu12  1  0.71962900  0.02497800  0.88296600  1
  Cu  Cu13  1  0.97502200  0.28037100  0.61703400  1
  C  C14  1  0.30664100  0.20212000  0.23059200  1
  C  C15  1  0.69335900  0.79788000  0.76940800  1
  C  C16  1  0.17676600  0.76915900  0.00674700  1
  C  C17  1  0.76915900  0.17676600  0.50674700  1
  C  C18  1  0.80548200  0.08207600  0.11259400  1
  C  C19  1  0.52500000  0.61904800  0.37338200  1
  C  C20  1  0.47500000  0.38095200  0.62661800  1
  C  C21  1  0.79788000  0.69335900  0.26940800  1
  C  C22  1  0.08207600  0.80548200  0.61259400  1
  C  C23  1  0.23084100  0.82323400  0.49325300  1
  C  C24  1  0.61904800  0.52500000  0.87338200  1
  C  C25  1  0.19451800  0.91792400  0.88740600  1
  C  C26  1  0.38095200  0.47500000  0.12661800  1
  C  C27  1  0.20212000  0.30664100  0.73059200  1
  C  C28  1  0.91792400  0.19451800  0.38740600  1
  C  C29  1  0.82323400  0.23084100  0.99325300  1
  C  C30  1  0.95295500  0.93001300  0.12521200  1
  C  C31  1  0.89486300  0.18395000  0.05202400  1
  C  C32  1  0.71287500  0.97917500  0.80182900  1
  C  C33  1  0.67005000  0.98310100  0.53931900  1
  C  C34  1  0.11651600  0.25861700  0.25693800  1
  C  C35  1  0.63933300  0.23897100  0.62916100  1
  C  C36  1  0.70364400  0.70912400  0.40209400  1
  C  C37  1  0.41222400  0.43569300  0.90018800  1
  C  C38  1  0.02082500  0.28712500  0.69817100  1
  C  C39  1  0.56430700  0.58777600  0.59981200  1
  C  C40  1  0.41011300  0.39388900  0.18701000  1
  C  C41  1  0.97917500  0.71287500  0.30182900  1
  C  C42  1  0.63626000  0.34403900  0.50312000  1
  C  C43  1  0.98150900  0.59841400  0.60622300  1
  C  C44  1  0.03134900  0.74026800  0.47207900  1
  C  C45  1  0.39388900  0.41011300  0.68701000  1
  C  C46  1  0.53810300  0.81528700  0.72862000  1
  C  C47  1  0.96865100  0.25973200  0.52792100  1
  C  C48  1  0.04704500  0.06998700  0.87478800  1
  C  C49  1  0.76102900  0.36066700  0.87083900  1
  C  C50  1  0.36374000  0.65596100  0.49688000  1
  C  C51  1  0.25861700  0.11651600  0.75693800  1
  C  C52  1  0.06998700  0.04704500  0.37478800  1
  C  C53  1  0.36066700  0.76102900  0.37083900  1
  C  C54  1  0.93001300  0.95295500  0.62521200  1
  C  C55  1  0.01689900  0.32995000  0.96068100  1
  C  C56  1  0.29635600  0.29087600  0.59790600  1
  C  C57  1  0.58777600  0.56430700  0.09981200  1
  C  C58  1  0.81605000  0.10513700  0.44797600  1
  C  C59  1  0.46189700  0.18471300  0.27138000  1
  C  C60  1  0.70912400  0.70364400  0.90209400  1
  C  C61  1  0.32995000  0.01689900  0.46068100  1
  C  C62  1  0.98310100  0.67005000  0.03931900  1
  C  C63  1  0.75373500  0.17976700  0.35001700  1
  C  C64  1  0.40158600  0.01849100  0.89377700  1
  C  C65  1  0.18395000  0.89486300  0.55202400  1
  C  C66  1  0.60611100  0.58988700  0.31299000  1
  C  C67  1  0.10513700  0.81605000  0.94797600  1
  C  C68  1  0.74138300  0.88348400  0.24306200  1
  C  C69  1  0.82023300  0.24626500  0.14998300  1
  C  C70  1  0.34403900  0.63626000  0.00312000  1
  C  C71  1  0.28712500  0.02082500  0.19817100  1
  C  C72  1  0.17976700  0.75373500  0.85001700  1
  C  C73  1  0.29087600  0.29635600  0.09790600  1
  C  C74  1  0.24626500  0.82023300  0.64998300  1
  C  C75  1  0.59841400  0.98150900  0.10622300  1
  C  C76  1  0.23897100  0.63933300  0.12916100  1
  C  C77  1  0.25973200  0.96865100  0.02792100  1
  C  C78  1  0.88348400  0.74138300  0.74306200  1
  C  C79  1  0.65596100  0.36374000  0.99688000  1
  C  C80  1  0.58988700  0.60611100  0.81299000  1
  C  C81  1  0.01849100  0.40158600  0.39377700  1
  C  C82  1  0.18471300  0.46189700  0.77138000  1
  C  C83  1  0.81528700  0.53810300  0.22862000  1
  C  C84  1  0.43569300  0.41222400  0.40018800  1
  C  C85  1  0.74026800  0.03134900  0.97207900  1
