# generated using pymatgen
data_Cu12Ni17C2
_symmetry_space_group_name_H-M   'P 1'
_cell_length_a   12.31798500
_cell_length_b   14.15839566
_cell_length_c   14.17344320
_cell_angle_alpha   111.71002858
_cell_angle_beta   97.60038566
_cell_angle_gamma   99.79885656
_symmetry_Int_Tables_number   1
_chemical_formula_structural   Cu12Ni17C2
_chemical_formula_sum   'Cu24 Ni34 C4'
_cell_volume   2211.00238610
_cell_formula_units_Z   2
loop_
 _symmetry_equiv_pos_site_id
 _symmetry_equiv_pos_as_xyz
  1  'x, y, z'
loop_
 _atom_site_type_symbol
 _atom_site_label
 _atom_site_symmetry_multiplicity
 _atom_site_fract_x
 _atom_site_fract_y
 _atom_site_fract_z
 _atom_site_occupancy
  C  C0  1  0.68937700  0.27641400  0.47931900  1
  C  C1  1  0.31062300  0.72358600  0.52068100  1
  C  C2  1  0.84272500  0.72050100  0.99075200  1
  C  C3  1  0.15727500  0.27949900  0.00924800  1
  Ni  Ni4  1  0.47883200  0.82656000  0.98046800  1
  Ni  Ni5  1  0.52116800  0.17344000  0.01953200  1
  Ni  Ni6  1  0.32884800  0.90470800  0.97490100  1
  Ni  Ni7  1  0.67115200  0.09529200  0.02509900  1
  Ni  Ni8  1  0.34029800  0.01544900  0.15242000  1
  Ni  Ni9  1  0.65970200  0.98455100  0.84758000  1
  Ni  Ni10  1  0.27951100  0.89990400  0.22764800  1
  Ni  Ni11  1  0.72048900  0.10009600  0.77235200  1
  Ni  Ni12  1  0.44872900  0.83823200  0.24518300  1
  Ni  Ni13  1  0.55127100  0.16176800  0.75481700  1
  Ni  Ni14  1  0.38828600  0.66284200  0.14819400  1
  Ni  Ni15  1  0.61171400  0.33715800  0.85180600  1
  Ni  Ni16  1  0.39371900  0.64852300  0.96279900  1
  Ni  Ni17  1  0.60628100  0.35147700  0.03720100  1
  Ni  Ni18  1  0.19483600  0.63042400  0.92348100  1
  Ni  Ni19  1  0.80516400  0.36957600  0.07651900  1
  Ni  Ni20  1  0.16198800  0.58359000  0.74213800  1
  Ni  Ni21  1  0.83801200  0.41641000  0.25786200  1
  Ni  Ni22  1  0.12241000  0.39977200  0.67148400  1
  Ni  Ni23  1  0.87759000  0.60022800  0.32851600  1
  Ni  Ni24  1  0.30463400  0.36811700  0.65394600  1
  Ni  Ni25  1  0.69536600  0.63188300  0.34605400  1
  Ni  Ni26  1  0.24761900  0.19082300  0.66559900  1
  Ni  Ni27  1  0.75238100  0.80917700  0.33440100  1
  Ni  Ni28  1  0.24392100  0.06961000  0.50423800  1
  Ni  Ni29  1  0.75607900  0.93039000  0.49576200  1
  Ni  Ni30  1  0.05471800  0.03160100  0.40839300  1
  Ni  Ni31  1  0.94528200  0.96839900  0.59160700  1
  Ni  Ni32  1  0.08693600  0.10867000  0.29081000  1
  Ni  Ni33  1  0.91306400  0.89133000  0.70919000  1
  Ni  Ni34  1  0.12497700  0.29225200  0.38943600  1
  Ni  Ni35  1  0.87502300  0.70774800  0.61056400  1
  Ni  Ni36  1  0.31280900  0.33137300  0.47265600  1
  Ni  Ni37  1  0.68719100  0.66862700  0.52734400  1
  Cu  Cu38  1  0.84855900  0.43407600  0.51163100  1
  Cu  Cu39  1  0.15144100  0.56592400  0.48836900  1
  Cu  Cu40  1  0.60423500  0.39179400  0.62319700  1
  Cu  Cu41  1  0.39576500  0.60820600  0.37680300  1
  Cu  Cu42  1  0.53925400  0.11789600  0.45130800  1
  Cu  Cu43  1  0.46074600  0.88210400  0.54869200  1
  Cu  Cu44  1  0.77091600  0.16551400  0.33498400  1
  Cu  Cu45  1  0.22908400  0.83448600  0.66501600  1
  Cu  Cu46  1  0.56787500  0.32210500  0.35288700  1
  Cu  Cu47  1  0.43212500  0.67789500  0.64711300  1
  Cu  Cu48  1  0.81345400  0.24201000  0.61514400  1
  Cu  Cu49  1  0.18654600  0.75799000  0.38485600  1
  Cu  Cu50  1  0.79573000  0.88695200  0.10934700  1
  Cu  Cu51  1  0.20427000  0.11304800  0.89065300  1
  Cu  Cu52  1  0.98029000  0.72851300  0.14248100  1
  Cu  Cu53  1  0.01971000  0.27148700  0.85751900  1
  Cu  Cu54  1  0.88539400  0.55153300  0.87907200  1
  Cu  Cu55  1  0.11460600  0.44846700  0.12092800  1
  Cu  Cu56  1  0.69359700  0.70584600  0.84182600  1
  Cu  Cu57  1  0.30640300  0.29415400  0.15817400  1
  Cu  Cu58  1  0.68196500  0.61504700  0.04314900  1
  Cu  Cu59  1  0.31803500  0.38495300  0.95685100  1
  Cu  Cu60  1  0.98939200  0.82678900  0.93959500  1
  Cu  Cu61  1  0.01060800  0.17321100  0.06040500  1
