# generated using pymatgen
data_Cu(NiC2)2
_symmetry_space_group_name_H-M   'P 1'
_cell_length_a   5.99315944
_cell_length_b   5.99315944
_cell_length_c   19.92552847
_cell_angle_alpha   81.01451646
_cell_angle_beta   81.01451646
_cell_angle_gamma   60.34735989
_symmetry_Int_Tables_number   1
_chemical_formula_structural   Cu(NiC2)2
_chemical_formula_sum   'Cu8 Ni16 C32'
_cell_volume   611.72455857
_cell_formula_units_Z   8
loop_
 _symmetry_equiv_pos_site_id
 _symmetry_equiv_pos_as_xyz
  1  'x, y, z'
loop_
 _atom_site_type_symbol
 _atom_site_label
 _atom_site_symmetry_multiplicity
 _atom_site_fract_x
 _atom_site_fract_y
 _atom_site_fract_z
 _atom_site_occupancy
  Ni  Ni0  1  0.69139800  0.69139800  0.93840000  1
  Ni  Ni1  1  0.72221300  0.21741000  0.84582800  1
  Ni  Ni2  1  0.43919500  0.43919500  0.68943000  1
  Ni  Ni3  1  0.49646800  0.49646800  0.49920000  1
  Ni  Ni4  1  0.34459500  0.34459500  0.97000100  1
  Ni  Ni5  1  0.21741000  0.72221300  0.84582800  1
  Ni  Ni6  1  0.47044900  0.96600600  0.59271500  1
  Ni  Ni7  1  0.19024200  0.19024200  0.43716600  1
  Ni  Ni8  1  0.24753800  0.24753800  0.24976900  1
  Ni  Ni9  1  0.09282200  0.09282200  0.72226700  1
  Ni  Ni10  1  0.96600600  0.47044900  0.59271500  1
  Ni  Ni11  1  0.21918000  0.71902700  0.34306800  1
  Ni  Ni12  1  0.94109700  0.94109700  0.18634500  1
  Ni  Ni13  1  0.71902700  0.21918000  0.34306800  1
  Ni  Ni14  1  0.97325000  0.46968300  0.09262000  1
  Ni  Ni15  1  0.46968300  0.97325000  0.09262000  1
  Cu  Cu16  1  0.99875600  0.99875600  0.00060700  1
  Cu  Cu17  1  0.74928600  0.74928600  0.74838100  1
  Cu  Cu18  1  0.21688400  0.21688400  0.84499700  1
  Cu  Cu19  1  0.96699200  0.96699200  0.59339000  1
  Cu  Cu20  1  0.71889100  0.71889100  0.34327300  1
  Cu  Cu21  1  0.84450400  0.84450400  0.46859700  1
  Cu  Cu22  1  0.46887900  0.46887900  0.09242300  1
  Cu  Cu23  1  0.59397200  0.59397200  0.21710700  1
  C  C24  1  0.52131600  0.05618500  0.90818000  1
  C  C25  1  0.05618500  0.52131600  0.90818000  1
  C  C26  1  0.40755500  0.40755500  0.78743000  1
  C  C27  1  0.27243200  0.80069000  0.65636200  1
  C  C28  1  0.52137100  0.52137100  0.90676700  1
  C  C29  1  0.91564900  0.91564900  0.78656600  1
  C  C30  1  0.80069000  0.27243200  0.65636200  1
  C  C31  1  0.38078600  0.91223800  0.78354600  1
  C  C32  1  0.15508100  0.15508100  0.53743500  1
  C  C33  1  0.02791700  0.02791700  0.90029300  1
  C  C34  1  0.66050400  0.66050400  0.53353400  1
  C  C35  1  0.27182700  0.27182700  0.65485400  1
  C  C36  1  0.03678100  0.54663200  0.40606300  1
  C  C37  1  0.91223800  0.38078600  0.78354600  1
  C  C38  1  0.54663200  0.03678100  0.40606300  1
  C  C39  1  0.90029800  0.90029800  0.28742100  1
  C  C40  1  0.77765000  0.77765000  0.64612500  1
  C  C41  1  0.14078600  0.65758800  0.53267200  1
  C  C42  1  0.02491000  0.02491000  0.40268600  1
  C  C43  1  0.65758800  0.14078600  0.53267200  1
  C  C44  1  0.78061900  0.29667700  0.15247000  1
  C  C45  1  0.41233500  0.41233500  0.28492100  1
  C  C46  1  0.89100200  0.40135300  0.28167100  1
  C  C47  1  0.65868500  0.65868500  0.03614200  1
  C  C48  1  0.29667700  0.78061900  0.15247000  1
  C  C49  1  0.53770700  0.53770700  0.39895200  1
  C  C50  1  0.17500800  0.17500800  0.03250200  1
  C  C51  1  0.40135300  0.89100200  0.28167100  1
  C  C52  1  0.77795100  0.77795100  0.15129000  1
  C  C53  1  0.62332300  0.16772600  0.02997500  1
  C  C54  1  0.28067800  0.28067800  0.15138800  1
  C  C55  1  0.16772600  0.62332300  0.02997500  1
