# generated using pymatgen
data_Cu2Ni4C9
_symmetry_space_group_name_H-M   'P 1'
_cell_length_a   6.46449843
_cell_length_b   7.83313374
_cell_length_c   8.36564398
_cell_angle_alpha   98.66976750
_cell_angle_beta   112.22845904
_cell_angle_gamma   97.82812180
_symmetry_Int_Tables_number   1
_chemical_formula_structural   Cu2Ni4C9
_chemical_formula_sum   'Cu4 Ni8 C18'
_cell_volume   378.91073228
_cell_formula_units_Z   2
loop_
 _symmetry_equiv_pos_site_id
 _symmetry_equiv_pos_as_xyz
  1  'x, y, z'
loop_
 _atom_site_type_symbol
 _atom_site_label
 _atom_site_symmetry_multiplicity
 _atom_site_fract_x
 _atom_site_fract_y
 _atom_site_fract_z
 _atom_site_occupancy
  Ni  Ni0  1  0.62142000  0.39025000  0.74563100  1
  Ni  Ni1  1  0.14225000  0.87728200  0.08439700  1
  Ni  Ni2  1  0.34367300  0.83140800  0.54895300  1
  Ni  Ni3  1  0.09686400  0.35748600  0.73285200  1
  Ni  Ni4  1  0.85775000  0.12271800  0.91560300  1
  Ni  Ni5  1  0.37858000  0.60975000  0.25436900  1
  Ni  Ni6  1  0.90313600  0.64251400  0.26714800  1
  Ni  Ni7  1  0.65632700  0.16859200  0.45104700  1
  Cu  Cu8  1  0.13295300  0.23170600  0.35151700  1
  Cu  Cu9  1  0.50118400  0.28808400  0.08606300  1
  Cu  Cu10  1  0.86704700  0.76829400  0.64848300  1
  Cu  Cu11  1  0.49881600  0.71191600  0.91393700  1
  C  C12  1  0.49712800  0.88199800  0.80592400  1
  C  C13  1  0.37921800  0.17608400  0.49144900  1
  C  C14  1  0.22582300  0.30529700  0.96860600  1
  C  C15  1  0.77417700  0.69470300  0.03139400  1
  C  C16  1  0.62352700  0.48986600  0.24803700  1
  C  C17  1  0.66056200  0.27912600  0.96007300  1
  C  C18  1  0.00647000  0.93144000  0.84361800  1
  C  C19  1  0.37647300  0.51013400  0.75196300  1
  C  C20  1  0.80603200  0.22580800  0.70961800  1
  C  C21  1  0.99353000  0.06856000  0.15638200  1
  C  C22  1  0.03021700  0.77065700  0.52418500  1
  C  C23  1  0.19396800  0.77419200  0.29038200  1
  C  C24  1  0.33943800  0.72087400  0.03992700  1
  C  C25  1  0.50287200  0.11800200  0.19407600  1
  C  C26  1  0.17018600  0.44080400  0.31561500  1
  C  C27  1  0.82981400  0.55919600  0.68438500  1
  C  C28  1  0.96978300  0.22934300  0.47581500  1
  C  C29  1  0.62078200  0.82391600  0.50855100  1
