# generated using pymatgen
data_Cu3NiC6
_symmetry_space_group_name_H-M   'P 1'
_cell_length_a   5.94450819
_cell_length_b   5.94450819
_cell_length_c   9.20817813
_cell_angle_alpha   79.14565192
_cell_angle_beta   79.14565192
_cell_angle_gamma   79.15354572
_symmetry_Int_Tables_number   1
_chemical_formula_structural   Cu3NiC6
_chemical_formula_sum   'Cu6 Ni2 C12'
_cell_volume   309.89320180
_cell_formula_units_Z   2
loop_
 _symmetry_equiv_pos_site_id
 _symmetry_equiv_pos_as_xyz
  1  'x, y, z'
loop_
 _atom_site_type_symbol
 _atom_site_label
 _atom_site_symmetry_multiplicity
 _atom_site_fract_x
 _atom_site_fract_y
 _atom_site_fract_z
 _atom_site_occupancy
  Ni  Ni0  1  0.25112000  0.74888000  0.50000000  1
  Ni  Ni1  1  0.74888000  0.25112000  0.50000000  1
  Cu  Cu2  1  0.35190300  0.84217100  0.11283200  1
  Cu  Cu3  1  0.15782900  0.64809700  0.88716800  1
  Cu  Cu4  1  0.64809700  0.15782900  0.88716800  1
  Cu  Cu5  1  0.81025800  0.81025800  0.27358800  1
  Cu  Cu6  1  0.84217100  0.35190300  0.11283200  1
  Cu  Cu7  1  0.18974200  0.18974200  0.72641200  1
  C  C8  1  0.30875700  0.30875700  0.25809300  1
  C  C9  1  0.69124300  0.69124300  0.74190700  1
  C  C10  1  0.74628800  0.74628800  0.53380200  1
  C  C11  1  0.25371200  0.25371200  0.46619800  1
  C  C12  1  0.55538400  0.11683400  0.15462700  1
  C  C13  1  0.90092100  0.90092100  0.75086400  1
  C  C14  1  0.52079300  0.52079300  0.25810900  1
  C  C15  1  0.11683400  0.55538400  0.15462700  1
  C  C16  1  0.88316600  0.44461600  0.84537300  1
  C  C17  1  0.47920700  0.47920700  0.74189100  1
  C  C18  1  0.09907900  0.09907900  0.24913600  1
  C  C19  1  0.44461600  0.88316600  0.84537300  1
