# generated using pymatgen
data_CuNi
_symmetry_space_group_name_H-M   'P 1'
_cell_length_a   3.09470959
_cell_length_b   3.09470959
_cell_length_c   68.33205400
_cell_angle_alpha   90.00000000
_cell_angle_beta   90.00000000
_cell_angle_gamma   119.99999116
_symmetry_Int_Tables_number   1
_chemical_formula_structural   CuNi
_chemical_formula_sum   'Cu27 Ni27'
_cell_volume   566.75445982
_cell_formula_units_Z   27
loop_
 _symmetry_equiv_pos_site_id
 _symmetry_equiv_pos_as_xyz
  1  'x, y, z'
loop_
 _atom_site_type_symbol
 _atom_site_label
 _atom_site_symmetry_multiplicity
 _atom_site_fract_x
 _atom_site_fract_y
 _atom_site_fract_z
 _atom_site_occupancy
  Ni  Ni0  1  0.00000000  0.00000000  0.22221400  1
  Ni  Ni1  1  0.66666700  0.33333300  0.96295000  1
  Ni  Ni2  1  0.66666700  0.33333300  0.40737800  1
  Ni  Ni3  1  0.33333300  0.66666700  0.29626400  1
  Ni  Ni4  1  0.33333300  0.66666700  0.51848600  1
  Ni  Ni5  1  0.66666700  0.33333300  0.62959700  1
  Ni  Ni6  1  0.00000000  0.00000000  0.92589200  1
  Ni  Ni7  1  0.00000000  0.00000000  0.77776800  1
  Ni  Ni8  1  0.00000000  0.00000000  0.44443400  1
  Ni  Ni9  1  0.33333300  0.66666700  0.74070800  1
  Ni  Ni10  1  0.33333300  0.66666700  0.14813800  1
  Ni  Ni11  1  0.00000000  0.00000000  0.66665300  1
  Ni  Ni12  1  0.66666700  0.33333300  0.18517200  1
  Ni  Ni13  1  0.66666700  0.33333300  0.48148600  1
  Ni  Ni14  1  0.33333300  0.66666700  0.88889700  1
  Ni  Ni15  1  0.66666700  0.33333300  0.11107100  1
  Ni  Ni16  1  0.33333300  0.66666700  0.81479500  1
  Ni  Ni17  1  0.66666700  0.33333300  0.25926500  1
  Ni  Ni18  1  0.00000000  0.00000000  0.99998300  1
  Ni  Ni19  1  0.66666700  0.33333300  0.85183800  1
  Ni  Ni20  1  0.00000000  0.00000000  0.55554700  1
  Ni  Ni21  1  0.00000000  0.00000000  0.07407500  1
  Ni  Ni22  1  0.00000000  0.00000000  0.33332500  1
  Ni  Ni23  1  0.66666700  0.33333300  0.70370700  1
  Ni  Ni24  1  0.33333300  0.66666700  0.59260100  1
  Ni  Ni25  1  0.33333300  0.66666700  0.37038000  1
  Ni  Ni26  1  0.33333300  0.66666700  0.03702700  1
  Cu  Cu27  1  0.00000000  0.00000000  0.80562500  1
  Cu  Cu28  1  0.66666700  0.33333300  0.50926300  1
  Cu  Cu29  1  0.33333300  0.66666700  0.91667400  1
  Cu  Cu30  1  0.33333300  0.66666700  0.06488100  1
  Cu  Cu31  1  0.66666700  0.33333300  0.99081400  1
  Cu  Cu32  1  0.66666700  0.33333300  0.43515500  1
  Cu  Cu33  1  0.66666700  0.33333300  0.13885700  1
  Cu  Cu34  1  0.00000000  0.00000000  0.47229000  1
  Cu  Cu35  1  0.33333300  0.66666700  0.76849200  1
  Cu  Cu36  1  0.33333300  0.66666700  0.39815200  1
  Cu  Cu37  1  0.33333300  0.66666700  0.62037400  1
  Cu  Cu38  1  0.00000000  0.00000000  0.10185600  1
  Cu  Cu39  1  0.00000000  0.00000000  0.02773700  1
  Cu  Cu40  1  0.66666700  0.33333300  0.21292600  1
  Cu  Cu41  1  0.00000000  0.00000000  0.95367700  1
  Cu  Cu42  1  0.00000000  0.00000000  0.58339400  1
  Cu  Cu43  1  0.00000000  0.00000000  0.69450300  1
  Cu  Cu44  1  0.66666700  0.33333300  0.87969900  1
  Cu  Cu45  1  0.33333300  0.66666700  0.17599400  1
  Cu  Cu46  1  0.00000000  0.00000000  0.36117800  1
  Cu  Cu47  1  0.66666700  0.33333300  0.73147900  1
  Cu  Cu48  1  0.33333300  0.66666700  0.32404400  1
  Cu  Cu49  1  0.66666700  0.33333300  0.65736900  1
  Cu  Cu50  1  0.66666700  0.33333300  0.28704100  1
  Cu  Cu51  1  0.00000000  0.00000000  0.25007000  1
  Cu  Cu52  1  0.33333300  0.66666700  0.54625900  1
  Cu  Cu53  1  0.33333300  0.66666700  0.84255600  1
