# generated using pymatgen
data_Cu3NiC7
_symmetry_space_group_name_H-M   'P 1'
_cell_length_a   13.09423100
_cell_length_b   13.09423100
_cell_length_c   13.09423100
_cell_angle_alpha   90.00000000
_cell_angle_beta   90.00000000
_cell_angle_gamma   90.00000000
_symmetry_Int_Tables_number   1
_chemical_formula_structural   Cu3NiC7
_chemical_formula_sum   'Cu24 Ni8 C56'
_cell_volume   2245.12225350
_cell_formula_units_Z   8
loop_
 _symmetry_equiv_pos_site_id
 _symmetry_equiv_pos_as_xyz
  1  'x, y, z'
loop_
 _atom_site_type_symbol
 _atom_site_label
 _atom_site_symmetry_multiplicity
 _atom_site_fract_x
 _atom_site_fract_y
 _atom_site_fract_z
 _atom_site_occupancy
  Ni  Ni0  1  0.18809400  0.18809400  0.18809400  1
  Ni  Ni1  1  0.31190600  0.68809400  0.68809400  1
  Ni  Ni2  1  0.68809400  0.31190600  0.68809400  1
  Ni  Ni3  1  0.18809400  0.81190600  0.81190600  1
  Ni  Ni4  1  0.31190600  0.31190600  0.31190600  1
  Ni  Ni5  1  0.68809400  0.68809400  0.31190600  1
  Ni  Ni6  1  0.81190600  0.81190600  0.18809400  1
  Ni  Ni7  1  0.81190600  0.18809400  0.81190600  1
  Cu  Cu8  1  0.61401000  0.77525900  0.71840000  1
  Cu  Cu9  1  0.38599000  0.22474100  0.71840000  1
  Cu  Cu10  1  0.71840000  0.61401000  0.77525900  1
  Cu  Cu11  1  0.78160000  0.11401000  0.27525900  1
  Cu  Cu12  1  0.88599000  0.27525900  0.21840000  1
  Cu  Cu13  1  0.72474100  0.78160000  0.88599000  1
  Cu  Cu14  1  0.22474100  0.71840000  0.38599000  1
  Cu  Cu15  1  0.71840000  0.38599000  0.22474100  1
  Cu  Cu16  1  0.72474100  0.21840000  0.11401000  1
  Cu  Cu17  1  0.21840000  0.88599000  0.27525900  1
  Cu  Cu18  1  0.77525900  0.28160000  0.38599000  1
  Cu  Cu19  1  0.11401000  0.72474100  0.21840000  1
  Cu  Cu20  1  0.27525900  0.21840000  0.88599000  1
  Cu  Cu21  1  0.28160000  0.38599000  0.77525900  1
  Cu  Cu22  1  0.21840000  0.11401000  0.72474100  1
  Cu  Cu23  1  0.88599000  0.72474100  0.78160000  1
  Cu  Cu24  1  0.27525900  0.78160000  0.11401000  1
  Cu  Cu25  1  0.11401000  0.27525900  0.78160000  1
  Cu  Cu26  1  0.78160000  0.88599000  0.72474100  1
  Cu  Cu27  1  0.22474100  0.28160000  0.61401000  1
  Cu  Cu28  1  0.28160000  0.61401000  0.22474100  1
  Cu  Cu29  1  0.77525900  0.71840000  0.61401000  1
  Cu  Cu30  1  0.38599000  0.77525900  0.28160000  1
  Cu  Cu31  1  0.61401000  0.22474100  0.28160000  1
  C  C32  1  0.43212000  0.67614300  0.12624600  1
  C  C33  1  0.17614300  0.37375400  0.93212000  1
  C  C34  1  0.88495500  0.11504500  0.11504500  1
  C  C35  1  0.32385700  0.87375400  0.43212000  1
  C  C36  1  0.87375400  0.43212000  0.32385700  1
  C  C37  1  0.11504500  0.88495500  0.11504500  1
  C  C38  1  0.06673700  0.30927000  0.17109800  1
  C  C39  1  0.43326300  0.19073000  0.32890200  1
  C  C40  1  0.93212000  0.82385700  0.62624600  1
  C  C41  1  0.30927000  0.82890200  0.93326300  1
  C  C42  1  0.30927000  0.17109800  0.06673700  1
  C  C43  1  0.11504500  0.11504500  0.88495500  1
  C  C44  1  0.67614300  0.87375400  0.56788000  1
  C  C45  1  0.93326300  0.69073000  0.17109800  1
  C  C46  1  0.61504500  0.61504500  0.61504500  1
  C  C47  1  0.12624600  0.56788000  0.32385700  1
  C  C48  1  0.06673700  0.69073000  0.82890200  1
  C  C49  1  0.87375400  0.56788000  0.67614300  1
  C  C50  1  0.56788000  0.32385700  0.12624600  1
  C  C51  1  0.32890200  0.43326300  0.19073000  1
  C  C52  1  0.82385700  0.37375400  0.06788000  1
  C  C53  1  0.17614300  0.62624600  0.06788000  1
  C  C54  1  0.37375400  0.93212000  0.17614300  1
  C  C55  1  0.38495500  0.38495500  0.61504500  1
  C  C56  1  0.12624600  0.43212000  0.67614300  1
  C  C57  1  0.80927000  0.67109800  0.43326300  1
  C  C58  1  0.43326300  0.80927000  0.67109800  1
  C  C59  1  0.38495500  0.61504500  0.38495500  1
  C  C60  1  0.56673700  0.19073000  0.67109800  1
  C  C61  1  0.93212000  0.17614300  0.37375400  1
  C  C62  1  0.43212000  0.32385700  0.87375400  1
  C  C63  1  0.37375400  0.06788000  0.82385700  1
  C  C64  1  0.62624600  0.93212000  0.82385700  1
  C  C65  1  0.17109800  0.06673700  0.30927000  1
  C  C66  1  0.56673700  0.80927000  0.32890200  1
  C  C67  1  0.82385700  0.62624600  0.93212000  1
  C  C68  1  0.93326300  0.30927000  0.82890200  1
  C  C69  1  0.69073000  0.17109800  0.93326300  1
  C  C70  1  0.06788000  0.82385700  0.37375400  1
  C  C71  1  0.32385700  0.12624600  0.56788000  1
  C  C72  1  0.67614300  0.12624600  0.43212000  1
  C  C73  1  0.61504500  0.38495500  0.38495500  1
  C  C74  1  0.88495500  0.88495500  0.88495500  1
  C  C75  1  0.80927000  0.32890200  0.56673700  1
  C  C76  1  0.17109800  0.93326300  0.69073000  1
  C  C77  1  0.19073000  0.67109800  0.56673700  1
  C  C78  1  0.67109800  0.43326300  0.80927000  1
  C  C79  1  0.32890200  0.56673700  0.80927000  1
  C  C80  1  0.67109800  0.56673700  0.19073000  1
  C  C81  1  0.82890200  0.93326300  0.30927000  1
  C  C82  1  0.19073000  0.32890200  0.43326300  1
  C  C83  1  0.69073000  0.82890200  0.06673700  1
  C  C84  1  0.06788000  0.17614300  0.62624600  1
  C  C85  1  0.82890200  0.06673700  0.69073000  1
  C  C86  1  0.62624600  0.06788000  0.17614300  1
  C  C87  1  0.56788000  0.67614300  0.87375400  1
