# generated using pymatgen
data_Cu13Ni18C5
_symmetry_space_group_name_H-M   'P 1'
_cell_length_a   14.55980251
_cell_length_b   14.55980251
_cell_length_c   4.50301300
_cell_angle_alpha   90.00000000
_cell_angle_beta   90.00000000
_cell_angle_gamma   120.00000234
_symmetry_Int_Tables_number   1
_chemical_formula_structural   Cu13Ni18C5
_chemical_formula_sum   'Cu13 Ni18 C5'
_cell_volume   826.69401012
_cell_formula_units_Z   1
loop_
 _symmetry_equiv_pos_site_id
 _symmetry_equiv_pos_as_xyz
  1  'x, y, z'
loop_
 _atom_site_type_symbol
 _atom_site_label
 _atom_site_symmetry_multiplicity
 _atom_site_fract_x
 _atom_site_fract_y
 _atom_site_fract_z
 _atom_site_occupancy
  C  C0  1  0.00000000  0.81991400  0.50000000  1
  C  C1  1  0.18008600  0.18008600  0.50000000  1
  C  C2  1  0.81991400  0.00000000  0.50000000  1
  C  C3  1  0.66666700  0.33333300  0.00000000  1
  C  C4  1  0.33333300  0.66666700  0.00000000  1
  Ni  Ni5  1  0.17731700  0.37271500  0.00000000  1
  Ni  Ni6  1  0.80460300  0.62728500  0.00000000  1
  Ni  Ni7  1  0.37271500  0.17731700  0.00000000  1
  Ni  Ni8  1  0.82268300  0.19539700  0.00000000  1
  Ni  Ni9  1  0.19539700  0.82268300  0.00000000  1
  Ni  Ni10  1  0.27763500  0.00000000  0.50000000  1
  Ni  Ni11  1  0.72236500  0.72236500  0.50000000  1
  Ni  Ni12  1  0.00000000  0.27763500  0.50000000  1
  Ni  Ni13  1  0.87808800  0.51698600  0.50000000  1
  Ni  Ni14  1  0.63889800  0.12191200  0.50000000  1
  Ni  Ni15  1  0.48301400  0.36110200  0.50000000  1
  Ni  Ni16  1  0.36110200  0.48301400  0.50000000  1
  Ni  Ni17  1  0.12191200  0.63889800  0.50000000  1
  Ni  Ni18  1  0.51698600  0.87808800  0.50000000  1
  Ni  Ni19  1  0.44188700  0.00000000  0.00000000  1
  Ni  Ni20  1  0.55811300  0.55811300  0.00000000  1
  Ni  Ni21  1  0.00000000  0.44188700  0.00000000  1
  Ni  Ni22  1  0.62728500  0.80460300  0.00000000  1
  Cu  Cu23  1  0.30869100  0.83355400  0.50000000  1
  Cu  Cu24  1  0.47513700  0.16644600  0.50000000  1
  Cu  Cu25  1  0.69130900  0.52486300  0.50000000  1
  Cu  Cu26  1  0.52486300  0.69130900  0.50000000  1
  Cu  Cu27  1  0.16644600  0.47513700  0.50000000  1
  Cu  Cu28  1  0.00000000  0.00000000  0.00000000  1
  Cu  Cu29  1  0.16595800  0.00000000  0.00000000  1
  Cu  Cu30  1  0.83404200  0.83404200  0.00000000  1
  Cu  Cu31  1  0.00000000  0.16595800  0.00000000  1
  Cu  Cu32  1  0.62953200  0.00000000  0.00000000  1
  Cu  Cu33  1  0.37046800  0.37046800  0.00000000  1
  Cu  Cu34  1  0.00000000  0.62953200  0.00000000  1
  Cu  Cu35  1  0.83355400  0.30869100  0.50000000  1
