# generated using pymatgen
data_Cu12Ni4C61
_symmetry_space_group_name_H-M   'P 1'
_cell_length_a   5.63867200
_cell_length_b   7.94419146
_cell_length_c   22.57416709
_cell_angle_alpha   90.16747773
_cell_angle_beta   90.02187346
_cell_angle_gamma   90.01959578
_symmetry_Int_Tables_number   1
_chemical_formula_structural   Cu12Ni4C61
_chemical_formula_sum   'Cu12 Ni4 C61'
_cell_volume   1011.19836317
_cell_formula_units_Z   1
loop_
 _symmetry_equiv_pos_site_id
 _symmetry_equiv_pos_as_xyz
  1  'x, y, z'
loop_
 _atom_site_type_symbol
 _atom_site_label
 _atom_site_symmetry_multiplicity
 _atom_site_fract_x
 _atom_site_fract_y
 _atom_site_fract_z
 _atom_site_occupancy
  C  C0  1  0.99415400  0.75205000  0.01056200  1
  C  C1  1  0.98628600  0.74945600  0.75598200  1
  C  C2  1  0.98457300  0.74438900  0.50384000  1
  C  C3  1  0.99338500  0.75282500  0.24744700  1
  C  C4  1  0.52687500  0.75444900  0.88626200  1
  C  C5  1  0.52666600  0.74571100  0.63378000  1
  C  C6  1  0.52249300  0.74896200  0.37826700  1
  C  C7  1  0.51072200  0.75199800  0.12708800  1
  C  C8  1  0.48476000  0.24601900  0.87285200  1
  C  C9  1  0.48235800  0.25211300  0.62014500  1
  C  C10  1  0.48600500  0.25160300  0.37027000  1
  C  C11  1  0.49316200  0.25056200  0.11879700  1
  C  C12  1  0.01817900  0.25123500  0.74611900  1
  C  C13  1  0.01660500  0.25286200  0.49249200  1
  C  C14  1  0.01150700  0.25080600  0.24201500  1
  C  C15  1  0.00028700  0.24546400  0.99867500  1
  Ni  Ni16  1  0.99189700  0.01677300  0.87543600  1
  Ni  Ni17  1  0.99344800  0.47968300  0.62489500  1
  Ni  Ni18  1  0.99075500  0.48245900  0.37331500  1
  Ni  Ni19  1  0.98924600  0.01787800  0.37347900  1
  Cu  Cu20  1  0.50037700  0.50496900  0.00035400  1
  Cu  Cu21  1  0.50544800  0.50437500  0.75014500  1
  Cu  Cu22  1  0.50432300  0.50545800  0.25107900  1
  Cu  Cu23  1  0.50169800  0.50593600  0.50003500  1
  Cu  Cu24  1  0.50386100  0.99555200  0.99888500  1
  Cu  Cu25  1  0.50334100  0.99336200  0.75271600  1
  Cu  Cu26  1  0.50212100  0.99712300  0.25138100  1
  Cu  Cu27  1  0.50197100  0.99335100  0.49797200  1
  Cu  Cu28  1  0.98910700  0.48220500  0.87627400  1
  Cu  Cu29  1  0.00275400  0.49770900  0.12492500  1
  Cu  Cu30  1  0.99188800  0.01935400  0.62431200  1
  Cu  Cu31  1  0.00243400  0.00393500  0.12498800  1
  C  C32  1  0.08147400  0.75073400  0.12668700  1
  C  C33  1  0.22735800  0.04692100  0.80622700  1
  C  C34  1  0.22980500  0.01842800  0.30773500  1
  C  C35  1  0.23038000  0.03545700  0.55783500  1
  C  C36  1  0.22612200  0.45822600  0.80883400  1
  C  C37  1  0.22671900  0.05235800  0.05636600  1
  C  C38  1  0.23847600  0.46403000  0.55896700  1
  C  C39  1  0.24127300  0.48308600  0.30996800  1
  C  C40  1  0.22740700  0.44565900  0.05660300  1
  C  C41  1  0.27440100  0.48164400  0.92863700  1
  C  C42  1  0.27107400  0.45242700  0.68259500  1
  C  C43  1  0.26770200  0.46011200  0.43345000  1
  C  C44  1  0.27318000  0.44440500  0.18320700  1
  C  C45  1  0.28296400  0.01706700  0.92807500  1
  C  C46  1  0.27113000  0.03893400  0.67899500  1
  C  C47  1  0.27518500  0.04063200  0.43140400  1
  C  C48  1  0.27431300  0.05710600  0.18258700  1
  C  C49  1  0.43224800  0.74906900  0.00544600  1
  C  C50  1  0.42101800  0.74968800  0.74318400  1
  C  C51  1  0.40713700  0.75103600  0.49636800  1
  C  C52  1  0.41889900  0.75084600  0.23655500  1
  C  C53  1  0.59402700  0.24926500  0.75399200  1
  C  C54  1  0.58644000  0.25153100  0.26155100  1
  C  C55  1  0.59245500  0.24627500  0.50433500  1
  C  C56  1  0.57657900  0.25252400  0.99326600  1
  C  C57  1  0.72544700  0.94682000  0.82026100  1
  C  C58  1  0.73527500  0.55296400  0.82070000  1
  C  C59  1  0.74863900  0.93035000  0.56825100  1
  C  C60  1  0.73567400  0.93379800  0.31712200  1
  C  C61  1  0.71973500  0.97471600  0.07101000  1
  C  C62  1  0.74423400  0.56218400  0.56666700  1
  C  C63  1  0.74638800  0.57263800  0.31609300  1
  C  C64  1  0.72045300  0.52868400  0.07058600  1
  C  C65  1  0.77705500  0.94664100  0.68875200  1
  C  C66  1  0.76772700  0.55141300  0.68961100  1
  C  C67  1  0.77597900  0.94431900  0.94269200  1
  C  C68  1  0.77799500  0.56178400  0.94094900  1
  C  C69  1  0.77780100  0.96663200  0.19392000  1
  C  C70  1  0.77796200  0.53568300  0.19358600  1
  C  C71  1  0.77602000  0.93298300  0.44107800  1
  C  C72  1  0.76961800  0.56041700  0.44030800  1
  C  C73  1  0.90950400  0.25332400  0.88349900  1
  C  C74  1  0.90108100  0.24552000  0.62411600  1
  C  C75  1  0.89559600  0.25022900  0.38114500  1
  C  C76  1  0.91756500  0.25081500  0.12938300  1
