# generated using pymatgen
data_Cu4Ni5C18
_symmetry_space_group_name_H-M   'P 1'
_cell_length_a   8.63336700
_cell_length_b   10.54917100
_cell_length_c   16.79497900
_cell_angle_alpha   90.00000000
_cell_angle_beta   90.00000000
_cell_angle_gamma   90.00000000
_symmetry_Int_Tables_number   1
_chemical_formula_structural   Cu4Ni5C18
_chemical_formula_sum   'Cu16 Ni20 C72'
_cell_volume   1529.60044156
_cell_formula_units_Z   4
loop_
 _symmetry_equiv_pos_site_id
 _symmetry_equiv_pos_as_xyz
  1  'x, y, z'
loop_
 _atom_site_type_symbol
 _atom_site_label
 _atom_site_symmetry_multiplicity
 _atom_site_fract_x
 _atom_site_fract_y
 _atom_site_fract_z
 _atom_site_occupancy
  C  C0  1  0.76231500  0.33336200  0.70448600  1
  C  C1  1  0.73768500  0.16663800  0.20448600  1
  C  C2  1  0.76231500  0.66663800  0.79551400  1
  C  C3  1  0.73768500  0.83336200  0.29551400  1
  C  C4  1  0.26231500  0.16663800  0.70448600  1
  C  C5  1  0.26231500  0.83336200  0.79551400  1
  C  C6  1  0.23768500  0.66663800  0.29551400  1
  C  C7  1  0.23768500  0.33336200  0.20448600  1
  Ni  Ni8  1  0.61177800  0.65975400  0.57919000  1
  Ni  Ni9  1  0.42093400  0.16469600  0.05368900  1
  Ni  Ni10  1  0.61177800  0.34024600  0.92081000  1
  Ni  Ni11  1  0.07906600  0.33530400  0.55368900  1
  Ni  Ni12  1  0.07906600  0.66469600  0.94631100  1
  Ni  Ni13  1  0.19513300  0.50000000  0.75000000  1
  Ni  Ni14  1  0.38822200  0.65975400  0.07919000  1
  Ni  Ni15  1  0.42093400  0.83530400  0.44631100  1
  Ni  Ni16  1  0.57906600  0.83530400  0.94631100  1
  Ni  Ni17  1  0.30486700  0.00000000  0.25000000  1
  Ni  Ni18  1  0.69513300  0.00000000  0.75000000  1
  Ni  Ni19  1  0.88822200  0.15975400  0.42081000  1
  Ni  Ni20  1  0.92093400  0.66469600  0.44631100  1
  Ni  Ni21  1  0.92093400  0.33530400  0.05368900  1
  Ni  Ni22  1  0.57906600  0.16469600  0.55368900  1
  Ni  Ni23  1  0.80486700  0.50000000  0.25000000  1
  Ni  Ni24  1  0.11177800  0.84024600  0.57919000  1
  Ni  Ni25  1  0.38822200  0.34024600  0.42081000  1
  Ni  Ni26  1  0.88822200  0.84024600  0.07919000  1
  Ni  Ni27  1  0.11177800  0.15975400  0.92081000  1
  Cu  Cu28  1  0.44575600  0.09385700  0.86710100  1
  Cu  Cu29  1  0.55424400  0.90614300  0.13289900  1
  Cu  Cu30  1  0.05424400  0.59385700  0.13289900  1
  Cu  Cu31  1  0.55424400  0.09385700  0.36710100  1
  Cu  Cu32  1  0.44575600  0.90614300  0.63289900  1
  Cu  Cu33  1  0.59470400  0.58880600  0.39374400  1
  Cu  Cu34  1  0.94575600  0.59385700  0.63289900  1
  Cu  Cu35  1  0.09470400  0.08880600  0.10625600  1
  Cu  Cu36  1  0.90529600  0.91119400  0.89374400  1
  Cu  Cu37  1  0.59470400  0.41119400  0.10625600  1
  Cu  Cu38  1  0.94575600  0.40614300  0.86710100  1
  Cu  Cu39  1  0.40529600  0.58880600  0.89374400  1
  Cu  Cu40  1  0.05424400  0.40614300  0.36710100  1
  Cu  Cu41  1  0.40529600  0.41119400  0.60625600  1
  Cu  Cu42  1  0.90529600  0.08880600  0.60625600  1
  Cu  Cu43  1  0.09470400  0.91119400  0.39374400  1
  C  C44  1  0.55645300  0.33168200  0.60606600  1
  C  C45  1  0.80536600  0.87971000  0.81951400  1
  C  C46  1  0.44354700  0.33168200  0.10606600  1
  C  C47  1  0.00191700  0.32601100  0.94136800  1
  C  C48  1  0.22319400  0.63077300  0.15599000  1
  C  C49  1  0.80536600  0.12029000  0.68048600  1
  C  C50  1  0.06441600  0.05346400  0.39778600  1
  C  C51  1  0.55372900  0.95085100  0.38753500  1
  C  C52  1  0.27680600  0.13077300  0.84401000  1
  C  C53  1  0.43558400  0.44653600  0.89778600  1
  C  C54  1  0.00191700  0.67398900  0.55863200  1
  C  C55  1  0.99808300  0.67398900  0.05863200  1
  C  C56  1  0.55372900  0.04914900  0.11246500  1
  C  C57  1  0.44627100  0.04914900  0.61246500  1
  C  C58  1  0.49808300  0.82601100  0.05863200  1
  C  C59  1  0.80332900  0.13296600  0.53198100  1
  C  C60  1  0.44627100  0.95085100  0.88753500  1
  C  C61  1  0.93558400  0.05346400  0.89778600  1
  C  C62  1  0.55223000  0.87266900  0.70310900  1
  C  C63  1  0.43558400  0.55346400  0.60221400  1
  C  C64  1  0.72319400  0.86922700  0.15599000  1
  C  C65  1  0.30332900  0.63296600  0.96801900  1
  C  C66  1  0.49808300  0.17398900  0.44136800  1
  C  C67  1  0.94627100  0.54914900  0.88753500  1
  C  C68  1  0.05372900  0.54914900  0.38753500  1
  C  C69  1  0.94354700  0.16831800  0.10606600  1
  C  C70  1  0.94777000  0.62733100  0.20310900  1
  C  C71  1  0.99808300  0.32601100  0.44136800  1
  C  C72  1  0.30536600  0.37971000  0.68048600  1
  C  C73  1  0.30332900  0.36703400  0.53198100  1
  C  C74  1  0.05223000  0.37266900  0.79689100  1
  C  C75  1  0.69463400  0.62029000  0.31951400  1
  C  C76  1  0.44354700  0.66831800  0.39393400  1
  C  C77  1  0.80332900  0.86703400  0.96801900  1
  C  C78  1  0.44777000  0.87266900  0.20310900  1
  C  C79  1  0.05223000  0.62733100  0.70310900  1
  C  C80  1  0.69667100  0.63296600  0.46801900  1
  C  C81  1  0.19667100  0.13296600  0.03198100  1
  C  C82  1  0.56441600  0.44653600  0.39778600  1
  C  C83  1  0.72319400  0.13077300  0.34401000  1
  C  C84  1  0.93558400  0.94653600  0.60221400  1
  C  C85  1  0.19667100  0.86703400  0.46801900  1
  C  C86  1  0.05645300  0.83168200  0.89393400  1
  C  C87  1  0.94777000  0.37266900  0.29689100  1
  C  C88  1  0.56441600  0.55346400  0.10221400  1
  C  C89  1  0.69667100  0.36703400  0.03198100  1
  C  C90  1  0.50191700  0.17398900  0.94136800  1
  C  C91  1  0.05372900  0.45085100  0.11246500  1
  C  C92  1  0.77680600  0.63077300  0.65599000  1
  C  C93  1  0.05645300  0.16831800  0.60606600  1
  C  C94  1  0.22319400  0.36922700  0.34401000  1
  C  C95  1  0.94627100  0.45085100  0.61246500  1
  C  C96  1  0.55645300  0.66831800  0.89393400  1
  C  C97  1  0.69463400  0.37971000  0.18048600  1
  C  C98  1  0.19463400  0.12029000  0.18048600  1
  C  C99  1  0.94354700  0.83168200  0.39393400  1
  C  C100  1  0.77680600  0.36922700  0.84401000  1
  C  C101  1  0.50191700  0.82601100  0.55863200  1
  C  C102  1  0.19463400  0.87971000  0.31951400  1
  C  C103  1  0.44777000  0.12733100  0.29689100  1
  C  C104  1  0.30536600  0.62029000  0.81951400  1
  C  C105  1  0.55223000  0.12733100  0.79689100  1
  C  C106  1  0.06441600  0.94653600  0.10221400  1
  C  C107  1  0.27680600  0.86922700  0.65599000  1
