# generated using pymatgen
data_Cu11(NiC2)2
_symmetry_space_group_name_H-M   'P 1'
_cell_length_a   7.14772100
_cell_length_b   7.13492000
_cell_length_c   18.88364577
_cell_angle_alpha   81.40577962
_cell_angle_beta   90.00000000
_cell_angle_gamma   90.00000000
_symmetry_Int_Tables_number   1
_chemical_formula_structural   Cu11(NiC2)2
_chemical_formula_sum   'Cu22 Ni4 C8'
_cell_volume   952.22256250
_cell_formula_units_Z   2
loop_
 _symmetry_equiv_pos_site_id
 _symmetry_equiv_pos_as_xyz
  1  'x, y, z'
loop_
 _atom_site_type_symbol
 _atom_site_label
 _atom_site_symmetry_multiplicity
 _atom_site_fract_x
 _atom_site_fract_y
 _atom_site_fract_z
 _atom_site_occupancy
  C  C0  1  0.25000000  0.74833700  0.99607500  1
  C  C1  1  0.75000000  0.25166300  0.00392500  1
  C  C2  1  0.25000000  0.77245900  0.50768800  1
  C  C3  1  0.75000000  0.22754100  0.49231200  1
  C  C4  1  0.95091700  0.30266200  0.75547400  1
  C  C5  1  0.45091700  0.69733800  0.24452600  1
  C  C6  1  0.04908300  0.69733800  0.24452600  1
  C  C7  1  0.54908300  0.30266200  0.75547400  1
  Ni  Ni8  1  0.25000000  0.31266900  0.89240500  1
  Ni  Ni9  1  0.25000000  0.20810100  0.62645800  1
  Ni  Ni10  1  0.75000000  0.68733100  0.10759500  1
  Ni  Ni11  1  0.75000000  0.79189900  0.37354200  1
  Cu  Cu12  1  0.75000000  0.59975600  0.73266700  1
  Cu  Cu13  1  0.75000000  0.73706000  0.48101100  1
  Cu  Cu14  1  0.52215000  0.52003600  0.14246400  1
  Cu  Cu15  1  0.25000000  0.93601500  0.18725000  1
  Cu  Cu16  1  0.75000000  0.77017600  0.00216400  1
  Cu  Cu17  1  0.75000000  0.43917000  0.65386300  1
  Cu  Cu18  1  0.25000000  0.56083000  0.34613700  1
  Cu  Cu19  1  0.25000000  0.22982400  0.99783600  1
  Cu  Cu20  1  0.25000000  0.45408600  0.67600700  1
  Cu  Cu21  1  0.75000000  0.89142700  0.17487500  1
  Cu  Cu22  1  0.75000000  0.06398500  0.81275000  1
  Cu  Cu23  1  0.01646800  0.06165200  0.66692200  1
  Cu  Cu24  1  0.97785000  0.52003600  0.14246400  1
  Cu  Cu25  1  0.25000000  0.40024400  0.26733300  1
  Cu  Cu26  1  0.25000000  0.26294000  0.51898900  1
  Cu  Cu27  1  0.48353200  0.06165200  0.66692200  1
  Cu  Cu28  1  0.02215000  0.47996400  0.85753600  1
  Cu  Cu29  1  0.47785000  0.47996400  0.85753600  1
  Cu  Cu30  1  0.98353200  0.93834800  0.33307800  1
  Cu  Cu31  1  0.25000000  0.10857300  0.82512500  1
  Cu  Cu32  1  0.75000000  0.54591400  0.32399300  1
  Cu  Cu33  1  0.51646800  0.93834800  0.33307800  1
