# generated using pymatgen
data_Cu3(Ni2C5)2
_symmetry_space_group_name_H-M   'P 1'
_cell_length_a   5.06228900
_cell_length_b   6.97993500
_cell_length_c   12.91963327
_cell_angle_alpha   86.91722063
_cell_angle_beta   90.00000000
_cell_angle_gamma   90.00000000
_symmetry_Int_Tables_number   1
_chemical_formula_structural   Cu3(Ni2C5)2
_chemical_formula_sum   'Cu6 Ni8 C20'
_cell_volume   455.84748979
_cell_formula_units_Z   2
loop_
 _symmetry_equiv_pos_site_id
 _symmetry_equiv_pos_as_xyz
  1  'x, y, z'
loop_
 _atom_site_type_symbol
 _atom_site_label
 _atom_site_symmetry_multiplicity
 _atom_site_fract_x
 _atom_site_fract_y
 _atom_site_fract_z
 _atom_site_occupancy
  C  C0  1  0.27633100  0.00000000  0.75000000  1
  C  C1  1  0.72366900  0.00000000  0.25000000  1
  Ni  Ni2  1  0.35006900  0.48845600  0.87537000  1
  Ni  Ni3  1  0.35006900  0.51154400  0.62463000  1
  Ni  Ni4  1  0.64993100  0.51154400  0.12463000  1
  Ni  Ni5  1  0.64993100  0.48845600  0.37537000  1
  Ni  Ni6  1  0.83287500  0.20850400  0.93919800  1
  Ni  Ni7  1  0.83287500  0.79149600  0.56080200  1
  Ni  Ni8  1  0.16712500  0.79149600  0.06080200  1
  Ni  Ni9  1  0.16712500  0.20850400  0.43919800  1
  Cu  Cu10  1  0.84510600  0.50000000  0.75000000  1
  Cu  Cu11  1  0.15489400  0.50000000  0.25000000  1
  Cu  Cu12  1  0.65482300  0.19006800  0.54600300  1
  Cu  Cu13  1  0.65482300  0.80993200  0.95399700  1
  Cu  Cu14  1  0.34517700  0.80993200  0.45399700  1
  Cu  Cu15  1  0.34517700  0.19006800  0.04600300  1
  C  C16  1  0.12057700  0.50000000  0.75000000  1
  C  C17  1  0.87942300  0.50000000  0.25000000  1
  C  C18  1  0.20253500  0.27501000  0.96279800  1
  C  C19  1  0.20253500  0.72499000  0.53720200  1
  C  C20  1  0.79746500  0.72499000  0.03720200  1
  C  C21  1  0.79746500  0.27501000  0.46279800  1
  C  C22  1  0.70782300  0.40633500  0.83036100  1
  C  C23  1  0.70782300  0.59366500  0.66963900  1
  C  C24  1  0.29217700  0.59366500  0.16963900  1
  C  C25  1  0.29217700  0.40633500  0.33036100  1
  C  C26  1  0.39740600  0.26327700  0.56179300  1
  C  C27  1  0.39740600  0.73672300  0.93820700  1
  C  C28  1  0.60259400  0.73672300  0.43820700  1
  C  C29  1  0.60259400  0.26327700  0.06179300  1
  C  C30  1  0.75206600  0.04327000  0.60739700  1
  C  C31  1  0.75206600  0.95673000  0.89260300  1
  C  C32  1  0.24793400  0.95673000  0.39260300  1
  C  C33  1  0.24793400  0.04327000  0.10739700  1
