# generated using pymatgen
data_CuNiC6
_symmetry_space_group_name_H-M   'P 1'
_cell_length_a   7.68111000
_cell_length_b   5.01000500
_cell_length_c   10.14340642
_cell_angle_alpha   88.05925343
_cell_angle_beta   90.00000000
_cell_angle_gamma   90.00000000
_symmetry_Int_Tables_number   1
_chemical_formula_structural   CuNiC6
_chemical_formula_sum   'Cu4 Ni4 C24'
_cell_volume   390.11871144
_cell_formula_units_Z   4
loop_
 _symmetry_equiv_pos_site_id
 _symmetry_equiv_pos_as_xyz
  1  'x, y, z'
loop_
 _atom_site_type_symbol
 _atom_site_label
 _atom_site_symmetry_multiplicity
 _atom_site_fract_x
 _atom_site_fract_y
 _atom_site_fract_z
 _atom_site_occupancy
  C  C0  1  0.10801400  0.00673700  0.32065800  1
  C  C1  1  0.60801400  0.99326300  0.17934200  1
  C  C2  1  0.89198600  0.99326300  0.67934200  1
  C  C3  1  0.39198600  0.00673700  0.82065800  1
  Ni  Ni4  1  0.76548900  0.47114000  0.42415000  1
  Ni  Ni5  1  0.26548900  0.52886000  0.07585000  1
  Ni  Ni6  1  0.23451100  0.52886000  0.57585000  1
  Ni  Ni7  1  0.73451100  0.47114000  0.92415000  1
  Cu  Cu8  1  0.09617400  0.45503400  0.83071900  1
  Cu  Cu9  1  0.59617400  0.54496600  0.66928100  1
  Cu  Cu10  1  0.90382600  0.54496600  0.16928100  1
  Cu  Cu11  1  0.40382600  0.45503400  0.33071900  1
  C  C12  1  0.10318400  0.73379900  0.81049000  1
  C  C13  1  0.60318400  0.26620100  0.68951000  1
  C  C14  1  0.89681600  0.26620100  0.18951000  1
  C  C15  1  0.39681600  0.73379900  0.31049000  1
  C  C16  1  0.21435400  0.33885200  0.93597400  1
  C  C17  1  0.71435400  0.66114800  0.56402600  1
  C  C18  1  0.78564600  0.66114800  0.06402600  1
  C  C19  1  0.28564600  0.33885200  0.43597400  1
  C  C20  1  0.16002700  0.29750300  0.70437500  1
  C  C21  1  0.66002700  0.70249700  0.79562500  1
  C  C22  1  0.83997300  0.70249700  0.29562500  1
  C  C23  1  0.33997300  0.29750300  0.20437500  1
  C  C24  1  0.08904600  0.77782300  0.52759200  1
  C  C25  1  0.58904600  0.22217700  0.97240800  1
  C  C26  1  0.91095400  0.22217700  0.47240800  1
  C  C27  1  0.41095400  0.77782300  0.02759200  1
  C  C28  1  0.07895800  0.67112700  0.15004400  1
  C  C29  1  0.57895800  0.32887300  0.34995600  1
  C  C30  1  0.92104200  0.32887300  0.84995600  1
  C  C31  1  0.42104200  0.67112700  0.65004400  1
