# generated using pymatgen
data_Cu3Ni2C13
_symmetry_space_group_name_H-M   'P 1'
_cell_length_a   8.85335011
_cell_length_b   8.85335011
_cell_length_c   8.85335025
_cell_angle_alpha   59.31655872
_cell_angle_beta   59.31655872
_cell_angle_gamma   59.31655712
_symmetry_Int_Tables_number   1
_chemical_formula_structural   Cu3Ni2C13
_chemical_formula_sum   'Cu6 Ni4 C26'
_cell_volume   483.05542348
_cell_formula_units_Z   2
loop_
 _symmetry_equiv_pos_site_id
 _symmetry_equiv_pos_as_xyz
  1  'x, y, z'
loop_
 _atom_site_type_symbol
 _atom_site_label
 _atom_site_symmetry_multiplicity
 _atom_site_fract_x
 _atom_site_fract_y
 _atom_site_fract_z
 _atom_site_occupancy
  C  C0  1  0.00000000  0.00000000  0.00000000  1
  C  C1  1  0.50000000  0.50000000  0.50000000  1
  Ni  Ni2  1  0.14291900  0.14291900  0.14291900  1
  Ni  Ni3  1  0.64291900  0.64291900  0.64291900  1
  Ni  Ni4  1  0.85708100  0.85708100  0.85708100  1
  Ni  Ni5  1  0.35708100  0.35708100  0.35708100  1
  Cu  Cu6  1  0.25000000  0.95570000  0.54430000  1
  Cu  Cu7  1  0.45570000  0.75000000  0.04430000  1
  Cu  Cu8  1  0.75000000  0.04430000  0.45570000  1
  Cu  Cu9  1  0.95570000  0.54430000  0.25000000  1
  Cu  Cu10  1  0.04430000  0.45570000  0.75000000  1
  Cu  Cu11  1  0.54430000  0.25000000  0.95570000  1
  C  C12  1  0.30407200  0.11289000  0.50958900  1
  C  C13  1  0.76655500  0.56001500  0.41369800  1
  C  C14  1  0.08630200  0.93998500  0.73344500  1
  C  C15  1  0.41369800  0.76655500  0.56001500  1
  C  C16  1  0.23344500  0.43998500  0.58630200  1
  C  C17  1  0.61289000  0.80407200  0.00958900  1
  C  C18  1  0.69592800  0.88711000  0.49041100  1
  C  C19  1  0.88711000  0.49041100  0.69592800  1
  C  C20  1  0.80407200  0.00958900  0.61289000  1
  C  C21  1  0.43998500  0.58630200  0.23344500  1
  C  C22  1  0.50958900  0.30407200  0.11289000  1
  C  C23  1  0.38711000  0.19592800  0.99041100  1
  C  C24  1  0.56001500  0.41369800  0.76655500  1
  C  C25  1  0.11289000  0.50958900  0.30407200  1
  C  C26  1  0.06001500  0.26655500  0.91369800  1
  C  C27  1  0.73344500  0.08630200  0.93998500  1
  C  C28  1  0.99041100  0.38711000  0.19592800  1
  C  C29  1  0.58630200  0.23344500  0.43998500  1
  C  C30  1  0.49041100  0.69592800  0.88711000  1
  C  C31  1  0.19592800  0.99041100  0.38711000  1
  C  C32  1  0.91369800  0.06001500  0.26655500  1
  C  C33  1  0.93998500  0.73344500  0.08630200  1
  C  C34  1  0.26655500  0.91369800  0.06001500  1
  C  C35  1  0.00958900  0.61289000  0.80407200  1
