# generated using pymatgen
data_Cu3NiC
_symmetry_space_group_name_H-M   'P 1'
_cell_length_a   7.20444600
_cell_length_b   7.47057561
_cell_length_c   7.47057561
_cell_angle_alpha   74.34119177
_cell_angle_beta   61.17158897
_cell_angle_gamma   61.17158897
_symmetry_Int_Tables_number   1
_chemical_formula_structural   Cu3NiC
_chemical_formula_sum   'Cu6 Ni2 C2'
_cell_volume   308.22489516
_cell_formula_units_Z   2
loop_
 _symmetry_equiv_pos_site_id
 _symmetry_equiv_pos_as_xyz
  1  'x, y, z'
loop_
 _atom_site_type_symbol
 _atom_site_label
 _atom_site_symmetry_multiplicity
 _atom_site_fract_x
 _atom_site_fract_y
 _atom_site_fract_z
 _atom_site_occupancy
  C  C0  1  0.50000000  0.74172500  0.25827500  1
  C  C1  1  0.50000000  0.25827500  0.74172500  1
  Ni  Ni2  1  0.15698900  0.34301100  0.34301100  1
  Ni  Ni3  1  0.84301100  0.65698900  0.65698900  1
  Cu  Cu4  1  0.00000000  0.32623600  0.67376400  1
  Cu  Cu5  1  0.02837600  0.23568900  0.23568900  1
  Cu  Cu6  1  0.49975400  0.76431100  0.76431100  1
  Cu  Cu7  1  0.00000000  0.67376400  0.32623600  1
  Cu  Cu8  1  0.50024600  0.23568900  0.23568900  1
  Cu  Cu9  1  0.97162400  0.76431100  0.76431100  1
