# generated using pymatgen
data_CuNiC6
_symmetry_space_group_name_H-M   'P 1'
_cell_length_a   10.36590829
_cell_length_b   10.36590829
_cell_length_c   8.62070100
_cell_angle_alpha   90.00000000
_cell_angle_beta   90.00000000
_cell_angle_gamma   120.00000187
_symmetry_Int_Tables_number   1
_chemical_formula_structural   CuNiC6
_chemical_formula_sum   'Cu6 Ni6 C36'
_cell_volume   802.20973970
_cell_formula_units_Z   6
loop_
 _symmetry_equiv_pos_site_id
 _symmetry_equiv_pos_as_xyz
  1  'x, y, z'
loop_
 _atom_site_type_symbol
 _atom_site_label
 _atom_site_symmetry_multiplicity
 _atom_site_fract_x
 _atom_site_fract_y
 _atom_site_fract_z
 _atom_site_occupancy
  C  C0  1  0.33333300  0.66666700  0.48335900  1
  C  C1  1  0.66666700  0.33333300  0.51664100  1
  C  C2  1  0.66666700  0.33333300  0.98335900  1
  C  C3  1  0.00000000  0.00000000  0.00000000  1
  C  C4  1  0.33333300  0.66666700  0.01664100  1
  C  C5  1  0.00000000  0.00000000  0.50000000  1
  Ni  Ni6  1  0.66673200  0.98718600  0.75000000  1
  Ni  Ni7  1  0.01281400  0.67954600  0.75000000  1
  Ni  Ni8  1  0.67954600  0.66673200  0.25000000  1
  Ni  Ni9  1  0.32045400  0.33326800  0.75000000  1
  Ni  Ni10  1  0.98718600  0.32045400  0.25000000  1
  Ni  Ni11  1  0.33326800  0.01281400  0.25000000  1
  Cu  Cu12  1  0.65766300  0.98738300  0.25000000  1
  Cu  Cu13  1  0.98738300  0.32972000  0.75000000  1
  Cu  Cu14  1  0.34233700  0.01261700  0.75000000  1
  Cu  Cu15  1  0.01261700  0.67028000  0.25000000  1
  Cu  Cu16  1  0.32972000  0.34233700  0.25000000  1
  Cu  Cu17  1  0.67028000  0.65766300  0.75000000  1
  C  C18  1  0.09078800  0.20816400  0.75000000  1
  C  C19  1  0.24304100  0.35094400  0.42633900  1
  C  C20  1  0.57063000  0.11971200  0.75000000  1
  C  C21  1  0.33673900  0.83641400  0.75000000  1
  C  C22  1  0.64905600  0.89209700  0.07366100  1
  C  C23  1  0.64905600  0.89209700  0.42633900  1
  C  C24  1  0.75695900  0.64905600  0.92633900  1
  C  C25  1  0.16358600  0.50032500  0.75000000  1
  C  C26  1  0.50032500  0.33673900  0.25000000  1
  C  C27  1  0.79183600  0.88262400  0.75000000  1
  C  C28  1  0.35094400  0.10790300  0.92633900  1
  C  C29  1  0.89209700  0.24304100  0.57366100  1
  C  C30  1  0.89209700  0.24304100  0.92633900  1
  C  C31  1  0.10790300  0.75695900  0.42633900  1
  C  C32  1  0.90921200  0.79183600  0.25000000  1
  C  C33  1  0.83641400  0.49967500  0.25000000  1
  C  C34  1  0.88262400  0.09078800  0.25000000  1
  C  C35  1  0.88028800  0.45091800  0.75000000  1
  C  C36  1  0.35094400  0.10790300  0.57366100  1
  C  C37  1  0.42937000  0.88028800  0.25000000  1
  C  C38  1  0.11737600  0.90921200  0.75000000  1
  C  C39  1  0.49967500  0.66326100  0.75000000  1
  C  C40  1  0.45091800  0.57063000  0.25000000  1
  C  C41  1  0.75695900  0.64905600  0.57366100  1
  C  C42  1  0.24304100  0.35094400  0.07366100  1
  C  C43  1  0.10790300  0.75695900  0.07366100  1
  C  C44  1  0.54908200  0.42937000  0.75000000  1
  C  C45  1  0.66326100  0.16358600  0.25000000  1
  C  C46  1  0.11971200  0.54908200  0.25000000  1
  C  C47  1  0.20816400  0.11737600  0.25000000  1
