# generated using pymatgen
data_CuNi3C17
_symmetry_space_group_name_H-M   'P 1'
_cell_length_a   9.00381610
_cell_length_b   9.00381610
_cell_length_c   7.02847327
_cell_angle_alpha   73.62363720
_cell_angle_beta   73.62363720
_cell_angle_gamma   91.02242942
_symmetry_Int_Tables_number   1
_chemical_formula_structural   CuNi3C17
_chemical_formula_sum   'Cu2 Ni6 C34'
_cell_volume   521.55417487
_cell_formula_units_Z   2
loop_
 _symmetry_equiv_pos_site_id
 _symmetry_equiv_pos_as_xyz
  1  'x, y, z'
loop_
 _atom_site_type_symbol
 _atom_site_label
 _atom_site_symmetry_multiplicity
 _atom_site_fract_x
 _atom_site_fract_y
 _atom_site_fract_z
 _atom_site_occupancy
  Ni  Ni0  1  0.71256200  0.28743800  0.75000000  1
  Ni  Ni1  1  0.28743800  0.71256200  0.25000000  1
  Ni  Ni2  1  0.63962300  0.95761700  0.61268400  1
  Ni  Ni3  1  0.04238300  0.36037700  0.88731600  1
  Ni  Ni4  1  0.36037700  0.04238300  0.38731600  1
  Ni  Ni5  1  0.95761700  0.63962300  0.11268400  1
  Cu  Cu6  1  0.99363800  0.00636200  0.25000000  1
  Cu  Cu7  1  0.00636200  0.99363800  0.75000000  1
  C  C8  1  0.31832500  0.68167500  0.75000000  1
  C  C9  1  0.68167500  0.31832500  0.25000000  1
  C  C10  1  0.33840200  0.10432900  0.88596100  1
  C  C11  1  0.89567100  0.66159800  0.61403900  1
  C  C12  1  0.66159800  0.89567100  0.11403900  1
  C  C13  1  0.10432900  0.33840200  0.38596100  1
  C  C14  1  0.59858800  0.62865300  0.70413900  1
  C  C15  1  0.37134700  0.40141200  0.79586100  1
  C  C16  1  0.40141200  0.37134700  0.29586100  1
  C  C17  1  0.62865300  0.59858800  0.20413900  1
  C  C18  1  0.71914500  0.21141200  0.47087700  1
  C  C19  1  0.78858800  0.28085500  0.02912300  1
  C  C20  1  0.28085500  0.78858800  0.52912300  1
  C  C21  1  0.21141200  0.71914500  0.97087700  1
  C  C22  1  0.51498600  0.71420000  0.73259400  1
  C  C23  1  0.28580000  0.48501400  0.76740600  1
  C  C24  1  0.48501400  0.28580000  0.26740600  1
  C  C25  1  0.71420000  0.51498600  0.23259400  1
  C  C26  1  0.66792800  0.02520500  0.87709300  1
  C  C27  1  0.97479500  0.33207200  0.62290700  1
  C  C28  1  0.33207200  0.97479500  0.12290700  1
  C  C29  1  0.02520500  0.66792800  0.37709300  1
  C  C30  1  0.72357400  0.54522500  0.66767500  1
  C  C31  1  0.45477500  0.27642600  0.83232500  1
  C  C32  1  0.27642600  0.45477500  0.33232500  1
  C  C33  1  0.54522500  0.72357400  0.16767500  1
  C  C34  1  0.40115300  0.02210400  0.68794600  1
  C  C35  1  0.97789600  0.59884700  0.81205400  1
  C  C36  1  0.59884700  0.97789600  0.31205400  1
  C  C37  1  0.02210400  0.40115300  0.18794600  1
  C  C38  1  0.85152200  0.85091900  0.59557200  1
  C  C39  1  0.14908100  0.14847800  0.90442800  1
  C  C40  1  0.14847800  0.14908100  0.40442800  1
  C  C41  1  0.85091900  0.85152200  0.09557200  1
