# generated using pymatgen
data_CuNiC
_symmetry_space_group_name_H-M   'P 1'
_cell_length_a   4.22091900
_cell_length_b   7.62128200
_cell_length_c   17.06406200
_cell_angle_alpha   90.00000000
_cell_angle_beta   90.00000000
_cell_angle_gamma   90.00000000
_symmetry_Int_Tables_number   1
_chemical_formula_structural   CuNiC
_chemical_formula_sum   'Cu8 Ni8 C8'
_cell_volume   548.93063653
_cell_formula_units_Z   8
loop_
 _symmetry_equiv_pos_site_id
 _symmetry_equiv_pos_as_xyz
  1  'x, y, z'
loop_
 _atom_site_type_symbol
 _atom_site_label
 _atom_site_symmetry_multiplicity
 _atom_site_fract_x
 _atom_site_fract_y
 _atom_site_fract_z
 _atom_site_occupancy
  C  C0  1  0.75000000  0.83709800  0.06155600  1
  C  C1  1  0.75000000  0.95575300  0.28180600  1
  C  C2  1  0.25000000  0.54424700  0.78180600  1
  C  C3  1  0.75000000  0.45575300  0.21819400  1
  C  C4  1  0.25000000  0.16290200  0.93844400  1
  C  C5  1  0.25000000  0.04424700  0.71819400  1
  C  C6  1  0.25000000  0.66290200  0.56155600  1
  C  C7  1  0.75000000  0.33709800  0.43844400  1
  Ni  Ni8  1  0.75000000  0.00332800  0.56274300  1
  Ni  Ni9  1  0.25000000  0.99667200  0.43725700  1
  Ni  Ni10  1  0.75000000  0.36669300  0.64878200  1
  Ni  Ni11  1  0.25000000  0.49667200  0.06274300  1
  Ni  Ni12  1  0.25000000  0.63330700  0.35121800  1
  Ni  Ni13  1  0.75000000  0.86669300  0.85121800  1
  Ni  Ni14  1  0.25000000  0.13330700  0.14878200  1
  Ni  Ni15  1  0.75000000  0.50332800  0.93725700  1
  Cu  Cu16  1  0.25000000  0.24526900  0.56215900  1
  Cu  Cu17  1  0.25000000  0.75371700  0.18678900  1
  Cu  Cu18  1  0.75000000  0.75473100  0.43784100  1
  Cu  Cu19  1  0.25000000  0.25371700  0.31321100  1
  Cu  Cu20  1  0.75000000  0.74628300  0.68678900  1
  Cu  Cu21  1  0.75000000  0.25473100  0.06215900  1
  Cu  Cu22  1  0.25000000  0.74526900  0.93784100  1
  Cu  Cu23  1  0.75000000  0.24628300  0.81321100  1
