# generated using pymatgen
data_Cu4Ni7C6
_symmetry_space_group_name_H-M   'P 1'
_cell_length_a   13.27304700
_cell_length_b   13.30817000
_cell_length_c   26.56652855
_cell_angle_alpha   89.42591389
_cell_angle_beta   90.00000000
_cell_angle_gamma   90.00000000
_symmetry_Int_Tables_number   1
_chemical_formula_structural   Cu4Ni7C6
_chemical_formula_sum   'Cu32 Ni56 C48'
_cell_volume   4692.47513877
_cell_formula_units_Z   8
loop_
 _symmetry_equiv_pos_site_id
 _symmetry_equiv_pos_as_xyz
  1  'x, y, z'
loop_
 _atom_site_type_symbol
 _atom_site_label
 _atom_site_symmetry_multiplicity
 _atom_site_fract_x
 _atom_site_fract_y
 _atom_site_fract_z
 _atom_site_occupancy
  Ni  Ni0  1  0.99777300  0.99665400  0.74948600  1
  Ni  Ni1  1  0.00000000  0.00000000  0.00000000  1
  Ni  Ni2  1  0.00222700  0.00334600  0.25051400  1
  Ni  Ni3  1  0.00000000  0.50000000  0.50000000  1
  Ni  Ni4  1  0.04307800  0.33549600  0.86833200  1
  Ni  Ni5  1  0.04080200  0.31941400  0.36110300  1
  Ni  Ni6  1  0.04147700  0.17941000  0.11172000  1
  Ni  Ni7  1  0.04140300  0.18157900  0.61178000  1
  Ni  Ni8  1  0.17785500  0.71915500  0.77277100  1
  Ni  Ni9  1  0.17915000  0.72810600  0.27035400  1
  Ni  Ni10  1  0.16892800  0.76369900  0.02026400  1
  Ni  Ni11  1  0.18055000  0.77450600  0.52106200  1
  Ni  Ni12  1  0.22102200  0.46312400  0.15762100  1
  Ni  Ni13  1  0.22612900  0.45607600  0.66024400  1
  Ni  Ni14  1  0.23390800  0.04486900  0.91826100  1
  Ni  Ni15  1  0.22343700  0.04018100  0.40851900  1
  Ni  Ni16  1  0.27897800  0.96312400  0.15762100  1
  Ni  Ni17  1  0.26609200  0.54486900  0.91826100  1
  Ni  Ni18  1  0.27387100  0.95607600  0.66024400  1
  Ni  Ni19  1  0.27656300  0.54018100  0.40851900  1
  Ni  Ni20  1  0.33107200  0.26369900  0.02026400  1
  Ni  Ni21  1  0.31945000  0.27450600  0.52106200  1
  Ni  Ni22  1  0.32214500  0.21915500  0.77277100  1
  Ni  Ni23  1  0.32085000  0.22810600  0.27035400  1
  Ni  Ni24  1  0.45852300  0.67941000  0.11172000  1
  Ni  Ni25  1  0.45859700  0.68157900  0.61178000  1
  Ni  Ni26  1  0.45919800  0.81941400  0.36110300  1
  Ni  Ni27  1  0.45692200  0.83549600  0.86833200  1
  Ni  Ni28  1  0.50000000  0.50000000  0.00000000  1
  Ni  Ni29  1  0.50222700  0.49665400  0.74948600  1
  Ni  Ni30  1  0.50000000  0.00000000  0.50000000  1
  Ni  Ni31  1  0.49777300  0.50334600  0.25051400  1
  Ni  Ni32  1  0.54080200  0.18058600  0.63889700  1
  Ni  Ni33  1  0.54307800  0.16450400  0.13166800  1
  Ni  Ni34  1  0.54147700  0.32059000  0.88828000  1
  Ni  Ni35  1  0.54140300  0.31842100  0.38822000  1
  Ni  Ni36  1  0.67785500  0.78084500  0.22722900  1
  Ni  Ni37  1  0.67915000  0.77189400  0.72964600  1
  Ni  Ni38  1  0.66892800  0.73630100  0.97973600  1
  Ni  Ni39  1  0.68055000  0.72549400  0.47893800  1
  Ni  Ni40  1  0.73390800  0.45513100  0.08173900  1
  Ni  Ni41  1  0.72102200  0.03687600  0.84237900  1
  Ni  Ni42  1  0.72343700  0.45981900  0.59148100  1
  Ni  Ni43  1  0.72612900  0.04392400  0.33975600  1
  Ni  Ni44  1  0.76609200  0.95513100  0.08173900  1
  Ni  Ni45  1  0.77656300  0.95981900  0.59148100  1
  Ni  Ni46  1  0.77897800  0.53687600  0.84237900  1
  Ni  Ni47  1  0.77387100  0.54392400  0.33975600  1
  Ni  Ni48  1  0.83107200  0.23630100  0.97973600  1
  Ni  Ni49  1  0.81945000  0.22549400  0.47893800  1
  Ni  Ni50  1  0.82214500  0.28084500  0.22722900  1
  Ni  Ni51  1  0.82085000  0.27189400  0.72964600  1
  Ni  Ni52  1  0.95852300  0.82059000  0.88828000  1
  Ni  Ni53  1  0.95692200  0.66450400  0.13166800  1
  Ni  Ni54  1  0.95919800  0.68058600  0.63889700  1
  Ni  Ni55  1  0.95859700  0.81842100  0.38822000  1
  Cu  Cu56  1  0.15013800  0.65591700  0.17418500  1
  Cu  Cu57  1  0.15026100  0.64636000  0.67615200  1
  Cu  Cu58  1  0.15245200  0.85065700  0.92478500  1
  Cu  Cu59  1  0.15059400  0.84861000  0.42484400  1
  Cu  Cu60  1  0.22372500  0.22551300  0.86454300  1
  Cu  Cu61  1  0.22693100  0.22740600  0.36320400  1
  Cu  Cu62  1  0.22654900  0.27671400  0.11158400  1
  Cu  Cu63  1  0.22838000  0.27107100  0.61436500  1
  Cu  Cu64  1  0.27345100  0.77671400  0.11158400  1
  Cu  Cu65  1  0.27162000  0.77107100  0.61436500  1
  Cu  Cu66  1  0.27627500  0.72551300  0.86454300  1
  Cu  Cu67  1  0.27306900  0.72740600  0.36320400  1
  Cu  Cu68  1  0.34754800  0.35065700  0.92478500  1
  Cu  Cu69  1  0.34986200  0.15591700  0.17418500  1
  Cu  Cu70  1  0.34940600  0.34861000  0.42484400  1
  Cu  Cu71  1  0.34973900  0.14636000  0.67615200  1
  Cu  Cu72  1  0.65245200  0.64934300  0.07521500  1
  Cu  Cu73  1  0.65013800  0.84408300  0.82581500  1
  Cu  Cu74  1  0.65059400  0.65139000  0.57515600  1
  Cu  Cu75  1  0.65026100  0.85364000  0.32384800  1
  Cu  Cu76  1  0.72372500  0.27448700  0.13545700  1
  Cu  Cu77  1  0.72693100  0.27259400  0.63679600  1
  Cu  Cu78  1  0.72654900  0.22328600  0.88841600  1
  Cu  Cu79  1  0.72838000  0.22892900  0.38563500  1
  Cu  Cu80  1  0.77345100  0.72328600  0.88841600  1
  Cu  Cu81  1  0.77162000  0.72892900  0.38563500  1
  Cu  Cu82  1  0.77627500  0.77448700  0.13545700  1
  Cu  Cu83  1  0.77306900  0.77259400  0.63679600  1
  Cu  Cu84  1  0.84754800  0.14934300  0.07521500  1
  Cu  Cu85  1  0.84940600  0.15139000  0.57515600  1
  Cu  Cu86  1  0.84986200  0.34408300  0.82581500  1
  Cu  Cu87  1  0.84973900  0.35364000  0.32384800  1
  C  C88  1  0.04698800  0.96182300  0.14749500  1
  C  C89  1  0.04498000  0.95911800  0.64451300  1
  C  C90  1  0.05756300  0.54516000  0.87798700  1
  C  C91  1  0.04556900  0.54122300  0.39583400  1
  C  C92  1  0.04085100  0.27698300  0.97248300  1
  C  C93  1  0.04111700  0.29081200  0.47677100  1
  C  C94  1  0.04233700  0.21213000  0.22776000  1
  C  C95  1  0.03901600  0.20685600  0.72615700  1
  C  C96  1  0.21048500  0.95617500  0.27124200  1
  C  C97  1  0.22612200  0.55387800  0.02269600  1
  C  C98  1  0.20544500  0.95036700  0.76892300  1
  C  C99  1  0.20833600  0.54547100  0.51994300  1
  C  C100  1  0.27387800  0.05387800  0.02269600  1
  C  C101  1  0.29166400  0.04547100  0.51994300  1
  C  C102  1  0.29455500  0.45036700  0.76892300  1
  C  C103  1  0.28951500  0.45617500  0.27124200  1
  C  C104  1  0.45914900  0.77698300  0.97248300  1
  C  C105  1  0.45766300  0.71213000  0.22776000  1
  C  C106  1  0.45888300  0.79081200  0.47677100  1
  C  C107  1  0.46098400  0.70685600  0.72615700  1
  C  C108  1  0.44243700  0.04516000  0.87798700  1
  C  C109  1  0.45443100  0.04122300  0.39583400  1
  C  C110  1  0.45301200  0.46182300  0.14749500  1
  C  C111  1  0.45502000  0.45911800  0.64451300  1
  C  C112  1  0.54698800  0.53817700  0.85250500  1
  C  C113  1  0.54498000  0.54088200  0.35548700  1
  C  C114  1  0.55756300  0.95484000  0.12201300  1
  C  C115  1  0.54556900  0.95877700  0.60416600  1
  C  C116  1  0.54085100  0.22301700  0.02751700  1
  C  C117  1  0.54233700  0.28787000  0.77224000  1
  C  C118  1  0.54111700  0.20918800  0.52322900  1
  C  C119  1  0.53901600  0.29314400  0.27384300  1
  C  C120  1  0.70544500  0.54963300  0.23107700  1
  C  C121  1  0.71048500  0.54382500  0.72875800  1
  C  C122  1  0.72612200  0.94612200  0.97730400  1
  C  C123  1  0.70833600  0.95452900  0.48005700  1
  C  C124  1  0.79455500  0.04963300  0.23107700  1
  C  C125  1  0.77387800  0.44612200  0.97730400  1
  C  C126  1  0.78951500  0.04382500  0.72875800  1
  C  C127  1  0.79166400  0.45452900  0.48005700  1
  C  C128  1  0.95914900  0.72301700  0.02751700  1
  C  C129  1  0.96098400  0.79314400  0.27384300  1
  C  C130  1  0.95766300  0.78787000  0.77224000  1
  C  C131  1  0.95888300  0.70918800  0.52322900  1
  C  C132  1  0.94243700  0.45484000  0.12201300  1
  C  C133  1  0.95301200  0.03817700  0.85250500  1
  C  C134  1  0.95443100  0.45877700  0.60416600  1
  C  C135  1  0.95502000  0.04088200  0.35548700  1
