# generated using pymatgen
data_Cu(NiC2)3
_symmetry_space_group_name_H-M   'P 1'
_cell_length_a   8.89653001
_cell_length_b   8.89653001
_cell_length_c   9.64906800
_cell_angle_alpha   90.00000000
_cell_angle_beta   90.00000000
_cell_angle_gamma   120.00000009
_symmetry_Int_Tables_number   1
_chemical_formula_structural   Cu(NiC2)3
_chemical_formula_sum   'Cu6 Ni18 C36'
_cell_volume   661.38949813
_cell_formula_units_Z   6
loop_
 _symmetry_equiv_pos_site_id
 _symmetry_equiv_pos_as_xyz
  1  'x, y, z'
loop_
 _atom_site_type_symbol
 _atom_site_label
 _atom_site_symmetry_multiplicity
 _atom_site_fract_x
 _atom_site_fract_y
 _atom_site_fract_z
 _atom_site_occupancy
  Ni  Ni0  1  0.34048300  0.36081200  0.96318400  1
  Ni  Ni1  1  0.69946300  0.00000000  0.25000000  1
  Ni  Ni2  1  0.69946300  0.69946300  0.75000000  1
  Ni  Ni3  1  0.97967100  0.63918800  0.53681600  1
  Ni  Ni4  1  0.65951700  0.63918800  0.03681600  1
  Ni  Ni5  1  0.34048300  0.97967100  0.46318400  1
  Ni  Ni6  1  0.63918800  0.65951700  0.46318400  1
  Ni  Ni7  1  0.30053700  0.30053700  0.25000000  1
  Ni  Ni8  1  0.00000000  0.69946300  0.25000000  1
  Ni  Ni9  1  0.30053700  0.00000000  0.75000000  1
  Ni  Ni10  1  0.02032900  0.36081200  0.46318400  1
  Ni  Ni11  1  0.36081200  0.02032900  0.03681600  1
  Ni  Ni12  1  0.02032900  0.65951700  0.96318400  1
  Ni  Ni13  1  0.65951700  0.02032900  0.53681600  1
  Ni  Ni14  1  0.97967100  0.34048300  0.03681600  1
  Ni  Ni15  1  0.63918800  0.97967100  0.96318400  1
  Ni  Ni16  1  0.00000000  0.30053700  0.75000000  1
  Ni  Ni17  1  0.36081200  0.34048300  0.53681600  1
  Cu  Cu18  1  0.66666700  0.33333300  0.26388800  1
  Cu  Cu19  1  0.66666700  0.33333300  0.76388800  1
  Cu  Cu20  1  0.00000000  0.00000000  0.00000000  1
  Cu  Cu21  1  0.33333300  0.66666700  0.23611200  1
  Cu  Cu22  1  0.00000000  0.00000000  0.50000000  1
  Cu  Cu23  1  0.33333300  0.66666700  0.73611200  1
  C  C24  1  0.88216800  0.77315900  0.89280800  1
  C  C25  1  0.78398700  0.55255100  0.14481000  1
  C  C26  1  0.44744900  0.23143600  0.14481000  1
  C  C27  1  0.11783200  0.89099100  0.60719200  1
  C  C28  1  0.78398700  0.23143600  0.64481000  1
  C  C29  1  0.88216800  0.10900900  0.39280800  1
  C  C30  1  0.55255100  0.76856400  0.85519000  1
  C  C31  1  0.77315900  0.89099100  0.10719200  1
  C  C32  1  0.57131200  0.11192600  0.38152900  1
  C  C33  1  0.89099100  0.11783200  0.89280800  1
  C  C34  1  0.10900900  0.22684100  0.60719200  1
  C  C35  1  0.76856400  0.21601300  0.14481000  1
  C  C36  1  0.54061400  0.11192600  0.88152900  1
  C  C37  1  0.21601300  0.76856400  0.35519000  1
  C  C38  1  0.88807400  0.45938600  0.38152900  1
  C  C39  1  0.10900900  0.88216800  0.10719200  1
  C  C40  1  0.77315900  0.88216800  0.60719200  1
  C  C41  1  0.44744900  0.21601300  0.64481000  1
  C  C42  1  0.22684100  0.11783200  0.39280800  1
  C  C43  1  0.42868800  0.88807400  0.61847100  1
  C  C44  1  0.22684100  0.10900900  0.89280800  1
  C  C45  1  0.11783200  0.22684100  0.10719200  1
  C  C46  1  0.45938600  0.88807400  0.11847100  1
  C  C47  1  0.88807400  0.42868800  0.88152900  1
  C  C48  1  0.76856400  0.55255100  0.64481000  1
  C  C49  1  0.23143600  0.44744900  0.35519000  1
  C  C50  1  0.11192600  0.57131200  0.11847100  1
  C  C51  1  0.23143600  0.78398700  0.85519000  1
  C  C52  1  0.21601300  0.44744900  0.85519000  1
  C  C53  1  0.11192600  0.54061400  0.61847100  1
  C  C54  1  0.89099100  0.77315900  0.39280800  1
  C  C55  1  0.57131200  0.45938600  0.88152900  1
  C  C56  1  0.54061400  0.42868800  0.38152900  1
  C  C57  1  0.45938600  0.57131200  0.61847100  1
  C  C58  1  0.42868800  0.54061400  0.11847100  1
  C  C59  1  0.55255100  0.78398700  0.35519000  1
