# generated using pymatgen
data_Cu3NiC13
_symmetry_space_group_name_H-M   'P 1'
_cell_length_a   10.05845650
_cell_length_b   10.05845650
_cell_length_c   6.43034800
_cell_angle_alpha   90.00000000
_cell_angle_beta   90.00000000
_cell_angle_gamma   120.00000331
_symmetry_Int_Tables_number   1
_chemical_formula_structural   Cu3NiC13
_chemical_formula_sum   'Cu6 Ni2 C26'
_cell_volume   563.41418697
_cell_formula_units_Z   2
loop_
 _symmetry_equiv_pos_site_id
 _symmetry_equiv_pos_as_xyz
  1  'x, y, z'
loop_
 _atom_site_type_symbol
 _atom_site_label
 _atom_site_symmetry_multiplicity
 _atom_site_fract_x
 _atom_site_fract_y
 _atom_site_fract_z
 _atom_site_occupancy
  C  C0  1  0.66666700  0.33333300  0.75000000  1
  C  C1  1  0.33333300  0.66666700  0.25000000  1
  Ni  Ni2  1  0.00000000  0.00000000  0.00000000  1
  Ni  Ni3  1  0.00000000  0.00000000  0.50000000  1
  Cu  Cu4  1  0.61208400  0.70876700  0.75000000  1
  Cu  Cu5  1  0.90331700  0.61208400  0.25000000  1
  Cu  Cu6  1  0.29123300  0.90331700  0.75000000  1
  Cu  Cu7  1  0.09668300  0.38791600  0.75000000  1
  Cu  Cu8  1  0.38791600  0.29123300  0.25000000  1
  Cu  Cu9  1  0.70876700  0.09668300  0.25000000  1
  C  C10  1  0.21227300  0.47151600  0.97586600  1
  C  C11  1  0.97464800  0.81941500  0.25000000  1
  C  C12  1  0.47151600  0.25924300  0.02413400  1
  C  C13  1  0.74075700  0.21227300  0.02413400  1
  C  C14  1  0.74075700  0.21227300  0.47586600  1
  C  C15  1  0.42972400  0.48525400  0.25000000  1
  C  C16  1  0.02535200  0.18058500  0.75000000  1
  C  C17  1  0.15523300  0.97464800  0.75000000  1
  C  C18  1  0.52848400  0.74075700  0.52413400  1
  C  C19  1  0.25924300  0.78772700  0.97586600  1
  C  C20  1  0.25924300  0.78772700  0.52413400  1
  C  C21  1  0.52848400  0.74075700  0.97586600  1
  C  C22  1  0.94447100  0.42972400  0.75000000  1
  C  C23  1  0.18058500  0.15523300  0.25000000  1
  C  C24  1  0.05552900  0.57027600  0.25000000  1
  C  C25  1  0.48525400  0.05552900  0.75000000  1
  C  C26  1  0.51474600  0.94447100  0.25000000  1
  C  C27  1  0.78772700  0.52848400  0.47586600  1
  C  C28  1  0.78772700  0.52848400  0.02413400  1
  C  C29  1  0.57027600  0.51474600  0.75000000  1
  C  C30  1  0.81941500  0.84476700  0.75000000  1
  C  C31  1  0.21227300  0.47151600  0.52413400  1
  C  C32  1  0.84476700  0.02535200  0.25000000  1
  C  C33  1  0.47151600  0.25924300  0.47586600  1
