# generated using pymatgen
data_Cu3NiC
_symmetry_space_group_name_H-M   'P 1'
_cell_length_a   8.35938297
_cell_length_b   8.35938297
_cell_length_c   13.68171983
_cell_angle_alpha   84.54448273
_cell_angle_beta   84.54448273
_cell_angle_gamma   117.62240571
_symmetry_Int_Tables_number   1
_chemical_formula_structural   Cu3NiC
_chemical_formula_sum   'Cu12 Ni4 C4'
_cell_volume   832.70037497
_cell_formula_units_Z   4
loop_
 _symmetry_equiv_pos_site_id
 _symmetry_equiv_pos_as_xyz
  1  'x, y, z'
loop_
 _atom_site_type_symbol
 _atom_site_label
 _atom_site_symmetry_multiplicity
 _atom_site_fract_x
 _atom_site_fract_y
 _atom_site_fract_z
 _atom_site_occupancy
  C  C0  1  0.72397800  0.22303400  0.18951600  1
  C  C1  1  0.47974900  0.65875800  0.41302900  1
  C  C2  1  0.22303400  0.72397800  0.68951600  1
  C  C3  1  0.65875800  0.47974900  0.91302900  1
  Ni  Ni4  1  0.16917500  0.05667900  0.38869200  1
  Ni  Ni5  1  0.04873100  0.89966700  0.13260500  1
  Ni  Ni6  1  0.89966700  0.04873100  0.63260500  1
  Ni  Ni7  1  0.05667900  0.16917500  0.88869200  1
  Cu  Cu8  1  0.20678300  0.19773500  0.20503600  1
  Cu  Cu9  1  0.14211800  0.68669300  0.22461600  1
  Cu  Cu10  1  0.45780300  0.15334500  0.45479100  1
  Cu  Cu11  1  0.96826900  0.70429400  0.41518500  1
  Cu  Cu12  1  0.15334500  0.45780300  0.95479100  1
  Cu  Cu13  1  0.71249800  0.76803100  0.13286100  1
  Cu  Cu14  1  0.19773500  0.20678300  0.70503600  1
  Cu  Cu15  1  0.76803100  0.71249800  0.63286100  1
  Cu  Cu16  1  0.68669300  0.14211800  0.72461600  1
  Cu  Cu17  1  0.19928400  0.97137400  0.95156900  1
  Cu  Cu18  1  0.97137400  0.19928400  0.45156900  1
  Cu  Cu19  1  0.70429400  0.96826900  0.91518500  1
