# generated using pymatgen
data_Cu23Ni5C7
_symmetry_space_group_name_H-M   'P 1'
_cell_length_a   16.38989300
_cell_length_b   8.90879500
_cell_length_c   14.82098046
_cell_angle_alpha   71.35752797
_cell_angle_beta   90.00000000
_cell_angle_gamma   90.00000000
_symmetry_Int_Tables_number   1
_chemical_formula_structural   Cu23Ni5C7
_chemical_formula_sum   'Cu92 Ni20 C28'
_cell_volume   2050.52832474
_cell_formula_units_Z   4
loop_
 _symmetry_equiv_pos_site_id
 _symmetry_equiv_pos_as_xyz
  1  'x, y, z'
loop_
 _atom_site_type_symbol
 _atom_site_label
 _atom_site_symmetry_multiplicity
 _atom_site_fract_x
 _atom_site_fract_y
 _atom_site_fract_z
 _atom_site_occupancy
  C  C0  1  0.20228300  0.28533100  0.23830000  1
  C  C1  1  0.02354800  0.62354600  0.62279100  1
  C  C2  1  0.25232900  0.75411900  0.48655000  1
  C  C3  1  0.47428000  0.86470000  0.35600000  1
  C  C4  1  0.75232900  0.24588100  0.01345000  1
  C  C5  1  0.52572000  0.13530000  0.64400000  1
  C  C6  1  0.29771700  0.28533100  0.73830000  1
  C  C7  1  0.97428000  0.13530000  0.14400000  1
  C  C8  1  0.47645200  0.62354600  0.12279100  1
  C  C9  1  0.52354800  0.37645400  0.87720900  1
  C  C10  1  0.70228300  0.71466900  0.26170000  1
  C  C11  1  0.74767100  0.24588100  0.51345000  1
  C  C12  1  0.97645200  0.37645400  0.37720900  1
  C  C13  1  0.24767100  0.75411900  0.98655000  1
  C  C14  1  0.79771700  0.71466900  0.76170000  1
  C  C15  1  0.02572000  0.86470000  0.85600000  1
  C  C16  1  0.63862300  0.59725700  0.57982900  1
  C  C17  1  0.14105900  0.07606000  0.58799000  1
  C  C18  1  0.89088300  0.26213800  0.74635900  1
  C  C19  1  0.35894100  0.07606000  0.08799000  1
  C  C20  1  0.85894100  0.92394000  0.41201000  1
  C  C21  1  0.86137700  0.59725700  0.07982900  1
  C  C22  1  0.60911700  0.26213800  0.24635900  1
  C  C23  1  0.13862300  0.40274300  0.92017100  1
  C  C24  1  0.39088300  0.73786200  0.75364100  1
  C  C25  1  0.64105900  0.92394000  0.91201000  1
  C  C26  1  0.10911700  0.73786200  0.25364100  1
  C  C27  1  0.36137700  0.40274300  0.42017100  1
  Ni  Ni28  1  0.65578800  0.96223000  0.44103000  1
  Ni  Ni29  1  0.56286000  0.44181700  0.39907300  1
  Ni  Ni30  1  0.93714000  0.44181700  0.89907300  1
  Ni  Ni31  1  0.32163400  0.71791200  0.23549300  1
  Ni  Ni32  1  0.17836600  0.71791200  0.73549300  1
  Ni  Ni33  1  0.93524800  0.05740300  0.60131400  1
  Ni  Ni34  1  0.15578800  0.03777000  0.05897000  1
  Ni  Ni35  1  0.83857500  0.56487300  0.55572400  1
  Ni  Ni36  1  0.43524800  0.94259700  0.89868600  1
  Ni  Ni37  1  0.34421200  0.03777000  0.55897000  1
  Ni  Ni38  1  0.66142500  0.56487300  0.05572400  1
  Ni  Ni39  1  0.67836600  0.28208800  0.76450700  1
  Ni  Ni40  1  0.16142500  0.43512700  0.44427600  1
  Ni  Ni41  1  0.56475200  0.05740300  0.10131400  1
  Ni  Ni42  1  0.84421200  0.96223000  0.94103000  1
  Ni  Ni43  1  0.33857500  0.43512700  0.94427600  1
  Ni  Ni44  1  0.43714000  0.55818300  0.60092700  1
  Ni  Ni45  1  0.82163400  0.28208800  0.26450700  1
  Ni  Ni46  1  0.06475200  0.94259700  0.39868600  1
  Ni  Ni47  1  0.06286000  0.55818300  0.10092700  1
  Cu  Cu48  1  0.15057400  0.26104800  0.46089200  1
  Cu  Cu49  1  0.12361800  0.85987800  0.69089500  1
  Cu  Cu50  1  0.25484400  0.99937600  0.56041900  1
  Cu  Cu51  1  0.38174000  0.83640900  0.86223300  1
  Cu  Cu52  1  0.44902200  0.39993900  0.66890400  1
  Cu  Cu53  1  0.87969800  0.03773800  0.84300000  1
  Cu  Cu54  1  0.39004400  0.49567300  0.00418900  1
  Cu  Cu55  1  0.37038700  0.62673000  0.32229100  1
  Cu  Cu56  1  0.32827500  0.31314600  0.34762500  1
  Cu  Cu57  1  0.62361800  0.14012200  0.80910500  1
  Cu  Cu58  1  0.62030200  0.03773800  0.34300000  1
  Cu  Cu59  1  0.65057400  0.73895200  0.03910800  1
  Cu  Cu60  1  0.51593100  0.64849400  0.57737500  1
  Cu  Cu61  1  0.05097800  0.39993900  0.16890400  1
  Cu  Cu62  1  0.24930200  0.46874300  0.45973300  1
  Cu  Cu63  1  0.82752000  0.82968600  0.34091600  1
  Cu  Cu64  1  0.11826000  0.83640900  0.36223300  1
  Cu  Cu65  1  0.12193300  0.65205500  0.14047300  1
  Cu  Cu66  1  0.88363400  0.01599700  0.01297200  1
  Cu  Cu67  1  0.98150700  0.86807900  0.41797600  1
  Cu  Cu68  1  0.87038700  0.37327000  0.17770900  1
  Cu  Cu69  1  0.25587100  0.77123400  0.76619700  1
  Cu  Cu70  1  0.60995600  0.50432700  0.99581100  1
  Cu  Cu71  1  0.94902200  0.60006100  0.83109600  1
  Cu  Cu72  1  0.37638200  0.85987800  0.19089500  1
  Cu  Cu73  1  0.25069800  0.46874300  0.95973300  1
  Cu  Cu74  1  0.10213200  0.93583800  0.49178300  1
  Cu  Cu75  1  0.82827500  0.68685400  0.15237500  1
  Cu  Cu76  1  0.37969800  0.96226200  0.65700000  1
  Cu  Cu77  1  0.85577700  0.78844200  0.95590700  1
  Cu  Cu78  1  0.17172500  0.31314600  0.84762500  1
  Cu  Cu79  1  0.74930200  0.53125700  0.04026700  1
  Cu  Cu80  1  0.75069800  0.53125700  0.54026700  1
  Cu  Cu81  1  0.61826000  0.16359100  0.13776700  1
  Cu  Cu82  1  0.24515600  0.99937600  0.06041900  1
  Cu  Cu83  1  0.64073200  0.49064800  0.16007500  1
  Cu  Cu84  1  0.35926800  0.50935200  0.83992500  1
  Cu  Cu85  1  0.14073200  0.50935200  0.33992500  1
  Cu  Cu86  1  0.32752000  0.17031400  0.15908400  1
  Cu  Cu87  1  0.39786800  0.93583800  0.99178300  1
  Cu  Cu88  1  0.10068700  0.55538000  0.01004900  1
  Cu  Cu89  1  0.35577700  0.21155800  0.54409300  1
  Cu  Cu90  1  0.67248000  0.82968600  0.84091600  1
  Cu  Cu91  1  0.74412900  0.22876600  0.23380300  1
  Cu  Cu92  1  0.01066300  0.71621600  0.26247600  1
  Cu  Cu93  1  0.89931300  0.44462000  0.98995100  1
  Cu  Cu94  1  0.39931300  0.55538000  0.51004900  1
  Cu  Cu95  1  0.64422300  0.78844200  0.45590700  1
  Cu  Cu96  1  0.93860300  0.89746100  0.66936200  1
  Cu  Cu97  1  0.37806700  0.65205500  0.64047300  1
  Cu  Cu98  1  0.18950600  0.62599300  0.67064100  1
  Cu  Cu99  1  0.85926800  0.49064800  0.66007500  1
  Cu  Cu100  1  0.01849300  0.13192100  0.58202400  1
  Cu  Cu101  1  0.98406900  0.64849400  0.07737500  1
  Cu  Cu102  1  0.12030200  0.96226200  0.15700000  1
  Cu  Cu103  1  0.51066300  0.28378400  0.23752400  1
  Cu  Cu104  1  0.60068700  0.44462000  0.48995100  1
  Cu  Cu105  1  0.89004400  0.50432700  0.49581100  1
  Cu  Cu106  1  0.10995600  0.49567300  0.50418900  1
  Cu  Cu107  1  0.48406900  0.35150600  0.42262500  1
  Cu  Cu108  1  0.88174000  0.16359100  0.63776700  1
  Cu  Cu109  1  0.12961300  0.62673000  0.82229100  1
  Cu  Cu110  1  0.62193300  0.34794500  0.35952700  1
  Cu  Cu111  1  0.48933700  0.71621600  0.76247600  1
  Cu  Cu112  1  0.56139700  0.89746100  0.16936200  1
  Cu  Cu113  1  0.89786800  0.06416200  0.50821700  1
  Cu  Cu114  1  0.87806700  0.34794500  0.85952700  1
  Cu  Cu115  1  0.81049400  0.37400700  0.32935900  1
  Cu  Cu116  1  0.31049400  0.62599300  0.17064100  1
  Cu  Cu117  1  0.74515600  0.00062400  0.43958100  1
  Cu  Cu118  1  0.17248000  0.17031400  0.65908400  1
  Cu  Cu119  1  0.24412900  0.77123400  0.26619700  1
  Cu  Cu120  1  0.11636600  0.98400300  0.98702800  1
  Cu  Cu121  1  0.55097800  0.60006100  0.33109600  1
  Cu  Cu122  1  0.60213200  0.06416200  0.00821700  1
  Cu  Cu123  1  0.67172500  0.68685400  0.65237500  1
  Cu  Cu124  1  0.01593100  0.35150600  0.92262500  1
  Cu  Cu125  1  0.43860300  0.10253900  0.83063800  1
  Cu  Cu126  1  0.75587100  0.22876600  0.73380300  1
  Cu  Cu127  1  0.62961300  0.37327000  0.67770900  1
  Cu  Cu128  1  0.06139700  0.10253900  0.33063800  1
  Cu  Cu129  1  0.75484400  0.00062400  0.93958100  1
  Cu  Cu130  1  0.34942600  0.26104800  0.96089200  1
  Cu  Cu131  1  0.48150700  0.13192100  0.08202400  1
  Cu  Cu132  1  0.68950600  0.37400700  0.82935900  1
  Cu  Cu133  1  0.61636600  0.01599700  0.51297200  1
  Cu  Cu134  1  0.38363400  0.98400300  0.48702800  1
  Cu  Cu135  1  0.87638200  0.14012200  0.30910500  1
  Cu  Cu136  1  0.98933700  0.28378400  0.73752400  1
  Cu  Cu137  1  0.84942600  0.73895200  0.53910800  1
  Cu  Cu138  1  0.51849300  0.86807900  0.91797600  1
  Cu  Cu139  1  0.14422300  0.21155800  0.04409300  1
