# generated using pymatgen
data_CuNi2C7
_symmetry_space_group_name_H-M   'P 1'
_cell_length_a   7.52959588
_cell_length_b   7.52959588
_cell_length_c   5.52824700
_cell_angle_alpha   90.00000000
_cell_angle_beta   90.00000000
_cell_angle_gamma   108.13012967
_symmetry_Int_Tables_number   1
_chemical_formula_structural   CuNi2C7
_chemical_formula_sum   'Cu2 Ni4 C14'
_cell_volume   297.86218527
_cell_formula_units_Z   2
loop_
 _symmetry_equiv_pos_site_id
 _symmetry_equiv_pos_as_xyz
  1  'x, y, z'
loop_
 _atom_site_type_symbol
 _atom_site_label
 _atom_site_symmetry_multiplicity
 _atom_site_fract_x
 _atom_site_fract_y
 _atom_site_fract_z
 _atom_site_occupancy
  Ni  Ni0  1  0.40694000  0.19824900  0.38644100  1
  Ni  Ni1  1  0.80175100  0.59306000  0.38644100  1
  Ni  Ni2  1  0.59306000  0.80175100  0.88644100  1
  Ni  Ni3  1  0.19824900  0.40694000  0.88644100  1
  Cu  Cu4  1  0.90645200  0.09354800  0.39199100  1
  Cu  Cu5  1  0.09354800  0.90645200  0.89199100  1
  C  C6  1  0.31657700  0.68342300  0.34622700  1
  C  C7  1  0.68342300  0.31657700  0.84622700  1
  C  C8  1  0.15669800  0.15167200  0.63230000  1
  C  C9  1  0.09273900  0.58641900  0.23597500  1
  C  C10  1  0.15167200  0.15669800  0.13230000  1
  C  C11  1  0.84832800  0.84330200  0.63230000  1
  C  C12  1  0.84330200  0.84832800  0.13230000  1
  C  C13  1  0.55670400  0.44329600  0.70247000  1
  C  C14  1  0.31969400  0.68030600  0.66129000  1
  C  C15  1  0.90726100  0.41358100  0.73597500  1
  C  C16  1  0.58641900  0.09273900  0.73597500  1
  C  C17  1  0.44329600  0.55670400  0.20247000  1
  C  C18  1  0.68030600  0.31969400  0.16129000  1
  C  C19  1  0.41358100  0.90726100  0.23597500  1
