# generated using pymatgen
data_Cu(Ni2C)2
_symmetry_space_group_name_H-M   'P 1'
_cell_length_a   12.72378100
_cell_length_b   5.40264700
_cell_length_c   6.88010706
_cell_angle_alpha   66.54805002
_cell_angle_beta   90.00000000
_cell_angle_gamma   90.00000000
_symmetry_Int_Tables_number   1
_chemical_formula_structural   Cu(Ni2C)2
_chemical_formula_sum   'Cu4 Ni16 C8'
_cell_volume   433.88430715
_cell_formula_units_Z   4
loop_
 _symmetry_equiv_pos_site_id
 _symmetry_equiv_pos_as_xyz
  1  'x, y, z'
loop_
 _atom_site_type_symbol
 _atom_site_label
 _atom_site_symmetry_multiplicity
 _atom_site_fract_x
 _atom_site_fract_y
 _atom_site_fract_z
 _atom_site_occupancy
  C  C0  1  0.55579100  0.63599900  0.70358000  1
  C  C1  1  0.05579100  0.36400100  0.79642000  1
  C  C2  1  0.44420900  0.36400100  0.29642000  1
  C  C3  1  0.94420900  0.63599900  0.20358000  1
  C  C4  1  0.35907400  0.08365700  0.86396200  1
  C  C5  1  0.85907400  0.91634300  0.63603800  1
  C  C6  1  0.64092600  0.91634300  0.13603800  1
  C  C7  1  0.14092600  0.08365700  0.36396200  1
  Ni  Ni8  1  0.43616500  0.29764400  0.96470100  1
  Ni  Ni9  1  0.22774700  0.19457800  0.79014800  1
  Ni  Ni10  1  0.84684600  0.22668500  0.41462800  1
  Ni  Ni11  1  0.65315400  0.22668500  0.91462800  1
  Ni  Ni12  1  0.93616500  0.70235600  0.53529900  1
  Ni  Ni13  1  0.06383500  0.29764400  0.46470100  1
  Ni  Ni14  1  0.72774700  0.80542200  0.70985200  1
  Ni  Ni15  1  0.56383500  0.70235600  0.03529900  1
  Ni  Ni16  1  0.15315400  0.77331500  0.58537200  1
  Ni  Ni17  1  0.57032500  0.99967500  0.33475200  1
  Ni  Ni18  1  0.77225300  0.80542200  0.20985200  1
  Ni  Ni19  1  0.34684600  0.77331500  0.08537200  1
  Ni  Ni20  1  0.07032500  0.00032500  0.16524800  1
  Ni  Ni21  1  0.92967500  0.99967500  0.83475200  1
  Ni  Ni22  1  0.27225300  0.19457800  0.29014800  1
  Ni  Ni23  1  0.42967500  0.00032500  0.66524800  1
  Cu  Cu24  1  0.90144000  0.47789700  0.94619700  1
  Cu  Cu25  1  0.40144000  0.52210300  0.55380300  1
  Cu  Cu26  1  0.59856000  0.47789700  0.44619700  1
  Cu  Cu27  1  0.09856000  0.52210300  0.05380300  1
