# generated using pymatgen
data_Cu3NiC
_symmetry_space_group_name_H-M   'P 1'
_cell_length_a   8.78836135
_cell_length_b   8.78836135
_cell_length_c   6.24329000
_cell_angle_alpha   90.00000000
_cell_angle_beta   90.00000000
_cell_angle_gamma   119.99999511
_symmetry_Int_Tables_number   1
_chemical_formula_structural   Cu3NiC
_chemical_formula_sum   'Cu18 Ni6 C6'
_cell_volume   417.59950229
_cell_formula_units_Z   6
loop_
 _symmetry_equiv_pos_site_id
 _symmetry_equiv_pos_as_xyz
  1  'x, y, z'
loop_
 _atom_site_type_symbol
 _atom_site_label
 _atom_site_symmetry_multiplicity
 _atom_site_fract_x
 _atom_site_fract_y
 _atom_site_fract_z
 _atom_site_occupancy
  C  C0  1  0.00000000  0.68684200  0.00000000  1
  C  C1  1  0.68684200  0.00000000  0.00000000  1
  C  C2  1  0.31315800  0.31315800  0.00000000  1
  C  C3  1  0.35986800  0.00000000  0.50000000  1
  C  C4  1  0.64013200  0.64013200  0.50000000  1
  C  C5  1  0.00000000  0.35986800  0.50000000  1
  Ni  Ni6  1  0.66666700  0.33333300  0.64552700  1
  Ni  Ni7  1  0.00000000  0.00000000  0.26496200  1
  Ni  Ni8  1  0.00000000  0.00000000  0.73503800  1
  Ni  Ni9  1  0.66666700  0.33333300  0.18381600  1
  Ni  Ni10  1  0.33333300  0.66666700  0.81618400  1
  Ni  Ni11  1  0.33333300  0.66666700  0.35447300  1
  Cu  Cu12  1  0.00224500  0.14890100  0.74158900  1
  Cu  Cu13  1  0.99775500  0.14665700  0.25841100  1
  Cu  Cu14  1  0.82028200  0.34491200  0.18088800  1
  Cu  Cu15  1  0.19018700  0.67599500  0.35828600  1
  Cu  Cu16  1  0.85109900  0.85334300  0.74158900  1
  Cu  Cu17  1  0.14890100  0.00224500  0.25841100  1
  Cu  Cu18  1  0.80981300  0.48580800  0.64171400  1
  Cu  Cu19  1  0.47537100  0.65508800  0.81911200  1
  Cu  Cu20  1  0.85334300  0.85109900  0.25841100  1
  Cu  Cu21  1  0.65508800  0.47537100  0.18088800  1
  Cu  Cu22  1  0.32400500  0.51419200  0.35828600  1
  Cu  Cu23  1  0.67599500  0.19018700  0.64171400  1
  Cu  Cu24  1  0.34491200  0.82028200  0.81911200  1
  Cu  Cu25  1  0.17971800  0.52462900  0.81911200  1
  Cu  Cu26  1  0.14665700  0.99775500  0.74158900  1
  Cu  Cu27  1  0.51419200  0.32400500  0.64171400  1
  Cu  Cu28  1  0.52462900  0.17971800  0.18088800  1
  Cu  Cu29  1  0.48580800  0.80981300  0.35828600  1
