# generated using pymatgen
data_Cu4Ni6C
_symmetry_space_group_name_H-M   'P 1'
_cell_length_a   4.55275400
_cell_length_b   8.31356793
_cell_length_c   8.31356793
_cell_angle_alpha   119.99999942
_cell_angle_beta   90.00000000
_cell_angle_gamma   90.00000000
_symmetry_Int_Tables_number   1
_chemical_formula_structural   Cu4Ni6C
_chemical_formula_sum   'Cu4 Ni6 C1'
_cell_volume   272.50828970
_cell_formula_units_Z   1
loop_
 _symmetry_equiv_pos_site_id
 _symmetry_equiv_pos_as_xyz
  1  'x, y, z'
loop_
 _atom_site_type_symbol
 _atom_site_label
 _atom_site_symmetry_multiplicity
 _atom_site_fract_x
 _atom_site_fract_y
 _atom_site_fract_z
 _atom_site_occupancy
  C  C0  1  0.00000000  0.00000000  0.00000000  1
  Ni  Ni1  1  0.00000000  0.53474900  0.46525100  1
  Ni  Ni2  1  0.50000000  0.19798500  0.80201500  1
  Ni  Ni3  1  0.00000000  0.93050300  0.46525100  1
  Ni  Ni4  1  0.50000000  0.60403000  0.80201500  1
  Ni  Ni5  1  0.00000000  0.53474900  0.06949700  1
  Ni  Ni6  1  0.50000000  0.19798500  0.39597000  1
  Cu  Cu7  1  0.50000000  0.79392900  0.20607100  1
  Cu  Cu8  1  0.00000000  0.33333300  0.66666700  1
  Cu  Cu9  1  0.50000000  0.41214200  0.20607100  1
  Cu  Cu10  1  0.50000000  0.79392900  0.58785800  1
