# generated using pymatgen
data_CuNi3C7
_symmetry_space_group_name_H-M   'P 1'
_cell_length_a   6.39639983
_cell_length_b   6.39639983
_cell_length_c   6.39639912
_cell_angle_alpha   92.46592049
_cell_angle_beta   92.46592049
_cell_angle_gamma   92.46591895
_symmetry_Int_Tables_number   1
_chemical_formula_structural   CuNi3C7
_chemical_formula_sum   'Cu2 Ni6 C14'
_cell_volume   260.95323748
_cell_formula_units_Z   2
loop_
 _symmetry_equiv_pos_site_id
 _symmetry_equiv_pos_as_xyz
  1  'x, y, z'
loop_
 _atom_site_type_symbol
 _atom_site_label
 _atom_site_symmetry_multiplicity
 _atom_site_fract_x
 _atom_site_fract_y
 _atom_site_fract_z
 _atom_site_occupancy
  Ni  Ni0  1  0.38162900  0.75000000  0.11837100  1
  Ni  Ni1  1  0.75000000  0.11837100  0.38162900  1
  Ni  Ni2  1  0.11837100  0.38162900  0.75000000  1
  Ni  Ni3  1  0.88162900  0.61837100  0.25000000  1
  Ni  Ni4  1  0.25000000  0.88162900  0.61837100  1
  Ni  Ni5  1  0.61837100  0.25000000  0.88162900  1
  Cu  Cu6  1  0.25000000  0.25000000  0.25000000  1
  Cu  Cu7  1  0.75000000  0.75000000  0.75000000  1
  C  C8  1  0.50000000  0.50000000  0.50000000  1
  C  C9  1  0.00000000  0.00000000  0.00000000  1
  C  C10  1  0.08838300  0.95761200  0.29044500  1
  C  C11  1  0.91161700  0.04238800  0.70955500  1
  C  C12  1  0.70955500  0.91161700  0.04238800  1
  C  C13  1  0.95761200  0.29044500  0.08838300  1
  C  C14  1  0.20955500  0.54238800  0.41161700  1
  C  C15  1  0.04238800  0.70955500  0.91161700  1
  C  C16  1  0.45761200  0.58838300  0.79044500  1
  C  C17  1  0.41161700  0.20955500  0.54238800  1
  C  C18  1  0.54238800  0.41161700  0.20955500  1
  C  C19  1  0.79044500  0.45761200  0.58838300  1
  C  C20  1  0.29044500  0.08838300  0.95761200  1
  C  C21  1  0.58838300  0.79044500  0.45761200  1
