# generated using pymatgen
data_Cu(NiC)2
_symmetry_space_group_name_H-M   'P 1'
_cell_length_a   5.95918329
_cell_length_b   5.95918329
_cell_length_c   8.02688650
_cell_angle_alpha   89.79610506
_cell_angle_beta   89.79610506
_cell_angle_gamma   36.96267961
_symmetry_Int_Tables_number   1
_chemical_formula_structural   Cu(NiC)2
_chemical_formula_sum   'Cu2 Ni4 C4'
_cell_volume   171.39767344
_cell_formula_units_Z   2
loop_
 _symmetry_equiv_pos_site_id
 _symmetry_equiv_pos_as_xyz
  1  'x, y, z'
loop_
 _atom_site_type_symbol
 _atom_site_label
 _atom_site_symmetry_multiplicity
 _atom_site_fract_x
 _atom_site_fract_y
 _atom_site_fract_z
 _atom_site_occupancy
  C  C0  1  0.73468200  0.73468200  0.29338700  1
  C  C1  1  0.26531800  0.26531800  0.70661300  1
  C  C2  1  0.00000000  0.00000000  0.50000000  1
  C  C3  1  0.50000000  0.50000000  0.00000000  1
  Ni  Ni4  1  0.45120400  0.45120400  0.29771100  1
  Ni  Ni5  1  0.85875900  0.85875900  0.96522300  1
  Ni  Ni6  1  0.14124100  0.14124100  0.03477700  1
  Ni  Ni7  1  0.54879600  0.54879600  0.70228900  1
  Cu  Cu8  1  0.17361200  0.17361200  0.43318000  1
  Cu  Cu9  1  0.82638800  0.82638800  0.56682000  1
