# generated using pymatgen
data_CuNiC10
_symmetry_space_group_name_H-M   'P 1'
_cell_length_a   6.50545634
_cell_length_b   6.50545634
_cell_length_c   8.41453339
_cell_angle_alpha   75.31471687
_cell_angle_beta   75.31471687
_cell_angle_gamma   100.76741777
_symmetry_Int_Tables_number   1
_chemical_formula_structural   CuNiC10
_chemical_formula_sum   'Cu2 Ni2 C20'
_cell_volume   321.00414326
_cell_formula_units_Z   2
loop_
 _symmetry_equiv_pos_site_id
 _symmetry_equiv_pos_as_xyz
  1  'x, y, z'
loop_
 _atom_site_type_symbol
 _atom_site_label
 _atom_site_symmetry_multiplicity
 _atom_site_fract_x
 _atom_site_fract_y
 _atom_site_fract_z
 _atom_site_occupancy
  Ni  Ni0  1  0.20594500  0.36550200  0.21670000  1
  Ni  Ni1  1  0.63449800  0.79405500  0.78330000  1
  Cu  Cu2  1  0.71238200  0.73213000  0.28007100  1
  Cu  Cu3  1  0.26787000  0.28761800  0.71992900  1
  C  C4  1  0.71733600  0.28266400  0.00000000  1
  C  C5  1  0.19483800  0.80516200  0.50000000  1
  C  C6  1  0.29620900  0.93186900  0.11656600  1
  C  C7  1  0.64820600  0.13307600  0.39049000  1
  C  C8  1  0.86692400  0.35179400  0.60951000  1
  C  C9  1  0.06813100  0.70379100  0.88343400  1
  C  C10  1  0.47108400  0.78971100  0.14859100  1
  C  C11  1  0.15265900  0.84734100  0.00000000  1
  C  C12  1  0.81208700  0.58613600  0.00884000  1
  C  C13  1  0.09661200  0.89183800  0.29613800  1
  C  C14  1  0.41386400  0.18791300  0.99116000  1
  C  C15  1  0.79243100  0.12696300  0.20084400  1
  C  C16  1  0.51495000  0.86722400  0.47545700  1
  C  C17  1  0.50220700  0.31029400  0.39763800  1
  C  C18  1  0.13277600  0.48505000  0.52454300  1
  C  C19  1  0.68970600  0.49779300  0.60236200  1
  C  C20  1  0.82329500  0.17670500  0.50000000  1
  C  C21  1  0.87303700  0.20756900  0.79915600  1
  C  C22  1  0.10816200  0.90338800  0.70386200  1
  C  C23  1  0.21028900  0.52891600  0.85140900  1
