# generated using pymatgen
data_CuNiC6
_symmetry_space_group_name_H-M   'P 1'
_cell_length_a   5.50046100
_cell_length_b   11.06865000
_cell_length_c   15.79671600
_cell_angle_alpha   90.00000000
_cell_angle_beta   90.00000000
_cell_angle_gamma   90.00000000
_symmetry_Int_Tables_number   1
_chemical_formula_structural   CuNiC6
_chemical_formula_sum   'Cu8 Ni8 C48'
_cell_volume   961.74636812
_cell_formula_units_Z   8
loop_
 _symmetry_equiv_pos_site_id
 _symmetry_equiv_pos_as_xyz
  1  'x, y, z'
loop_
 _atom_site_type_symbol
 _atom_site_label
 _atom_site_symmetry_multiplicity
 _atom_site_fract_x
 _atom_site_fract_y
 _atom_site_fract_z
 _atom_site_occupancy
  C  C0  1  0.49835900  0.98563400  0.93802600  1
  C  C1  1  0.50164100  0.01436600  0.43802600  1
  C  C2  1  0.50164100  0.48563400  0.93802600  1
  C  C3  1  0.49835900  0.51436600  0.43802600  1
  C  C4  1  0.45248800  0.73823500  0.81623500  1
  C  C5  1  0.54751200  0.26176500  0.31623500  1
  C  C6  1  0.54751200  0.23823500  0.81623500  1
  C  C7  1  0.45248800  0.76176500  0.31623500  1
  C  C8  1  0.00473300  0.01378900  0.06124800  1
  C  C9  1  0.99526700  0.98621100  0.56124800  1
  C  C10  1  0.99526700  0.51378900  0.06124800  1
  C  C11  1  0.00473300  0.48621100  0.56124800  1
  C  C12  1  0.04986200  0.26450400  0.18537400  1
  C  C13  1  0.95013800  0.73549600  0.68537400  1
  C  C14  1  0.95013800  0.76450400  0.18537400  1
  C  C15  1  0.04986200  0.23549600  0.68537400  1
  Ni  Ni16  1  0.99240300  0.99207700  0.81125700  1
  Ni  Ni17  1  0.00759700  0.00792300  0.31125700  1
  Ni  Ni18  1  0.00759700  0.49207700  0.81125700  1
  Ni  Ni19  1  0.99240300  0.50792300  0.31125700  1
  Ni  Ni20  1  0.53450900  0.25913700  0.06376200  1
  Ni  Ni21  1  0.46549100  0.74086300  0.56376200  1
  Ni  Ni22  1  0.46549100  0.75913700  0.06376200  1
  Ni  Ni23  1  0.53450900  0.24086300  0.56376200  1
  Cu  Cu24  1  0.50972900  0.00751800  0.18908900  1
  Cu  Cu25  1  0.49027100  0.99248200  0.68908900  1
  Cu  Cu26  1  0.49027100  0.50751800  0.18908900  1
  Cu  Cu27  1  0.50972900  0.49248200  0.68908900  1
  Cu  Cu28  1  0.96796600  0.73589000  0.93563900  1
  Cu  Cu29  1  0.03203400  0.26411000  0.43563900  1
  Cu  Cu30  1  0.03203400  0.23589000  0.93563900  1
  Cu  Cu31  1  0.96796600  0.76411000  0.43563900  1
  C  C32  1  0.69913300  0.70347400  0.97708000  1
  C  C33  1  0.30086700  0.29652600  0.47708000  1
  C  C34  1  0.30086700  0.20347400  0.97708000  1
  C  C35  1  0.69913300  0.79652600  0.47708000  1
  C  C36  1  0.09328800  0.60787400  0.90264300  1
  C  C37  1  0.90671200  0.39212600  0.40264300  1
  C  C38  1  0.90671200  0.10787400  0.90264300  1
  C  C39  1  0.09328800  0.89212600  0.40264300  1
  C  C40  1  0.93166200  0.82631100  0.85342000  1
  C  C41  1  0.06833800  0.17368900  0.35342000  1
  C  C42  1  0.06833800  0.32631100  0.85342000  1
  C  C43  1  0.93166200  0.67368900  0.35342000  1
  C  C44  1  0.33299700  0.02203800  0.77622400  1
  C  C45  1  0.66700300  0.97796200  0.27622400  1
  C  C46  1  0.66700300  0.52203800  0.77622400  1
  C  C47  1  0.33299700  0.47796200  0.27622400  1
  C  C48  1  0.85156800  0.29574600  0.00839000  1
  C  C49  1  0.14843200  0.70425400  0.50839000  1
  C  C50  1  0.14843200  0.79574600  0.00839000  1
  C  C51  1  0.85156800  0.20425400  0.50839000  1
  C  C52  1  0.41319200  0.41601700  0.11043400  1
  C  C53  1  0.58680800  0.58398300  0.61043400  1
  C  C54  1  0.58680800  0.91601700  0.11043400  1
  C  C55  1  0.41319200  0.08398300  0.61043400  1
  C  C56  1  0.57079300  0.14873100  0.16084900  1
  C  C57  1  0.42920700  0.85126900  0.66084900  1
  C  C58  1  0.42920700  0.64873100  0.16084900  1
  C  C59  1  0.57079300  0.35126900  0.66084900  1
  C  C60  1  0.21795400  0.98683000  0.21033100  1
  C  C61  1  0.78204600  0.01317000  0.71033100  1
  C  C62  1  0.78204600  0.48683000  0.21033100  1
  C  C63  1  0.21795400  0.51317000  0.71033100  1
