# generated using pymatgen
data_Cu16NiC7
_symmetry_space_group_name_H-M   'P 1'
_cell_length_a   10.11207314
_cell_length_b   10.11207314
_cell_length_c   16.37794267
_cell_angle_alpha   79.52892514
_cell_angle_beta   79.52892514
_cell_angle_gamma   48.17573773
_symmetry_Int_Tables_number   1
_chemical_formula_structural   Cu16NiC7
_chemical_formula_sum   'Cu32 Ni2 C14'
_cell_volume   1223.00454456
_cell_formula_units_Z   2
loop_
 _symmetry_equiv_pos_site_id
 _symmetry_equiv_pos_as_xyz
  1  'x, y, z'
loop_
 _atom_site_type_symbol
 _atom_site_label
 _atom_site_symmetry_multiplicity
 _atom_site_fract_x
 _atom_site_fract_y
 _atom_site_fract_z
 _atom_site_occupancy
  C  C0  1  0.16686700  0.83313300  0.75000000  1
  C  C1  1  0.83313300  0.16686700  0.25000000  1
  Ni  Ni2  1  0.50000000  0.50000000  0.00000000  1
  Ni  Ni3  1  0.50000000  0.50000000  0.50000000  1
  Cu  Cu4  1  0.08697400  0.27580800  0.58293000  1
  Cu  Cu5  1  0.99032600  0.71477400  0.93698500  1
  Cu  Cu6  1  0.29892300  0.89946700  0.17107100  1
  Cu  Cu7  1  0.95869200  0.35978600  0.33284400  1
  Cu  Cu8  1  0.10053300  0.70107700  0.32892900  1
  Cu  Cu9  1  0.09839600  0.06593100  0.84929900  1
  Cu  Cu10  1  0.52362800  0.21558700  0.25837700  1
  Cu  Cu11  1  0.90160400  0.93406900  0.15070100  1
  Cu  Cu12  1  0.21558700  0.52362800  0.75837700  1
  Cu  Cu13  1  0.78441300  0.47637200  0.24162300  1
  Cu  Cu14  1  0.89946700  0.29892300  0.67107100  1
  Cu  Cu15  1  0.70107700  0.10053300  0.82892900  1
  Cu  Cu16  1  0.06593100  0.09839600  0.34929900  1
  Cu  Cu17  1  0.91302600  0.72419200  0.41707000  1
  Cu  Cu18  1  0.00967400  0.28522600  0.06301500  1
  Cu  Cu19  1  0.04130800  0.64021400  0.66715600  1
  Cu  Cu20  1  0.71477400  0.99032600  0.43698500  1
  Cu  Cu21  1  0.64021400  0.04130800  0.16715600  1
  Cu  Cu22  1  0.68175000  0.06553300  0.71353600  1
  Cu  Cu23  1  0.93406900  0.90160400  0.65070100  1
  Cu  Cu24  1  0.06553300  0.68175000  0.21353600  1
  Cu  Cu25  1  0.31825000  0.93446700  0.28646400  1
  Cu  Cu26  1  0.28522600  0.00967400  0.56301500  1
  Cu  Cu27  1  0.49889800  0.89900800  0.62757300  1
  Cu  Cu28  1  0.89900800  0.49889800  0.12757300  1
  Cu  Cu29  1  0.72419200  0.91302600  0.91707000  1
  Cu  Cu30  1  0.47637200  0.78441300  0.74162300  1
  Cu  Cu31  1  0.10099200  0.50110200  0.87242700  1
  Cu  Cu32  1  0.50110200  0.10099200  0.37242700  1
  Cu  Cu33  1  0.93446700  0.31825000  0.78646400  1
  Cu  Cu34  1  0.35978600  0.95869200  0.83284400  1
  Cu  Cu35  1  0.27580800  0.08697400  0.08293000  1
  C  C36  1  0.25799900  0.70592800  0.47829800  1
  C  C37  1  0.56805100  0.64060900  0.46498000  1
  C  C38  1  0.74200200  0.29407200  0.52170200  1
  C  C39  1  0.56294300  0.45056700  0.11284700  1
  C  C40  1  0.35939100  0.43194900  0.03502000  1
  C  C41  1  0.45056700  0.56294300  0.61284700  1
  C  C42  1  0.43705700  0.54943300  0.88715300  1
  C  C43  1  0.64060900  0.56805100  0.96498000  1
  C  C44  1  0.70592800  0.25799800  0.97829800  1
  C  C45  1  0.54943300  0.43705700  0.38715300  1
  C  C46  1  0.29407200  0.74200100  0.02170200  1
  C  C47  1  0.43194900  0.35939100  0.53502000  1
