# generated using pymatgen
data_Cu4NiC11
_symmetry_space_group_name_H-M   'P 1'
_cell_length_a   12.05070768
_cell_length_b   12.05070768
_cell_length_c   13.80013688
_cell_angle_alpha   87.71236782
_cell_angle_beta   87.71236782
_cell_angle_gamma   34.46615941
_symmetry_Int_Tables_number   1
_chemical_formula_structural   Cu4NiC11
_chemical_formula_sum   'Cu16 Ni4 C44'
_cell_volume   1133.13973399
_cell_formula_units_Z   4
loop_
 _symmetry_equiv_pos_site_id
 _symmetry_equiv_pos_as_xyz
  1  'x, y, z'
loop_
 _atom_site_type_symbol
 _atom_site_label
 _atom_site_symmetry_multiplicity
 _atom_site_fract_x
 _atom_site_fract_y
 _atom_site_fract_z
 _atom_site_occupancy
  C  C0  1  0.14510800  0.38864000  0.34969600  1
  C  C1  1  0.38864000  0.14510800  0.84969600  1
  C  C2  1  0.85489200  0.61136000  0.65030400  1
  C  C3  1  0.61136000  0.85489200  0.15030400  1
  C  C4  1  0.49917800  0.65271700  0.38019100  1
  C  C5  1  0.87273100  0.96316000  0.38809300  1
  C  C6  1  0.03684000  0.12726900  0.11190700  1
  C  C7  1  0.65271700  0.49917800  0.88019100  1
  C  C8  1  0.34728300  0.50082200  0.11980900  1
  C  C9  1  0.12726900  0.03684000  0.61190700  1
  C  C10  1  0.50082200  0.34728300  0.61980900  1
  C  C11  1  0.96316000  0.87273100  0.88809300  1
  C  C12  1  0.29537100  0.01903900  0.58276900  1
  C  C13  1  0.21328200  0.48117600  0.08798400  1
  C  C14  1  0.51882400  0.78671800  0.41201600  1
  C  C15  1  0.78671800  0.51882400  0.91201600  1
  C  C16  1  0.48117600  0.21328200  0.58798400  1
  C  C17  1  0.70462900  0.98096100  0.41723100  1
  C  C18  1  0.01903900  0.29537100  0.08276900  1
  C  C19  1  0.98096100  0.70462900  0.91723100  1
  Ni  Ni20  1  0.52315400  0.18065600  0.47420300  1
  Ni  Ni21  1  0.47684600  0.81934400  0.52579700  1
  Ni  Ni22  1  0.81934400  0.47684600  0.02579700  1
  Ni  Ni23  1  0.18065600  0.52315400  0.97420300  1
  Cu  Cu24  1  0.96151600  0.37802200  0.85084900  1
  Cu  Cu25  1  0.27517200  0.35875200  0.60479600  1
  Cu  Cu26  1  0.99318800  0.36575000  0.17629400  1
  Cu  Cu27  1  0.63425000  0.00681200  0.32370600  1
  Cu  Cu28  1  0.03848400  0.62197800  0.14915100  1
  Cu  Cu29  1  0.62197800  0.03848400  0.64915100  1
  Cu  Cu30  1  0.35875200  0.27517200  0.10479600  1
  Cu  Cu31  1  0.37802200  0.96151600  0.35084900  1
  Cu  Cu32  1  0.82715900  0.80182500  0.47151700  1
  Cu  Cu33  1  0.64124800  0.72482800  0.89520400  1
  Cu  Cu34  1  0.19817500  0.17284100  0.02848300  1
  Cu  Cu35  1  0.80182500  0.82715900  0.97151700  1
  Cu  Cu36  1  0.00681200  0.63425000  0.82370600  1
  Cu  Cu37  1  0.36575100  0.99318800  0.67629400  1
  Cu  Cu38  1  0.72482800  0.64124800  0.39520400  1
  Cu  Cu39  1  0.17284100  0.19817500  0.52848300  1
  C  C40  1  0.87328200  0.22320200  0.15726100  1
  C  C41  1  0.48568700  0.62554200  0.93288000  1
  C  C42  1  0.51431300  0.37445800  0.06712000  1
  C  C43  1  0.23495900  0.68436000  0.10456900  1
  C  C44  1  0.93306000  0.95225800  0.97021600  1
  C  C45  1  0.45439800  0.39239900  0.71515200  1
  C  C46  1  0.54560200  0.60760100  0.28484800  1
  C  C47  1  0.80773000  0.01883900  0.82918700  1
  C  C48  1  0.68436000  0.23495900  0.60456900  1
  C  C49  1  0.98116100  0.19227000  0.67081300  1
  C  C50  1  0.01883900  0.80773000  0.32918700  1
  C  C51  1  0.95225800  0.93306100  0.47021600  1
  C  C52  1  0.04774200  0.06694000  0.52978400  1
  C  C53  1  0.39239900  0.45439800  0.21515200  1
  C  C54  1  0.37445800  0.51431300  0.56712000  1
  C  C55  1  0.12671800  0.77679800  0.84273900  1
  C  C56  1  0.76504100  0.31564000  0.89543100  1
  C  C57  1  0.31564000  0.76504100  0.39543100  1
  C  C58  1  0.22320200  0.87328200  0.65726100  1
  C  C59  1  0.77679800  0.12671800  0.34273900  1
  C  C60  1  0.19227000  0.98116100  0.17081300  1
  C  C61  1  0.62554200  0.48568700  0.43288000  1
  C  C62  1  0.60760100  0.54560200  0.78484800  1
  C  C63  1  0.06693900  0.04774200  0.02978400  1
