# generated using pymatgen
data_Cu4Ni2C5
_symmetry_space_group_name_H-M   'P 1'
_cell_length_a   4.04216202
_cell_length_b   4.04216202
_cell_length_c   14.71145200
_cell_angle_alpha   90.00000000
_cell_angle_beta   90.00000000
_cell_angle_gamma   120.00000031
_symmetry_Int_Tables_number   1
_chemical_formula_structural   Cu4Ni2C5
_chemical_formula_sum   'Cu4 Ni2 C5'
_cell_volume   208.16782447
_cell_formula_units_Z   1
loop_
 _symmetry_equiv_pos_site_id
 _symmetry_equiv_pos_as_xyz
  1  'x, y, z'
loop_
 _atom_site_type_symbol
 _atom_site_label
 _atom_site_symmetry_multiplicity
 _atom_site_fract_x
 _atom_site_fract_y
 _atom_site_fract_z
 _atom_site_occupancy
  C  C0  1  0.00000000  0.00000000  0.73200800  1
  C  C1  1  0.00000000  0.00000000  0.00000000  1
  C  C2  1  0.00000000  0.00000000  0.26799200  1
  C  C3  1  0.33333300  0.66666700  0.43815000  1
  C  C4  1  0.66666700  0.33333300  0.56185000  1
  Ni  Ni5  1  0.33333300  0.66666700  0.86457700  1
  Ni  Ni6  1  0.66666700  0.33333300  0.13542300  1
  Cu  Cu7  1  0.33333300  0.66666700  0.13405600  1
  Cu  Cu8  1  0.66666700  0.33333300  0.86594400  1
  Cu  Cu9  1  0.33333300  0.66666700  0.61061700  1
  Cu  Cu10  1  0.66666700  0.33333300  0.38938300  1
