# generated using pymatgen
data_CuNiC4
_symmetry_space_group_name_H-M   'P 1'
_cell_length_a   5.58810526
_cell_length_b   5.58810526
_cell_length_c   5.58810526
_cell_angle_alpha   130.80358332
_cell_angle_beta   130.80358332
_cell_angle_gamma   72.12533024
_symmetry_Int_Tables_number   1
_chemical_formula_structural   CuNiC4
_chemical_formula_sum   'Cu1 Ni1 C4'
_cell_volume   97.76407299
_cell_formula_units_Z   1
loop_
 _symmetry_equiv_pos_site_id
 _symmetry_equiv_pos_as_xyz
  1  'x, y, z'
loop_
 _atom_site_type_symbol
 _atom_site_label
 _atom_site_symmetry_multiplicity
 _atom_site_fract_x
 _atom_site_fract_y
 _atom_site_fract_z
 _atom_site_occupancy
  Ni  Ni0  1  0.00000000  0.00000000  0.00000000  1
  Cu  Cu1  1  0.25000000  0.75000000  0.50000000  1
  C  C2  1  0.00803000  0.17613200  0.83189800  1
  C  C3  1  0.34423500  0.17613200  0.16810200  1
  C  C4  1  0.82386800  0.65576500  0.83189800  1
  C  C5  1  0.82386800  0.99197000  0.16810200  1
