# generated using pymatgen
data_CuNiC
_symmetry_space_group_name_H-M   'P 1'
_cell_length_a   14.63527098
_cell_length_b   14.63527098
_cell_length_c   14.63527098
_cell_angle_alpha   97.24963831
_cell_angle_beta   97.24963831
_cell_angle_gamma   138.38416632
_symmetry_Int_Tables_number   1
_chemical_formula_structural   CuNiC
_chemical_formula_sum   'Cu16 Ni16 C16'
_cell_volume   1946.09973150
_cell_formula_units_Z   16
loop_
 _symmetry_equiv_pos_site_id
 _symmetry_equiv_pos_as_xyz
  1  'x, y, z'
loop_
 _atom_site_type_symbol
 _atom_site_label
 _atom_site_symmetry_multiplicity
 _atom_site_fract_x
 _atom_site_fract_y
 _atom_site_fract_z
 _atom_site_occupancy
  C  C0  1  0.26001400  0.83546700  0.85940200  1
  C  C1  1  0.65061200  0.01001400  0.92454700  1
  C  C2  1  0.08546700  0.72606500  0.07545300  1
  C  C3  1  0.97606500  0.40061200  0.14059800  1
  C  C4  1  0.98998600  0.91453300  0.64059800  1
  C  C5  1  0.59938800  0.73998600  0.57545300  1
  C  C6  1  0.16453300  0.02393500  0.42454700  1
  C  C7  1  0.27393500  0.34938800  0.35940200  1
  C  C8  1  0.94635600  0.39888000  0.85101700  1
  C  C9  1  0.34534000  0.69635600  0.04747600  1
  C  C10  1  0.64888000  0.29786400  0.95252400  1
  C  C11  1  0.54786400  0.09534000  0.14898300  1
  C  C12  1  0.30364400  0.35112000  0.64898300  1
  C  C13  1  0.90466000  0.05364400  0.45252400  1
  C  C14  1  0.60112000  0.45213600  0.54747600  1
  C  C15  1  0.70213600  0.65466000  0.35101700  1
  Ni  Ni16  1  0.00084800  0.62278300  0.88195300  1
  Ni  Ni17  1  0.36889600  0.75084800  0.87806600  1
  Ni  Ni18  1  0.87278300  0.49083000  0.12193400  1
  Ni  Ni19  1  0.74083000  0.11889600  0.11804700  1
  Ni  Ni20  1  0.24915200  0.12721700  0.61804700  1
  Ni  Ni21  1  0.88110400  0.99915200  0.62193400  1
  Ni  Ni22  1  0.37721700  0.25917000  0.37806600  1
  Ni  Ni23  1  0.50917000  0.63110400  0.38195300  1
  Ni  Ni24  1  0.41351300  0.08509500  0.00002100  1
  Ni  Ni25  1  0.66349200  0.16351300  0.82841900  1
  Ni  Ni26  1  0.33509500  0.83507400  0.17158100  1
  Ni  Ni27  1  0.08507400  0.41349200  0.99997900  1
  Ni  Ni28  1  0.83648700  0.66490500  0.49997900  1
  Ni  Ni29  1  0.58650800  0.58648700  0.67158100  1
  Ni  Ni30  1  0.91490500  0.91492600  0.32841900  1
  Ni  Ni31  1  0.16492600  0.33650800  0.50002100  1
  Cu  Cu32  1  0.22660100  0.84321100  0.67480300  1
  Cu  Cu33  1  0.80179800  0.97660100  0.88339000  1
  Cu  Cu34  1  0.09321100  0.91840800  0.11661000  1
  Cu  Cu35  1  0.16840800  0.55179800  0.32519700  1
  Cu  Cu36  1  0.02339900  0.90678900  0.82519700  1
  Cu  Cu37  1  0.44820200  0.77339900  0.61661000  1
  Cu  Cu38  1  0.15678900  0.83159200  0.38339000  1
  Cu  Cu39  1  0.08159200  0.19820200  0.17480300  1
  Cu  Cu40  1  0.97181900  0.35840300  0.67460500  1
  Cu  Cu41  1  0.54721500  0.72181900  0.11341600  1
  Cu  Cu42  1  0.60840300  0.43379900  0.88658400  1
  Cu  Cu43  1  0.68379900  0.29721500  0.32539500  1
  Cu  Cu44  1  0.27818100  0.39159700  0.82539500  1
  Cu  Cu45  1  0.70278500  0.02818100  0.38658400  1
  Cu  Cu46  1  0.64159700  0.31620100  0.61341600  1
  Cu  Cu47  1  0.56620100  0.45278500  0.17460500  1
