# generated using pymatgen
data_Cu4NiC20
_symmetry_space_group_name_H-M   'P 1'
_cell_length_a   10.69356457
_cell_length_b   10.69356457
_cell_length_c   10.69356457
_cell_angle_alpha   112.82624700
_cell_angle_beta   112.82624700
_cell_angle_gamma   102.95138943
_symmetry_Int_Tables_number   1
_chemical_formula_structural   Cu4NiC20
_chemical_formula_sum   'Cu8 Ni2 C40'
_cell_volume   932.33950229
_cell_formula_units_Z   2
loop_
 _symmetry_equiv_pos_site_id
 _symmetry_equiv_pos_as_xyz
  1  'x, y, z'
loop_
 _atom_site_type_symbol
 _atom_site_label
 _atom_site_symmetry_multiplicity
 _atom_site_fract_x
 _atom_site_fract_y
 _atom_site_fract_z
 _atom_site_occupancy
  C  C0  1  0.42150800  0.78029900  0.16512300  1
  C  C1  1  0.53029900  0.86517600  0.85879100  1
  C  C2  1  0.61517600  0.25638500  0.83487700  1
  C  C3  1  0.00638500  0.67150800  0.14120900  1
  C  C4  1  0.21970100  0.38482400  0.64120900  1
  C  C5  1  0.74361500  0.57849200  0.35879100  1
  C  C6  1  0.32849200  0.46970100  0.33487700  1
  C  C7  1  0.13482400  0.99361500  0.66512300  1
  Ni  Ni8  1  0.00000000  0.00000000  0.00000000  1
  Ni  Ni9  1  0.75000000  0.25000000  0.50000000  1
  Cu  Cu10  1  0.08095300  0.66896400  0.76792400  1
  Cu  Cu11  1  0.90104000  0.31303000  0.23207600  1
  Cu  Cu12  1  0.84896000  0.93697000  0.26792400  1
  Cu  Cu13  1  0.33103600  0.09896000  0.41198900  1
  Cu  Cu14  1  0.66904700  0.58103600  0.73207600  1
  Cu  Cu15  1  0.41896400  0.15104000  0.08801100  1
  Cu  Cu16  1  0.06303000  0.33095300  0.91198900  1
  Cu  Cu17  1  0.68697000  0.91904700  0.58801100  1
  C  C18  1  0.21340400  0.03876000  0.96697100  1
  C  C19  1  0.86422600  0.41633300  0.13716900  1
  C  C20  1  0.02619500  0.71299600  0.61804300  1
  C  C21  1  0.71837700  0.48489200  0.58705400  1
  C  C22  1  0.75356800  0.78659600  0.82535600  1
  C  C23  1  0.78876000  0.32178900  0.32535600  1
  C  C24  1  0.59184800  0.97380500  0.68680100  1
  C  C25  1  0.27916400  0.72705600  0.86283100  1
  C  C26  1  0.27294400  0.13577400  0.55210800  1
  C  C27  1  0.47083600  0.52294400  0.63716900  1
  C  C28  1  0.67821100  0.00356800  0.46697100  1
  C  C29  1  0.16633300  0.52916400  0.05210800  1
  C  C30  1  0.85216300  0.11867700  0.08705400  1
  C  C31  1  0.53659600  0.21124000  0.53302900  1
  C  C32  1  0.89783700  0.13132300  0.41294600  1
  C  C33  1  0.86867700  0.28162300  0.76651500  1
  C  C34  1  0.72380500  0.53700400  0.88195700  1
  C  C35  1  0.65504700  0.84184800  0.11804300  1
  C  C36  1  0.88132300  0.96837700  0.73348500  1
  C  C37  1  0.99643200  0.46340400  0.67464400  1
  C  C38  1  0.09495300  0.40815200  0.38195700  1
  C  C39  1  0.07178900  0.24643200  0.03302900  1
  C  C40  1  0.51510800  0.10216300  0.23348500  1
  C  C41  1  0.88577400  0.83366700  0.36283100  1
  C  C42  1  0.46299600  0.34495300  0.18680100  1
  C  C43  1  0.47705600  0.11422600  0.94789200  1
  C  C44  1  0.96124000  0.92821100  0.17464400  1
  C  C45  1  0.15815200  0.27619500  0.81319900  1
  C  C46  1  0.03162300  0.76510800  0.91294600  1
  C  C47  1  0.28700400  0.90504700  0.31319900  1
  C  C48  1  0.23489200  0.14783700  0.26651500  1
  C  C49  1  0.58366700  0.72083600  0.44789200  1
