# generated using pymatgen
data_CuNiC14
_symmetry_space_group_name_H-M   'P 1'
_cell_length_a   5.03492800
_cell_length_b   10.03938200
_cell_length_c   14.22997000
_cell_angle_alpha   90.00000000
_cell_angle_beta   90.00000000
_cell_angle_gamma   90.00000000
_symmetry_Int_Tables_number   1
_chemical_formula_structural   CuNiC14
_chemical_formula_sum   'Cu4 Ni4 C56'
_cell_volume   719.29034113
_cell_formula_units_Z   4
loop_
 _symmetry_equiv_pos_site_id
 _symmetry_equiv_pos_as_xyz
  1  'x, y, z'
loop_
 _atom_site_type_symbol
 _atom_site_label
 _atom_site_symmetry_multiplicity
 _atom_site_fract_x
 _atom_site_fract_y
 _atom_site_fract_z
 _atom_site_occupancy
  Ni  Ni0  1  0.05540700  0.26826600  0.25000000  1
  Ni  Ni1  1  0.94459300  0.73173400  0.75000000  1
  Ni  Ni2  1  0.05540700  0.23173400  0.75000000  1
  Ni  Ni3  1  0.94459300  0.76826600  0.25000000  1
  C  C4  1  0.51746000  0.22460200  0.87228100  1
  C  C5  1  0.95883300  0.99674400  0.62759000  1
  C  C6  1  0.04116700  0.00325600  0.12759000  1
  C  C7  1  0.48254000  0.72460200  0.87228100  1
  C  C8  1  0.04116700  0.00325600  0.37241000  1
  C  C9  1  0.51746000  0.27539800  0.12771900  1
  C  C10  1  0.95883300  0.50325600  0.37241000  1
  C  C11  1  0.95883300  0.99674400  0.87241000  1
  C  C12  1  0.51746000  0.22460200  0.62771900  1
  C  C13  1  0.95883300  0.50325600  0.12759000  1
  C  C14  1  0.48254000  0.72460200  0.62771900  1
  C  C15  1  0.04116700  0.49674400  0.87241000  1
  C  C16  1  0.51746000  0.27539800  0.37228100  1
  C  C17  1  0.48254000  0.77539800  0.37228100  1
  C  C18  1  0.48254000  0.77539800  0.12771900  1
  C  C19  1  0.04116700  0.49674400  0.62759000  1
  Cu  Cu20  1  0.50000000  0.00000000  0.50000000  1
  Cu  Cu21  1  0.50000000  0.50000000  0.00000000  1
  Cu  Cu22  1  0.50000000  0.00000000  0.00000000  1
  Cu  Cu23  1  0.50000000  0.50000000  0.50000000  1
  C  C24  1  0.47405900  0.97576700  0.75000000  1
  C  C25  1  0.52594100  0.47576700  0.75000000  1
  C  C26  1  0.47405900  0.52423300  0.25000000  1
  C  C27  1  0.52594100  0.02423300  0.25000000  1
  C  C28  1  0.98259900  0.75000000  0.00000000  1
  C  C29  1  0.01740100  0.25000000  0.50000000  1
  C  C30  1  0.98259900  0.75000000  0.50000000  1
  C  C31  1  0.01740100  0.25000000  0.00000000  1
  C  C32  1  0.66525700  0.54505300  0.65557500  1
  C  C33  1  0.58149500  0.31237600  0.75000000  1
  C  C34  1  0.21046300  0.33516500  0.57284900  1
  C  C35  1  0.21046300  0.16483500  0.07284900  1
  C  C36  1  0.33474300  0.04505300  0.65557500  1
  C  C37  1  0.33474300  0.45494700  0.34442500  1
  C  C38  1  0.66525700  0.95494700  0.15557500  1
  C  C39  1  0.78953700  0.83516500  0.57284900  1
  C  C40  1  0.17858600  0.65036900  0.56090400  1
  C  C41  1  0.79747300  0.49991900  0.25000000  1
  C  C42  1  0.79747300  0.00008100  0.75000000  1
  C  C43  1  0.82141400  0.15036900  0.56090400  1
  C  C44  1  0.17858600  0.84963100  0.06090400  1
  C  C45  1  0.66525700  0.54505300  0.84442500  1
  C  C46  1  0.58149500  0.18762400  0.25000000  1
  C  C47  1  0.66525700  0.95494700  0.34442500  1
  C  C48  1  0.17858600  0.84963100  0.43909600  1
  C  C49  1  0.20252700  0.50008100  0.75000000  1
  C  C50  1  0.82141400  0.34963100  0.06090400  1
  C  C51  1  0.82141400  0.15036900  0.93909600  1
  C  C52  1  0.20252700  0.99991900  0.25000000  1
  C  C53  1  0.17858600  0.65036900  0.93909600  1
  C  C54  1  0.21046300  0.16483500  0.42715100  1
  C  C55  1  0.78953700  0.83516500  0.92715100  1
  C  C56  1  0.33474300  0.04505300  0.84442500  1
  C  C57  1  0.33474300  0.45494700  0.15557500  1
  C  C58  1  0.41850500  0.68762400  0.25000000  1
  C  C59  1  0.21046300  0.33516500  0.92715100  1
  C  C60  1  0.41850500  0.81237600  0.75000000  1
  C  C61  1  0.78953700  0.66483500  0.42715100  1
  C  C62  1  0.78953700  0.66483500  0.07284900  1
  C  C63  1  0.82141400  0.34963100  0.43909600  1
