# generated using pymatgen
data_CuNi3C8
_symmetry_space_group_name_H-M   'P 1'
_cell_length_a   7.19956700
_cell_length_b   9.08999300
_cell_length_c   11.28573000
_cell_angle_alpha   90.00000000
_cell_angle_beta   90.00000000
_cell_angle_gamma   90.00000000
_symmetry_Int_Tables_number   1
_chemical_formula_structural   CuNi3C8
_chemical_formula_sum   'Cu4 Ni12 C32'
_cell_volume   738.58346798
_cell_formula_units_Z   4
loop_
 _symmetry_equiv_pos_site_id
 _symmetry_equiv_pos_as_xyz
  1  'x, y, z'
loop_
 _atom_site_type_symbol
 _atom_site_label
 _atom_site_symmetry_multiplicity
 _atom_site_fract_x
 _atom_site_fract_y
 _atom_site_fract_z
 _atom_site_occupancy
  Ni  Ni0  1  0.50358300  0.30092700  0.40299800  1
  Ni  Ni1  1  0.25000000  0.06087500  0.63039000  1
  Ni  Ni2  1  0.25000000  0.56087500  0.86961000  1
  Ni  Ni3  1  0.75000000  0.43912500  0.13039000  1
  Ni  Ni4  1  0.00358300  0.69907300  0.59700200  1
  Ni  Ni5  1  0.49641700  0.69907300  0.59700200  1
  Ni  Ni6  1  0.99641700  0.80092700  0.09700200  1
  Ni  Ni7  1  0.75000000  0.93912500  0.36961000  1
  Ni  Ni8  1  0.50358300  0.80092700  0.09700200  1
  Ni  Ni9  1  0.99641700  0.30092700  0.40299800  1
  Ni  Ni10  1  0.00358300  0.19907300  0.90299800  1
  Ni  Ni11  1  0.49641700  0.19907300  0.90299800  1
  Cu  Cu12  1  0.25000000  0.12617600  0.16886100  1
  Cu  Cu13  1  0.75000000  0.37382400  0.66886100  1
  Cu  Cu14  1  0.75000000  0.87382400  0.83113900  1
  Cu  Cu15  1  0.25000000  0.62617600  0.33113900  1
  C  C16  1  0.25000000  0.93746800  0.37347300  1
  C  C17  1  0.75000000  0.58874500  0.38396700  1
  C  C18  1  0.25000000  0.43746800  0.12652700  1
  C  C19  1  0.25000000  0.41125500  0.61603300  1
  C  C20  1  0.25000000  0.91125500  0.88396700  1
  C  C21  1  0.75000000  0.08874500  0.11603300  1
  C  C22  1  0.75000000  0.56253200  0.87347300  1
  C  C23  1  0.75000000  0.06253200  0.62652700  1
  C  C24  1  0.75000000  0.66088200  0.96640100  1
  C  C25  1  0.58141500  0.62785800  0.33084100  1
  C  C26  1  0.25000000  0.58851400  0.11592700  1
  C  C27  1  0.75000000  0.16088200  0.53359900  1
  C  C28  1  0.41858500  0.37214200  0.66915900  1
  C  C29  1  0.75000000  0.00844400  0.01014300  1
  C  C30  1  0.25000000  0.49155600  0.51014300  1
  C  C31  1  0.75000000  0.50844400  0.48985700  1
  C  C32  1  0.08141500  0.87214200  0.83084100  1
  C  C33  1  0.25000000  0.33911800  0.03359900  1
  C  C34  1  0.25000000  0.99155600  0.98985700  1
  C  C35  1  0.75000000  0.41148600  0.88407300  1
  C  C36  1  0.41858500  0.87214200  0.83084100  1
  C  C37  1  0.25000000  0.08851400  0.38407300  1
  C  C38  1  0.25000000  0.87836900  0.25760200  1
  C  C39  1  0.25000000  0.37836900  0.24239800  1
  C  C40  1  0.75000000  0.91148600  0.61592700  1
  C  C41  1  0.91858500  0.62785800  0.33084100  1
  C  C42  1  0.25000000  0.83911800  0.46640100  1
  C  C43  1  0.75000000  0.62163100  0.75760200  1
  C  C44  1  0.91858500  0.12785800  0.16915900  1
  C  C45  1  0.08141500  0.37214200  0.66915900  1
  C  C46  1  0.58141500  0.12785800  0.16915900  1
  C  C47  1  0.75000000  0.12163100  0.74239800  1
