# generated using pymatgen
data_Cu23Ni6C7
_symmetry_space_group_name_H-M   'P 1'
_cell_length_a   9.70541753
_cell_length_b   9.70541753
_cell_length_c   9.93145300
_cell_angle_alpha   90.00000000
_cell_angle_beta   90.00000000
_cell_angle_gamma   119.99999680
_symmetry_Int_Tables_number   1
_chemical_formula_structural   Cu23Ni6C7
_chemical_formula_sum   'Cu23 Ni6 C7'
_cell_volume   810.16202897
_cell_formula_units_Z   1
loop_
 _symmetry_equiv_pos_site_id
 _symmetry_equiv_pos_as_xyz
  1  'x, y, z'
loop_
 _atom_site_type_symbol
 _atom_site_label
 _atom_site_symmetry_multiplicity
 _atom_site_fract_x
 _atom_site_fract_y
 _atom_site_fract_z
 _atom_site_occupancy
  C  C0  1  0.00000000  0.00000000  0.00000000  1
  C  C1  1  0.52135000  0.47865000  0.69278200  1
  C  C2  1  0.52135000  0.04269900  0.69278200  1
  C  C3  1  0.95730100  0.47865000  0.69278200  1
  C  C4  1  0.04269900  0.52135000  0.30721800  1
  C  C5  1  0.47865000  0.95730100  0.30721800  1
  C  C6  1  0.47865000  0.52135000  0.30721800  1
  Ni  Ni7  1  0.16797700  0.83202300  0.80241500  1
  Ni  Ni8  1  0.16797700  0.33595400  0.80241500  1
  Ni  Ni9  1  0.66404600  0.83202300  0.80241500  1
  Ni  Ni10  1  0.33595400  0.16797700  0.19758500  1
  Ni  Ni11  1  0.83202300  0.66404600  0.19758500  1
  Ni  Ni12  1  0.83202300  0.16797700  0.19758500  1
  Cu  Cu13  1  0.66666700  0.33333300  0.18000300  1
  Cu  Cu14  1  0.66666700  0.33333300  0.88380400  1
  Cu  Cu15  1  0.33333300  0.66666700  0.11619600  1
  Cu  Cu16  1  0.34669300  0.34669300  0.00000000  1
  Cu  Cu17  1  0.00000000  0.65330700  0.00000000  1
  Cu  Cu18  1  0.65330700  0.00000000  0.00000000  1
  Cu  Cu19  1  0.65330700  0.65330700  0.00000000  1
  Cu  Cu20  1  0.33333300  0.66666700  0.81999700  1
  Cu  Cu21  1  0.43635300  0.21817700  0.45262100  1
  Cu  Cu22  1  0.21817700  0.78182300  0.54737900  1
  Cu  Cu23  1  0.21817700  0.43635300  0.54737900  1
  Cu  Cu24  1  0.56364700  0.78182300  0.54737900  1
  Cu  Cu25  1  0.11750400  0.88249600  0.27412800  1
  Cu  Cu26  1  0.78182300  0.56364700  0.45262100  1
  Cu  Cu27  1  0.78182300  0.21817700  0.45262100  1
  Cu  Cu28  1  0.34669300  0.00000000  0.00000000  1
  Cu  Cu29  1  0.11750400  0.23500800  0.27412800  1
  Cu  Cu30  1  0.76499200  0.88249600  0.27412800  1
  Cu  Cu31  1  0.23500800  0.11750400  0.72587200  1
  Cu  Cu32  1  0.88249600  0.76499200  0.72587200  1
  Cu  Cu33  1  0.88249600  0.11750400  0.72587200  1
  Cu  Cu34  1  0.00000000  0.00000000  0.50000000  1
  Cu  Cu35  1  0.00000000  0.34669300  0.00000000  1
