# generated using pymatgen
data_Cu4NiC12
_symmetry_space_group_name_H-M   'P 1'
_cell_length_a   8.96436722
_cell_length_b   8.96436722
_cell_length_c   9.60030271
_cell_angle_alpha   57.93498637
_cell_angle_beta   57.93498637
_cell_angle_gamma   47.25699438
_symmetry_Int_Tables_number   1
_chemical_formula_structural   Cu4NiC12
_chemical_formula_sum   'Cu8 Ni2 C24'
_cell_volume   461.76133142
_cell_formula_units_Z   2
loop_
 _symmetry_equiv_pos_site_id
 _symmetry_equiv_pos_as_xyz
  1  'x, y, z'
loop_
 _atom_site_type_symbol
 _atom_site_label
 _atom_site_symmetry_multiplicity
 _atom_site_fract_x
 _atom_site_fract_y
 _atom_site_fract_z
 _atom_site_occupancy
  Ni  Ni0  1  0.79345200  0.20654800  0.75000000  1
  Ni  Ni1  1  0.20654800  0.79345200  0.25000000  1
  Cu  Cu2  1  0.00860500  0.28403500  0.30553000  1
  Cu  Cu3  1  0.60585300  0.67150500  0.38073600  1
  Cu  Cu4  1  0.71596500  0.99139500  0.19447000  1
  Cu  Cu5  1  0.67150500  0.60585300  0.88073600  1
  Cu  Cu6  1  0.32849500  0.39414700  0.11926400  1
  Cu  Cu7  1  0.28403500  0.00860500  0.80553000  1
  Cu  Cu8  1  0.39414700  0.32849500  0.61926400  1
  Cu  Cu9  1  0.99139500  0.71596500  0.69447000  1
  C  C10  1  0.80058700  0.51530500  0.26110700  1
  C  C11  1  0.68423400  0.80820000  0.34760700  1
  C  C12  1  0.86607400  0.99662400  0.21553400  1
  C  C13  1  0.00337600  0.13392600  0.28446600  1
  C  C14  1  0.75767900  0.97564100  0.02633600  1
  C  C15  1  0.41865800  0.81891500  0.30908800  1
  C  C16  1  0.81891500  0.41865800  0.80908800  1
  C  C17  1  0.48469500  0.19941300  0.23889300  1
  C  C18  1  0.97564100  0.75767900  0.52633600  1
  C  C19  1  0.80820000  0.68423400  0.84760700  1
  C  C20  1  0.42216000  0.44582000  0.43302900  1
  C  C21  1  0.55418000  0.57784000  0.06697100  1
  C  C22  1  0.44582000  0.42216000  0.93302900  1
  C  C23  1  0.57784000  0.55418000  0.56697100  1
  C  C24  1  0.19180000  0.31576600  0.15239300  1
  C  C25  1  0.02435900  0.24232100  0.47366400  1
  C  C26  1  0.51530500  0.80058700  0.76110700  1
  C  C27  1  0.18108500  0.58134200  0.19091200  1
  C  C28  1  0.58134200  0.18108500  0.69091200  1
  C  C29  1  0.24232100  0.02435900  0.97366400  1
  C  C30  1  0.99662400  0.86607400  0.71553400  1
  C  C31  1  0.13392600  0.00337600  0.78446600  1
  C  C32  1  0.31576600  0.19180000  0.65239300  1
  C  C33  1  0.19941300  0.48469500  0.73889300  1
