# generated using pymatgen
data_Cu4NiC14
_symmetry_space_group_name_H-M   'P 1'
_cell_length_a   5.43945400
_cell_length_b   7.33398346
_cell_length_c   8.83337955
_cell_angle_alpha   72.28942942
_cell_angle_beta   79.24064201
_cell_angle_gamma   77.87802752
_symmetry_Int_Tables_number   1
_chemical_formula_structural   Cu4NiC14
_chemical_formula_sum   'Cu4 Ni1 C14'
_cell_volume   325.33717410
_cell_formula_units_Z   1
loop_
 _symmetry_equiv_pos_site_id
 _symmetry_equiv_pos_as_xyz
  1  'x, y, z'
loop_
 _atom_site_type_symbol
 _atom_site_label
 _atom_site_symmetry_multiplicity
 _atom_site_fract_x
 _atom_site_fract_y
 _atom_site_fract_z
 _atom_site_occupancy
  C  C0  1  0.82866200  0.89945100  0.89472300  1
  C  C1  1  0.17133800  0.10054900  0.10527700  1
  Ni  Ni2  1  0.00000000  0.00000000  0.50000000  1
  Cu  Cu3  1  0.39240900  0.18089000  0.60700800  1
  Cu  Cu4  1  0.38285800  0.59101500  0.14638200  1
  Cu  Cu5  1  0.61714200  0.40898500  0.85361800  1
  Cu  Cu6  1  0.60759100  0.81911000  0.39299200  1
  C  C7  1  0.87885300  0.40316500  0.34673900  1
  C  C8  1  0.12114700  0.59683500  0.65326100  1
  C  C9  1  0.67030500  0.60266300  0.97300400  1
  C  C10  1  0.34349400  0.04704400  0.37818300  1
  C  C11  1  0.16637500  0.80139900  0.03582600  1
  C  C12  1  0.10544300  0.05393200  0.67956000  1
  C  C13  1  0.83362500  0.19860100  0.96417400  1
  C  C14  1  0.32969500  0.39733700  0.02699600  1
  C  C15  1  0.54645600  0.82798600  0.17780200  1
  C  C16  1  0.65650600  0.95295600  0.62181700  1
  C  C17  1  0.89455700  0.94606800  0.32044000  1
  C  C18  1  0.45354400  0.17201400  0.82219800  1
