# generated using pymatgen
data_CuNiC16
_symmetry_space_group_name_H-M   'P 1'
_cell_length_a   8.52620000
_cell_length_b   7.35857800
_cell_length_c   7.99774742
_cell_angle_alpha   88.44919375
_cell_angle_beta   90.00000000
_cell_angle_gamma   90.00000000
_symmetry_Int_Tables_number   1
_chemical_formula_structural   CuNiC16
_chemical_formula_sum   'Cu2 Ni2 C32'
_cell_volume   501.60053960
_cell_formula_units_Z   2
loop_
 _symmetry_equiv_pos_site_id
 _symmetry_equiv_pos_as_xyz
  1  'x, y, z'
loop_
 _atom_site_type_symbol
 _atom_site_label
 _atom_site_symmetry_multiplicity
 _atom_site_fract_x
 _atom_site_fract_y
 _atom_site_fract_z
 _atom_site_occupancy
  Ni  Ni0  1  0.43830400  0.26802300  0.27923500  1
  Ni  Ni1  1  0.93830400  0.73197700  0.72076500  1
  Cu  Cu2  1  0.75047300  0.23716700  0.75872700  1
  Cu  Cu3  1  0.25047300  0.76283300  0.24127300  1
  C  C4  1  0.87633800  0.56442100  0.09825600  1
  C  C5  1  0.37633800  0.43557900  0.90174400  1
  C  C6  1  0.50130800  0.61503100  0.59734300  1
  C  C7  1  0.67405400  0.90237800  0.10292300  1
  C  C8  1  0.17405400  0.09762200  0.89707700  1
  C  C9  1  0.90337300  0.00398200  0.38371600  1
  C  C10  1  0.00130800  0.38496900  0.40265700  1
  C  C11  1  0.40337300  0.99601800  0.61628400  1
  C  C12  1  0.20583900  0.02656800  0.07197200  1
  C  C13  1  0.51475400  0.82300100  0.65373200  1
  C  C14  1  0.72450900  0.69209500  0.11983100  1
  C  C15  1  0.22450900  0.30790500  0.88016900  1
  C  C16  1  0.00570500  0.83789700  0.38501400  1
  C  C17  1  0.01475400  0.17699900  0.34626800  1
  C  C18  1  0.36453300  0.53924300  0.72172400  1
  C  C19  1  0.70583900  0.97343200  0.92802800  1
  C  C20  1  0.80557100  0.03272100  0.53711000  1
  C  C21  1  0.51233500  0.91394200  0.17413700  1
  C  C22  1  0.44148400  0.60855600  0.42145200  1
  C  C23  1  0.30557100  0.96727900  0.46289000  1
  C  C24  1  0.84270900  0.43214100  0.96295200  1
  C  C25  1  0.50570500  0.16210300  0.61498600  1
  C  C26  1  0.29406600  0.98678000  0.77978400  1
  C  C27  1  0.15407400  0.47462300  0.35896000  1
  C  C28  1  0.02217100  0.67608300  0.07479400  1
  C  C29  1  0.01233500  0.08605800  0.82586300  1
  C  C30  1  0.34270900  0.56785900  0.03704800  1
  C  C31  1  0.65407400  0.52537700  0.64104000  1
  C  C32  1  0.94148400  0.39144400  0.57854800  1
  C  C33  1  0.86453300  0.46075700  0.27827600  1
  C  C34  1  0.79406600  0.01322000  0.22021600  1
  C  C35  1  0.52217100  0.32391700  0.92520600  1
