# generated using pymatgen
data_Cu(NiC2)2
_symmetry_space_group_name_H-M   'P 1'
_cell_length_a   6.17365000
_cell_length_b   11.94717600
_cell_length_c   15.63341300
_cell_angle_alpha   90.00000000
_cell_angle_beta   90.00000000
_cell_angle_gamma   90.00000000
_symmetry_Int_Tables_number   1
_chemical_formula_structural   Cu(NiC2)2
_chemical_formula_sum   'Cu12 Ni24 C48'
_cell_volume   1153.08432202
_cell_formula_units_Z   12
loop_
 _symmetry_equiv_pos_site_id
 _symmetry_equiv_pos_as_xyz
  1  'x, y, z'
loop_
 _atom_site_type_symbol
 _atom_site_label
 _atom_site_symmetry_multiplicity
 _atom_site_fract_x
 _atom_site_fract_y
 _atom_site_fract_z
 _atom_site_occupancy
  C  C0  1  0.50000000  0.50000000  0.62123200  1
  C  C1  1  0.50000000  0.50000000  0.37876800  1
  C  C2  1  0.00000000  0.50000000  0.75436600  1
  C  C3  1  0.00000000  0.00000000  0.87876800  1
  C  C4  1  0.00000000  0.00000000  0.12123200  1
  C  C5  1  0.50000000  0.00000000  0.74563400  1
  C  C6  1  0.00000000  0.50000000  0.24563400  1
  C  C7  1  0.50000000  0.00000000  0.25436600  1
  C  C8  1  0.99952000  0.78045400  0.50000000  1
  C  C9  1  0.00048000  0.21954600  0.50000000  1
  C  C10  1  0.50048000  0.28045400  0.00000000  1
  C  C11  1  0.49952000  0.71954600  0.00000000  1
  C  C12  1  0.05525600  0.12206000  0.72611200  1
  C  C13  1  0.31439800  0.69964600  0.28841100  1
  C  C14  1  0.94474400  0.87794000  0.72611200  1
  C  C15  1  0.55525600  0.37794000  0.22611200  1
  C  C16  1  0.81439800  0.80035400  0.21158900  1
  C  C17  1  0.31439800  0.69964600  0.71158900  1
  C  C18  1  0.68560200  0.30035400  0.71158900  1
  C  C19  1  0.18560200  0.19964600  0.78841100  1
  C  C20  1  0.81439800  0.80035400  0.78841100  1
  C  C21  1  0.68560200  0.30035400  0.28841100  1
  C  C22  1  0.44474400  0.62206000  0.77388800  1
  C  C23  1  0.05525600  0.12206000  0.27388800  1
  C  C24  1  0.55525600  0.37794000  0.77388800  1
  C  C25  1  0.44474400  0.62206000  0.22611200  1
  C  C26  1  0.18560200  0.19964600  0.21158900  1
  C  C27  1  0.94474400  0.87794000  0.27388800  1
  C  C28  1  0.34601600  0.35985800  0.91169700  1
  C  C29  1  0.15398400  0.85985800  0.58830300  1
  C  C30  1  0.65398400  0.64014200  0.08830300  1
  C  C31  1  0.34601600  0.35985800  0.08830300  1
  C  C32  1  0.60444200  0.18035500  0.08707000  1
  C  C33  1  0.10444200  0.31964500  0.41293000  1
  C  C34  1  0.84601600  0.14014200  0.58830300  1
  C  C35  1  0.65398400  0.64014200  0.91169700  1
  C  C36  1  0.89555800  0.68035500  0.58707000  1
  C  C37  1  0.60444200  0.18035500  0.91293000  1
  C  C38  1  0.84601600  0.14014200  0.41169700  1
  C  C39  1  0.24671300  0.68383100  0.50000000  1
  C  C40  1  0.74671300  0.81616900  0.00000000  1
  C  C41  1  0.75328700  0.31616900  0.50000000  1
  C  C42  1  0.39555800  0.81964500  0.08707000  1
  C  C43  1  0.10444200  0.31964500  0.58707000  1
  C  C44  1  0.39555800  0.81964500  0.91293000  1
  C  C45  1  0.89555800  0.68035500  0.41293000  1
  C  C46  1  0.25328700  0.18383100  0.00000000  1
  C  C47  1  0.15398400  0.85985800  0.41169700  1
  Ni  Ni48  1  0.27507600  0.64256600  0.00000000  1
  Ni  Ni49  1  0.66644400  0.12031300  0.85868600  1
  Ni  Ni50  1  0.25172600  0.40427800  0.85574600  1
  Ni  Ni51  1  0.83355600  0.62031300  0.35868600  1
  Ni  Ni52  1  0.77507600  0.85743400  0.50000000  1
  Ni  Ni53  1  0.75172600  0.09572200  0.35574600  1
  Ni  Ni54  1  0.74827400  0.59572200  0.85574600  1
  Ni  Ni55  1  0.10231900  0.12433400  0.00000000  1
  Ni  Ni56  1  0.60231900  0.37566600  0.50000000  1
  Ni  Ni57  1  0.33355600  0.87968700  0.14131400  1
  Ni  Ni58  1  0.25172600  0.40427800  0.14425400  1
  Ni  Ni59  1  0.83355600  0.62031300  0.64131400  1
  Ni  Ni60  1  0.24827400  0.90427800  0.64425400  1
  Ni  Ni61  1  0.22492400  0.14256600  0.50000000  1
  Ni  Ni62  1  0.16644400  0.37968700  0.64131400  1
  Ni  Ni63  1  0.75172600  0.09572200  0.64425400  1
  Ni  Ni64  1  0.16644400  0.37968700  0.35868600  1
  Ni  Ni65  1  0.74827400  0.59572200  0.14425400  1
  Ni  Ni66  1  0.24827400  0.90427800  0.35574600  1
  Ni  Ni67  1  0.89768100  0.87566600  0.00000000  1
  Ni  Ni68  1  0.66644400  0.12031300  0.14131400  1
  Ni  Ni69  1  0.72492400  0.35743400  0.00000000  1
  Ni  Ni70  1  0.39768100  0.62433400  0.50000000  1
  Ni  Ni71  1  0.33355600  0.87968700  0.85868600  1
  Cu  Cu72  1  0.32862500  0.62203900  0.26908500  1
  Cu  Cu73  1  0.17137500  0.12203900  0.23091500  1
  Cu  Cu74  1  0.82862500  0.87796100  0.76908500  1
  Cu  Cu75  1  0.32862500  0.62203900  0.73091500  1
  Cu  Cu76  1  0.61361100  0.90499700  0.50000000  1
  Cu  Cu77  1  0.17137500  0.12203900  0.76908500  1
  Cu  Cu78  1  0.82862500  0.87796100  0.23091500  1
  Cu  Cu79  1  0.67137500  0.37796100  0.26908500  1
  Cu  Cu80  1  0.11361100  0.59500300  0.00000000  1
  Cu  Cu81  1  0.67137500  0.37796100  0.73091500  1
  Cu  Cu82  1  0.38638900  0.09500300  0.50000000  1
  Cu  Cu83  1  0.88638900  0.40499700  0.00000000  1
