# generated using pymatgen
data_Cu3Ni2C7
_symmetry_space_group_name_H-M   'P 1'
_cell_length_a   6.63681100
_cell_length_b   11.97066200
_cell_length_c   14.86016600
_cell_angle_alpha   90.00000000
_cell_angle_beta   90.00000000
_cell_angle_gamma   90.00000000
_symmetry_Int_Tables_number   1
_chemical_formula_structural   Cu3Ni2C7
_chemical_formula_sum   'Cu12 Ni8 C28'
_cell_volume   1180.59592382
_cell_formula_units_Z   4
loop_
 _symmetry_equiv_pos_site_id
 _symmetry_equiv_pos_as_xyz
  1  'x, y, z'
loop_
 _atom_site_type_symbol
 _atom_site_label
 _atom_site_symmetry_multiplicity
 _atom_site_fract_x
 _atom_site_fract_y
 _atom_site_fract_z
 _atom_site_occupancy
  C  C0  1  0.46777300  0.11637200  0.57928300  1
  C  C1  1  0.46777300  0.38362800  0.42071700  1
  C  C2  1  0.53222700  0.61637200  0.92071700  1
  C  C3  1  0.53222700  0.88362800  0.07928300  1
  C  C4  1  0.53222700  0.88362800  0.42071700  1
  C  C5  1  0.53222700  0.61637200  0.57928300  1
  C  C6  1  0.46777300  0.38362800  0.07928300  1
  C  C7  1  0.46777300  0.11637200  0.92071700  1
  C  C8  1  0.68093900  0.29012200  0.62979700  1
  C  C9  1  0.68093900  0.20987800  0.37020300  1
  C  C10  1  0.31906100  0.79012200  0.87020300  1
  C  C11  1  0.31906100  0.70987800  0.12979700  1
  C  C12  1  0.31906100  0.70987800  0.37020300  1
  C  C13  1  0.31906100  0.79012200  0.62979700  1
  C  C14  1  0.68093900  0.20987800  0.12979700  1
  C  C15  1  0.68093900  0.29012200  0.87020300  1
  C  C16  1  0.13399400  0.03620000  0.75000000  1
  C  C17  1  0.13399400  0.46380000  0.25000000  1
  C  C18  1  0.86600600  0.53620000  0.75000000  1
  C  C19  1  0.86600600  0.96380000  0.25000000  1
  C  C20  1  0.16189600  0.24537000  0.25000000  1
  C  C21  1  0.16189600  0.25463000  0.75000000  1
  C  C22  1  0.83810400  0.74537000  0.25000000  1
  C  C23  1  0.83810400  0.75463000  0.75000000  1
  C  C24  1  0.00000000  0.00000000  0.50000000  1
  C  C25  1  0.00000000  0.50000000  0.50000000  1
  C  C26  1  0.00000000  0.50000000  0.00000000  1
  C  C27  1  0.00000000  0.00000000  0.00000000  1
  Ni  Ni28  1  0.07515700  0.25000000  0.50000000  1
  Ni  Ni29  1  0.92484300  0.75000000  0.00000000  1
  Ni  Ni30  1  0.92484300  0.75000000  0.50000000  1
  Ni  Ni31  1  0.07515700  0.25000000  0.00000000  1
  Ni  Ni32  1  0.33323400  0.44284800  0.75000000  1
  Ni  Ni33  1  0.33323400  0.05715200  0.25000000  1
  Ni  Ni34  1  0.66676600  0.94284800  0.75000000  1
  Ni  Ni35  1  0.66676600  0.55715200  0.25000000  1
  Cu  Cu36  1  0.85565500  0.35843000  0.75000000  1
  Cu  Cu37  1  0.85565500  0.14157000  0.25000000  1
  Cu  Cu38  1  0.14434500  0.85843000  0.75000000  1
  Cu  Cu39  1  0.14434500  0.64157000  0.25000000  1
  Cu  Cu40  1  0.28373200  0.96960500  0.55270200  1
  Cu  Cu41  1  0.28373200  0.53039500  0.44729800  1
  Cu  Cu42  1  0.71626800  0.46960500  0.94729800  1
  Cu  Cu43  1  0.71626800  0.03039500  0.05270200  1
  Cu  Cu44  1  0.71626800  0.03039500  0.44729800  1
  Cu  Cu45  1  0.71626800  0.46960500  0.55270200  1
  Cu  Cu46  1  0.28373200  0.53039500  0.05270200  1
  Cu  Cu47  1  0.28373200  0.96960500  0.94729800  1
