# generated using pymatgen
data_CuNiC
_symmetry_space_group_name_H-M   'P 1'
_cell_length_a   4.34064700
_cell_length_b   7.48360100
_cell_length_c   14.03210300
_cell_angle_alpha   90.00000000
_cell_angle_beta   90.00000000
_cell_angle_gamma   90.00000000
_symmetry_Int_Tables_number   1
_chemical_formula_structural   CuNiC
_chemical_formula_sum   'Cu8 Ni8 C8'
_cell_volume   455.81420648
_cell_formula_units_Z   8
loop_
 _symmetry_equiv_pos_site_id
 _symmetry_equiv_pos_as_xyz
  1  'x, y, z'
loop_
 _atom_site_type_symbol
 _atom_site_label
 _atom_site_symmetry_multiplicity
 _atom_site_fract_x
 _atom_site_fract_y
 _atom_site_fract_z
 _atom_site_occupancy
  C  C0  1  0.50000000  0.78994700  0.74849800  1
  C  C1  1  0.00000000  0.21005300  0.75150200  1
  C  C2  1  0.50000000  0.78994700  0.25150200  1
  C  C3  1  0.00000000  0.21005300  0.24849800  1
  C  C4  1  0.50000000  0.70756300  0.00000000  1
  C  C5  1  0.00000000  0.29243700  0.50000000  1
  C  C6  1  0.50000000  0.70038500  0.50000000  1
  C  C7  1  0.00000000  0.29961500  0.00000000  1
  Ni  Ni8  1  0.50000000  0.40837400  0.64618300  1
  Ni  Ni9  1  0.00000000  0.59162600  0.85381700  1
  Ni  Ni10  1  0.50000000  0.40837400  0.35381700  1
  Ni  Ni11  1  0.00000000  0.59162600  0.14618300  1
  Ni  Ni12  1  0.50000000  0.09049500  0.09283900  1
  Ni  Ni13  1  0.00000000  0.90950500  0.40716100  1
  Ni  Ni14  1  0.50000000  0.09049500  0.90716100  1
  Ni  Ni15  1  0.00000000  0.90950500  0.59283900  1
  Cu  Cu16  1  0.50000000  0.07690400  0.60787400  1
  Cu  Cu17  1  0.00000000  0.92309600  0.89212600  1
  Cu  Cu18  1  0.50000000  0.07690400  0.39212600  1
  Cu  Cu19  1  0.00000000  0.92309600  0.10787400  1
  Cu  Cu20  1  0.50000000  0.41823200  0.15569100  1
  Cu  Cu21  1  0.00000000  0.58176800  0.34430900  1
  Cu  Cu22  1  0.50000000  0.41823200  0.84430900  1
  Cu  Cu23  1  0.00000000  0.58176800  0.65569100  1
