# generated using pymatgen
data_Cu4NiC4
_symmetry_space_group_name_H-M   'P 1'
_cell_length_a   6.05433744
_cell_length_b   6.05433744
_cell_length_c   6.05433746
_cell_angle_alpha   75.13452712
_cell_angle_beta   75.13452712
_cell_angle_gamma   75.13451714
_symmetry_Int_Tables_number   1
_chemical_formula_structural   Cu4NiC4
_chemical_formula_sum   'Cu4 Ni1 C4'
_cell_volume   202.94825267
_cell_formula_units_Z   1
loop_
 _symmetry_equiv_pos_site_id
 _symmetry_equiv_pos_as_xyz
  1  'x, y, z'
loop_
 _atom_site_type_symbol
 _atom_site_label
 _atom_site_symmetry_multiplicity
 _atom_site_fract_x
 _atom_site_fract_y
 _atom_site_fract_z
 _atom_site_occupancy
  C  C0  1  0.57503500  0.08858600  0.57503500  1
  C  C1  1  0.57503500  0.57503500  0.08858600  1
  C  C2  1  0.08858600  0.57503500  0.57503500  1
  C  C3  1  0.17798700  0.17798700  0.17798700  1
  Ni  Ni4  1  0.95385500  0.95385500  0.95385500  1
  Cu  Cu5  1  0.09873100  0.77812800  0.09873100  1
  Cu  Cu6  1  0.84556400  0.84556400  0.84556400  1
  Cu  Cu7  1  0.09873100  0.09873100  0.77812800  1
  Cu  Cu8  1  0.77812800  0.09873100  0.09873100  1
