# generated using pymatgen
data_Cu10Ni2C45
_symmetry_space_group_name_H-M   'P 1'
_cell_length_a   10.68413900
_cell_length_b   10.20624300
_cell_length_c   11.85799386
_cell_angle_alpha   55.32727170
_cell_angle_beta   90.00000000
_cell_angle_gamma   90.00000000
_symmetry_Int_Tables_number   1
_chemical_formula_structural   Cu10Ni2C45
_chemical_formula_sum   'Cu20 Ni4 C90'
_cell_volume   1063.42687650
_cell_formula_units_Z   2
loop_
 _symmetry_equiv_pos_site_id
 _symmetry_equiv_pos_as_xyz
  1  'x, y, z'
loop_
 _atom_site_type_symbol
 _atom_site_label
 _atom_site_symmetry_multiplicity
 _atom_site_fract_x
 _atom_site_fract_y
 _atom_site_fract_z
 _atom_site_occupancy
  C  C0  1  0.00000000  0.00000000  0.00000000  1
  C  C1  1  0.50000000  0.00000000  0.50000000  1
  C  C2  1  0.46977100  0.81822300  0.76225300  1
  C  C3  1  0.58392300  0.39806500  0.62388400  1
  C  C4  1  0.48742900  0.17471700  0.82879300  1
  C  C5  1  0.40287300  0.87923000  0.37609200  1
  C  C6  1  0.49546000  0.58403000  0.73167400  1
  C  C7  1  0.50454000  0.41597000  0.26832600  1
  C  C8  1  0.01257100  0.17471700  0.32879300  1
  C  C9  1  0.76653800  0.34351700  0.20871600  1
  C  C10  1  0.12380600  0.65615300  0.49864500  1
  C  C11  1  0.91607700  0.39806500  0.12388400  1
  C  C12  1  0.86353900  0.11757000  0.41688200  1
  C  C13  1  0.69528000  0.51051200  0.85017200  1
  C  C14  1  0.24322000  0.68831100  0.07303200  1
  C  C15  1  0.45822600  0.19057400  0.58328600  1
  C  C16  1  0.90287300  0.12077000  0.12390800  1
  C  C17  1  0.25678000  0.68831100  0.57303200  1
  C  C18  1  0.13646100  0.88243000  0.58311800  1
  C  C19  1  0.09316200  0.43521300  0.22940100  1
  C  C20  1  0.74322000  0.31168900  0.42696800  1
  C  C21  1  0.33987300  0.91219100  0.70823400  1
  C  C22  1  0.00313900  0.84546900  0.51159100  1
  C  C23  1  0.66012700  0.08780900  0.29176600  1
  C  C24  1  0.50313900  0.15453100  0.98840900  1
  C  C25  1  0.96977100  0.18177700  0.73774700  1
  C  C26  1  0.26653800  0.65648300  0.29128400  1
  C  C27  1  0.53022900  0.18177700  0.23774700  1
  C  C28  1  0.07388100  0.41757100  0.38791500  1
  C  C29  1  0.92611900  0.58242900  0.61208500  1
  C  C30  1  0.83987300  0.08780900  0.79176600  1
  C  C31  1  0.49686100  0.84546900  0.01159100  1
  C  C32  1  0.08392300  0.60193500  0.87611600  1
  C  C33  1  0.90683800  0.56478700  0.77059900  1
  C  C34  1  0.16012700  0.91219100  0.20823400  1
  C  C35  1  0.04177400  0.19057400  0.08328600  1
  C  C36  1  0.80472000  0.51051200  0.35017200  1
  C  C37  1  0.57388100  0.58242900  0.11208500  1
  C  C38  1  0.32787000  0.45785800  0.36796800  1
  C  C39  1  0.17213000  0.45785800  0.86796800  1
  C  C40  1  0.99686100  0.15453100  0.48840900  1
  C  C41  1  0.62380600  0.34384700  0.00135500  1
  C  C42  1  0.36353900  0.88243000  0.08311800  1
  C  C43  1  0.09712700  0.87923000  0.87609200  1
  C  C44  1  0.87619400  0.34384700  0.50135500  1
  C  C45  1  0.30472000  0.48948800  0.14982800  1
  C  C46  1  0.67213000  0.54214200  0.63203200  1
  C  C47  1  0.51257100  0.82528300  0.17120700  1
  C  C48  1  0.95822600  0.80942600  0.91671400  1
  C  C49  1  0.73346200  0.34351700  0.70871600  1
  C  C50  1  0.59316200  0.56478700  0.27059900  1
  C  C51  1  0.75678000  0.31168900  0.92696800  1
  C  C52  1  0.63646100  0.11757000  0.91688200  1
  C  C53  1  0.37619400  0.65615300  0.99864500  1
  C  C54  1  0.03022900  0.81822300  0.26225300  1
  C  C55  1  0.54177400  0.80942600  0.41671400  1
  C  C56  1  0.00454000  0.58403000  0.23167400  1
  C  C57  1  0.99546000  0.41597000  0.76832600  1
  C  C58  1  0.42611900  0.41757100  0.88791500  1
  C  C59  1  0.41607700  0.60193500  0.37611600  1
  C  C60  1  0.23346200  0.65648300  0.79128400  1
  C  C61  1  0.19528000  0.48948800  0.64982800  1
  C  C62  1  0.98742900  0.82528300  0.67120700  1
  C  C63  1  0.59712700  0.12077000  0.62390800  1
  C  C64  1  0.82787000  0.54214200  0.13203200  1
  C  C65  1  0.40683800  0.43521300  0.72940100  1
  C  C66  1  0.46955900  0.45788500  0.78949300  1
  C  C67  1  0.64894200  0.41548500  0.68570200  1
  C  C68  1  0.85105800  0.41548500  0.18570200  1
  C  C69  1  0.32742500  0.61647600  0.09422500  1
  C  C70  1  0.03044100  0.45788500  0.28949300  1
  C  C71  1  0.67257500  0.38352400  0.90577500  1
  C  C72  1  0.14894200  0.58451500  0.81429800  1
  C  C73  1  0.17257500  0.61647600  0.59422500  1
  C  C74  1  0.94882900  0.18829800  0.39383300  1
  C  C75  1  0.05117100  0.81170200  0.60616700  1
  C  C76  1  0.96955900  0.54211500  0.71050700  1
  C  C77  1  0.44882900  0.81170200  0.10616700  1
  C  C78  1  0.53044100  0.54211500  0.21050700  1
  C  C79  1  0.55117100  0.18829800  0.89383300  1
  C  C80  1  0.82742500  0.38352400  0.40577500  1
  C  C81  1  0.35105800  0.58451500  0.31429800  1
  C  C82  1  0.28895500  0.15350400  0.21591400  1
  C  C83  1  0.30142600  0.14417700  0.39178800  1
  C  C84  1  0.21104500  0.15350400  0.71591400  1
  C  C85  1  0.80142600  0.85582300  0.10821200  1
  C  C86  1  0.69857400  0.85582300  0.60821200  1
  C  C87  1  0.71104500  0.84649600  0.78408600  1
  C  C88  1  0.19857400  0.14417700  0.89178800  1
  C  C89  1  0.78895500  0.84649600  0.28408600  1
  Ni  Ni90  1  0.41416000  0.63891000  0.18139900  1
  Ni  Ni91  1  0.91416000  0.36109000  0.31860100  1
  Ni  Ni92  1  0.58584000  0.36109000  0.81860100  1
  Ni  Ni93  1  0.08584000  0.63891000  0.68139900  1
  Cu  Cu94  1  0.28452800  0.98601600  0.25352200  1
  Cu  Cu95  1  0.17264900  0.24084600  0.14469600  1
  Cu  Cu96  1  0.09637200  0.85456500  0.19076900  1
  Cu  Cu97  1  0.03468600  0.83005700  0.95197600  1
  Cu  Cu98  1  0.71547200  0.01398400  0.74647800  1
  Cu  Cu99  1  0.21547200  0.98601600  0.75352200  1
  Cu  Cu100  1  0.46531400  0.83005700  0.45197600  1
  Cu  Cu101  1  0.53468600  0.16994300  0.54802400  1
  Cu  Cu102  1  0.59637200  0.14543500  0.30923100  1
  Cu  Cu103  1  0.90362800  0.14543500  0.80923100  1
  Cu  Cu104  1  0.09812600  0.23690200  0.63122800  1
  Cu  Cu105  1  0.82735100  0.75915400  0.85530400  1
  Cu  Cu106  1  0.32735100  0.24084600  0.64469600  1
  Cu  Cu107  1  0.40187400  0.23690200  0.13122800  1
  Cu  Cu108  1  0.59812600  0.76309800  0.86877200  1
  Cu  Cu109  1  0.78452800  0.01398400  0.24647800  1
  Cu  Cu110  1  0.96531400  0.16994300  0.04802400  1
  Cu  Cu111  1  0.40362800  0.85456500  0.69076900  1
  Cu  Cu112  1  0.90187400  0.76309800  0.36877200  1
  Cu  Cu113  1  0.67264900  0.75915400  0.35530400  1
