# generated using pymatgen
data_Cu4NiC2
_symmetry_space_group_name_H-M   'P 1'
_cell_length_a   5.94295200
_cell_length_b   7.45596400
_cell_length_c   12.74022000
_cell_angle_alpha   90.00000000
_cell_angle_beta   90.00000000
_cell_angle_gamma   90.00000000
_symmetry_Int_Tables_number   1
_chemical_formula_structural   Cu4NiC2
_chemical_formula_sum   'Cu16 Ni4 C8'
_cell_volume   564.52470505
_cell_formula_units_Z   4
loop_
 _symmetry_equiv_pos_site_id
 _symmetry_equiv_pos_as_xyz
  1  'x, y, z'
loop_
 _atom_site_type_symbol
 _atom_site_label
 _atom_site_symmetry_multiplicity
 _atom_site_fract_x
 _atom_site_fract_y
 _atom_site_fract_z
 _atom_site_occupancy
  C  C0  1  0.00786000  0.75000000  0.73145500  1
  C  C1  1  0.50786000  0.25000000  0.76854500  1
  C  C2  1  0.99214000  0.25000000  0.26854500  1
  C  C3  1  0.49214000  0.75000000  0.23145500  1
  C  C4  1  0.50000000  0.50000000  0.50000000  1
  C  C5  1  0.00000000  0.50000000  0.00000000  1
  C  C6  1  0.50000000  0.00000000  0.50000000  1
  C  C7  1  0.00000000  0.00000000  0.00000000  1
  Ni  Ni8  1  0.40813500  0.25000000  0.08996600  1
  Ni  Ni9  1  0.59186500  0.75000000  0.91003400  1
  Ni  Ni10  1  0.09186500  0.25000000  0.58996600  1
  Ni  Ni11  1  0.90813500  0.75000000  0.41003400  1
  Cu  Cu12  1  0.74623400  0.52395400  0.83311500  1
  Cu  Cu13  1  0.24623400  0.47604600  0.66688500  1
  Cu  Cu14  1  0.25376600  0.02395400  0.16688500  1
  Cu  Cu15  1  0.75376600  0.97604600  0.33311500  1
  Cu  Cu16  1  0.24623400  0.02395400  0.66688500  1
  Cu  Cu17  1  0.25376600  0.47604600  0.16688500  1
  Cu  Cu18  1  0.74623400  0.97604600  0.83311500  1
  Cu  Cu19  1  0.75376600  0.52395400  0.33311500  1
  Cu  Cu20  1  0.26548700  0.75000000  0.40740800  1
  Cu  Cu21  1  0.76548700  0.25000000  0.09259200  1
  Cu  Cu22  1  0.73451300  0.25000000  0.59259200  1
  Cu  Cu23  1  0.23451300  0.75000000  0.90740800  1
  Cu  Cu24  1  0.76279900  0.75000000  0.56528900  1
  Cu  Cu25  1  0.26279900  0.25000000  0.93471100  1
  Cu  Cu26  1  0.23720100  0.25000000  0.43471100  1
  Cu  Cu27  1  0.73720100  0.75000000  0.06528900  1
