# generated using pymatgen
data_Cu2NiC18
_symmetry_space_group_name_H-M   'P 1'
_cell_length_a   9.57319246
_cell_length_b   9.57319246
_cell_length_c   2.76461900
_cell_angle_alpha   90.00000000
_cell_angle_beta   90.00000000
_cell_angle_gamma   120.00000319
_symmetry_Int_Tables_number   1
_chemical_formula_structural   Cu2NiC18
_chemical_formula_sum   'Cu2 Ni1 C18'
_cell_volume   219.42165501
_cell_formula_units_Z   1
loop_
 _symmetry_equiv_pos_site_id
 _symmetry_equiv_pos_as_xyz
  1  'x, y, z'
loop_
 _atom_site_type_symbol
 _atom_site_label
 _atom_site_symmetry_multiplicity
 _atom_site_fract_x
 _atom_site_fract_y
 _atom_site_fract_z
 _atom_site_occupancy
  Ni  Ni0  1  0.00000000  0.00000000  0.00000000  1
  Cu  Cu1  1  0.66666700  0.33333300  0.74919700  1
  Cu  Cu2  1  0.33333300  0.66666700  0.25080300  1
  C  C3  1  0.35830200  0.34188400  0.75013500  1
  C  C4  1  0.65811600  0.01641800  0.75013500  1
  C  C5  1  0.34188400  0.98358200  0.24986500  1
  C  C6  1  0.98358200  0.64169800  0.75013500  1
  C  C7  1  0.01641800  0.35830200  0.24986500  1
  C  C8  1  0.64169800  0.65811600  0.24986500  1
  C  C9  1  0.54365200  0.41075700  0.25125300  1
  C  C10  1  0.41075700  0.86710500  0.74874700  1
  C  C11  1  0.45634800  0.58924300  0.74874700  1
  C  C12  1  0.13289500  0.54365200  0.74874700  1
  C  C13  1  0.86710500  0.45634800  0.25125300  1
  C  C14  1  0.10639800  0.81207800  0.25146800  1
  C  C15  1  0.29432100  0.10639800  0.74853200  1
  C  C16  1  0.58924300  0.13289500  0.25125300  1
  C  C17  1  0.18792200  0.29432100  0.25146800  1
  C  C18  1  0.89360200  0.18792200  0.74853200  1
  C  C19  1  0.81207800  0.70567900  0.74853200  1
  C  C20  1  0.70567900  0.89360200  0.25146800  1
