# generated using pymatgen
data_Cu3NiC14
_symmetry_space_group_name_H-M   'P 1'
_cell_length_a   12.87933400
_cell_length_b   9.58095900
_cell_length_c   17.93492640
_cell_angle_alpha   77.18677092
_cell_angle_beta   90.00000000
_cell_angle_gamma   90.00000000
_symmetry_Int_Tables_number   1
_chemical_formula_structural   Cu3NiC14
_chemical_formula_sum   'Cu24 Ni8 C112'
_cell_volume   2157.99448253
_cell_formula_units_Z   8
loop_
 _symmetry_equiv_pos_site_id
 _symmetry_equiv_pos_as_xyz
  1  'x, y, z'
loop_
 _atom_site_type_symbol
 _atom_site_label
 _atom_site_symmetry_multiplicity
 _atom_site_fract_x
 _atom_site_fract_y
 _atom_site_fract_z
 _atom_site_occupancy
  C  C0  1  0.42673800  0.49188700  0.89732000  1
  C  C1  1  0.57326200  0.50811300  0.10268000  1
  C  C2  1  0.92673800  0.50811300  0.60268000  1
  C  C3  1  0.07326200  0.49188700  0.39732000  1
  C  C4  1  0.08866000  0.71482900  0.13212000  1
  C  C5  1  0.41134000  0.71482900  0.63212000  1
  C  C6  1  0.24394600  0.97862900  0.12919600  1
  C  C7  1  0.75605400  0.02137100  0.87080400  1
  C  C8  1  0.74394600  0.02137100  0.37080400  1
  C  C9  1  0.25605400  0.97862900  0.62919600  1
  C  C10  1  0.91134000  0.28517100  0.86788000  1
  C  C11  1  0.58866000  0.28517100  0.36788000  1
  C  C12  1  0.80746100  0.24052200  0.72630200  1
  C  C13  1  0.69253900  0.24052200  0.22630200  1
  C  C14  1  0.19253900  0.75947800  0.27369800  1
  C  C15  1  0.30746100  0.75947800  0.77369800  1
  C  C16  1  0.83238700  0.79054700  0.93443500  1
  C  C17  1  0.60358200  0.00183800  0.78530900  1
  C  C18  1  0.81034900  0.27198500  0.98836300  1
  C  C19  1  0.43399000  0.46638400  0.71272900  1
  C  C20  1  0.88997000  0.11634200  0.99867600  1
  C  C21  1  0.39738800  0.28084100  0.37761300  1
  C  C22  1  0.36124800  0.15990800  0.15092100  1
  C  C23  1  0.91388500  0.87839800  0.85831200  1
  C  C24  1  0.28735600  0.93735300  0.99834500  1
  C  C25  1  0.66761300  0.79054700  0.43443500  1
  C  C26  1  0.11003000  0.88365800  0.00132400  1
  C  C27  1  0.41388500  0.12160200  0.64168800  1
  C  C28  1  0.08611500  0.12160200  0.14168800  1
  C  C29  1  0.91606600  0.93034800  0.94757300  1
  C  C30  1  0.58611500  0.87839800  0.35831200  1
  C  C31  1  0.31266400  0.48334300  0.66376700  1
  C  C32  1  0.05384300  0.71582000  0.99978800  1
  C  C33  1  0.94615700  0.28418000  0.00021200  1
  C  C34  1  0.43635100  0.26854300  0.28454100  1
  C  C35  1  0.38997000  0.88365800  0.50132400  1
  C  C36  1  0.06601000  0.46638400  0.21272900  1
  C  C37  1  0.05684600  0.11487500  0.86135100  1
  C  C38  1  0.20991300  0.10156300  0.73663000  1
  C  C39  1  0.39641800  0.99816200  0.21469100  1
  C  C40  1  0.12800300  0.84048200  0.56970700  1
  C  C41  1  0.87199700  0.15951800  0.43029300  1
  C  C42  1  0.68733600  0.51665700  0.33623300  1
  C  C43  1  0.94315400  0.88512500  0.13864900  1
  C  C44  1  0.07081700  0.47245000  0.11296700  1
  C  C45  1  0.68965100  0.27198500  0.48836300  1
  C  C46  1  0.37199700  0.84048200  0.06970700  1
  C  C47  1  0.06364900  0.26854300  0.78454100  1
  C  C48  1  0.93399000  0.53361600  0.78727100  1
  C  C49  1  0.55384300  0.28418000  0.50021200  1
  C  C50  1  0.41606600  0.06965200  0.55242700  1
  C  C51  1  0.92918300  0.52755000  0.88703300  1
  C  C52  1  0.78735600  0.06264700  0.50165500  1
  C  C53  1  0.56601000  0.53361600  0.28727100  1
  C  C54  1  0.89738800  0.71915900  0.12238700  1
  C  C55  1  0.61003000  0.11634200  0.49867600  1
  C  C56  1  0.86124800  0.84009200  0.34907900  1
  C  C57  1  0.70991300  0.89843700  0.76337000  1
  C  C58  1  0.60261200  0.71915900  0.62238700  1
  C  C59  1  0.58393400  0.93034800  0.44757300  1
  C  C60  1  0.81266400  0.51665700  0.83623300  1
  C  C61  1  0.18965100  0.72801500  0.01163700  1
  C  C62  1  0.71264400  0.06264700  0.00165500  1
  C  C63  1  0.38597700  0.02840800  0.03739000  1
  C  C64  1  0.56364900  0.73145700  0.71545900  1
  C  C65  1  0.57081700  0.52755000  0.38703300  1
  C  C66  1  0.08393400  0.06965200  0.05242700  1
  C  C67  1  0.13875200  0.15990800  0.65092100  1
  C  C68  1  0.61402300  0.97159200  0.96261000  1
  C  C69  1  0.18733600  0.48334300  0.16376700  1
  C  C70  1  0.44615700  0.71582000  0.49978800  1
  C  C71  1  0.62800300  0.15951800  0.93029300  1
  C  C72  1  0.44315400  0.11487500  0.36135100  1
  C  C73  1  0.55684600  0.88512500  0.63864900  1
  C  C74  1  0.29008700  0.10156300  0.23663000  1
  C  C75  1  0.79008700  0.89843700  0.26337000  1
  C  C76  1  0.21264400  0.93735300  0.49834500  1
  C  C77  1  0.16761300  0.20945300  0.06556500  1
  C  C78  1  0.10358200  0.99816200  0.71469100  1
  C  C79  1  0.88597700  0.97159200  0.46261000  1
  C  C80  1  0.93635100  0.73145700  0.21545900  1
  C  C81  1  0.42918300  0.47245000  0.61296700  1
  C  C82  1  0.63875200  0.84009200  0.84907900  1
  C  C83  1  0.31034900  0.72801500  0.51163700  1
  C  C84  1  0.10261200  0.28084100  0.87761300  1
  C  C85  1  0.11402300  0.02840800  0.53739000  1
  C  C86  1  0.89641800  0.00183800  0.28530900  1
  C  C87  1  0.33238700  0.20945300  0.56556500  1
  C  C88  1  0.10543200  0.51584900  0.15928500  1
  C  C89  1  0.04557800  0.23145400  0.84561500  1
  C  C90  1  0.32878700  0.94106600  0.05120300  1
  C  C91  1  0.82990500  0.93542800  0.30935100  1
  C  C92  1  0.39456800  0.51584900  0.65928500  1
  C  C93  1  0.17009500  0.06457200  0.69064900  1
  C  C94  1  0.67009500  0.93542800  0.80935100  1
  C  C95  1  0.38530400  0.76875200  0.52676800  1
  C  C96  1  0.86552400  0.89479200  0.90618300  1
  C  C97  1  0.60543200  0.48415100  0.34071500  1
  C  C98  1  0.63447600  0.89479200  0.40618300  1
  C  C99  1  0.61469600  0.23124800  0.47323200  1
  C  C100  1  0.88530400  0.23124800  0.97323200  1
  C  C101  1  0.17121300  0.94106600  0.55120300  1
  C  C102  1  0.89456800  0.48415100  0.84071500  1
  C  C103  1  0.32990500  0.06457200  0.19064900  1
  C  C104  1  0.36552400  0.10520800  0.59381700  1
  C  C105  1  0.95442200  0.76854600  0.15438500  1
  C  C106  1  0.54557800  0.76854600  0.65438500  1
  C  C107  1  0.67121300  0.05893400  0.94879700  1
  C  C108  1  0.45442200  0.23145400  0.34561500  1
  C  C109  1  0.82878700  0.05893400  0.44879700  1
  C  C110  1  0.13447600  0.10520800  0.09381700  1
  C  C111  1  0.11469600  0.76875200  0.02676800  1
  Ni  Ni112  1  0.68215700  0.18988100  0.31812600  1
  Ni  Ni113  1  0.62690200  0.37502100  0.18539600  1
  Ni  Ni114  1  0.37309800  0.62497900  0.81460400  1
  Ni  Ni115  1  0.18215700  0.81011900  0.18187400  1
  Ni  Ni116  1  0.87309800  0.37502100  0.68539600  1
  Ni  Ni117  1  0.31784300  0.81011900  0.68187400  1
  Ni  Ni118  1  0.12690200  0.62497900  0.31460400  1
  Ni  Ni119  1  0.81784300  0.18988100  0.81812600  1
  Cu  Cu120  1  0.89436400  0.72653700  0.63634800  1
  Cu  Cu121  1  0.51486100  0.32868600  0.03133400  1
  Cu  Cu122  1  0.01486100  0.67131400  0.46866600  1
  Cu  Cu123  1  0.15388400  0.92283000  0.32385600  1
  Cu  Cu124  1  0.98513900  0.32868600  0.53133400  1
  Cu  Cu125  1  0.77456300  0.53801100  0.52768400  1
  Cu  Cu126  1  0.84611600  0.07717000  0.67614400  1
  Cu  Cu127  1  0.09798500  0.51058500  0.64851100  1
  Cu  Cu128  1  0.72543700  0.53801100  0.02768400  1
  Cu  Cu129  1  0.34380700  0.72367700  0.30287000  1
  Cu  Cu130  1  0.15619300  0.72367700  0.80287000  1
  Cu  Cu131  1  0.39436400  0.27346300  0.86365200  1
  Cu  Cu132  1  0.65388400  0.07717000  0.17614400  1
  Cu  Cu133  1  0.22543700  0.46198900  0.47231600  1
  Cu  Cu134  1  0.84380700  0.27632300  0.19713000  1
  Cu  Cu135  1  0.48513900  0.67131400  0.96866600  1
  Cu  Cu136  1  0.27456300  0.46198900  0.97231600  1
  Cu  Cu137  1  0.59798500  0.48941500  0.85148900  1
  Cu  Cu138  1  0.34611600  0.92283000  0.82385600  1
  Cu  Cu139  1  0.40201500  0.51058500  0.14851100  1
  Cu  Cu140  1  0.65619300  0.27632300  0.69713000  1
  Cu  Cu141  1  0.10563600  0.27346300  0.36365200  1
  Cu  Cu142  1  0.60563600  0.72653700  0.13634800  1
  Cu  Cu143  1  0.90201500  0.48941500  0.35148900  1
