# generated using pymatgen
data_CuNiC4
_symmetry_space_group_name_H-M   'P 1'
_cell_length_a   5.15149600
_cell_length_b   5.15149600
_cell_length_c   6.96150747
_cell_angle_alpha   111.71553077
_cell_angle_beta   111.71553077
_cell_angle_gamma   90.00000000
_symmetry_Int_Tables_number   1
_chemical_formula_structural   CuNiC4
_chemical_formula_sum   'Cu2 Ni2 C8'
_cell_volume   157.43408728
_cell_formula_units_Z   2
loop_
 _symmetry_equiv_pos_site_id
 _symmetry_equiv_pos_as_xyz
  1  'x, y, z'
loop_
 _atom_site_type_symbol
 _atom_site_label
 _atom_site_symmetry_multiplicity
 _atom_site_fract_x
 _atom_site_fract_y
 _atom_site_fract_z
 _atom_site_occupancy
  Ni  Ni0  1  0.75000000  0.25000000  0.50000000  1
  Ni  Ni1  1  0.50000000  0.50000000  0.00000000  1
  Cu  Cu2  1  0.25000000  0.75000000  0.50000000  1
  Cu  Cu3  1  0.00000000  0.00000000  0.00000000  1
  C  C4  1  0.41971600  0.52859900  0.34527600  1
  C  C5  1  0.83028400  0.22140100  0.15472400  1
  C  C6  1  0.18332300  0.58028400  0.65472300  1
  C  C7  1  0.92556100  0.81667700  0.34527700  1
  C  C8  1  0.77859900  0.67556100  0.84527600  1
  C  C9  1  0.47140100  0.07443900  0.65472400  1
  C  C10  1  0.32443900  0.93332300  0.15472300  1
  C  C11  1  0.06667700  0.16971600  0.84527700  1
