# generated using pymatgen
data_Cu8Ni8C3
_symmetry_space_group_name_H-M   'P 1'
_cell_length_a   7.94351853
_cell_length_b   7.94351853
_cell_length_c   6.09301300
_cell_angle_alpha   90.00000000
_cell_angle_beta   90.00000000
_cell_angle_gamma   120.00000445
_symmetry_Int_Tables_number   1
_chemical_formula_structural   Cu8Ni8C3
_chemical_formula_sum   'Cu8 Ni8 C3'
_cell_volume   332.95730169
_cell_formula_units_Z   1
loop_
 _symmetry_equiv_pos_site_id
 _symmetry_equiv_pos_as_xyz
  1  'x, y, z'
loop_
 _atom_site_type_symbol
 _atom_site_label
 _atom_site_symmetry_multiplicity
 _atom_site_fract_x
 _atom_site_fract_y
 _atom_site_fract_z
 _atom_site_occupancy
  C  C0  1  0.00000000  0.00000000  0.00000000  1
  C  C1  1  0.66666700  0.33333300  0.37095000  1
  C  C2  1  0.33333300  0.66666700  0.62905000  1
  Ni  Ni3  1  0.77547200  0.55094400  0.28306300  1
  Ni  Ni4  1  0.55094400  0.77547200  0.71693700  1
  Ni  Ni5  1  0.33333300  0.66666700  0.36885600  1
  Ni  Ni6  1  0.22452800  0.44905600  0.71693700  1
  Ni  Ni7  1  0.77547200  0.22452800  0.28306300  1
  Ni  Ni8  1  0.66666700  0.33333300  0.63114400  1
  Ni  Ni9  1  0.44905600  0.22452800  0.28306300  1
  Ni  Ni10  1  0.22452800  0.77547200  0.71693700  1
  Cu  Cu11  1  0.14441200  0.28882400  0.77692600  1
  Cu  Cu12  1  0.14441200  0.85558800  0.77692600  1
  Cu  Cu13  1  0.28882400  0.14441200  0.22307400  1
  Cu  Cu14  1  0.85558800  0.71117600  0.22307400  1
  Cu  Cu15  1  0.71117600  0.85558800  0.77692600  1
  Cu  Cu16  1  0.33333300  0.66666700  0.17757300  1
  Cu  Cu17  1  0.66666700  0.33333300  0.82242700  1
  Cu  Cu18  1  0.85558800  0.14441200  0.22307400  1
