# generated using pymatgen
data_CuNiC8
_symmetry_space_group_name_H-M   'P 1'
_cell_length_a   6.85678300
_cell_length_b   6.76633400
_cell_length_c   13.78954263
_cell_angle_alpha   72.37515381
_cell_angle_beta   90.00000000
_cell_angle_gamma   90.00000000
_symmetry_Int_Tables_number   1
_chemical_formula_structural   CuNiC8
_chemical_formula_sum   'Cu4 Ni4 C32'
_cell_volume   609.73860599
_cell_formula_units_Z   4
loop_
 _symmetry_equiv_pos_site_id
 _symmetry_equiv_pos_as_xyz
  1  'x, y, z'
loop_
 _atom_site_type_symbol
 _atom_site_label
 _atom_site_symmetry_multiplicity
 _atom_site_fract_x
 _atom_site_fract_y
 _atom_site_fract_z
 _atom_site_occupancy
  Ni  Ni0  1  0.66696700  0.92500700  0.38298500  1
  Ni  Ni1  1  0.83303300  0.92500700  0.88298500  1
  Ni  Ni2  1  0.33303300  0.07499300  0.61701500  1
  Ni  Ni3  1  0.16696700  0.07499300  0.11701500  1
  Cu  Cu4  1  0.37841900  0.50854000  0.33567700  1
  Cu  Cu5  1  0.87841900  0.49146000  0.16432300  1
  Cu  Cu6  1  0.12158100  0.50854000  0.83567700  1
  Cu  Cu7  1  0.62158100  0.49146000  0.66432300  1
  C  C8  1  0.33496600  0.03443000  0.86113900  1
  C  C9  1  0.35182400  0.62209600  0.06856100  1
  C  C10  1  0.83496600  0.96557000  0.63886100  1
  C  C11  1  0.66503400  0.96557000  0.13886100  1
  C  C12  1  0.85182400  0.37790400  0.43143900  1
  C  C13  1  0.64817600  0.37790400  0.93143900  1
  C  C14  1  0.16503400  0.03443000  0.36113900  1
  C  C15  1  0.14817600  0.62209600  0.56856100  1
  C  C16  1  0.71728000  0.30632900  0.33928300  1
  C  C17  1  0.68139200  0.53189700  0.46538800  1
  C  C18  1  0.66402100  0.12318200  0.66968500  1
  C  C19  1  0.48433800  0.54767100  0.85458800  1
  C  C20  1  0.16992000  0.25196100  0.25497100  1
  C  C21  1  0.18139200  0.46810300  0.03461200  1
  C  C22  1  0.51566200  0.45232900  0.14541200  1
  C  C23  1  0.20527500  0.13616900  0.94200800  1
  C  C24  1  0.81860800  0.53189700  0.96538800  1
  C  C25  1  0.16402100  0.87681800  0.83031500  1
  C  C26  1  0.83597900  0.12318200  0.16968500  1
  C  C27  1  0.83008000  0.74803900  0.74502900  1
  C  C28  1  0.70527500  0.86383100  0.55799200  1
  C  C29  1  0.33597900  0.87681800  0.33031500  1
  C  C30  1  0.79472500  0.86383100  0.05799200  1
  C  C31  1  0.28272000  0.69367100  0.66071700  1
  C  C32  1  0.33008000  0.25196100  0.75497100  1
  C  C33  1  0.21728000  0.69367100  0.16071700  1
  C  C34  1  0.29472500  0.13616900  0.44200800  1
  C  C35  1  0.78272000  0.30632900  0.83928300  1
  C  C36  1  0.98433800  0.45232900  0.64541200  1
  C  C37  1  0.66992000  0.74803900  0.24502900  1
  C  C38  1  0.31860800  0.46810300  0.53461200  1
  C  C39  1  0.01566200  0.54767100  0.35458800  1
