# generated using pymatgen
data_Cu14(NiC14)3
_symmetry_space_group_name_H-M   'P 1'
_cell_length_a   19.64442226
_cell_length_b   19.64442226
_cell_length_c   19.64442218
_cell_angle_alpha   29.03141132
_cell_angle_beta   29.03141132
_cell_angle_gamma   29.03141336
_symmetry_Int_Tables_number   1
_chemical_formula_structural   Cu14(NiC14)3
_chemical_formula_sum   'Cu28 Ni6 C84'
_cell_volume   1579.17939660
_cell_formula_units_Z   2
loop_
 _symmetry_equiv_pos_site_id
 _symmetry_equiv_pos_as_xyz
  1  'x, y, z'
loop_
 _atom_site_type_symbol
 _atom_site_label
 _atom_site_symmetry_multiplicity
 _atom_site_fract_x
 _atom_site_fract_y
 _atom_site_fract_z
 _atom_site_occupancy
  Ni  Ni0  1  0.55300700  0.55300700  0.55300700  1
  Ni  Ni1  1  0.75000000  0.75000000  0.75000000  1
  Ni  Ni2  1  0.44699300  0.44699300  0.44699300  1
  Ni  Ni3  1  0.94699300  0.94699300  0.94699300  1
  Ni  Ni4  1  0.25000000  0.25000000  0.25000000  1
  Ni  Ni5  1  0.05300700  0.05300700  0.05300700  1
  Cu  Cu6  1  0.18053300  0.80282400  0.45899400  1
  Cu  Cu7  1  0.77981600  0.07046600  0.49928200  1
  Cu  Cu8  1  0.69717600  0.31946700  0.04100600  1
  Cu  Cu9  1  0.81946700  0.19717600  0.54100600  1
  Cu  Cu10  1  0.49928200  0.77981600  0.07046600  1
  Cu  Cu11  1  0.95899400  0.30282400  0.68053300  1
  Cu  Cu12  1  0.45899400  0.18053300  0.80282400  1
  Cu  Cu13  1  0.22018400  0.92953400  0.50071800  1
  Cu  Cu14  1  0.50071800  0.22018400  0.92953400  1
  Cu  Cu15  1  0.19717600  0.54100600  0.81946700  1
  Cu  Cu16  1  0.10769400  0.10769400  0.10769400  1
  Cu  Cu17  1  0.99928200  0.57046600  0.27981600  1
  Cu  Cu18  1  0.39230600  0.39230600  0.39230600  1
  Cu  Cu19  1  0.31946700  0.04100600  0.69717600  1
  Cu  Cu20  1  0.68053300  0.95899400  0.30282400  1
  Cu  Cu21  1  0.00071800  0.42953400  0.72018400  1
  Cu  Cu22  1  0.27981600  0.99928200  0.57046600  1
  Cu  Cu23  1  0.30282400  0.68053300  0.95899400  1
  Cu  Cu24  1  0.80282400  0.45899400  0.18053300  1
  Cu  Cu25  1  0.72018400  0.00071800  0.42953400  1
  Cu  Cu26  1  0.57046600  0.27981600  0.99928200  1
  Cu  Cu27  1  0.89230600  0.89230600  0.89230600  1
  Cu  Cu28  1  0.60769400  0.60769400  0.60769400  1
  Cu  Cu29  1  0.04100600  0.69717600  0.31946700  1
  Cu  Cu30  1  0.54100600  0.81946700  0.19717600  1
  Cu  Cu31  1  0.42953400  0.72018400  0.00071800  1
  Cu  Cu32  1  0.07046600  0.49928200  0.77981600  1
  Cu  Cu33  1  0.92953400  0.50071800  0.22018400  1
  C  C34  1  0.75000000  0.41721500  0.08278500  1
  C  C35  1  0.66233800  0.66233800  0.66233800  1
  C  C36  1  0.50000000  0.50000000  0.50000000  1
  C  C37  1  0.83766200  0.83766200  0.83766200  1
  C  C38  1  0.91721500  0.25000000  0.58278500  1
  C  C39  1  0.16233800  0.16233800  0.16233800  1
  C  C40  1  0.08278500  0.75000000  0.41721500  1
  C  C41  1  0.58278500  0.91721500  0.25000000  1
  C  C42  1  0.25000000  0.58278500  0.91721500  1
  C  C43  1  0.41721500  0.08278500  0.75000000  1
  C  C44  1  0.33766200  0.33766200  0.33766200  1
  C  C45  1  0.00000000  0.00000000  0.00000000  1
  C  C46  1  0.92655900  0.66479500  0.98550400  1
  C  C47  1  0.24693300  0.98127400  0.30999400  1
  C  C48  1  0.83520500  0.57344100  0.51449600  1
  C  C49  1  0.46745600  0.07981800  0.28145400  1
  C  C50  1  0.26775300  0.20303200  0.70223500  1
  C  C51  1  0.74693300  0.80999400  0.48127400  1
  C  C52  1  0.66479500  0.98550400  0.92655900  1
  C  C53  1  0.25306700  0.19000600  0.51872600  1
  C  C54  1  0.51574200  0.55406200  0.18444200  1
  C  C55  1  0.51449600  0.83520500  0.57344100  1
  C  C56  1  0.03254400  0.21854600  0.42018200  1
  C  C57  1  0.70223500  0.26775300  0.20303200  1
  C  C58  1  0.29776500  0.73224700  0.79696800  1
  C  C59  1  0.78145400  0.57981800  0.96745600  1
  C  C60  1  0.18787600  0.85052100  0.02360700  1
  C  C61  1  0.01574200  0.68444200  0.05406200  1
  C  C62  1  0.81212400  0.14947900  0.97639300  1
  C  C63  1  0.98127400  0.30999400  0.24693300  1
  C  C64  1  0.98425800  0.31555800  0.94593800  1
  C  C65  1  0.57344100  0.51449600  0.83520500  1
  C  C66  1  0.79696800  0.29776500  0.73224700  1
  C  C67  1  0.75306700  0.01872600  0.69000600  1
  C  C68  1  0.23224700  0.79776500  0.29696800  1
  C  C69  1  0.98550400  0.92655900  0.66479500  1
  C  C70  1  0.68444200  0.05406200  0.01574200  1
  C  C71  1  0.69000600  0.75306700  0.01872600  1
  C  C72  1  0.53254400  0.92018200  0.71854600  1
  C  C73  1  0.71854600  0.53254400  0.92018200  1
  C  C74  1  0.81555800  0.48425800  0.44593800  1
  C  C75  1  0.42655900  0.48550400  0.16479500  1
  C  C76  1  0.68787600  0.52360700  0.35052100  1
  C  C77  1  0.42018200  0.03254400  0.21854600  1
  C  C78  1  0.01872600  0.69000600  0.75306700  1
  C  C79  1  0.55406200  0.18444200  0.51574200  1
  C  C80  1  0.02360700  0.18787600  0.85052100  1
  C  C81  1  0.44593800  0.81555800  0.48425800  1
  C  C82  1  0.28145400  0.46745600  0.07981800  1
  C  C83  1  0.51872600  0.25306700  0.19000600  1
  C  C84  1  0.47639300  0.64947900  0.31212400  1
  C  C85  1  0.31555800  0.94593800  0.98425800  1
  C  C86  1  0.52360700  0.35052100  0.68787600  1
  C  C87  1  0.48127400  0.74693300  0.80999400  1
  C  C88  1  0.70303200  0.76775300  0.20223500  1
  C  C89  1  0.18444200  0.51574200  0.55406200  1
  C  C90  1  0.07981800  0.28145400  0.46745600  1
  C  C91  1  0.35052100  0.68787600  0.52360700  1
  C  C92  1  0.07344100  0.33520500  0.01449600  1
  C  C93  1  0.16479500  0.42655900  0.48550400  1
  C  C94  1  0.30999400  0.24693300  0.98127400  1
  C  C95  1  0.96745600  0.78145400  0.57981800  1
  C  C96  1  0.31212400  0.47639300  0.64947900  1
  C  C97  1  0.64947900  0.31212400  0.47639300  1
  C  C98  1  0.29696800  0.23224700  0.79776500  1
  C  C99  1  0.76775300  0.20223500  0.70303200  1
  C  C100  1  0.14947900  0.97639300  0.81212400  1
  C  C101  1  0.01449600  0.07344100  0.33520500  1
  C  C102  1  0.57981800  0.96745600  0.78145400  1
  C  C103  1  0.80999400  0.48127400  0.74693300  1
  C  C104  1  0.19000600  0.51872600  0.25306700  1
  C  C105  1  0.48550400  0.16479500  0.42655900  1
  C  C106  1  0.85052100  0.02360700  0.18787600  1
  C  C107  1  0.20223500  0.70303200  0.76775300  1
  C  C108  1  0.79776500  0.29696800  0.23224700  1
  C  C109  1  0.92018200  0.71854600  0.53254400  1
  C  C110  1  0.20303200  0.70223500  0.26775300  1
  C  C111  1  0.33520500  0.01449600  0.07344100  1
  C  C112  1  0.05406200  0.01574200  0.68444200  1
  C  C113  1  0.94593800  0.98425800  0.31555800  1
  C  C114  1  0.21854600  0.42018200  0.03254400  1
  C  C115  1  0.48425800  0.44593800  0.81555800  1
  C  C116  1  0.97639300  0.81212400  0.14947900  1
  C  C117  1  0.73224700  0.79696800  0.29776500  1
