# generated using pymatgen
data_Cu2Ni4C7
_symmetry_space_group_name_H-M   'P 1'
_cell_length_a   9.50645700
_cell_length_b   7.41999000
_cell_length_c   9.06048503
_cell_angle_alpha   72.44232065
_cell_angle_beta   90.00000000
_cell_angle_gamma   90.00000000
_symmetry_Int_Tables_number   1
_chemical_formula_structural   Cu2Ni4C7
_chemical_formula_sum   'Cu4 Ni8 C14'
_cell_volume   609.33323382
_cell_formula_units_Z   2
loop_
 _symmetry_equiv_pos_site_id
 _symmetry_equiv_pos_as_xyz
  1  'x, y, z'
loop_
 _atom_site_type_symbol
 _atom_site_label
 _atom_site_symmetry_multiplicity
 _atom_site_fract_x
 _atom_site_fract_y
 _atom_site_fract_z
 _atom_site_occupancy
  C  C0  1  0.29298900  0.46940700  0.88276400  1
  C  C1  1  0.79298900  0.53059300  0.61723600  1
  C  C2  1  0.20701100  0.46940700  0.38276400  1
  C  C3  1  0.70701100  0.53059300  0.11723600  1
  C  C4  1  0.50000000  0.00000000  0.50000000  1
  C  C5  1  0.00000000  0.00000000  0.00000000  1
  Ni  Ni6  1  0.95787400  0.80350600  0.20312600  1
  Ni  Ni7  1  0.96058000  0.80205500  0.89395700  1
  Ni  Ni8  1  0.45787400  0.19649400  0.29687400  1
  Ni  Ni9  1  0.03942000  0.19794500  0.10604300  1
  Ni  Ni10  1  0.46058000  0.19794500  0.60604300  1
  Ni  Ni11  1  0.53942000  0.80205500  0.39395700  1
  Ni  Ni12  1  0.04212600  0.19649400  0.79687400  1
  Ni  Ni13  1  0.54212600  0.80350600  0.70312600  1
  Cu  Cu14  1  0.77583500  0.10520300  0.46798500  1
  Cu  Cu15  1  0.72416500  0.10520300  0.96798500  1
  Cu  Cu16  1  0.22416500  0.89479700  0.53201500  1
  Cu  Cu17  1  0.27583500  0.89479700  0.03201500  1
  C  C18  1  0.06671600  0.31677200  0.68204100  1
  C  C19  1  0.43328400  0.31677200  0.18204100  1
  C  C20  1  0.93328400  0.68322800  0.31795900  1
  C  C21  1  0.56671600  0.68322800  0.81795900  1
  C  C22  1  0.43382300  0.31673200  0.66229200  1
  C  C23  1  0.56617700  0.68326800  0.33770800  1
  C  C24  1  0.93382300  0.68326800  0.83770800  1
  C  C25  1  0.06617700  0.31673200  0.16229200  1
