# generated using pymatgen
data_Cu2NiC7
_symmetry_space_group_name_H-M   'P 1'
_cell_length_a   7.70284000
_cell_length_b   6.64295200
_cell_length_c   9.60378402
_cell_angle_alpha   86.61192063
_cell_angle_beta   90.00000000
_cell_angle_gamma   90.00000000
_symmetry_Int_Tables_number   1
_chemical_formula_structural   Cu2NiC7
_chemical_formula_sum   'Cu4 Ni2 C14'
_cell_volume   490.56281819
_cell_formula_units_Z   2
loop_
 _symmetry_equiv_pos_site_id
 _symmetry_equiv_pos_as_xyz
  1  'x, y, z'
loop_
 _atom_site_type_symbol
 _atom_site_label
 _atom_site_symmetry_multiplicity
 _atom_site_fract_x
 _atom_site_fract_y
 _atom_site_fract_z
 _atom_site_occupancy
  C  C0  1  0.53480800  0.30271600  0.50727800  1
  C  C1  1  0.03480800  0.69728400  0.49272200  1
  Ni  Ni2  1  0.25235600  0.18767900  0.98380600  1
  Ni  Ni3  1  0.75235600  0.81232100  0.01619400  1
  Cu  Cu4  1  0.83546600  0.31013700  0.81868200  1
  Cu  Cu5  1  0.05097200  0.19425100  0.68583500  1
  Cu  Cu6  1  0.55097200  0.80574900  0.31416500  1
  Cu  Cu7  1  0.33546600  0.68986300  0.18131800  1
  C  C8  1  0.94990300  0.34230200  0.01349900  1
  C  C9  1  0.12844000  0.94512000  0.81152500  1
  C  C10  1  0.95187900  0.13467200  0.50370000  1
  C  C11  1  0.45187900  0.86532800  0.49630000  1
  C  C12  1  0.23709900  0.40766000  0.70001000  1
  C  C13  1  0.62844000  0.05488000  0.18847500  1
  C  C14  1  0.64394500  0.09118800  0.82697200  1
  C  C15  1  0.74183400  0.56788000  0.73086700  1
  C  C16  1  0.14394500  0.90881200  0.17302800  1
  C  C17  1  0.24183400  0.43212000  0.26913300  1
  C  C18  1  0.44990300  0.65769800  0.98650100  1
  C  C19  1  0.73709900  0.59234000  0.29999000  1
