# generated using pymatgen
data_Cu2Ni2C7
_symmetry_space_group_name_H-M   'P 1'
_cell_length_a   5.00987122
_cell_length_b   5.61587928
_cell_length_c   5.61587928
_cell_angle_alpha   74.02893737
_cell_angle_beta   82.50043594
_cell_angle_gamma   97.49956406
_symmetry_Int_Tables_number   1
_chemical_formula_structural   Cu2Ni2C7
_chemical_formula_sum   'Cu2 Ni2 C7'
_cell_volume   148.29013678
_cell_formula_units_Z   1
loop_
 _symmetry_equiv_pos_site_id
 _symmetry_equiv_pos_as_xyz
  1  'x, y, z'
loop_
 _atom_site_type_symbol
 _atom_site_label
 _atom_site_symmetry_multiplicity
 _atom_site_fract_x
 _atom_site_fract_y
 _atom_site_fract_z
 _atom_site_occupancy
  Ni  Ni0  1  0.00000000  0.30803600  0.30803600  1
  Ni  Ni1  1  0.00000000  0.69196400  0.69196400  1
  Cu  Cu2  1  0.59452500  0.76673200  0.23326800  1
  Cu  Cu3  1  0.40547500  0.23326800  0.76673200  1
  C  C4  1  0.21075900  0.40441500  0.92582100  1
  C  C5  1  0.78924100  0.92582100  0.40441500  1
  C  C6  1  0.78924100  0.59558500  0.07417900  1
  C  C7  1  0.21075900  0.07417900  0.59558500  1
  C  C8  1  0.50000000  0.00000000  0.00000000  1
  C  C9  1  0.72554900  0.40957500  0.59042500  1
  C  C10  1  0.27445100  0.59042500  0.40957500  1
