# generated using pymatgen
data_Cu9NiC7
_symmetry_space_group_name_H-M   'P 1'
_cell_length_a   6.56679300
_cell_length_b   11.45429000
_cell_length_c   11.54026300
_cell_angle_alpha   90.00000000
_cell_angle_beta   90.00000000
_cell_angle_gamma   90.00000000
_symmetry_Int_Tables_number   1
_chemical_formula_structural   Cu9NiC7
_chemical_formula_sum   'Cu36 Ni4 C28'
_cell_volume   868.03494138
_cell_formula_units_Z   4
loop_
 _symmetry_equiv_pos_site_id
 _symmetry_equiv_pos_as_xyz
  1  'x, y, z'
loop_
 _atom_site_type_symbol
 _atom_site_label
 _atom_site_symmetry_multiplicity
 _atom_site_fract_x
 _atom_site_fract_y
 _atom_site_fract_z
 _atom_site_occupancy
  C  C0  1  0.84163600  0.74150900  0.47346600  1
  C  C1  1  0.00600100  0.95594200  0.74754000  1
  C  C2  1  0.50600100  0.45594200  0.75246000  1
  C  C3  1  0.50600100  0.54405800  0.24754000  1
  C  C4  1  0.34163600  0.75849100  0.97346600  1
  C  C5  1  0.00600100  0.04405800  0.25246000  1
  C  C6  1  0.34163600  0.24150900  0.02653400  1
  C  C7  1  0.84163600  0.25849100  0.52653400  1
  C  C8  1  0.47422100  0.99346600  0.24940200  1
  C  C9  1  0.47422100  0.00653400  0.75059800  1
  C  C10  1  0.80850400  0.73485100  0.03580800  1
  C  C11  1  0.03009100  0.71513000  0.20664700  1
  C  C12  1  0.80850400  0.26514900  0.96419200  1
  C  C13  1  0.30850400  0.76514900  0.53580800  1
  C  C14  1  0.30850400  0.23485100  0.46419200  1
  C  C15  1  0.84817500  0.29429400  0.18804700  1
  C  C16  1  0.84817500  0.70570600  0.81195300  1
  C  C17  1  0.97422100  0.49346600  0.25059800  1
  C  C18  1  0.20033700  0.32156200  0.27361700  1
  C  C19  1  0.97422100  0.50653400  0.74940200  1
  C  C20  1  0.03009100  0.28487000  0.79335300  1
  C  C21  1  0.70033700  0.17843800  0.77361700  1
  C  C22  1  0.34817500  0.20570600  0.68804700  1
  C  C23  1  0.34817500  0.79429400  0.31195300  1
  C  C24  1  0.70033700  0.82156200  0.22638300  1
  C  C25  1  0.53009100  0.78487000  0.70664700  1
  C  C26  1  0.53009100  0.21513000  0.29335300  1
  C  C27  1  0.20033700  0.67843800  0.72638300  1
  Ni  Ni28  1  0.40365800  0.50000000  0.00000000  1
  Ni  Ni29  1  0.64880600  0.50000000  0.50000000  1
  Ni  Ni30  1  0.14880600  0.00000000  0.00000000  1
  Ni  Ni31  1  0.90365800  0.00000000  0.50000000  1
  Cu  Cu32  1  0.74828400  0.26604000  0.07725200  1
  Cu  Cu33  1  0.15362100  0.26612800  0.38764400  1
  Cu  Cu34  1  0.56870900  0.23392200  0.68481500  1
  Cu  Cu35  1  0.56870900  0.76607800  0.31518500  1
  Cu  Cu36  1  0.32023000  0.92175400  0.28771600  1
  Cu  Cu37  1  0.15362100  0.73387200  0.61235600  1
  Cu  Cu38  1  0.24828400  0.23396000  0.57725200  1
  Cu  Cu39  1  0.91690100  0.81432800  0.25569600  1
  Cu  Cu40  1  0.92938500  0.61024100  0.26309600  1
  Cu  Cu41  1  0.82023000  0.57824600  0.78771600  1
  Cu  Cu42  1  0.75017000  0.77800800  0.72126300  1
  Cu  Cu43  1  0.41690100  0.68567200  0.75569600  1
  Cu  Cu44  1  0.41690100  0.31432800  0.24430400  1
  Cu  Cu45  1  0.99866500  0.70820900  0.07683400  1
  Cu  Cu46  1  0.82023000  0.42175400  0.21228400  1
  Cu  Cu47  1  0.16048900  0.55025300  0.71862300  1
  Cu  Cu48  1  0.49866500  0.79179100  0.57683400  1
  Cu  Cu49  1  0.42938500  0.11024100  0.23690400  1
  Cu  Cu50  1  0.25017000  0.27800800  0.77873700  1
  Cu  Cu51  1  0.92938500  0.38975900  0.73690400  1
  Cu  Cu52  1  0.75017000  0.22199200  0.27873700  1
  Cu  Cu53  1  0.24828400  0.76604000  0.42274800  1
  Cu  Cu54  1  0.06870900  0.73392200  0.81518500  1
  Cu  Cu55  1  0.74828400  0.73396000  0.92274800  1
  Cu  Cu56  1  0.65362100  0.76612800  0.11235600  1
  Cu  Cu57  1  0.16048900  0.44974700  0.28137700  1
  Cu  Cu58  1  0.99866500  0.29179100  0.92316600  1
  Cu  Cu59  1  0.06870900  0.26607800  0.18481500  1
  Cu  Cu60  1  0.49866500  0.20820900  0.42316600  1
  Cu  Cu61  1  0.42938500  0.88975900  0.76309600  1
  Cu  Cu62  1  0.65362100  0.23387200  0.88764400  1
  Cu  Cu63  1  0.66048900  0.05025300  0.78137700  1
  Cu  Cu64  1  0.91690100  0.18567200  0.74430400  1
  Cu  Cu65  1  0.32023000  0.07824600  0.71228400  1
  Cu  Cu66  1  0.25017000  0.72199200  0.22126300  1
  Cu  Cu67  1  0.66048900  0.94974700  0.21862300  1
