# generated using pymatgen
data_CuNi2
_symmetry_space_group_name_H-M   'P 1'
_cell_length_a   12.70596080
_cell_length_b   12.70596080
_cell_length_c   12.70596080
_cell_angle_alpha   140.23752164
_cell_angle_beta   140.23752164
_cell_angle_gamma   57.49283295
_symmetry_Int_Tables_number   1
_chemical_formula_structural   CuNi2
_chemical_formula_sum   'Cu16 Ni32'
_cell_volume   831.96016454
_cell_formula_units_Z   16
loop_
 _symmetry_equiv_pos_site_id
 _symmetry_equiv_pos_as_xyz
  1  'x, y, z'
loop_
 _atom_site_type_symbol
 _atom_site_label
 _atom_site_symmetry_multiplicity
 _atom_site_fract_x
 _atom_site_fract_y
 _atom_site_fract_z
 _atom_site_occupancy
  Ni  Ni0  1  0.16549400  0.97876500  0.26986300  1
  Ni  Ni1  1  0.54109800  0.77123500  0.68672900  1
  Ni  Ni2  1  0.39490700  0.20869000  0.72941900  1
  Ni  Ni3  1  0.64563100  0.41549400  0.68672900  1
  Ni  Ni4  1  0.35509300  0.04131000  0.77058100  1
  Ni  Ni5  1  0.20890200  0.47876500  0.81327100  1
  Ni  Ni6  1  0.79131000  0.52072900  0.18621600  1
  Ni  Ni7  1  0.97927100  0.70869000  0.81378400  1
  Ni  Ni8  1  0.47927100  0.66548700  0.27058100  1
  Ni  Ni9  1  0.14563100  0.45890200  0.23013700  1
  Ni  Ni10  1  0.72876500  0.95890200  0.31327100  1
  Ni  Ni11  1  0.85509300  0.08451300  0.31378400  1
  Ni  Ni12  1  0.77072900  0.54131000  0.68621600  1
  Ni  Ni13  1  0.95869000  0.72927100  0.31378400  1
  Ni  Ni14  1  0.70890200  0.89563100  0.73013700  1
  Ni  Ni15  1  0.27072900  0.58451300  0.22941900  1
  Ni  Ni16  1  0.41548700  0.64490700  0.68621600  1
  Ni  Ni17  1  0.02123500  0.29109800  0.18672900  1
  Ni  Ni18  1  0.29131000  0.10509300  0.27058100  1
  Ni  Ni19  1  0.52123500  0.33450600  0.73013700  1
  Ni  Ni20  1  0.89490700  0.16548700  0.18621600  1
  Ni  Ni21  1  0.08450600  0.85436900  0.31327100  1
  Ni  Ni22  1  0.10436900  0.83450600  0.81327100  1
  Ni  Ni23  1  0.60436900  0.79109800  0.26986300  1
  Ni  Ni24  1  0.04109800  0.35436900  0.76986300  1
  Ni  Ni25  1  0.83451300  0.02072900  0.72941900  1
  Ni  Ni26  1  0.45869000  0.14490700  0.22941900  1
  Ni  Ni27  1  0.66549400  0.39563100  0.18672900  1
  Ni  Ni28  1  0.22876500  0.91549400  0.76986300  1
  Ni  Ni29  1  0.58450600  0.27123500  0.23013700  1
  Ni  Ni30  1  0.33451300  0.60509300  0.81378400  1
  Ni  Ni31  1  0.91548700  0.22927100  0.77058100  1
  Cu  Cu32  1  0.14006000  0.14006000  0.00000000  1
  Cu  Cu33  1  0.35994000  0.35994000  0.00000000  1
  Cu  Cu34  1  0.80162100  0.69837900  0.50000000  1
  Cu  Cu35  1  0.19837900  0.30162100  0.50000000  1
  Cu  Cu36  1  0.05162100  0.05162100  0.60324200  1
  Cu  Cu37  1  0.89006000  0.39006000  0.50000000  1
  Cu  Cu38  1  0.39006000  0.89006000  0.50000000  1
  Cu  Cu39  1  0.60994000  0.10994000  0.50000000  1
  Cu  Cu40  1  0.64006000  0.64006000  0.00000000  1
  Cu  Cu41  1  0.94837900  0.55162100  0.00000000  1
  Cu  Cu42  1  0.69837900  0.19837900  0.89675800  1
  Cu  Cu43  1  0.85994000  0.85994000  0.00000000  1
  Cu  Cu44  1  0.44837900  0.44837900  0.39675800  1
  Cu  Cu45  1  0.55162100  0.94837900  0.00000000  1
  Cu  Cu46  1  0.10994000  0.60994000  0.50000000  1
  Cu  Cu47  1  0.30162100  0.80162100  0.10324200  1
