# generated using pymatgen
data_Cu(NiC4)2
_symmetry_space_group_name_H-M   'P 1'
_cell_length_a   7.62434700
_cell_length_b   7.11330900
_cell_length_c   11.62449623
_cell_angle_alpha   60.26640488
_cell_angle_beta   90.00000000
_cell_angle_gamma   90.00000000
_symmetry_Int_Tables_number   1
_chemical_formula_structural   Cu(NiC4)2
_chemical_formula_sum   'Cu4 Ni8 C32'
_cell_volume   547.44274480
_cell_formula_units_Z   4
loop_
 _symmetry_equiv_pos_site_id
 _symmetry_equiv_pos_as_xyz
  1  'x, y, z'
loop_
 _atom_site_type_symbol
 _atom_site_label
 _atom_site_symmetry_multiplicity
 _atom_site_fract_x
 _atom_site_fract_y
 _atom_site_fract_z
 _atom_site_occupancy
  C  C0  1  0.53609700  0.65239600  0.33244300  1
  C  C1  1  0.16754100  0.16772400  0.50526500  1
  C  C2  1  0.83245900  0.83227600  0.49473500  1
  C  C3  1  0.33245900  0.16772400  0.00526500  1
  C  C4  1  0.03609700  0.34760400  0.16755700  1
  C  C5  1  0.46390300  0.34760400  0.66755700  1
  C  C6  1  0.96390300  0.65239600  0.83244300  1
  C  C7  1  0.66754100  0.83227600  0.99473500  1
  Ni  Ni8  1  0.67347300  0.26280000  0.86776900  1
  Ni  Ni9  1  0.82652700  0.26280000  0.36776900  1
  Ni  Ni10  1  0.28648900  0.56952500  0.95444800  1
  Ni  Ni11  1  0.71351100  0.43047500  0.04555200  1
  Ni  Ni12  1  0.21351100  0.56952500  0.45444800  1
  Ni  Ni13  1  0.78648900  0.43047500  0.54555200  1
  Ni  Ni14  1  0.17347300  0.73720000  0.63223100  1
  Ni  Ni15  1  0.32652700  0.73720000  0.13223100  1
  Cu  Cu16  1  0.50675400  0.80856400  0.71892300  1
  Cu  Cu17  1  0.00675400  0.19143600  0.78107700  1
  Cu  Cu18  1  0.99324600  0.80856400  0.21892300  1
  Cu  Cu19  1  0.49324600  0.19143600  0.28107700  1
  C  C20  1  0.40569900  0.66276300  0.68581800  1
  C  C21  1  0.68909200  0.53345300  0.52427500  1
  C  C22  1  0.09430100  0.66276300  0.18581800  1
  C  C23  1  0.98352600  0.25936700  0.63844300  1
  C  C24  1  0.18909200  0.46654700  0.97572500  1
  C  C25  1  0.56636400  0.18026000  0.87513000  1
  C  C26  1  0.43363600  0.81974000  0.12487000  1
  C  C27  1  0.01647400  0.74063300  0.36155700  1
  C  C28  1  0.31090800  0.46654700  0.47572500  1
  C  C29  1  0.30176300  0.19854600  0.30848600  1
  C  C30  1  0.48352600  0.74063300  0.86155700  1
  C  C31  1  0.93363600  0.18026000  0.37513000  1
  C  C32  1  0.90569900  0.33723700  0.81418200  1
  C  C33  1  0.06636400  0.81974000  0.62487000  1
  C  C34  1  0.80176300  0.80145400  0.19151400  1
  C  C35  1  0.51647400  0.25936700  0.13844300  1
  C  C36  1  0.55875800  0.96425900  0.36584500  1
  C  C37  1  0.05875800  0.03574100  0.13415500  1
  C  C38  1  0.59430100  0.33723700  0.31418200  1
  C  C39  1  0.69823700  0.80145400  0.69151400  1
  C  C40  1  0.81090800  0.53345300  0.02427500  1
  C  C41  1  0.94124200  0.96425900  0.86584500  1
  C  C42  1  0.44124200  0.03574100  0.63415500  1
  C  C43  1  0.19823700  0.19854600  0.80848600  1
