# generated using pymatgen
data_Cu8NiC9
_symmetry_space_group_name_H-M   'P 1'
_cell_length_a   9.97793400
_cell_length_b   7.17724500
_cell_length_c   12.14657518
_cell_angle_alpha   57.10189490
_cell_angle_beta   90.00000000
_cell_angle_gamma   90.00000000
_symmetry_Int_Tables_number   1
_chemical_formula_structural   Cu8NiC9
_chemical_formula_sum   'Cu16 Ni2 C18'
_cell_volume   730.37220494
_cell_formula_units_Z   2
loop_
 _symmetry_equiv_pos_site_id
 _symmetry_equiv_pos_as_xyz
  1  'x, y, z'
loop_
 _atom_site_type_symbol
 _atom_site_label
 _atom_site_symmetry_multiplicity
 _atom_site_fract_x
 _atom_site_fract_y
 _atom_site_fract_z
 _atom_site_occupancy
  C  C0  1  0.66073200  0.98797300  0.41065200  1
  C  C1  1  0.35712000  0.00000000  0.25000000  1
  C  C2  1  0.81623900  0.47328800  0.41203600  1
  C  C3  1  0.15720800  0.50000000  0.25000000  1
  C  C4  1  0.33926800  0.98797300  0.91065200  1
  C  C5  1  0.84279200  0.50000000  0.75000000  1
  C  C6  1  0.18376100  0.47328800  0.91203600  1
  C  C7  1  0.66073200  0.01202700  0.08934800  1
  C  C8  1  0.64288000  0.00000000  0.75000000  1
  C  C9  1  0.33926800  0.01202700  0.58934800  1
  C  C10  1  0.18376100  0.52671200  0.58796400  1
  C  C11  1  0.81623900  0.52671200  0.08796400  1
  C  C12  1  0.50602700  0.50000000  0.75000000  1
  C  C13  1  0.49397300  0.50000000  0.25000000  1
  C  C14  1  0.04333500  0.00000000  0.75000000  1
  C  C15  1  0.95666500  0.00000000  0.25000000  1
  C  C16  1  0.00000000  0.00000000  0.50000000  1
  C  C17  1  0.00000000  0.00000000  0.00000000  1
  Ni  Ni18  1  0.50000000  0.50000000  0.50000000  1
  Ni  Ni19  1  0.50000000  0.50000000  0.00000000  1
  Cu  Cu20  1  0.57235900  0.73700700  0.01317000  1
  Cu  Cu21  1  0.05263600  0.78324500  0.69034000  1
  Cu  Cu22  1  0.94736400  0.21675500  0.30966000  1
  Cu  Cu23  1  0.41998600  0.71053700  0.83354300  1
  Cu  Cu24  1  0.66002700  0.49929000  0.59094200  1
  Cu  Cu25  1  0.33997300  0.50071000  0.40905800  1
  Cu  Cu26  1  0.42764100  0.73700700  0.51317000  1
  Cu  Cu27  1  0.58001400  0.71053700  0.33354300  1
  Cu  Cu28  1  0.57235900  0.26299300  0.48683000  1
  Cu  Cu29  1  0.58001400  0.28946300  0.16645700  1
  Cu  Cu30  1  0.05263600  0.21675500  0.80966000  1
  Cu  Cu31  1  0.94736400  0.78324500  0.19034000  1
  Cu  Cu32  1  0.41998600  0.28946300  0.66645700  1
  Cu  Cu33  1  0.33997300  0.49929000  0.09094200  1
  Cu  Cu34  1  0.66002700  0.50071000  0.90905800  1
  Cu  Cu35  1  0.42764100  0.26299300  0.98683000  1
