# generated using pymatgen
data_Cu4NiC
_symmetry_space_group_name_H-M   'P 1'
_cell_length_a   4.01900800
_cell_length_b   8.52705025
_cell_length_c   11.10876700
_cell_angle_alpha   90.00000000
_cell_angle_beta   90.00000000
_cell_angle_gamma   103.63066441
_symmetry_Int_Tables_number   1
_chemical_formula_structural   Cu4NiC
_chemical_formula_sum   'Cu8 Ni2 C2'
_cell_volume   369.97816400
_cell_formula_units_Z   2
loop_
 _symmetry_equiv_pos_site_id
 _symmetry_equiv_pos_as_xyz
  1  'x, y, z'
loop_
 _atom_site_type_symbol
 _atom_site_label
 _atom_site_symmetry_multiplicity
 _atom_site_fract_x
 _atom_site_fract_y
 _atom_site_fract_z
 _atom_site_occupancy
  C  C0  1  0.34684200  0.69368400  0.27202500  1
  C  C1  1  0.65315800  0.30631600  0.77202500  1
  Ni  Ni2  1  0.22877100  0.45754200  0.46091500  1
  Ni  Ni3  1  0.77122900  0.54245800  0.96091500  1
  Cu  Cu4  1  0.27470500  0.54941000  0.69832900  1
  Cu  Cu5  1  0.37832300  0.75664600  0.00095200  1
  Cu  Cu6  1  0.72529500  0.45059000  0.19832900  1
  Cu  Cu7  1  0.97779900  0.95559800  0.24106800  1
  Cu  Cu8  1  0.10354400  0.20708800  0.95887100  1
  Cu  Cu9  1  0.89645600  0.79291200  0.45887100  1
  Cu  Cu10  1  0.02220100  0.04440200  0.74106800  1
  Cu  Cu11  1  0.62167700  0.24335400  0.50095200  1
