# generated using pymatgen
data_Cu(NiC4)2
_symmetry_space_group_name_H-M   'P 1'
_cell_length_a   9.91628439
_cell_length_b   9.91628439
_cell_length_c   11.64018686
_cell_angle_alpha   56.73290909
_cell_angle_beta   56.73290909
_cell_angle_gamma   48.77499060
_symmetry_Int_Tables_number   1
_chemical_formula_structural   Cu(NiC4)2
_chemical_formula_sum   'Cu2 Ni4 C16'
_cell_volume   687.23673383
_cell_formula_units_Z   2
loop_
 _symmetry_equiv_pos_site_id
 _symmetry_equiv_pos_as_xyz
  1  'x, y, z'
loop_
 _atom_site_type_symbol
 _atom_site_label
 _atom_site_symmetry_multiplicity
 _atom_site_fract_x
 _atom_site_fract_y
 _atom_site_fract_z
 _atom_site_occupancy
  Ni  Ni0  1  0.15656700  0.68110700  0.52722200  1
  Ni  Ni1  1  0.31889300  0.84343300  0.97277800  1
  Ni  Ni2  1  0.84343300  0.31889300  0.47277800  1
  Ni  Ni3  1  0.68110700  0.15656700  0.02722200  1
  Cu  Cu4  1  0.99529900  0.00470100  0.75000000  1
  Cu  Cu5  1  0.00470100  0.99529900  0.25000000  1
  C  C6  1  0.30203000  0.39374500  0.55229000  1
  C  C7  1  0.60625500  0.69797000  0.94771000  1
  C  C8  1  0.69797000  0.60625500  0.44771000  1
  C  C9  1  0.39374500  0.30203000  0.05229000  1
  C  C10  1  0.87833000  0.84380400  0.50178400  1
  C  C11  1  0.15619600  0.12167000  0.99821600  1
  C  C12  1  0.12167000  0.15619600  0.49821600  1
  C  C13  1  0.84380400  0.87833000  0.00178400  1
  C  C14  1  0.13822300  0.70842400  0.71051300  1
  C  C15  1  0.29157600  0.86177700  0.78948700  1
  C  C16  1  0.86177700  0.29157600  0.28948700  1
  C  C17  1  0.70842400  0.13822300  0.21051300  1
  C  C18  1  0.28063900  0.83635400  0.32401200  1
  C  C19  1  0.16364600  0.71936100  0.17598800  1
  C  C20  1  0.71936100  0.16364600  0.67598800  1
  C  C21  1  0.83635400  0.28063900  0.82401200  1
