# generated using pymatgen
data_Cu20Ni4C5
_symmetry_space_group_name_H-M   'P 1'
_cell_length_a   7.07802100
_cell_length_b   8.05994170
_cell_length_c   9.23148350
_cell_angle_alpha   92.01380565
_cell_angle_beta   105.37874431
_cell_angle_gamma   91.39057865
_symmetry_Int_Tables_number   1
_chemical_formula_structural   Cu20Ni4C5
_chemical_formula_sum   'Cu20 Ni4 C5'
_cell_volume   507.16271573
_cell_formula_units_Z   1
loop_
 _symmetry_equiv_pos_site_id
 _symmetry_equiv_pos_as_xyz
  1  'x, y, z'
loop_
 _atom_site_type_symbol
 _atom_site_label
 _atom_site_symmetry_multiplicity
 _atom_site_fract_x
 _atom_site_fract_y
 _atom_site_fract_z
 _atom_site_occupancy
  C  C0  1  0.74912700  0.39978100  0.15933000  1
  C  C1  1  0.25087300  0.60021900  0.84067000  1
  C  C2  1  0.54990000  0.91642300  0.19153200  1
  C  C3  1  0.45010000  0.08357700  0.80846800  1
  C  C4  1  0.00000000  0.00000000  0.00000000  1
  Ni  Ni5  1  0.29515900  0.34924800  0.44036700  1
  Ni  Ni6  1  0.70484100  0.65075200  0.55963300  1
  Ni  Ni7  1  0.87758300  0.20636500  0.62441700  1
  Ni  Ni8  1  0.12241700  0.79363500  0.37558300  1
  Cu  Cu9  1  0.30924500  0.98833900  0.98671000  1
  Cu  Cu10  1  0.69075500  0.01166100  0.01329000  1
  Cu  Cu11  1  0.88986600  0.89295100  0.28944700  1
  Cu  Cu12  1  0.65063300  0.47247200  0.42548700  1
  Cu  Cu13  1  0.95463700  0.78638600  0.92176100  1
  Cu  Cu14  1  0.34936700  0.52752800  0.57451300  1
  Cu  Cu15  1  0.57379700  0.12904200  0.27389100  1
  Cu  Cu16  1  0.08760700  0.59230600  0.27812200  1
  Cu  Cu17  1  0.77432600  0.09444200  0.76548600  1
  Cu  Cu18  1  0.11013400  0.10704900  0.71055300  1
  Cu  Cu19  1  0.43136000  0.18966100  0.56152500  1
  Cu  Cu20  1  0.52956400  0.70096200  0.11475300  1
  Cu  Cu21  1  0.56864000  0.81033900  0.43847500  1
  Cu  Cu22  1  0.04303300  0.28523300  0.44265900  1
  Cu  Cu23  1  0.47043600  0.29903800  0.88524700  1
  Cu  Cu24  1  0.42620300  0.87095800  0.72610900  1
  Cu  Cu25  1  0.04536300  0.21361400  0.07823900  1
  Cu  Cu26  1  0.22567400  0.90555800  0.23451400  1
  Cu  Cu27  1  0.95696700  0.71476700  0.55734100  1
  Cu  Cu28  1  0.91239300  0.40769400  0.72187800  1
