# generated using pymatgen
data_Cu(NiC)10
_symmetry_space_group_name_H-M   'P 1'
_cell_length_a   6.17986400
_cell_length_b   6.33266860
_cell_length_c   10.96004170
_cell_angle_alpha   75.46148197
_cell_angle_beta   81.58809454
_cell_angle_gamma   70.04753956
_symmetry_Int_Tables_number   1
_chemical_formula_structural   Cu(NiC)10
_chemical_formula_sum   'Cu2 Ni20 C20'
_cell_volume   389.39864086
_cell_formula_units_Z   2
loop_
 _symmetry_equiv_pos_site_id
 _symmetry_equiv_pos_as_xyz
  1  'x, y, z'
loop_
 _atom_site_type_symbol
 _atom_site_label
 _atom_site_symmetry_multiplicity
 _atom_site_fract_x
 _atom_site_fract_y
 _atom_site_fract_z
 _atom_site_occupancy
  C  C0  1  0.00000000  0.00000000  0.00000000  1
  C  C1  1  0.00000000  0.50000000  0.50000000  1
  Ni  Ni2  1  0.72947100  0.89809000  0.85218500  1
  Ni  Ni3  1  0.27052900  0.10191000  0.14781500  1
  Ni  Ni4  1  0.76477200  0.70922300  0.98243200  1
  Ni  Ni5  1  0.23522800  0.29077700  0.01756800  1
  Ni  Ni6  1  0.63934900  0.36059900  0.87213500  1
  Ni  Ni7  1  0.36065100  0.63940100  0.12786500  1
  Ni  Ni8  1  0.87950800  0.34407600  0.79262000  1
  Ni  Ni9  1  0.12049200  0.65592400  0.20738000  1
  Ni  Ni10  1  0.62128900  0.33741900  0.62854000  1
  Ni  Ni11  1  0.37871100  0.66258100  0.37146000  1
  Ni  Ni12  1  0.54449400  0.61283400  0.61336900  1
  Ni  Ni13  1  0.45550600  0.38716600  0.38663100  1
  Ni  Ni14  1  0.81874900  0.87247000  0.62547700  1
  Ni  Ni15  1  0.18125100  0.12753000  0.37452300  1
  Ni  Ni16  1  0.09208900  0.82444200  0.60572000  1
  Ni  Ni17  1  0.90791100  0.17555800  0.39428000  1
  Ni  Ni18  1  0.28613100  0.61364400  0.86793700  1
  Ni  Ni19  1  0.71386900  0.38635600  0.13206300  1
  Ni  Ni20  1  0.26946200  0.41933500  0.80773100  1
  Ni  Ni21  1  0.73053800  0.58066500  0.19226900  1
  Cu  Cu22  1  0.34316600  0.02573600  0.71426500  1
  Cu  Cu23  1  0.65683400  0.97426400  0.28573500  1
  C  C24  1  0.28578700  0.91940700  0.84788600  1
  C  C25  1  0.71421300  0.08059300  0.15211400  1
  C  C26  1  0.17269800  0.26228200  0.67950100  1
  C  C27  1  0.82730200  0.73771800  0.32049900  1
  C  C28  1  0.33767900  0.87916200  0.62884300  1
  C  C29  1  0.66232100  0.12083800  0.37115700  1
  C  C30  1  0.57931300  0.04838400  0.70474600  1
  C  C31  1  0.42068700  0.95161600  0.29525400  1
  C  C32  1  0.83410400  0.81667300  0.92101600  1
  C  C33  1  0.16589600  0.18332700  0.07898400  1
  C  C34  1  0.80846600  0.32082200  0.87893200  1
  C  C35  1  0.19153400  0.67917800  0.12106800  1
  C  C36  1  0.67405500  0.47357000  0.60071400  1
  C  C37  1  0.32594500  0.52643000  0.39928600  1
  C  C38  1  0.96520000  0.77023500  0.59391900  1
  C  C39  1  0.03480000  0.22976500  0.40608100  1
  C  C40  1  0.33971800  0.44530800  0.87504300  1
  C  C41  1  0.66028200  0.55469200  0.12495700  1
