# generated using pymatgen
data_Cu2NiC8
_symmetry_space_group_name_H-M   'P 1'
_cell_length_a   15.46868995
_cell_length_b   11.53247577
_cell_length_c   11.49524014
_cell_angle_alpha   84.40318711
_cell_angle_beta   47.90057582
_cell_angle_gamma   47.69623706
_symmetry_Int_Tables_number   1
_chemical_formula_structural   Cu2NiC8
_chemical_formula_sum   'Cu12 Ni6 C48'
_cell_volume   860.37585453
_cell_formula_units_Z   6
loop_
 _symmetry_equiv_pos_site_id
 _symmetry_equiv_pos_as_xyz
  1  'x, y, z'
loop_
 _atom_site_type_symbol
 _atom_site_label
 _atom_site_symmetry_multiplicity
 _atom_site_fract_x
 _atom_site_fract_y
 _atom_site_fract_z
 _atom_site_occupancy
  C  C0  1  0.75783500  0.75783500  0.24216500  1
  C  C1  1  0.00783500  0.00783500  0.49216500  1
  C  C2  1  0.39066000  0.39066000  0.60934000  1
  C  C3  1  0.64066000  0.64066000  0.85934000  1
  C  C4  1  0.11359700  0.43879200  0.54119800  1
  C  C5  1  0.43879200  0.11359700  0.90641300  1
  C  C6  1  0.70880200  0.34358700  0.13640300  1
  C  C7  1  0.34358700  0.70880200  0.81120800  1
  C  C8  1  0.77032400  0.05712300  0.91485300  1
  C  C9  1  0.05712300  0.77032400  0.25770100  1
  C  C10  1  0.33514700  0.99229900  0.47967600  1
  C  C11  1  0.99229900  0.33514700  0.19287700  1
  Ni  Ni12  1  0.91988800  0.22612000  0.74273800  1
  Ni  Ni13  1  0.22612000  0.91988800  0.11125400  1
  Ni  Ni14  1  0.50726200  0.13874600  0.33011200  1
  Ni  Ni15  1  0.13874600  0.50726200  0.02388000  1
  Ni  Ni16  1  0.61507300  0.61507300  0.38492700  1
  Ni  Ni17  1  0.86507300  0.86507300  0.63492700  1
  Cu  Cu18  1  0.25048600  0.25048600  0.74951400  1
  Cu  Cu19  1  0.50048600  0.50048600  0.99951400  1
  Cu  Cu20  1  0.90502500  0.90502500  0.09497500  1
  Cu  Cu21  1  0.15502500  0.15502500  0.34497500  1
  Cu  Cu22  1  0.28488300  0.55787700  0.41596900  1
  Cu  Cu23  1  0.55787700  0.28488300  0.74127100  1
  Cu  Cu24  1  0.83403100  0.50872900  0.96511700  1
  Cu  Cu25  1  0.50872900  0.83403100  0.69212300  1
  Cu  Cu26  1  0.58581500  0.93995700  0.04621200  1
  Cu  Cu27  1  0.93995700  0.58581500  0.42801600  1
  Cu  Cu28  1  0.20378800  0.82198400  0.66418500  1
  Cu  Cu29  1  0.82198400  0.20378800  0.31004300  1
  C  C30  1  0.14553900  0.76393900  0.83611200  1
  C  C31  1  0.76393900  0.14553900  0.25441000  1
  C  C32  1  0.41388800  0.99559000  0.10446100  1
  C  C33  1  0.99559000  0.41388800  0.48606100  1
  C  C34  1  0.32817300  0.38727900  0.45746600  1
  C  C35  1  0.38727900  0.32817300  0.82708200  1
  C  C36  1  0.79253400  0.42291800  0.92182700  1
  C  C37  1  0.42291800  0.79253400  0.86272100  1
  C  C38  1  0.48534500  0.41475900  0.14395300  1
  C  C39  1  0.41475900  0.48534500  0.95594200  1
  C  C40  1  0.10604700  0.29405800  0.76465500  1
  C  C41  1  0.29405800  0.10604700  0.83524100  1
  C  C42  1  0.79918000  0.66600100  0.89235700  1
  C  C43  1  0.66600100  0.79918000  0.64246100  1
  C  C44  1  0.35764300  0.60753900  0.45082000  1
  C  C45  1  0.60753900  0.35764300  0.58399900  1
  C  C46  1  0.66464200  0.98958700  0.88115300  1
  C  C47  1  0.98958700  0.66464200  0.46461700  1
  C  C48  1  0.36884700  0.78538300  0.58535800  1
  C  C49  1  0.78538300  0.36884700  0.26041300  1
  C  C50  1  0.13192200  0.09626000  0.50133000  1
  C  C51  1  0.09626000  0.13192200  0.27048800  1
  C  C52  1  0.74867000  0.97951200  0.11807800  1
  C  C53  1  0.97951200  0.74867000  0.15374000  1
  C  C54  1  0.97402200  0.06238000  0.78961500  1
  C  C55  1  0.06238000  0.97402200  0.17398300  1
  C  C56  1  0.46038500  0.07601700  0.27597800  1
  C  C57  1  0.07601700  0.46038500  0.18761900  1
  C  C58  1  0.47717300  0.10637400  0.49165600  1
  C  C59  1  0.10637400  0.47717300  0.92479700  1
  C  C60  1  0.75834400  0.32520300  0.77282700  1
  C  C61  1  0.32520300  0.75834400  0.14362600  1
  C  C62  1  0.67778200  0.64898500  0.21377300  1
  C  C63  1  0.64898500  0.67778200  0.45946000  1
  C  C64  1  0.03622700  0.79054000  0.57221800  1
  C  C65  1  0.79054000  0.03622700  0.60101500  1
