# generated using pymatgen
data_Cu2Ni2C7
_symmetry_space_group_name_H-M   'P 1'
_cell_length_a   9.42943537
_cell_length_b   9.42943537
_cell_length_c   9.42943537
_cell_angle_alpha   155.79078644
_cell_angle_beta   119.81913187
_cell_angle_gamma   65.83800781
_symmetry_Int_Tables_number   1
_chemical_formula_structural   Cu2Ni2C7
_chemical_formula_sum   'Cu2 Ni2 C7'
_cell_volume   295.97447243
_cell_formula_units_Z   1
loop_
 _symmetry_equiv_pos_site_id
 _symmetry_equiv_pos_as_xyz
  1  'x, y, z'
loop_
 _atom_site_type_symbol
 _atom_site_label
 _atom_site_symmetry_multiplicity
 _atom_site_fract_x
 _atom_site_fract_y
 _atom_site_fract_z
 _atom_site_occupancy
  C  C0  1  0.08101200  0.18370000  0.89731200  1
  C  C1  1  0.40539700  0.14779700  0.25760000  1
  C  C2  1  0.02345900  0.50000000  0.52345900  1
  C  C3  1  0.47500800  0.36872700  0.10628100  1
  C  C4  1  0.73755400  0.63127300  0.10628100  1
  C  C5  1  0.71361200  0.81630000  0.89731200  1
  C  C6  1  0.10980300  0.85220300  0.25760000  1
  Ni  Ni7  1  0.75998600  0.00000000  0.75998600  1
  Ni  Ni8  1  0.35903800  0.50000000  0.85903800  1
  Cu  Cu9  1  0.85549400  0.26098800  0.59450600  1
  Cu  Cu10  1  0.33351800  0.73901200  0.59450600  1
