# generated using pymatgen
data_Cu10NiC2
_symmetry_space_group_name_H-M   'P 1'
_cell_length_a   6.69807500
_cell_length_b   8.20329700
_cell_length_c   8.22039538
_cell_angle_alpha   85.48823172
_cell_angle_beta   90.00000000
_cell_angle_gamma   90.00000000
_symmetry_Int_Tables_number   1
_chemical_formula_structural   Cu10NiC2
_chemical_formula_sum   'Cu20 Ni2 C4'
_cell_volume   450.28063083
_cell_formula_units_Z   2
loop_
 _symmetry_equiv_pos_site_id
 _symmetry_equiv_pos_as_xyz
  1  'x, y, z'
loop_
 _atom_site_type_symbol
 _atom_site_label
 _atom_site_symmetry_multiplicity
 _atom_site_fract_x
 _atom_site_fract_y
 _atom_site_fract_z
 _atom_site_occupancy
  C  C0  1  0.01098600  0.80804300  0.18972100  1
  C  C1  1  0.01098600  0.19195700  0.81027900  1
  C  C2  1  0.51355000  0.32925800  0.32512600  1
  C  C3  1  0.51355000  0.67074200  0.67487400  1
  Ni  Ni4  1  0.02639500  0.34322800  0.66005400  1
  Ni  Ni5  1  0.02639500  0.65677200  0.33994600  1
  Cu  Cu6  1  0.28212400  0.76159900  0.56845500  1
  Cu  Cu7  1  0.00673900  0.01620600  0.68323200  1
  Cu  Cu8  1  0.98931100  0.00000000  0.00000000  1
  Cu  Cu9  1  0.34991300  0.48158100  0.19990900  1
  Cu  Cu10  1  0.01355900  0.31745400  0.98713000  1
  Cu  Cu11  1  0.28047300  0.15484500  0.84323400  1
  Cu  Cu12  1  0.50801500  0.50000000  0.50000000  1
  Cu  Cu13  1  0.73678400  0.82032700  0.17304700  1
  Cu  Cu14  1  0.00673900  0.98379400  0.31676800  1
  Cu  Cu15  1  0.51779000  0.17382800  0.16624400  1
  Cu  Cu16  1  0.74432000  0.55793900  0.75908800  1
  Cu  Cu17  1  0.28047300  0.84515500  0.15676600  1
  Cu  Cu18  1  0.67750400  0.20359300  0.47663400  1
  Cu  Cu19  1  0.01355900  0.68254600  0.01287000  1
  Cu  Cu20  1  0.73678400  0.17967300  0.82695300  1
  Cu  Cu21  1  0.51779000  0.82617200  0.83375600  1
  Cu  Cu22  1  0.67750400  0.79640700  0.52336600  1
  Cu  Cu23  1  0.34991300  0.51841900  0.80009100  1
  Cu  Cu24  1  0.74432000  0.44206100  0.24091200  1
  Cu  Cu25  1  0.28212400  0.23840100  0.43154500  1
