# generated using pymatgen
data_Cu6NiC45
_symmetry_space_group_name_H-M   'P 1'
_cell_length_a   8.96255043
_cell_length_b   8.96255000
_cell_length_c   23.18763472
_cell_angle_alpha   90.00000000
_cell_angle_beta   90.00000000
_cell_angle_gamma   120.00000164
_symmetry_Int_Tables_number   1
_chemical_formula_structural   Cu6NiC45
_chemical_formula_sum   'Cu12 Ni2 C90'
_cell_volume   1613.05909548
_cell_formula_units_Z   2
loop_
 _symmetry_equiv_pos_site_id
 _symmetry_equiv_pos_as_xyz
  1  'x, y, z'
loop_
 _atom_site_type_symbol
 _atom_site_label
 _atom_site_symmetry_multiplicity
 _atom_site_fract_x
 _atom_site_fract_y
 _atom_site_fract_z
 _atom_site_occupancy
  Ni  Ni0  1  0.00000000  0.00000000  0.50000000  1
  Ni  Ni1  1  0.00000000  0.00000000  0.00000000  1
  Cu  Cu2  1  0.33333300  0.66666700  0.52842355  1
  Cu  Cu3  1  0.33333300  0.66666700  0.02842355  1
  Cu  Cu4  1  0.66666700  0.33333300  0.18772377  1
  Cu  Cu5  1  0.66666700  0.33333300  0.68772377  1
  Cu  Cu6  1  0.00000000  0.00000000  0.65029371  1
  Cu  Cu7  1  0.00000000  0.00000000  0.84970629  1
  Cu  Cu8  1  0.00000000  0.00000000  0.15029371  1
  Cu  Cu9  1  0.66666700  0.33333300  0.97157645  1
  Cu  Cu10  1  0.33333300  0.66666700  0.81227623  1
  Cu  Cu11  1  0.00000000  0.00000000  0.34970629  1
  Cu  Cu12  1  0.66666700  0.33333300  0.47157645  1
  Cu  Cu13  1  0.33333300  0.66666700  0.31227623  1
  C  C14  1  0.00000000  0.70900786  0.75000000  1
  C  C15  1  0.05336557  0.67717830  0.42029523  1
  C  C16  1  0.32282170  0.37618727  0.42029523  1
  C  C17  1  0.67717830  0.62381273  0.57970477  1
  C  C18  1  1.00000000  0.29099214  0.25000000  1
  C  C19  1  0.94663443  0.62381273  0.07970477  1
  C  C20  1  0.37618727  0.05336557  0.57970477  1
  C  C21  1  0.94663443  0.32282170  0.57970477  1
  C  C22  1  0.29099214  0.00000000  0.25000000  1
  C  C23  1  0.37618727  0.32282170  0.07970477  1
  C  C24  1  0.70900786  0.70900786  0.25000000  1
  C  C25  1  0.67717830  0.05336557  0.07970477  1
  C  C26  1  0.70900786  0.00000000  0.75000000  1
  C  C27  1  0.32282170  0.94663443  0.92029523  1
  C  C28  1  0.62381273  0.67717830  0.92029523  1
  C  C29  1  0.62381273  0.94663443  0.42029523  1
  C  C30  1  0.05336557  0.37618727  0.92029523  1
  C  C31  1  0.29099214  0.29099214  0.75000000  1
  C  C32  1  0.16110263  0.18678961  0.41821398  1
  C  C33  1  0.02568698  0.83889737  0.41821398  1
  C  C34  1  0.51440422  0.63963870  0.57604327  1
  C  C35  1  0.36036130  0.87476551  0.57604327  1
  C  C36  1  0.32682554  0.47274417  0.36561760  1
  C  C37  1  0.15858263  0.69206035  0.76066388  1
  C  C38  1  0.79477836  0.82789741  0.19673985  1
  C  C39  1  0.17210259  0.96688095  0.19673985  1
  C  C40  1  0.47274417  0.14591863  0.63438240  1
  C  C41  1  0.81321039  0.83889737  0.91821398  1
  C  C42  1  0.96688095  0.17210259  0.30326015  1
  C  C43  1  0.45837339  0.29851357  0.02490379  1
  C  C44  1  0.36036130  0.48559578  0.07604327  1
  C  C45  1  0.83889737  0.81321039  0.58178602  1
  C  C46  1  0.63963870  0.12523449  0.42395673  1
  C  C47  1  0.20522164  0.17210259  0.80326015  1
  C  C48  1  0.15985982  0.45837339  0.97509621  1
  C  C49  1  0.45837339  0.15985982  0.52490379  1
  C  C50  1  0.84141737  0.53347772  0.73933612  1
  C  C51  1  0.69206035  0.53347772  0.23933612  1
  C  C52  1  0.18678961  0.16110263  0.08178602  1
  C  C53  1  0.53347772  0.69206035  0.26066388  1
  C  C54  1  0.30793965  0.84141737  0.26066388  1
  C  C55  1  0.70148643  0.54162661  0.52490379  1
  C  C56  1  0.84014018  0.29851357  0.52490379  1
  C  C57  1  0.85408137  0.32682554  0.63438240  1
  C  C58  1  0.63963870  0.51440422  0.92395673  1
  C  C59  1  0.97431302  0.81321039  0.08178602  1
  C  C60  1  0.03311905  0.20522164  0.19673985  1
  C  C61  1  0.14591863  0.47274417  0.86561760  1
  C  C62  1  0.84014018  0.54162661  0.02490379  1
  C  C63  1  0.52725583  0.67317446  0.86561760  1
  C  C64  1  0.54162661  0.84014018  0.47509621  1
  C  C65  1  0.52725583  0.85408137  0.36561760  1
  C  C66  1  0.79477836  0.96688095  0.69673985  1
  C  C67  1  0.29851357  0.45837339  0.47509621  1
  C  C68  1  0.18678961  0.02568698  0.58178602  1
  C  C69  1  0.82789741  0.03311905  0.80326015  1
  C  C70  1  0.84141737  0.30793965  0.23933612  1
  C  C71  1  0.46652228  0.15858263  0.23933612  1
  C  C72  1  0.70148643  0.15985982  0.02490379  1
  C  C73  1  0.20522164  0.03311905  0.30326015  1
  C  C74  1  0.97431302  0.16110263  0.58178602  1
  C  C75  1  0.82789741  0.79477836  0.30326015  1
  C  C76  1  0.46652228  0.30793965  0.73933612  1
  C  C77  1  0.17210259  0.20522164  0.69673985  1
  C  C78  1  0.85408137  0.52725583  0.13438240  1
  C  C79  1  0.81321039  0.97431302  0.41821398  1
  C  C80  1  0.53347772  0.84141737  0.76066388  1
  C  C81  1  0.03311905  0.82789741  0.69673985  1
  C  C82  1  0.30793965  0.46652228  0.76066388  1
  C  C83  1  0.67317446  0.52725583  0.63438240  1
  C  C84  1  0.15985982  0.70148643  0.47509621  1
  C  C85  1  0.32682554  0.85408137  0.86561760  1
  C  C86  1  0.48559578  0.12523449  0.92395673  1
  C  C87  1  0.12523449  0.63963870  0.07604327  1
  C  C88  1  0.12523449  0.48559578  0.57604327  1
  C  C89  1  0.87476551  0.51440422  0.42395673  1
  C  C90  1  0.96688095  0.79477836  0.80326015  1
  C  C91  1  0.48559578  0.36036130  0.42395673  1
  C  C92  1  0.51440422  0.87476551  0.07604327  1
  C  C93  1  0.67317446  0.14591863  0.13438240  1
  C  C94  1  0.54162661  0.70148643  0.97509621  1
  C  C95  1  0.14591863  0.67317446  0.36561760  1
  C  C96  1  0.15858263  0.46652228  0.26066388  1
  C  C97  1  0.47274417  0.32682554  0.13438240  1
  C  C98  1  0.16110263  0.97431302  0.91821398  1
  C  C99  1  0.29851357  0.84014018  0.97509621  1
  C  C100  1  0.83889737  0.02568698  0.08178602  1
  C  C101  1  0.69206035  0.15858263  0.73933612  1
  C  C102  1  0.87476551  0.36036130  0.92395673  1
  C  C103  1  0.02568698  0.18678961  0.91821398  1
