# generated using pymatgen
data_CuNiC8
_symmetry_space_group_name_H-M   'P 1'
_cell_length_a   11.76171688
_cell_length_b   11.76171709
_cell_length_c   11.94194980
_cell_angle_alpha   108.73084760
_cell_angle_beta   108.73084797
_cell_angle_gamma   110.35969047
_symmetry_Int_Tables_number   1
_chemical_formula_structural   CuNiC8
_chemical_formula_sum   'Cu8 Ni8 C64'
_cell_volume   1280.68039924
_cell_formula_units_Z   8
loop_
 _symmetry_equiv_pos_site_id
 _symmetry_equiv_pos_as_xyz
  1  'x, y, z'
loop_
 _atom_site_type_symbol
 _atom_site_label
 _atom_site_symmetry_multiplicity
 _atom_site_fract_x
 _atom_site_fract_y
 _atom_site_fract_z
 _atom_site_occupancy
  Ni  Ni0  1  0.37344694  0.62472189  0.96449416  1
  Ni  Ni1  1  0.37472189  0.62344694  0.46449416  1
  Ni  Ni2  1  0.87668748  0.38090226  0.75648409  1
  Ni  Ni3  1  0.66022773  0.40895278  0.03550584  1
  Ni  Ni4  1  0.62441818  0.12020339  0.24351591  1
  Ni  Ni5  1  0.15895278  0.91022773  0.53550584  1
  Ni  Ni6  1  0.87020339  0.87441818  0.74351591  1
  Ni  Ni7  1  0.13090226  0.12668748  0.25648409  1
  Cu  Cu8  1  0.91782997  0.71294959  0.02700888  1
  Cu  Cu9  1  0.68594071  0.89082109  0.97299112  1
  Cu  Cu10  1  0.64082109  0.93594071  0.47299112  1
  Cu  Cu11  1  0.95515684  0.41581978  0.31318663  1
  Cu  Cu12  1  0.16581978  0.20515684  0.81318663  1
  Cu  Cu13  1  0.46294959  0.16782997  0.52700888  1
  Cu  Cu14  1  0.39197021  0.35263315  0.18681337  1
  Cu  Cu15  1  0.10263315  0.64197021  0.68681337  1
  C  C16  1  0.41635811  0.89717875  0.81649826  1
  C  C17  1  0.17032968  0.83138210  0.99407332  1
  C  C18  1  0.31131686  0.07278445  0.94721425  1
  C  C19  1  0.11410261  0.37557020  0.55278575  1
  C  C20  1  0.33107812  0.87273507  0.27257149  1
  C  C21  1  0.62273507  0.58107812  0.77257149  1
  C  C22  1  0.34985984  0.33068049  0.68350174  1
  C  C23  1  0.83730877  0.17625635  0.00592668  1
  C  C24  1  0.58138210  0.42032968  0.49407332  1
  C  C25  1  0.64717875  0.66635811  0.31649826  1
  C  C26  1  0.82278445  0.56131686  0.44721425  1
  C  C27  1  0.60016358  0.05850663  0.72742851  1
  C  C28  1  0.92625635  0.08730877  0.50592668  1
  C  C29  1  0.80850663  0.85016358  0.22742851  1
  C  C30  1  0.08068049  0.59985984  0.18350174  1
  C  C31  1  0.12557020  0.36410261  0.05278575  1
  C  C32  1  0.27384420  0.41478192  0.64184038  1
  C  C33  1  0.02808413  0.20815542  0.48862054  1
  C  C34  1  0.97438758  0.58120341  0.05829741  1
  C  C35  1  0.48271284  0.92934736  0.72248821  1
  C  C36  1  0.95815542  0.27808413  0.98862054  1
  C  C37  1  0.17626269  0.05071183  0.85189859  1
  C  C38  1  0.15160181  0.35554776  0.93609003  1
  C  C39  1  0.70533181  0.16277206  0.88910777  1
  C  C40  1  0.91277206  0.95533181  0.38910777  1
  C  C41  1  0.66898366  0.00054509  0.65890095  1
  C  C42  1  0.67934736  0.73271284  0.22248821  1
  C  C43  1  0.78930566  0.08184183  0.46860470  1
  C  C44  1  0.45698518  0.36662349  0.36359347  1
  C  C45  1  0.51022463  0.45685915  0.77751179  1
  C  C46  1  0.75054509  0.91898366  0.15890095  1
  C  C47  1  0.28946359  0.96953488  0.01137946  1
  C  C48  1  0.04116043  0.56520479  0.28036200  1
  C  C49  1  0.34164414  0.01008271  0.34109905  1
  C  C50  1  0.45604475  0.85707977  0.32156220  1
  C  C51  1  0.00303002  0.09339170  0.63640653  1
  C  C52  1  0.83184183  0.03930566  0.96860470  1
  C  C53  1  0.84339170  0.25303002  0.13640653  1
  C  C54  1  0.20685915  0.76022463  0.27751179  1
  C  C55  1  0.71953488  0.53946359  0.51137946  1
  C  C56  1  0.51079842  0.53484279  0.21963800  1
  C  C57  1  0.41945774  0.21551179  0.06390997  1
  C  C58  1  0.16478192  0.52384420  0.14184038  1
  C  C59  1  0.76008271  0.59164414  0.84109905  1
  C  C60  1  0.28484279  0.76079842  0.71963800  1
  C  C61  1  0.52290600  0.91609016  0.94170259  1
  C  C62  1  0.80071183  0.42626269  0.35189859  1
  C  C63  1  0.27366430  0.81622404  0.11089223  1
  C  C64  1  0.61323712  0.32070096  0.53139530  1
  C  C65  1  0.66609016  0.77290600  0.44170259  1
  C  C66  1  0.07436410  0.44881324  0.64810141  1
  C  C67  1  0.33120341  0.22438758  0.55829741  1
  C  C68  1  0.77294153  0.63200382  0.35815962  1
  C  C69  1  0.53551757  0.13448255  0.67843780  1
  C  C70  1  0.38200382  0.02294153  0.85815962  1
  C  C71  1  0.88448255  0.78551757  0.17843780  1
  C  C72  1  0.96551179  0.66945774  0.56390997  1
  C  C73  1  0.19881324  0.32436410  0.14810141  1
  C  C74  1  0.10554776  0.40160181  0.43609003  1
  C  C75  1  0.11662349  0.70698518  0.86359347  1
  C  C76  1  0.31520479  0.29116043  0.78036200  1
  C  C77  1  0.60707977  0.70604475  0.82156220  1
  C  C78  1  0.07070096  0.86323712  0.03139530  1
  C  C79  1  0.56622404  0.52366430  0.61089223  1
