# generated using pymatgen
data_Cu9Ni3C
_symmetry_space_group_name_H-M   'P 1'
_cell_length_a   6.15234500
_cell_length_b   8.81729900
_cell_length_c   16.76278154
_cell_angle_alpha   65.20172307
_cell_angle_beta   90.00000000
_cell_angle_gamma   90.00000000
_symmetry_Int_Tables_number   1
_chemical_formula_structural   Cu9Ni3C
_chemical_formula_sum   'Cu36 Ni12 C4'
_cell_volume   825.48231393
_cell_formula_units_Z   4
loop_
 _symmetry_equiv_pos_site_id
 _symmetry_equiv_pos_as_xyz
  1  'x, y, z'
loop_
 _atom_site_type_symbol
 _atom_site_label
 _atom_site_symmetry_multiplicity
 _atom_site_fract_x
 _atom_site_fract_y
 _atom_site_fract_z
 _atom_site_occupancy
  C  C0  1  0.28556700  0.14718600  0.39484000  1
  C  C1  1  0.71443300  0.85281400  0.60516000  1
  C  C2  1  0.21443300  0.14718600  0.89484000  1
  C  C3  1  0.78556700  0.85281400  0.10516000  1
  Ni  Ni4  1  0.90607800  0.41802100  0.69766700  1
  Ni  Ni5  1  0.85560700  0.35472900  0.97996700  1
  Ni  Ni6  1  0.59392200  0.41802100  0.19766700  1
  Ni  Ni7  1  0.14439300  0.64527100  0.02003300  1
  Ni  Ni8  1  0.81075900  0.92632600  0.35832000  1
  Ni  Ni9  1  0.18924100  0.07367400  0.64168000  1
  Ni  Ni10  1  0.64439300  0.35472900  0.47996700  1
  Ni  Ni11  1  0.40607800  0.58197900  0.80233300  1
  Ni  Ni12  1  0.09392200  0.58197900  0.30233300  1
  Ni  Ni13  1  0.68924100  0.92632600  0.85832000  1
  Ni  Ni14  1  0.35560700  0.64527100  0.52003300  1
  Ni  Ni15  1  0.31075900  0.07367400  0.14168000  1
  Cu  Cu16  1  0.62780800  0.12601900  0.51470700  1
  Cu  Cu17  1  0.58243800  0.34145300  0.11130500  1
  Cu  Cu18  1  0.89540100  0.09434600  0.82983400  1
  Cu  Cu19  1  0.91756200  0.34145300  0.61130500  1
  Cu  Cu20  1  0.36960200  0.11617600  0.02779400  1
  Cu  Cu21  1  0.60459900  0.09434600  0.32983400  1
  Cu  Cu22  1  0.43040000  0.35304800  0.55912200  1
  Cu  Cu23  1  0.82337200  0.65592300  0.25591200  1
  Cu  Cu24  1  0.44839100  0.05902100  0.81331900  1
  Cu  Cu25  1  0.97217100  0.60995000  0.11641400  1
  Cu  Cu26  1  0.48886100  0.36276000  0.86517000  1
  Cu  Cu27  1  0.87219200  0.12601900  0.01470700  1
  Cu  Cu28  1  0.51113900  0.63724000  0.13483000  1
  Cu  Cu29  1  0.94839100  0.94097900  0.68668100  1
  Cu  Cu30  1  0.98886100  0.63724000  0.63483000  1
  Cu  Cu31  1  0.93040000  0.64695200  0.94087800  1
  Cu  Cu32  1  0.05160900  0.05902100  0.31331900  1
  Cu  Cu33  1  0.56960000  0.64695200  0.44087800  1
  Cu  Cu34  1  0.63039800  0.88382400  0.97220600  1
  Cu  Cu35  1  0.01113900  0.36276000  0.36517000  1
  Cu  Cu36  1  0.41756200  0.65854700  0.88869500  1
  Cu  Cu37  1  0.12780800  0.87398100  0.98529300  1
  Cu  Cu38  1  0.47217100  0.39005000  0.38358600  1
  Cu  Cu39  1  0.39540100  0.90565400  0.67016600  1
  Cu  Cu40  1  0.10459900  0.90565400  0.17016600  1
  Cu  Cu41  1  0.02782900  0.39005000  0.88358600  1
  Cu  Cu42  1  0.52782900  0.60995000  0.61641400  1
  Cu  Cu43  1  0.08243800  0.65854700  0.38869500  1
  Cu  Cu44  1  0.06960000  0.35304800  0.05912200  1
  Cu  Cu45  1  0.13039800  0.11617600  0.52779400  1
  Cu  Cu46  1  0.67662800  0.65592300  0.75591200  1
  Cu  Cu47  1  0.37219200  0.87398100  0.48529300  1
  Cu  Cu48  1  0.55160900  0.94097900  0.18668100  1
  Cu  Cu49  1  0.86960200  0.88382400  0.47220600  1
  Cu  Cu50  1  0.32337200  0.34407700  0.24408800  1
  Cu  Cu51  1  0.17662800  0.34407700  0.74408800  1
