# generated using pymatgen
data_Cu2NiC
_symmetry_space_group_name_H-M   'P 1'
_cell_length_a   11.19055200
_cell_length_b   6.72319700
_cell_length_c   8.74454579
_cell_angle_alpha   83.06311849
_cell_angle_beta   90.00000000
_cell_angle_gamma   90.00000000
_symmetry_Int_Tables_number   1
_chemical_formula_structural   Cu2NiC
_chemical_formula_sum   'Cu16 Ni8 C8'
_cell_volume   653.09113549
_cell_formula_units_Z   8
loop_
 _symmetry_equiv_pos_site_id
 _symmetry_equiv_pos_as_xyz
  1  'x, y, z'
loop_
 _atom_site_type_symbol
 _atom_site_label
 _atom_site_symmetry_multiplicity
 _atom_site_fract_x
 _atom_site_fract_y
 _atom_site_fract_z
 _atom_site_occupancy
  C  C0  1  0.79586500  0.28544100  0.51756500  1
  C  C1  1  0.70413500  0.28544100  0.01756500  1
  C  C2  1  0.20413500  0.71455900  0.48243500  1
  C  C3  1  0.91254100  0.77059600  0.83134400  1
  C  C4  1  0.58745900  0.77059600  0.33134400  1
  C  C5  1  0.29586500  0.71455900  0.98243500  1
  C  C6  1  0.08745900  0.22940400  0.16865600  1
  C  C7  1  0.41254100  0.22940400  0.66865600  1
  Ni  Ni8  1  0.89024600  0.83315200  0.33302300  1
  Ni  Ni9  1  0.94267100  0.69051800  0.22552100  1
  Ni  Ni10  1  0.60975400  0.83315200  0.83302300  1
  Ni  Ni11  1  0.10975400  0.16684800  0.66697700  1
  Ni  Ni12  1  0.44267100  0.30948200  0.27447900  1
  Ni  Ni13  1  0.39024600  0.16684800  0.16697700  1
  Ni  Ni14  1  0.05732900  0.30948200  0.77447900  1
  Ni  Ni15  1  0.55732900  0.69051800  0.72552100  1
  Cu  Cu16  1  0.95183900  0.27321900  0.82646400  1
  Cu  Cu17  1  0.54816100  0.27321900  0.32646400  1
  Cu  Cu18  1  0.45183900  0.72678100  0.67353600  1
  Cu  Cu19  1  0.04816100  0.72678100  0.17353600  1
  Cu  Cu20  1  0.89115400  0.77588900  0.47689000  1
  Cu  Cu21  1  0.62434600  0.54765300  0.69438100  1
  Cu  Cu22  1  0.84745400  0.99773500  0.26716100  1
  Cu  Cu23  1  0.15254600  0.00226500  0.73283900  1
  Cu  Cu24  1  0.12434600  0.45234700  0.80561900  1
  Cu  Cu25  1  0.39115400  0.22411100  0.02311000  1
  Cu  Cu26  1  0.60884600  0.77588900  0.97689000  1
  Cu  Cu27  1  0.10884600  0.22411100  0.52311000  1
  Cu  Cu28  1  0.65254600  0.99773500  0.76716100  1
  Cu  Cu29  1  0.37565400  0.45234700  0.30561900  1
  Cu  Cu30  1  0.34745400  0.00226500  0.23283900  1
  Cu  Cu31  1  0.87565400  0.54765300  0.19438100  1
