# generated using pymatgen
data_Cu7NiC3
_symmetry_space_group_name_H-M   'P 1'
_cell_length_a   12.77114800
_cell_length_b   8.05061300
_cell_length_c   16.11527704
_cell_angle_alpha   80.60778090
_cell_angle_beta   90.00000000
_cell_angle_gamma   90.00000000
_symmetry_Int_Tables_number   1
_chemical_formula_structural   Cu7NiC3
_chemical_formula_sum   'Cu28 Ni4 C12'
_cell_volume   1634.68952779
_cell_formula_units_Z   4
loop_
 _symmetry_equiv_pos_site_id
 _symmetry_equiv_pos_as_xyz
  1  'x, y, z'
loop_
 _atom_site_type_symbol
 _atom_site_label
 _atom_site_symmetry_multiplicity
 _atom_site_fract_x
 _atom_site_fract_y
 _atom_site_fract_z
 _atom_site_occupancy
  C  C0  1  0.89021900  0.15531900  0.70825100  1
  C  C1  1  0.39021900  0.34468100  0.29174900  1
  C  C2  1  0.10978100  0.84468100  0.29174900  1
  C  C3  1  0.60978100  0.65531900  0.70825100  1
  C  C4  1  0.10957100  0.12886500  0.71004400  1
  C  C5  1  0.60957100  0.37113500  0.28995600  1
  C  C6  1  0.89042900  0.87113500  0.28995600  1
  C  C7  1  0.39042900  0.62886500  0.71004400  1
  C  C8  1  0.99821600  0.08167500  0.86144900  1
  C  C9  1  0.49821600  0.41832500  0.13855100  1
  C  C10  1  0.00178400  0.91832500  0.13855100  1
  C  C11  1  0.50178400  0.58167500  0.86144900  1
  Ni  Ni12  1  0.98791200  0.89769600  0.75605200  1
  Ni  Ni13  1  0.48791200  0.60230400  0.24394800  1
  Ni  Ni14  1  0.01208800  0.10230400  0.24394800  1
  Ni  Ni15  1  0.51208800  0.39769600  0.75605200  1
  Cu  Cu16  1  0.22127200  0.07475200  0.86338400  1
  Cu  Cu17  1  0.72127200  0.42524800  0.13661600  1
  Cu  Cu18  1  0.77872800  0.92524800  0.13661600  1
  Cu  Cu19  1  0.27872800  0.57475200  0.86338400  1
  Cu  Cu20  1  0.01229300  0.41095100  0.76609800  1
  Cu  Cu21  1  0.51229300  0.08904900  0.23390200  1
  Cu  Cu22  1  0.98770700  0.58904900  0.23390200  1
  Cu  Cu23  1  0.48770700  0.91095100  0.76609800  1
  Cu  Cu24  1  0.74574400  0.43691600  0.62951400  1
  Cu  Cu25  1  0.24574400  0.06308400  0.37048600  1
  Cu  Cu26  1  0.25425600  0.56308400  0.37048600  1
  Cu  Cu27  1  0.75425600  0.93691600  0.62951400  1
  Cu  Cu28  1  0.28152700  0.36857300  0.63609200  1
  Cu  Cu29  1  0.78152700  0.13142700  0.36390800  1
  Cu  Cu30  1  0.71847300  0.63142700  0.36390800  1
  Cu  Cu31  1  0.21847300  0.86857300  0.63609200  1
  Cu  Cu32  1  0.77632600  0.12060000  0.86045500  1
  Cu  Cu33  1  0.27632600  0.37940000  0.13954500  1
  Cu  Cu34  1  0.22367400  0.87940000  0.13954500  1
  Cu  Cu35  1  0.72367400  0.62060000  0.86045500  1
  Cu  Cu36  1  0.99265200  0.77129000  0.98034700  1
  Cu  Cu37  1  0.49265200  0.72871000  0.01965300  1
  Cu  Cu38  1  0.00734800  0.22871000  0.01965300  1
  Cu  Cu39  1  0.50734800  0.27129000  0.98034700  1
  Cu  Cu40  1  0.00422200  0.22739900  0.55493600  1
  Cu  Cu41  1  0.50422200  0.27260100  0.44506400  1
  Cu  Cu42  1  0.99577800  0.77260100  0.44506400  1
  Cu  Cu43  1  0.49577800  0.72739900  0.55493600  1
