# generated using pymatgen
data_Cu2Ni2C19
_symmetry_space_group_name_H-M   'P 1'
_cell_length_a   11.25080595
_cell_length_b   11.25080595
_cell_length_c   13.08626277
_cell_angle_alpha   57.05538719
_cell_angle_beta   57.05538719
_cell_angle_gamma   28.91180841
_symmetry_Int_Tables_number   1
_chemical_formula_structural   Cu2Ni2C19
_chemical_formula_sum   'Cu4 Ni4 C38'
_cell_volume   662.61780037
_cell_formula_units_Z   2
loop_
 _symmetry_equiv_pos_site_id
 _symmetry_equiv_pos_as_xyz
  1  'x, y, z'
loop_
 _atom_site_type_symbol
 _atom_site_label
 _atom_site_symmetry_multiplicity
 _atom_site_fract_x
 _atom_site_fract_y
 _atom_site_fract_z
 _atom_site_occupancy
  Ni  Ni0  1  0.10939700  0.44495600  0.84328700  1
  Ni  Ni1  1  0.44495600  0.10939700  0.34328700  1
  Ni  Ni2  1  0.55504400  0.89060300  0.65671300  1
  Ni  Ni3  1  0.89060300  0.55504400  0.15671300  1
  Cu  Cu4  1  0.90021900  0.29084200  0.84388800  1
  Cu  Cu5  1  0.09978100  0.70915800  0.15611200  1
  Cu  Cu6  1  0.70915800  0.09978100  0.65611200  1
  Cu  Cu7  1  0.29084200  0.90021900  0.34388800  1
  C  C8  1  0.23781900  0.51008800  0.46235700  1
  C  C9  1  0.76218100  0.48991200  0.53764300  1
  C  C10  1  0.48991200  0.76218100  0.03764300  1
  C  C11  1  0.12907800  0.87092200  0.75000000  1
  C  C12  1  0.51008800  0.23781900  0.96235700  1
  C  C13  1  0.87092200  0.12907800  0.25000000  1
  C  C14  1  0.80566500  0.11104200  0.87648900  1
  C  C15  1  0.68256400  0.56909400  0.40006000  1
  C  C16  1  0.88895800  0.19433500  0.62351100  1
  C  C17  1  0.70415400  0.90724700  0.72186900  1
  C  C18  1  0.90724700  0.70415400  0.22186900  1
  C  C19  1  0.39598400  0.70008700  0.62424800  1
  C  C20  1  0.41737600  0.18935900  0.49225900  1
  C  C21  1  0.18935900  0.41737600  0.99225900  1
  C  C22  1  0.00015400  0.82757800  0.74018200  1
  C  C23  1  0.31743600  0.43090600  0.59994000  1
  C  C24  1  0.67792000  0.93393300  0.02965500  1
  C  C25  1  0.29991300  0.60401600  0.87575200  1
  C  C26  1  0.32208000  0.06606700  0.97034500  1
  C  C27  1  0.58262400  0.81064100  0.50774100  1
  C  C28  1  0.29584600  0.09275300  0.27813100  1
  C  C29  1  0.43090600  0.31743600  0.09994000  1
  C  C30  1  0.06606700  0.32208000  0.47034500  1
  C  C31  1  0.50892900  0.73297800  0.20467400  1
  C  C32  1  0.70008700  0.39598400  0.12424800  1
  C  C33  1  0.09275300  0.29584600  0.77813100  1
  C  C34  1  0.11104200  0.80566500  0.37648900  1
  C  C35  1  0.56909400  0.68256400  0.90006000  1
  C  C36  1  0.60401600  0.29991300  0.37575200  1
  C  C37  1  0.26702200  0.49107100  0.29532600  1
  C  C38  1  0.81064100  0.58262400  0.00774100  1
  C  C39  1  0.73297800  0.50892900  0.70467400  1
  C  C40  1  0.17242200  0.99984600  0.75981800  1
  C  C41  1  0.19433500  0.88895800  0.12351100  1
  C  C42  1  0.49107100  0.26702200  0.79532600  1
  C  C43  1  0.93393300  0.67792000  0.52965500  1
  C  C44  1  0.99984600  0.17242200  0.25981800  1
  C  C45  1  0.82757800  0.00015400  0.24018200  1
