# generated using pymatgen
data_CuNiC10
_symmetry_space_group_name_H-M   'P 1'
_cell_length_a   10.70549780
_cell_length_b   10.70549780
_cell_length_c   6.18185500
_cell_angle_alpha   90.00000000
_cell_angle_beta   90.00000000
_cell_angle_gamma   119.99999878
_symmetry_Int_Tables_number   1
_chemical_formula_structural   CuNiC10
_chemical_formula_sum   'Cu2 Ni2 C20'
_cell_volume   613.56868260
_cell_formula_units_Z   2
loop_
 _symmetry_equiv_pos_site_id
 _symmetry_equiv_pos_as_xyz
  1  'x, y, z'
loop_
 _atom_site_type_symbol
 _atom_site_label
 _atom_site_symmetry_multiplicity
 _atom_site_fract_x
 _atom_site_fract_y
 _atom_site_fract_z
 _atom_site_occupancy
  C  C0  1  0.13037900  0.35544900  0.74848400  1
  C  C1  1  0.22507000  0.86962100  0.74848400  1
  C  C2  1  0.64455100  0.77493000  0.74848400  1
  C  C3  1  0.35544900  0.22507000  0.24848400  1
  C  C4  1  0.77493000  0.13037900  0.24848400  1
  C  C5  1  0.86962100  0.64455100  0.24848400  1
  Ni  Ni6  1  0.00000000  0.00000000  0.21702500  1
  Ni  Ni7  1  0.00000000  0.00000000  0.71702500  1
  Cu  Cu8  1  0.66666700  0.33333300  0.83213100  1
  Cu  Cu9  1  0.33333300  0.66666700  0.33213100  1
  C  C10  1  0.16155000  0.90585000  0.23014400  1
  C  C11  1  0.25570000  0.16155000  0.73014400  1
  C  C12  1  0.51922800  0.09887000  0.98943800  1
  C  C13  1  0.33333300  0.66666700  0.95044500  1
  C  C14  1  0.90585000  0.74430000  0.73014400  1
  C  C15  1  0.66666700  0.33333300  0.45044500  1
  C  C16  1  0.57964200  0.48077200  0.98943800  1
  C  C17  1  0.09887000  0.57964200  0.48943800  1
  C  C18  1  0.42035800  0.51922800  0.48943800  1
  C  C19  1  0.74430000  0.83845000  0.23014400  1
  C  C20  1  0.90113000  0.42035800  0.98943800  1
  C  C21  1  0.83845000  0.09415000  0.73014400  1
  C  C22  1  0.09415000  0.25570000  0.23014400  1
  C  C23  1  0.48077200  0.90113000  0.48943800  1
