# generated using pymatgen
data_Cu(NiC4)2
_symmetry_space_group_name_H-M   'P 1'
_cell_length_a   5.44299000
_cell_length_b   7.29229600
_cell_length_c   16.03261900
_cell_angle_alpha   90.00000000
_cell_angle_beta   90.00000000
_cell_angle_gamma   90.00000000
_symmetry_Int_Tables_number   1
_chemical_formula_structural   Cu(NiC4)2
_chemical_formula_sum   'Cu4 Ni8 C32'
_cell_volume   636.36501718
_cell_formula_units_Z   4
loop_
 _symmetry_equiv_pos_site_id
 _symmetry_equiv_pos_as_xyz
  1  'x, y, z'
loop_
 _atom_site_type_symbol
 _atom_site_label
 _atom_site_symmetry_multiplicity
 _atom_site_fract_x
 _atom_site_fract_y
 _atom_site_fract_z
 _atom_site_occupancy
  C  C0  1  0.25000000  0.94607600  0.67329400  1
  C  C1  1  0.25000000  0.05392400  0.17329400  1
  C  C2  1  0.75000000  0.05392400  0.32670600  1
  C  C3  1  0.75000000  0.94607600  0.82670600  1
  Ni  Ni4  1  0.75000000  0.83168700  0.51875900  1
  Ni  Ni5  1  0.75000000  0.22555100  0.65905200  1
  Ni  Ni6  1  0.25000000  0.22555100  0.84094800  1
  Ni  Ni7  1  0.75000000  0.77444900  0.15905200  1
  Ni  Ni8  1  0.75000000  0.16831300  0.01875900  1
  Ni  Ni9  1  0.25000000  0.77444900  0.34094800  1
  Ni  Ni10  1  0.25000000  0.83168700  0.98124100  1
  Ni  Ni11  1  0.25000000  0.16831300  0.48124100  1
  Cu  Cu12  1  0.25000000  0.59367700  0.60994900  1
  Cu  Cu13  1  0.75000000  0.40632300  0.39005100  1
  Cu  Cu14  1  0.25000000  0.40632300  0.10994900  1
  Cu  Cu15  1  0.75000000  0.59367700  0.89005100  1
  C  C16  1  0.03012100  0.31142300  0.14710800  1
  C  C17  1  0.03012100  0.68857700  0.64710800  1
  C  C18  1  0.75000000  0.60472800  0.36713500  1
  C  C19  1  0.50000000  0.92100500  0.25000000  1
  C  C20  1  0.46987900  0.68857700  0.64710800  1
  C  C21  1  0.53012100  0.68857700  0.85289200  1
  C  C22  1  0.99594500  0.04517700  0.58173100  1
  C  C23  1  0.00405500  0.95482300  0.41826900  1
  C  C24  1  0.50405500  0.04517700  0.58173100  1
  C  C25  1  0.50000000  0.07899500  0.75000000  1
  C  C26  1  0.49594500  0.95482300  0.41826900  1
  C  C27  1  0.96987900  0.68857700  0.85289200  1
  C  C28  1  0.00000000  0.07899500  0.75000000  1
  C  C29  1  0.25000000  0.61585900  0.51760700  1
  C  C30  1  0.50405500  0.95482300  0.08173100  1
  C  C31  1  0.53012100  0.31142300  0.35289200  1
  C  C32  1  0.75000000  0.38414100  0.48239300  1
  C  C33  1  0.96987900  0.31142300  0.35289200  1
  C  C34  1  0.25000000  0.60472800  0.13286500  1
  C  C35  1  0.75000000  0.61585900  0.98239300  1
  C  C36  1  0.75000000  0.39527200  0.86713500  1
  C  C37  1  0.00000000  0.92100500  0.25000000  1
  C  C38  1  0.46987900  0.31142300  0.14710800  1
  C  C39  1  0.25000000  0.38414100  0.01760700  1
  C  C40  1  0.99594500  0.95482300  0.08173100  1
  C  C41  1  0.49594500  0.04517700  0.91826900  1
  C  C42  1  0.00405500  0.04517700  0.91826900  1
  C  C43  1  0.25000000  0.39527200  0.63286500  1
