# generated using pymatgen
data_CuNiC3
_symmetry_space_group_name_H-M   'P 1'
_cell_length_a   11.82669300
_cell_length_b   6.02456400
_cell_length_c   9.22122884
_cell_angle_alpha   61.03323127
_cell_angle_beta   90.00000000
_cell_angle_gamma   90.00000000
_symmetry_Int_Tables_number   1
_chemical_formula_structural   CuNiC3
_chemical_formula_sum   'Cu8 Ni8 C24'
_cell_volume   574.82617135
_cell_formula_units_Z   8
loop_
 _symmetry_equiv_pos_site_id
 _symmetry_equiv_pos_as_xyz
  1  'x, y, z'
loop_
 _atom_site_type_symbol
 _atom_site_label
 _atom_site_symmetry_multiplicity
 _atom_site_fract_x
 _atom_site_fract_y
 _atom_site_fract_z
 _atom_site_occupancy
  Ni  Ni0  1  0.67340200  0.42813100  0.72343500  1
  Ni  Ni1  1  0.64510900  0.60750900  0.96955200  1
  Ni  Ni2  1  0.82659800  0.42813100  0.22343500  1
  Ni  Ni3  1  0.14510900  0.39249100  0.53044800  1
  Ni  Ni4  1  0.17340200  0.57186900  0.77656500  1
  Ni  Ni5  1  0.35489100  0.39249100  0.03044800  1
  Ni  Ni6  1  0.85489100  0.60750900  0.46955200  1
  Ni  Ni7  1  0.32659800  0.57186900  0.27656500  1
  Cu  Cu8  1  0.62331300  0.09148400  0.50816500  1
  Cu  Cu9  1  0.07584100  0.06594100  0.31380000  1
  Cu  Cu10  1  0.57584100  0.93405900  0.18620000  1
  Cu  Cu11  1  0.12331300  0.90851600  0.99183500  1
  Cu  Cu12  1  0.92415900  0.93405900  0.68620000  1
  Cu  Cu13  1  0.42415900  0.06594100  0.81380000  1
  Cu  Cu14  1  0.87668700  0.09148400  0.00816500  1
  Cu  Cu15  1  0.37668700  0.90851600  0.49183500  1
  C  C16  1  0.95807300  0.23152900  0.48375200  1
  C  C17  1  0.14709700  0.85764400  0.22418700  1
  C  C18  1  0.46280800  0.22682700  0.44498700  1
  C  C19  1  0.03719200  0.22682700  0.94498700  1
  C  C20  1  0.08768500  0.97676700  0.76312200  1
  C  C21  1  0.85290300  0.14235600  0.77581300  1
  C  C22  1  0.31464400  0.58515000  0.56132900  1
  C  C23  1  0.41231500  0.97676700  0.26312200  1
  C  C24  1  0.74102000  0.88711700  0.08839600  1
  C  C25  1  0.58768500  0.02323300  0.73687800  1
  C  C26  1  0.75898000  0.88711700  0.58839600  1
  C  C27  1  0.45807300  0.76847100  0.01624800  1
  C  C28  1  0.04192700  0.76847100  0.51624800  1
  C  C29  1  0.25898000  0.11288300  0.91160400  1
  C  C30  1  0.18535600  0.58515000  0.06132900  1
  C  C31  1  0.96280800  0.77317300  0.05501300  1
  C  C32  1  0.54192700  0.23152900  0.98375200  1
  C  C33  1  0.68535600  0.41485000  0.43867100  1
  C  C34  1  0.64709700  0.14235600  0.27581300  1
  C  C35  1  0.91231500  0.02323300  0.23687800  1
  C  C36  1  0.35290300  0.85764400  0.72418700  1
  C  C37  1  0.81464400  0.41485000  0.93867100  1
  C  C38  1  0.53719200  0.77317300  0.55501300  1
  C  C39  1  0.24102000  0.11288300  0.41160400  1
