# generated using pymatgen
data_CuNi3C14
_symmetry_space_group_name_H-M   'P 1'
_cell_length_a   8.51180900
_cell_length_b   9.10060000
_cell_length_c   15.52359600
_cell_angle_alpha   90.00000000
_cell_angle_beta   90.00000000
_cell_angle_gamma   90.00000000
_symmetry_Int_Tables_number   1
_chemical_formula_structural   CuNi3C14
_chemical_formula_sum   'Cu4 Ni12 C56'
_cell_volume   1202.49762605
_cell_formula_units_Z   4
loop_
 _symmetry_equiv_pos_site_id
 _symmetry_equiv_pos_as_xyz
  1  'x, y, z'
loop_
 _atom_site_type_symbol
 _atom_site_label
 _atom_site_symmetry_multiplicity
 _atom_site_fract_x
 _atom_site_fract_y
 _atom_site_fract_z
 _atom_site_occupancy
  Ni  Ni0  1  0.60199700  0.27895900  0.43671700  1
  Ni  Ni1  1  0.39800300  0.77895900  0.06328300  1
  Ni  Ni2  1  0.98009400  0.50000000  0.50000000  1
  Ni  Ni3  1  0.60199700  0.72104100  0.56328300  1
  Ni  Ni4  1  0.81498700  0.77288900  0.30075900  1
  Ni  Ni5  1  0.18501300  0.27288900  0.19924100  1
  Ni  Ni6  1  0.18501300  0.72711100  0.80075900  1
  Ni  Ni7  1  0.81498700  0.22711100  0.69924100  1
  Ni  Ni8  1  0.00371100  0.50000000  0.00000000  1
  Ni  Ni9  1  0.99628900  0.00000000  0.50000000  1
  Ni  Ni10  1  0.39800300  0.22104100  0.93671700  1
  Ni  Ni11  1  0.01990600  0.00000000  0.00000000  1
  Cu  Cu12  1  0.68525400  0.28042800  0.17101300  1
  Cu  Cu13  1  0.31474600  0.78042800  0.32898700  1
  Cu  Cu14  1  0.68525400  0.71957200  0.82898700  1
  Cu  Cu15  1  0.31474600  0.21957200  0.67101300  1
  C  C16  1  0.46834100  0.37467100  0.39136300  1
  C  C17  1  0.71945100  0.83961200  0.83747600  1
  C  C18  1  0.28054900  0.33961200  0.66252400  1
  C  C19  1  0.64958800  0.59989100  0.81966000  1
  C  C20  1  0.26991000  0.57628400  0.77589800  1
  C  C21  1  0.71945100  0.16038800  0.16252400  1
  C  C22  1  0.64958800  0.40010900  0.18034000  1
  C  C23  1  0.26991000  0.42371600  0.22410200  1
  C  C24  1  0.53165900  0.87467100  0.10863700  1
  C  C25  1  0.53165900  0.12532900  0.89136300  1
  C  C26  1  0.73009000  0.07628400  0.72410200  1
  C  C27  1  0.35041200  0.90010900  0.31966000  1
  C  C28  1  0.46834100  0.62532900  0.60863700  1
  C  C29  1  0.28054900  0.66038800  0.33747600  1
  C  C30  1  0.35041200  0.09989100  0.68034000  1
  C  C31  1  0.73009000  0.92371600  0.27589800  1
  C  C32  1  0.62714300  0.34014000  0.70400800  1
  C  C33  1  0.27014400  0.00000000  0.00000000  1
  C  C34  1  0.01870000  0.05165400  0.11993200  1
  C  C35  1  0.86216700  0.68734000  0.19831300  1
  C  C36  1  0.84632600  0.36488200  0.02884100  1
  C  C37  1  0.83344500  0.85114500  0.46337100  1
  C  C38  1  0.01994200  0.14893900  0.70291700  1
  C  C39  1  0.84632600  0.63511800  0.97115900  1
  C  C40  1  0.45657000  0.59183000  0.08888800  1
  C  C41  1  0.26446500  0.23157100  0.83851200  1
  C  C42  1  0.80516800  0.00000000  0.00000000  1
  C  C43  1  0.37285700  0.84014000  0.79599200  1
  C  C44  1  0.98130000  0.55165400  0.38006800  1
  C  C45  1  0.83344500  0.14885500  0.53662900  1
  C  C46  1  0.49522000  0.25287400  0.54250700  1
  C  C47  1  0.54343000  0.09183000  0.41111200  1
  C  C48  1  0.86216700  0.31266000  0.80168700  1
  C  C49  1  0.50478000  0.24712600  0.04250700  1
  C  C50  1  0.45657000  0.40817000  0.91111200  1
  C  C51  1  0.15367400  0.86488200  0.47115900  1
  C  C52  1  0.98005800  0.35106100  0.20291700  1
  C  C53  1  0.72985600  0.50000000  0.50000000  1
  C  C54  1  0.62714300  0.65986000  0.29599200  1
  C  C55  1  0.01994200  0.85106100  0.29708300  1
  C  C56  1  0.50478000  0.75287400  0.95749300  1
  C  C57  1  0.16655500  0.35114500  0.03662900  1
  C  C58  1  0.01870000  0.94834600  0.88006800  1
  C  C59  1  0.49522000  0.74712600  0.45749300  1
  C  C60  1  0.54343000  0.90817000  0.58888800  1
  C  C61  1  0.37285700  0.15986000  0.20400800  1
  C  C62  1  0.16655500  0.64885500  0.96337100  1
  C  C63  1  0.15367400  0.13511800  0.52884100  1
  C  C64  1  0.13783300  0.18734000  0.30168700  1
  C  C65  1  0.26446500  0.76842900  0.16148800  1
  C  C66  1  0.98005800  0.64893900  0.79708300  1
  C  C67  1  0.19483200  0.50000000  0.50000000  1
  C  C68  1  0.98130000  0.44834600  0.61993200  1
  C  C69  1  0.73553500  0.26842900  0.33851200  1
  C  C70  1  0.13783300  0.81266000  0.69831300  1
  C  C71  1  0.73553500  0.73157100  0.66148800  1
