# generated using pymatgen
data_CuNiC3
_symmetry_space_group_name_H-M   'P 1'
_cell_length_a   10.93778728
_cell_length_b   10.93778728
_cell_length_c   17.41277246
_cell_angle_alpha   71.24644952
_cell_angle_beta   71.24644952
_cell_angle_gamma   50.02856981
_symmetry_Int_Tables_number   1
_chemical_formula_structural   CuNiC3
_chemical_formula_sum   'Cu12 Ni12 C36'
_cell_volume   1492.62805473
_cell_formula_units_Z   12
loop_
 _symmetry_equiv_pos_site_id
 _symmetry_equiv_pos_as_xyz
  1  'x, y, z'
loop_
 _atom_site_type_symbol
 _atom_site_label
 _atom_site_symmetry_multiplicity
 _atom_site_fract_x
 _atom_site_fract_y
 _atom_site_fract_z
 _atom_site_occupancy
  C  C0  1  0.81458500  0.50983600  0.65695000  1
  C  C1  1  0.25012600  0.28568000  0.61115500  1
  C  C2  1  0.39155000  0.62778700  0.82144300  1
  C  C3  1  0.04180400  0.09649600  0.20206900  1
  C  C4  1  0.36111000  0.44748100  0.03546000  1
  C  C5  1  0.05311600  0.28924100  0.82061900  1
  C  C6  1  0.20669300  0.46546000  0.86562400  1
  C  C7  1  0.71075900  0.94688400  0.67938100  1
  C  C8  1  0.12480000  0.84390900  0.50990200  1
  C  C9  1  0.63889000  0.55251900  0.96454000  1
  C  C10  1  0.74987400  0.71432000  0.38884500  1
  C  C11  1  0.49016400  0.18541500  0.84305000  1
  C  C12  1  0.28568000  0.25012600  0.11115500  1
  C  C13  1  0.90350400  0.95819600  0.29793100  1
  C  C14  1  0.15609100  0.87520000  0.99009800  1
  C  C15  1  0.87520000  0.15609100  0.49009800  1
  C  C16  1  0.28924100  0.05311600  0.32061900  1
  C  C17  1  0.94975500  0.71976600  0.02657500  1
  C  C18  1  0.95819600  0.90350400  0.79793100  1
  C  C19  1  0.44748100  0.36111000  0.53546000  1
  C  C20  1  0.28023400  0.05024500  0.47342500  1
  C  C21  1  0.55251900  0.63889000  0.46454000  1
  C  C22  1  0.05024500  0.28023400  0.97342500  1
  C  C23  1  0.79330700  0.53454000  0.13437600  1
  C  C24  1  0.09649600  0.04180400  0.70206900  1
  C  C25  1  0.62778700  0.39155000  0.32144300  1
  C  C26  1  0.84390900  0.12480000  0.00990200  1
  C  C27  1  0.37221300  0.60845000  0.67855700  1
  C  C28  1  0.71432000  0.74987400  0.88884500  1
  C  C29  1  0.46546000  0.20669300  0.36562400  1
  C  C30  1  0.18541500  0.49016400  0.34305000  1
  C  C31  1  0.94688400  0.71075900  0.17938100  1
  C  C32  1  0.71976600  0.94975500  0.52657500  1
  C  C33  1  0.53454000  0.79330700  0.63437600  1
  C  C34  1  0.50983600  0.81458500  0.15695000  1
  C  C35  1  0.60845000  0.37221300  0.17855700  1
  Ni  Ni36  1  0.95965600  0.33886600  0.51546100  1
  Ni  Ni37  1  0.61843700  0.05729900  0.21808700  1
  Ni  Ni38  1  0.04034400  0.66113400  0.48453900  1
  Ni  Ni39  1  0.64832700  0.27022600  0.65500800  1
  Ni  Ni40  1  0.72977400  0.35167300  0.84499200  1
  Ni  Ni41  1  0.05729900  0.61843700  0.71808700  1
  Ni  Ni42  1  0.35167300  0.72977400  0.34499200  1
  Ni  Ni43  1  0.33886600  0.95965600  0.01546100  1
  Ni  Ni44  1  0.38156300  0.94270100  0.78191300  1
  Ni  Ni45  1  0.66113400  0.04034400  0.98453900  1
  Ni  Ni46  1  0.27022600  0.64832700  0.15500800  1
  Ni  Ni47  1  0.94270100  0.38156300  0.28191300  1
  Cu  Cu48  1  0.29393700  0.04582900  0.19585500  1
  Cu  Cu49  1  0.64279500  0.37042100  0.44732700  1
  Cu  Cu50  1  0.95417100  0.70606300  0.30414500  1
  Cu  Cu51  1  0.35720500  0.62957900  0.55267300  1
  Cu  Cu52  1  0.37042100  0.64279500  0.94732700  1
  Cu  Cu53  1  0.70606300  0.95417100  0.80414500  1
  Cu  Cu54  1  0.69290300  0.98556200  0.40260400  1
  Cu  Cu55  1  0.01443800  0.30709700  0.09739600  1
  Cu  Cu56  1  0.04582900  0.29393700  0.69585500  1
  Cu  Cu57  1  0.98556200  0.69290300  0.90260400  1
  Cu  Cu58  1  0.30709700  0.01443800  0.59739600  1
  Cu  Cu59  1  0.62957900  0.35720500  0.05267300  1
