# generated using pymatgen
data_Cu2NiC8
_symmetry_space_group_name_H-M   'P 1'
_cell_length_a   8.91843700
_cell_length_b   9.28939100
_cell_length_c   13.49034000
_cell_angle_alpha   90.00000000
_cell_angle_beta   90.00000000
_cell_angle_gamma   90.00000000
_symmetry_Int_Tables_number   1
_chemical_formula_structural   Cu2NiC8
_chemical_formula_sum   'Cu16 Ni8 C64'
_cell_volume   1117.63215287
_cell_formula_units_Z   8
loop_
 _symmetry_equiv_pos_site_id
 _symmetry_equiv_pos_as_xyz
  1  'x, y, z'
loop_
 _atom_site_type_symbol
 _atom_site_label
 _atom_site_symmetry_multiplicity
 _atom_site_fract_x
 _atom_site_fract_y
 _atom_site_fract_z
 _atom_site_occupancy
  Ni  Ni0  1  0.78224500  0.53237500  0.60433200  1
  Ni  Ni1  1  0.21775500  0.96762500  0.10433200  1
  Ni  Ni2  1  0.71775500  0.03237500  0.39566800  1
  Ni  Ni3  1  0.28224500  0.46762500  0.89566800  1
  Ni  Ni4  1  0.21775500  0.46762500  0.39566800  1
  Ni  Ni5  1  0.28224500  0.96762500  0.60433200  1
  Ni  Ni6  1  0.71775500  0.53237500  0.10433200  1
  Ni  Ni7  1  0.78224500  0.03237500  0.89566800  1
  Cu  Cu8  1  0.99694900  0.72184200  0.94184500  1
  Cu  Cu9  1  0.18211300  0.60537200  0.65825800  1
  Cu  Cu10  1  0.81788700  0.39462800  0.34174200  1
  Cu  Cu11  1  0.18211300  0.10537200  0.84174200  1
  Cu  Cu12  1  0.00305100  0.27815800  0.05815500  1
  Cu  Cu13  1  0.68211300  0.89462800  0.65825800  1
  Cu  Cu14  1  0.49694900  0.27815800  0.55815500  1
  Cu  Cu15  1  0.68211300  0.39462800  0.84174200  1
  Cu  Cu16  1  0.50305100  0.72184200  0.44184500  1
  Cu  Cu17  1  0.31788700  0.10537200  0.34174200  1
  Cu  Cu18  1  0.31788700  0.60537200  0.15825800  1
  Cu  Cu19  1  0.81788700  0.89462800  0.15825800  1
  Cu  Cu20  1  0.00305100  0.77815800  0.44184500  1
  Cu  Cu21  1  0.49694900  0.77815800  0.94184500  1
  Cu  Cu22  1  0.99694900  0.22184200  0.55815500  1
  Cu  Cu23  1  0.50305100  0.22184200  0.05815500  1
  C  C24  1  0.97502400  0.41382700  0.33212400  1
  C  C25  1  0.25753900  0.51070300  0.72398100  1
  C  C26  1  0.42213300  0.62511000  0.38054600  1
  C  C27  1  0.92094400  0.64409100  0.01613500  1
  C  C28  1  0.72774000  0.42373600  0.94014800  1
  C  C29  1  0.47502400  0.58617300  0.16787600  1
  C  C30  1  0.75753900  0.98929700  0.72398100  1
  C  C31  1  0.07786700  0.62511000  0.88054600  1
  C  C32  1  0.39520000  0.69890300  0.88225400  1
  C  C33  1  0.27226000  0.07626400  0.44014800  1
  C  C34  1  0.74246100  0.48929700  0.27601900  1
  C  C35  1  0.74246100  0.98929700  0.22398100  1
  C  C36  1  0.10480000  0.19890300  0.11774600  1
  C  C37  1  0.57905600  0.64409100  0.51613500  1
  C  C38  1  0.27877600  0.24943500  0.31720200  1
  C  C39  1  0.07905600  0.85590900  0.51613500  1
  C  C40  1  0.40162700  0.82018500  0.48670200  1
  C  C41  1  0.42094400  0.85590900  0.01613500  1
  C  C42  1  0.97502400  0.91382700  0.16787600  1
  C  C43  1  0.72122400  0.25056500  0.81720200  1
  C  C44  1  0.92094400  0.14409100  0.48386500  1
  C  C45  1  0.90162700  0.17981500  0.01329800  1
  C  C46  1  0.27877600  0.74943500  0.18279800  1
  C  C47  1  0.47502400  0.08617300  0.33212400  1
  C  C48  1  0.89520000  0.30109700  0.61774600  1
  C  C49  1  0.22122400  0.24943500  0.81720200  1
  C  C50  1  0.22774000  0.57626400  0.55985200  1
  C  C51  1  0.42213300  0.12511000  0.11945400  1
  C  C52  1  0.52497600  0.41382700  0.83212400  1
  C  C53  1  0.72774000  0.92373600  0.55985200  1
  C  C54  1  0.77877600  0.25056500  0.31720200  1
  C  C55  1  0.10480000  0.69890300  0.38225400  1
  C  C56  1  0.60480000  0.80109700  0.38225400  1
  C  C57  1  0.02497600  0.08617300  0.83212400  1
  C  C58  1  0.77226000  0.42373600  0.44014800  1
  C  C59  1  0.07786700  0.12511000  0.61945400  1
  C  C60  1  0.90162700  0.67981500  0.48670200  1
  C  C61  1  0.22774000  0.07626400  0.94014800  1
  C  C62  1  0.24246100  0.01070300  0.27601900  1
  C  C63  1  0.57786700  0.87489000  0.88054600  1
  C  C64  1  0.07905600  0.35590900  0.98386500  1
  C  C65  1  0.57786700  0.37489000  0.61945400  1
  C  C66  1  0.27226000  0.57626400  0.05985200  1
  C  C67  1  0.09837300  0.32018500  0.51329800  1
  C  C68  1  0.60480000  0.30109700  0.11774600  1
  C  C69  1  0.89520000  0.80109700  0.88225400  1
  C  C70  1  0.39520000  0.19890300  0.61774600  1
  C  C71  1  0.22122400  0.74943500  0.68279800  1
  C  C72  1  0.59837300  0.67981500  0.98670200  1
  C  C73  1  0.59837300  0.17981500  0.51329800  1
  C  C74  1  0.92213300  0.37489000  0.11945400  1
  C  C75  1  0.09837300  0.82018500  0.98670200  1
  C  C76  1  0.92213300  0.87489000  0.38054600  1
  C  C77  1  0.42094400  0.35590900  0.48386500  1
  C  C78  1  0.72122400  0.75056500  0.68279800  1
  C  C79  1  0.24246100  0.51070300  0.22398100  1
  C  C80  1  0.25753900  0.01070300  0.77601900  1
  C  C81  1  0.57905600  0.14409100  0.98386500  1
  C  C82  1  0.40162700  0.32018500  0.01329800  1
  C  C83  1  0.52497600  0.91382700  0.66787600  1
  C  C84  1  0.77226000  0.92373600  0.05985200  1
  C  C85  1  0.77877600  0.75056500  0.18279800  1
  C  C86  1  0.02497600  0.58617300  0.66787600  1
  C  C87  1  0.75753900  0.48929700  0.77601900  1
