# generated using pymatgen
data_Cu8NiC
_symmetry_space_group_name_H-M   'P 1'
_cell_length_a   7.42379600
_cell_length_b   7.42379600
_cell_length_c   24.94347800
_cell_angle_alpha   90.00000000
_cell_angle_beta   90.00000000
_cell_angle_gamma   90.00000000
_symmetry_Int_Tables_number   1
_chemical_formula_structural   Cu8NiC
_chemical_formula_sum   'Cu32 Ni4 C4'
_cell_volume   1374.70359355
_cell_formula_units_Z   4
loop_
 _symmetry_equiv_pos_site_id
 _symmetry_equiv_pos_as_xyz
  1  'x, y, z'
loop_
 _atom_site_type_symbol
 _atom_site_label
 _atom_site_symmetry_multiplicity
 _atom_site_fract_x
 _atom_site_fract_y
 _atom_site_fract_z
 _atom_site_occupancy
  C  C0  1  0.77079100  0.00531700  0.50117300  1
  C  C1  1  0.00531700  0.22920900  0.25117300  1
  C  C2  1  0.22920900  0.99468300  0.00117300  1
  C  C3  1  0.99468300  0.77079100  0.75117300  1
  Ni  Ni4  1  0.13767700  0.76485000  0.37253300  1
  Ni  Ni5  1  0.23515000  0.13767700  0.62253300  1
  Ni  Ni6  1  0.86232300  0.23515000  0.87253300  1
  Ni  Ni7  1  0.76485000  0.86232300  0.12253300  1
  Cu  Cu8  1  0.23572400  0.26885000  0.31543200  1
  Cu  Cu9  1  0.90995200  0.93713300  0.29625000  1
  Cu  Cu10  1  0.61010000  0.22059900  0.81434100  1
  Cu  Cu11  1  0.07294600  0.49615900  0.20351200  1
  Cu  Cu12  1  0.77940100  0.61010000  0.06434100  1
  Cu  Cu13  1  0.83464400  0.74060400  0.43727500  1
  Cu  Cu14  1  0.09004800  0.06286700  0.79625000  1
  Cu  Cu15  1  0.81190700  0.94773000  0.69383600  1
  Cu  Cu16  1  0.74060400  0.16535600  0.18727500  1
  Cu  Cu17  1  0.49615900  0.92705400  0.95351200  1
  Cu  Cu18  1  0.41432500  0.29185400  0.68629500  1
  Cu  Cu19  1  0.58567500  0.70814600  0.18629500  1
  Cu  Cu20  1  0.16535600  0.25939600  0.93727500  1
  Cu  Cu21  1  0.38990000  0.77940100  0.31434100  1
  Cu  Cu22  1  0.94773000  0.18809300  0.44383600  1
  Cu  Cu23  1  0.76427600  0.73115000  0.81543200  1
  Cu  Cu24  1  0.06286700  0.90995200  0.54625000  1
  Cu  Cu25  1  0.93713300  0.09004800  0.04625000  1
  Cu  Cu26  1  0.21725600  0.62413000  0.80385300  1
  Cu  Cu27  1  0.22059900  0.38990000  0.56434100  1
  Cu  Cu28  1  0.25939600  0.83464400  0.68727500  1
  Cu  Cu29  1  0.18809300  0.05227000  0.19383600  1
  Cu  Cu30  1  0.62413000  0.78274400  0.55385300  1
  Cu  Cu31  1  0.73115000  0.23572400  0.56543200  1
  Cu  Cu32  1  0.92705400  0.50384100  0.70351200  1
  Cu  Cu33  1  0.37587000  0.21725600  0.05385300  1
  Cu  Cu34  1  0.29185400  0.58567500  0.43629500  1
  Cu  Cu35  1  0.26885000  0.76427600  0.06543200  1
  Cu  Cu36  1  0.70814600  0.41432500  0.93629500  1
  Cu  Cu37  1  0.78274400  0.37587000  0.30385300  1
  Cu  Cu38  1  0.50384100  0.07294600  0.45351200  1
  Cu  Cu39  1  0.05227000  0.81190700  0.94383600  1
