# generated using pymatgen
data_Cu3Ni2C3
_symmetry_space_group_name_H-M   'P 1'
_cell_length_a   7.83068100
_cell_length_b   10.74964700
_cell_length_c   16.48590300
_cell_angle_alpha   90.00000000
_cell_angle_beta   90.00000000
_cell_angle_gamma   90.00000000
_symmetry_Int_Tables_number   1
_chemical_formula_structural   Cu3Ni2C3
_chemical_formula_sum   'Cu24 Ni16 C24'
_cell_volume   1387.73478861
_cell_formula_units_Z   8
loop_
 _symmetry_equiv_pos_site_id
 _symmetry_equiv_pos_as_xyz
  1  'x, y, z'
loop_
 _atom_site_type_symbol
 _atom_site_label
 _atom_site_symmetry_multiplicity
 _atom_site_fract_x
 _atom_site_fract_y
 _atom_site_fract_z
 _atom_site_occupancy
  C  C0  1  0.39976200  0.23542000  0.97796100  1
  C  C1  1  0.34242500  0.98957000  0.39316900  1
  C  C2  1  0.65757500  0.48957000  0.89316900  1
  C  C3  1  0.65757500  0.01043000  0.60683100  1
  C  C4  1  0.60023800  0.76458000  0.02203900  1
  C  C5  1  0.39976200  0.26458000  0.52203900  1
  C  C6  1  0.84242500  0.51043000  0.39316900  1
  C  C7  1  0.60023800  0.73542000  0.47796100  1
  C  C8  1  0.84242500  0.98957000  0.10683100  1
  C  C9  1  0.15757500  0.01043000  0.89316900  1
  C  C10  1  0.34242500  0.51043000  0.10683100  1
  C  C11  1  0.10023800  0.76458000  0.47796100  1
  C  C12  1  0.89976200  0.23542000  0.52203900  1
  C  C13  1  0.15757500  0.48957000  0.60683100  1
  C  C14  1  0.10023800  0.73542000  0.02203900  1
  C  C15  1  0.89976200  0.26458000  0.97796100  1
  C  C16  1  0.78852700  0.96935300  0.40742600  1
  C  C17  1  0.28852700  0.53064700  0.40742600  1
  C  C18  1  0.71147300  0.46935300  0.59257400  1
  C  C19  1  0.21147300  0.46935300  0.90742600  1
  C  C20  1  0.28852700  0.96935300  0.09257400  1
  C  C21  1  0.78852700  0.53064700  0.09257400  1
  C  C22  1  0.21147300  0.03064700  0.59257400  1
  C  C23  1  0.71147300  0.03064700  0.90742600  1
  Ni  Ni24  1  0.34278900  0.41558700  0.70987800  1
  Ni  Ni25  1  0.93615900  0.29452100  0.37437300  1
  Ni  Ni26  1  0.15721100  0.58441300  0.20987800  1
  Ni  Ni27  1  0.56384100  0.70547900  0.87437300  1
  Ni  Ni28  1  0.15721100  0.91558700  0.29012200  1
  Ni  Ni29  1  0.43615900  0.29452100  0.12562700  1
  Ni  Ni30  1  0.06384100  0.70547900  0.62562700  1
  Ni  Ni31  1  0.65721100  0.58441300  0.29012200  1
  Ni  Ni32  1  0.93615900  0.20547900  0.12562700  1
  Ni  Ni33  1  0.65721100  0.91558700  0.20987800  1
  Ni  Ni34  1  0.34278900  0.08441300  0.79012200  1
  Ni  Ni35  1  0.84278900  0.41558700  0.79012200  1
  Ni  Ni36  1  0.43615900  0.20547900  0.37437300  1
  Ni  Ni37  1  0.84278900  0.08441300  0.70987800  1
  Ni  Ni38  1  0.06384100  0.79452100  0.87437300  1
  Ni  Ni39  1  0.56384100  0.79452100  0.62562700  1
  Cu  Cu40  1  0.85619000  0.81194300  0.44840100  1
  Cu  Cu41  1  0.35619000  0.68805700  0.44840100  1
  Cu  Cu42  1  0.64381000  0.18805700  0.94840100  1
  Cu  Cu43  1  0.69787300  0.55849400  0.49054300  1
  Cu  Cu44  1  0.19787300  0.94150600  0.49054300  1
  Cu  Cu45  1  0.43819700  0.09238600  0.57890900  1
  Cu  Cu46  1  0.19787300  0.55849400  0.00945700  1
  Cu  Cu47  1  0.35619000  0.81194300  0.05159900  1
  Cu  Cu48  1  0.56180300  0.90761400  0.42109100  1
  Cu  Cu49  1  0.14381000  0.18805700  0.55159900  1
  Cu  Cu50  1  0.69787300  0.94150600  0.00945700  1
  Cu  Cu51  1  0.64381000  0.31194300  0.55159900  1
  Cu  Cu52  1  0.30212700  0.05849400  0.99054300  1
  Cu  Cu53  1  0.93819700  0.40761400  0.57890900  1
  Cu  Cu54  1  0.56180300  0.59238600  0.07890900  1
  Cu  Cu55  1  0.06180300  0.90761400  0.07890900  1
  Cu  Cu56  1  0.80212700  0.05849400  0.50945700  1
  Cu  Cu57  1  0.30212700  0.44150600  0.50945700  1
  Cu  Cu58  1  0.06180300  0.59238600  0.42109100  1
  Cu  Cu59  1  0.14381000  0.31194300  0.94840100  1
  Cu  Cu60  1  0.85619000  0.68805700  0.05159900  1
  Cu  Cu61  1  0.80212700  0.44150600  0.99054300  1
  Cu  Cu62  1  0.43819700  0.40761400  0.92109100  1
  Cu  Cu63  1  0.93819700  0.09238600  0.92109100  1
