# generated using pymatgen
data_Cu12Ni3C4
_symmetry_space_group_name_H-M   'P 1'
_cell_length_a   11.56033003
_cell_length_b   11.56033003
_cell_length_c   11.56033017
_cell_angle_alpha   114.81904454
_cell_angle_beta   114.81904454
_cell_angle_gamma   114.81904949
_symmetry_Int_Tables_number   1
_chemical_formula_structural   Cu12Ni3C4
_chemical_formula_sum   'Cu24 Ni6 C8'
_cell_volume   878.72084148
_cell_formula_units_Z   2
loop_
 _symmetry_equiv_pos_site_id
 _symmetry_equiv_pos_as_xyz
  1  'x, y, z'
loop_
 _atom_site_type_symbol
 _atom_site_label
 _atom_site_symmetry_multiplicity
 _atom_site_fract_x
 _atom_site_fract_y
 _atom_site_fract_z
 _atom_site_occupancy
  C  C0  1  0.93590200  0.47473900  0.71263900  1
  C  C1  1  0.21263900  0.97473900  0.43590200  1
  C  C2  1  0.99914700  0.99914700  0.99914700  1
  C  C3  1  0.43590200  0.21263900  0.97473900  1
  C  C4  1  0.47473900  0.71263900  0.93590200  1
  C  C5  1  0.71263900  0.93590200  0.47473900  1
  C  C6  1  0.97473900  0.43590200  0.21263900  1
  C  C7  1  0.49914700  0.49914700  0.49914700  1
  Ni  Ni8  1  0.64402700  0.46938000  0.85581200  1
  Ni  Ni9  1  0.85581200  0.64402700  0.46938000  1
  Ni  Ni10  1  0.14402700  0.35581200  0.96938000  1
  Ni  Ni11  1  0.46938000  0.85581200  0.64402700  1
  Ni  Ni12  1  0.35581200  0.96938000  0.14402700  1
  Ni  Ni13  1  0.96938000  0.14402700  0.35581200  1
  Cu  Cu14  1  0.29736900  0.61208800  0.58610200  1
  Cu  Cu15  1  0.63171300  0.08643100  0.35303800  1
  Cu  Cu16  1  0.68821900  0.87239800  0.68594200  1
  Cu  Cu17  1  0.81271100  0.88573500  0.28155800  1
  Cu  Cu18  1  0.85303800  0.58643100  0.13171300  1
  Cu  Cu19  1  0.08610200  0.11208800  0.79736900  1
  Cu  Cu20  1  0.58643100  0.13171300  0.85303800  1
  Cu  Cu21  1  0.08643100  0.35303800  0.63171300  1
  Cu  Cu22  1  0.88573500  0.28155800  0.81271100  1
  Cu  Cu23  1  0.79736900  0.08610200  0.11208800  1
  Cu  Cu24  1  0.13171300  0.85303800  0.58643100  1
  Cu  Cu25  1  0.35303800  0.63171300  0.08643100  1
  Cu  Cu26  1  0.87239800  0.68594200  0.68821900  1
  Cu  Cu27  1  0.58610200  0.29736900  0.61208800  1
  Cu  Cu28  1  0.18821900  0.18594200  0.37239800  1
  Cu  Cu29  1  0.11208800  0.79736900  0.08610200  1
  Cu  Cu30  1  0.68594200  0.68821900  0.87239800  1
  Cu  Cu31  1  0.61208800  0.58610200  0.29736900  1
  Cu  Cu32  1  0.38573500  0.31271100  0.78155800  1
  Cu  Cu33  1  0.78155800  0.38573500  0.31271100  1
  Cu  Cu34  1  0.31271100  0.78155800  0.38573500  1
  Cu  Cu35  1  0.28155800  0.81271100  0.88573500  1
  Cu  Cu36  1  0.37239800  0.18821900  0.18594200  1
  Cu  Cu37  1  0.18594200  0.37239800  0.18821900  1
