# generated using pymatgen
data_Cu2NiC5
_symmetry_space_group_name_H-M   'P 1'
_cell_length_a   12.52176900
_cell_length_b   6.23752700
_cell_length_c   9.79048079
_cell_angle_alpha   88.57290061
_cell_angle_beta   90.00000000
_cell_angle_gamma   90.00000000
_symmetry_Int_Tables_number   1
_chemical_formula_structural   Cu2NiC5
_chemical_formula_sum   'Cu16 Ni8 C40'
_cell_volume   764.44706303
_cell_formula_units_Z   8
loop_
 _symmetry_equiv_pos_site_id
 _symmetry_equiv_pos_as_xyz
  1  'x, y, z'
loop_
 _atom_site_type_symbol
 _atom_site_label
 _atom_site_symmetry_multiplicity
 _atom_site_fract_x
 _atom_site_fract_y
 _atom_site_fract_z
 _atom_site_occupancy
  C  C0  1  0.12608600  0.06175200  0.07193900  1
  C  C1  1  0.62608600  0.93824800  0.42806100  1
  C  C2  1  0.87391400  0.93824800  0.92806100  1
  C  C3  1  0.37391400  0.06175200  0.57193900  1
  C  C4  1  0.06226100  0.25874300  0.47023000  1
  C  C5  1  0.56226100  0.74125700  0.02977000  1
  C  C6  1  0.93773900  0.74125700  0.52977000  1
  C  C7  1  0.43773900  0.25874300  0.97023000  1
  Ni  Ni8  1  0.99682500  0.60071700  0.18812900  1
  Ni  Ni9  1  0.49682500  0.39928300  0.31187100  1
  Ni  Ni10  1  0.00317500  0.39928300  0.81187100  1
  Ni  Ni11  1  0.50317500  0.60071700  0.68812900  1
  Ni  Ni12  1  0.32164700  0.54390200  0.48973900  1
  Ni  Ni13  1  0.82164700  0.45609800  0.01026100  1
  Ni  Ni14  1  0.67835300  0.45609800  0.51026100  1
  Ni  Ni15  1  0.17835300  0.54390200  0.98973900  1
  Cu  Cu16  1  0.42133900  0.99246600  0.21211100  1
  Cu  Cu17  1  0.92133900  0.00753400  0.28788900  1
  Cu  Cu18  1  0.57866100  0.00753400  0.78788900  1
  Cu  Cu19  1  0.07866100  0.99246600  0.71211100  1
  Cu  Cu20  1  0.34870400  0.86601400  0.10896600  1
  Cu  Cu21  1  0.84870400  0.13398600  0.39103400  1
  Cu  Cu22  1  0.65129600  0.13398600  0.89103400  1
  Cu  Cu23  1  0.15129600  0.86601400  0.60896600  1
  Cu  Cu24  1  0.20189200  0.92394900  0.35250800  1
  Cu  Cu25  1  0.70189200  0.07605100  0.14749200  1
  Cu  Cu26  1  0.79810800  0.07605100  0.64749200  1
  Cu  Cu27  1  0.29810800  0.92394900  0.85250800  1
  Cu  Cu28  1  0.22484100  0.16707300  0.33897200  1
  Cu  Cu29  1  0.72484100  0.83292700  0.16102800  1
  Cu  Cu30  1  0.77515900  0.83292700  0.66102800  1
  Cu  Cu31  1  0.27515900  0.16707300  0.83897200  1
  C  C32  1  0.10064600  0.48564400  0.11928400  1
  C  C33  1  0.60064600  0.51435600  0.38071600  1
  C  C34  1  0.89935400  0.51435600  0.88071600  1
  C  C35  1  0.39935400  0.48564400  0.61928400  1
  C  C36  1  0.40396800  0.56429300  0.36177600  1
  C  C37  1  0.90396800  0.43570700  0.13822400  1
  C  C38  1  0.59603200  0.43570700  0.63822400  1
  C  C39  1  0.09603200  0.56429300  0.86177600  1
  C  C40  1  0.50789800  0.43179400  0.16123300  1
  C  C41  1  0.00789800  0.56820600  0.33876700  1
  C  C42  1  0.49210200  0.56820600  0.83876700  1
  C  C43  1  0.99210200  0.43179400  0.66123300  1
  C  C44  1  0.47953600  0.17923800  0.37492600  1
  C  C45  1  0.97953600  0.82076200  0.12507400  1
  C  C46  1  0.52046400  0.82076200  0.62507400  1
  C  C47  1  0.02046400  0.17923800  0.87492600  1
  C  C48  1  0.25300900  0.34830400  0.47677800  1
  C  C49  1  0.75300900  0.65169600  0.02322200  1
  C  C50  1  0.74699100  0.65169600  0.52322200  1
  C  C51  1  0.24699100  0.34830400  0.97677800  1
  C  C52  1  0.27238500  0.76149400  0.50396700  1
  C  C53  1  0.77238500  0.23850600  0.99603300  1
  C  C54  1  0.72761500  0.23850600  0.49603300  1
  C  C55  1  0.22761500  0.76149400  0.00396700  1
  C  C56  1  0.41612800  0.94496000  0.11775600  1
  C  C57  1  0.91612800  0.05504000  0.38224400  1
  C  C58  1  0.58387200  0.05504000  0.88224400  1
  C  C59  1  0.08387200  0.94496000  0.61775600  1
  C  C60  1  0.18290200  0.05195500  0.29729900  1
  C  C61  1  0.68290200  0.94804500  0.20270100  1
  C  C62  1  0.81709800  0.94804500  0.70270100  1
  C  C63  1  0.31709800  0.05195500  0.79729900  1
