# generated using pymatgen
data_CuNiC4
_symmetry_space_group_name_H-M   'P 1'
_cell_length_a   3.97495000
_cell_length_b   6.97238576
_cell_length_c   7.57404624
_cell_angle_alpha   104.29759218
_cell_angle_beta   90.00000000
_cell_angle_gamma   106.56180682
_symmetry_Int_Tables_number   1
_chemical_formula_structural   CuNiC4
_chemical_formula_sum   'Cu2 Ni2 C8'
_cell_volume   194.41220113
_cell_formula_units_Z   2
loop_
 _symmetry_equiv_pos_site_id
 _symmetry_equiv_pos_as_xyz
  1  'x, y, z'
loop_
 _atom_site_type_symbol
 _atom_site_label
 _atom_site_symmetry_multiplicity
 _atom_site_fract_x
 _atom_site_fract_y
 _atom_site_fract_z
 _atom_site_occupancy
  Ni  Ni0  1  0.64370000  0.28740000  0.56502500  1
  Ni  Ni1  1  0.35630000  0.71260000  0.43497500  1
  Cu  Cu2  1  0.35049300  0.70098600  0.92149500  1
  Cu  Cu3  1  0.64950700  0.29901400  0.07850500  1
  C  C4  1  0.99321900  0.98643800  0.22763400  1
  C  C5  1  0.00678100  0.01356200  0.77236600  1
  C  C6  1  0.84760600  0.69521200  0.72182600  1
  C  C7  1  0.49333600  0.98667200  0.18838900  1
  C  C8  1  0.16910500  0.33821000  0.86723400  1
  C  C9  1  0.15239400  0.30478800  0.27817400  1
  C  C10  1  0.83089500  0.66179000  0.13276600  1
  C  C11  1  0.50666400  0.01332800  0.81161100  1
