# generated using pymatgen
data_Cu5Ni3C
_symmetry_space_group_name_H-M   'P 1'
_cell_length_a   9.98622600
_cell_length_b   13.92243200
_cell_length_c   27.56890700
_cell_angle_alpha   90.00000000
_cell_angle_beta   90.00000000
_cell_angle_gamma   90.00000000
_symmetry_Int_Tables_number   1
_chemical_formula_structural   Cu5Ni3C
_chemical_formula_sum   'Cu80 Ni48 C16'
_cell_volume   3832.97550768
_cell_formula_units_Z   16
loop_
 _symmetry_equiv_pos_site_id
 _symmetry_equiv_pos_as_xyz
  1  'x, y, z'
loop_
 _atom_site_type_symbol
 _atom_site_label
 _atom_site_symmetry_multiplicity
 _atom_site_fract_x
 _atom_site_fract_y
 _atom_site_fract_z
 _atom_site_occupancy
  C  C0  1  0.24584800  0.50209500  0.05969300  1
  C  C1  1  0.49481800  0.13334000  0.12818000  1
  C  C2  1  0.24984100  0.00928800  0.81038500  1
  C  C3  1  0.74584800  0.99790500  0.94030700  1
  C  C4  1  0.98927000  0.38120600  0.37840600  1
  C  C5  1  0.75015900  0.50928800  0.68961500  1
  C  C6  1  0.75415200  0.00209500  0.44030700  1
  C  C7  1  0.00518200  0.86666000  0.62818000  1
  C  C8  1  0.74984100  0.49071200  0.18961500  1
  C  C9  1  0.51073000  0.61879400  0.87840600  1
  C  C10  1  0.99481800  0.36666000  0.87182000  1
  C  C11  1  0.25015900  0.99071200  0.31038500  1
  C  C12  1  0.25415200  0.49790500  0.55969300  1
  C  C13  1  0.01073000  0.88120600  0.12159400  1
  C  C14  1  0.48927000  0.11879400  0.62159400  1
  C  C15  1  0.50518200  0.63334000  0.37182000  1
  Ni  Ni16  1  0.16832600  0.31943000  0.15171000  1
  Ni  Ni17  1  0.68573400  0.35297500  0.94488700  1
  Ni  Ni18  1  0.36481900  0.22129800  0.50730900  1
  Ni  Ni19  1  0.84837400  0.97133800  0.23275700  1
  Ni  Ni20  1  0.43544800  0.14457300  0.94788800  1
  Ni  Ni21  1  0.86481900  0.27870200  0.49269100  1
  Ni  Ni22  1  0.61201500  0.52791900  0.04513600  1
  Ni  Ni23  1  0.06455200  0.85542700  0.44788800  1
  Ni  Ni24  1  0.85334400  0.25730400  0.72463500  1
  Ni  Ni25  1  0.86537100  0.16088800  0.14531100  1
  Ni  Ni26  1  0.41503500  0.94925300  0.03412700  1
  Ni  Ni27  1  0.08496500  0.05074700  0.53412700  1
  Ni  Ni28  1  0.31426600  0.85297500  0.55511300  1
  Ni  Ni29  1  0.63518100  0.72129800  0.99269100  1
  Ni  Ni30  1  0.91503500  0.55074700  0.96587300  1
  Ni  Ni31  1  0.14665600  0.75730400  0.77536500  1
  Ni  Ni32  1  0.81426600  0.64702500  0.44488700  1
  Ni  Ni33  1  0.65162600  0.02866200  0.73275700  1
  Ni  Ni34  1  0.00608000  0.23303700  0.26665800  1
  Ni  Ni35  1  0.15162600  0.47133800  0.26724300  1
  Ni  Ni36  1  0.18573400  0.14702500  0.05511300  1
  Ni  Ni37  1  0.63462900  0.83911200  0.64531100  1
  Ni  Ni38  1  0.92198800  0.78476200  0.89044300  1
  Ni  Ni39  1  0.49392000  0.76696300  0.76665800  1
  Ni  Ni40  1  0.11201500  0.97208100  0.95486400  1
  Ni  Ni41  1  0.58496500  0.44925300  0.46587300  1
  Ni  Ni42  1  0.07801200  0.28476200  0.60955700  1
  Ni  Ni43  1  0.64250500  0.19235900  0.24705200  1
  Ni  Ni44  1  0.85749500  0.80764100  0.74705200  1
  Ni  Ni45  1  0.99392000  0.73303700  0.23334200  1
  Ni  Ni46  1  0.64665600  0.74269600  0.22463500  1
  Ni  Ni47  1  0.56455200  0.64457300  0.55211200  1
  Ni  Ni48  1  0.42198800  0.71523800  0.10955700  1
  Ni  Ni49  1  0.33167400  0.68057000  0.65171000  1
  Ni  Ni50  1  0.36537100  0.33911200  0.85468900  1
  Ni  Ni51  1  0.35334400  0.24269600  0.27536500  1
  Ni  Ni52  1  0.88798500  0.47208100  0.54513600  1
  Ni  Ni53  1  0.66832600  0.18057000  0.84829000  1
  Ni  Ni54  1  0.57801200  0.21523800  0.39044300  1
  Ni  Ni55  1  0.13462900  0.66088800  0.35468900  1
  Ni  Ni56  1  0.13518100  0.77870200  0.00730900  1
  Ni  Ni57  1  0.14250500  0.30764100  0.75294800  1
  Ni  Ni58  1  0.50608000  0.26696300  0.73334200  1
  Ni  Ni59  1  0.83167400  0.81943000  0.34829000  1
  Ni  Ni60  1  0.38798500  0.02791900  0.45486400  1
  Ni  Ni61  1  0.93544800  0.35542700  0.05211200  1
  Ni  Ni62  1  0.35749500  0.69235900  0.25294800  1
  Ni  Ni63  1  0.34837400  0.52866200  0.76724300  1
  Cu  Cu64  1  0.23143700  0.50180700  0.34863400  1
  Cu  Cu65  1  0.81604700  0.11979200  0.78185800  1
  Cu  Cu66  1  0.93049400  0.39853800  0.27016800  1
  Cu  Cu67  1  0.43615600  0.58201200  0.48462400  1
  Cu  Cu68  1  0.73738700  0.50330600  0.40311400  1
  Cu  Cu69  1  0.96366100  0.90343500  0.01530600  1
  Cu  Cu70  1  0.31279600  0.85997300  0.46424600  1
  Cu  Cu71  1  0.31598400  0.29278300  0.58518900  1
  Cu  Cu72  1  0.73143700  0.99819300  0.65136600  1
  Cu  Cu73  1  0.69649100  0.27473800  0.17132100  1
  Cu  Cu74  1  0.68504200  0.36842800  0.53677300  1
  Cu  Cu75  1  0.42544800  0.32507700  0.43551100  1
  Cu  Cu76  1  0.43710200  0.32322200  0.94118300  1
  Cu  Cu77  1  0.18395300  0.61979200  0.71814200  1
  Cu  Cu78  1  0.76261300  0.49669400  0.90311400  1
  Cu  Cu79  1  0.26856300  0.49819300  0.84863400  1
  Cu  Cu80  1  0.56471300  0.30771000  0.31163100  1
  Cu  Cu81  1  0.50348900  0.06304300  0.87409800  1
  Cu  Cu82  1  0.46366100  0.59656500  0.98469400  1
  Cu  Cu83  1  0.03633900  0.40343500  0.48469400  1
  Cu  Cu84  1  0.57455200  0.82507700  0.06448900  1
  Cu  Cu85  1  0.08271500  0.16876000  0.18784500  1
  Cu  Cu86  1  0.43528700  0.80771000  0.18836900  1
  Cu  Cu87  1  0.67195700  0.29520500  0.67117600  1
  Cu  Cu88  1  0.06144300  0.89856700  0.73427300  1
  Cu  Cu89  1  0.06384400  0.41798800  0.98462400  1
  Cu  Cu90  1  0.93528700  0.69229000  0.81163100  1
  Cu  Cu91  1  0.30350900  0.77473800  0.32867900  1
  Cu  Cu92  1  0.49726700  0.05062600  0.37784500  1
  Cu  Cu93  1  0.56950600  0.60146200  0.77016800  1
  Cu  Cu94  1  0.19649100  0.22526200  0.82867900  1
  Cu  Cu95  1  0.56289800  0.82322200  0.55881700  1
  Cu  Cu96  1  0.68555600  0.78356200  0.41606000  1
  Cu  Cu97  1  0.32804300  0.79520500  0.82882400  1
  Cu  Cu98  1  0.31604700  0.38020800  0.21814200  1
  Cu  Cu99  1  0.93710200  0.17677800  0.05881700  1
  Cu  Cu100  1  0.68395300  0.88020800  0.28185800  1
  Cu  Cu101  1  0.81598400  0.20721700  0.41481100  1
  Cu  Cu102  1  0.76856300  0.00180700  0.15136600  1
  Cu  Cu103  1  0.41728500  0.83124000  0.68784500  1
  Cu  Cu104  1  0.33084500  0.38612100  0.71191100  1
  Cu  Cu105  1  0.26261300  0.00330600  0.09688600  1
  Cu  Cu106  1  0.43049400  0.10146200  0.72983200  1
  Cu  Cu107  1  0.81279600  0.64002700  0.53575400  1
  Cu  Cu108  1  0.49651100  0.56304300  0.62590200  1
  Cu  Cu109  1  0.68401600  0.79278300  0.91481100  1
  Cu  Cu110  1  0.23738700  0.99669400  0.59688600  1
  Cu  Cu111  1  0.43855700  0.10143300  0.23427300  1
  Cu  Cu112  1  0.16915500  0.61387900  0.21191100  1
  Cu  Cu113  1  0.56384400  0.08201200  0.01537600  1
  Cu  Cu114  1  0.93615600  0.91798800  0.51537600  1
  Cu  Cu115  1  0.50273300  0.55062600  0.12215500  1
  Cu  Cu116  1  0.81444400  0.21643800  0.91606000  1
  Cu  Cu117  1  0.18720400  0.14002700  0.96424600  1
  Cu  Cu118  1  0.83084500  0.11387900  0.28808900  1
  Cu  Cu119  1  0.58271500  0.33124000  0.81215500  1
  Cu  Cu120  1  0.68720400  0.35997300  0.03575400  1
  Cu  Cu121  1  0.93855700  0.39856700  0.76572700  1
  Cu  Cu122  1  0.99726700  0.44937400  0.62215500  1
  Cu  Cu123  1  0.82804300  0.70479500  0.17117600  1
  Cu  Cu124  1  0.99651100  0.93695700  0.37409800  1
  Cu  Cu125  1  0.80350900  0.72526200  0.67132100  1
  Cu  Cu126  1  0.31495800  0.86842800  0.96322700  1
  Cu  Cu127  1  0.00273300  0.94937400  0.87784500  1
  Cu  Cu128  1  0.06471300  0.19229000  0.68836900  1
  Cu  Cu129  1  0.92544800  0.17492300  0.56448900  1
  Cu  Cu130  1  0.06950600  0.89853800  0.22983200  1
  Cu  Cu131  1  0.31444400  0.28356200  0.08394000  1
  Cu  Cu132  1  0.07455200  0.67492300  0.93551100  1
  Cu  Cu133  1  0.56144300  0.60143300  0.26572700  1
  Cu  Cu134  1  0.18555600  0.71643800  0.58394000  1
  Cu  Cu135  1  0.81495800  0.63157200  0.03677300  1
  Cu  Cu136  1  0.18504200  0.13157200  0.46322700  1
  Cu  Cu137  1  0.06289800  0.67677800  0.44118300  1
  Cu  Cu138  1  0.53633900  0.09656500  0.51530600  1
  Cu  Cu139  1  0.66915500  0.88612100  0.78808900  1
  Cu  Cu140  1  0.91728500  0.66876000  0.31215500  1
  Cu  Cu141  1  0.18401600  0.70721700  0.08518900  1
  Cu  Cu142  1  0.17195700  0.20479500  0.32882400  1
  Cu  Cu143  1  0.00348900  0.43695700  0.12590200  1
