# generated using pymatgen
data_CuNiC10
_symmetry_space_group_name_H-M   'P 1'
_cell_length_a   10.36158403
_cell_length_b   10.36158403
_cell_length_c   5.85549200
_cell_angle_alpha   90.00000000
_cell_angle_beta   90.00000000
_cell_angle_gamma   120.00000018
_symmetry_Int_Tables_number   1
_chemical_formula_structural   CuNiC10
_chemical_formula_sum   'Cu2 Ni2 C20'
_cell_volume   544.43536683
_cell_formula_units_Z   2
loop_
 _symmetry_equiv_pos_site_id
 _symmetry_equiv_pos_as_xyz
  1  'x, y, z'
loop_
 _atom_site_type_symbol
 _atom_site_label
 _atom_site_symmetry_multiplicity
 _atom_site_fract_x
 _atom_site_fract_y
 _atom_site_fract_z
 _atom_site_occupancy
  C  C0  1  0.12276300  0.35643500  0.24935100  1
  C  C1  1  0.76632900  0.12276300  0.74935100  1
  C  C2  1  0.35643500  0.23367100  0.74935100  1
  C  C3  1  0.64356500  0.76632900  0.24935100  1
  C  C4  1  0.23367100  0.87723700  0.24935100  1
  C  C5  1  0.87723700  0.64356500  0.74935100  1
  Ni  Ni6  1  0.00000000  0.00000000  0.27543800  1
  Ni  Ni7  1  0.00000000  0.00000000  0.77543800  1
  Cu  Cu8  1  0.33333300  0.66666700  0.66373100  1
  Cu  Cu9  1  0.66666700  0.33333300  0.16373100  1
  C  C10  1  0.08454400  0.24810300  0.76222000  1
  C  C11  1  0.83644100  0.08454400  0.26222000  1
  C  C12  1  0.24810300  0.16355900  0.26222000  1
  C  C13  1  0.75189700  0.83644100  0.76222000  1
  C  C14  1  0.16355900  0.91545600  0.76222000  1
  C  C15  1  0.91545600  0.75189700  0.26222000  1
  C  C16  1  0.40997000  0.52533700  0.52302700  1
  C  C17  1  0.88463300  0.40997000  0.02302700  1
  C  C18  1  0.52533700  0.11536700  0.02302700  1
  C  C19  1  0.47466300  0.88463300  0.52302700  1
  C  C20  1  0.11536700  0.59003000  0.52302700  1
  C  C21  1  0.59003000  0.47466300  0.02302700  1
  C  C22  1  0.33333300  0.66666700  0.02503700  1
  C  C23  1  0.66666700  0.33333300  0.52503700  1
