# generated using pymatgen
data_Cu2NiC6
_symmetry_space_group_name_H-M   'P 1'
_cell_length_a   8.35828700
_cell_length_b   8.35828700
_cell_length_c   8.35828700
_cell_angle_alpha   90.00000000
_cell_angle_beta   90.00000000
_cell_angle_gamma   90.00000000
_symmetry_Int_Tables_number   1
_chemical_formula_structural   Cu2NiC6
_chemical_formula_sum   'Cu8 Ni4 C24'
_cell_volume   583.91796693
_cell_formula_units_Z   4
loop_
 _symmetry_equiv_pos_site_id
 _symmetry_equiv_pos_as_xyz
  1  'x, y, z'
loop_
 _atom_site_type_symbol
 _atom_site_label
 _atom_site_symmetry_multiplicity
 _atom_site_fract_x
 _atom_site_fract_y
 _atom_site_fract_z
 _atom_site_occupancy
  Ni  Ni0  1  0.50000000  0.50000000  0.00000000  1
  Ni  Ni1  1  0.50000000  0.00000000  0.50000000  1
  Ni  Ni2  1  0.00000000  0.00000000  0.00000000  1
  Ni  Ni3  1  0.00000000  0.50000000  0.50000000  1
  Cu  Cu4  1  0.83310400  0.16689600  0.66689600  1
  Cu  Cu5  1  0.16689600  0.83310400  0.33310400  1
  Cu  Cu6  1  0.66689600  0.66689600  0.66689600  1
  Cu  Cu7  1  0.16689600  0.66689600  0.83310400  1
  Cu  Cu8  1  0.33310400  0.16689600  0.83310400  1
  Cu  Cu9  1  0.83310400  0.33310400  0.16689600  1
  Cu  Cu10  1  0.66689600  0.83310400  0.16689600  1
  Cu  Cu11  1  0.33310400  0.33310400  0.33310400  1
  C  C12  1  0.24480200  0.46535700  0.46703800  1
  C  C13  1  0.96703800  0.24480200  0.03464300  1
  C  C14  1  0.03296200  0.74480200  0.46535700  1
  C  C15  1  0.46703800  0.25519800  0.96535700  1
  C  C16  1  0.25519800  0.96535700  0.46703800  1
  C  C17  1  0.53464300  0.53296200  0.75519800  1
  C  C18  1  0.96535700  0.03296200  0.75519800  1
  C  C19  1  0.53296200  0.74480200  0.03464300  1
  C  C20  1  0.53464300  0.96703800  0.25519800  1
  C  C21  1  0.46535700  0.03296200  0.74480200  1
  C  C22  1  0.75519800  0.96535700  0.03296200  1
  C  C23  1  0.25519800  0.53464300  0.96703800  1
  C  C24  1  0.03464300  0.53296200  0.74480200  1
  C  C25  1  0.03464300  0.96703800  0.24480200  1
  C  C26  1  0.24480200  0.03464300  0.96703800  1
  C  C27  1  0.46535700  0.46703800  0.24480200  1
  C  C28  1  0.75519800  0.53464300  0.53296200  1
  C  C29  1  0.96535700  0.46703800  0.25519800  1
  C  C30  1  0.03296200  0.75519800  0.96535700  1
  C  C31  1  0.46703800  0.24480200  0.46535700  1
  C  C32  1  0.53296200  0.75519800  0.53464300  1
  C  C33  1  0.96703800  0.25519800  0.53464300  1
  C  C34  1  0.74480200  0.03464300  0.53296200  1
  C  C35  1  0.74480200  0.46535700  0.03296200  1
