# generated using pymatgen
data_Cu8Ni2C3
_symmetry_space_group_name_H-M   'P 1'
_cell_length_a   9.43163100
_cell_length_b   10.77865495
_cell_length_c   14.81909965
_cell_angle_alpha   85.70929368
_cell_angle_beta   87.89052017
_cell_angle_gamma   80.69887329
_symmetry_Int_Tables_number   1
_chemical_formula_structural   Cu8Ni2C3
_chemical_formula_sum   'Cu32 Ni8 C12'
_cell_volume   1482.07270434
_cell_formula_units_Z   4
loop_
 _symmetry_equiv_pos_site_id
 _symmetry_equiv_pos_as_xyz
  1  'x, y, z'
loop_
 _atom_site_type_symbol
 _atom_site_label
 _atom_site_symmetry_multiplicity
 _atom_site_fract_x
 _atom_site_fract_y
 _atom_site_fract_z
 _atom_site_occupancy
  C  C0  1  0.61848400  0.19824100  0.25473100  1
  C  C1  1  0.73562200  0.42366800  0.64619600  1
  C  C2  1  0.20849300  0.07863200  0.08492800  1
  C  C3  1  0.38151600  0.80175900  0.74526900  1
  C  C4  1  0.79150700  0.92136800  0.91507200  1
  C  C5  1  0.26437800  0.57633200  0.35380400  1
  C  C6  1  0.76609900  0.98480500  0.52477800  1
  C  C7  1  0.74685500  0.46952100  0.99709300  1
  C  C8  1  0.25314500  0.53047900  0.00290700  1
  C  C9  1  0.23390100  0.01519500  0.47522200  1
  C  C10  1  0.24463700  0.27840700  0.73701500  1
  C  C11  1  0.75536300  0.72159300  0.26298500  1
  Ni  Ni12  1  0.44765500  0.24900900  0.51387000  1
  Ni  Ni13  1  0.00331200  0.93444100  0.31852000  1
  Ni  Ni14  1  0.99183400  0.43371200  0.18010100  1
  Ni  Ni15  1  0.47233700  0.71758200  0.09625200  1
  Ni  Ni16  1  0.99668800  0.06555900  0.68148000  1
  Ni  Ni17  1  0.52766300  0.28241800  0.90374800  1
  Ni  Ni18  1  0.00816600  0.56628800  0.81989900  1
  Ni  Ni19  1  0.55234500  0.75099100  0.48613000  1
  Cu  Cu20  1  0.07566900  0.52491000  0.69286900  1
  Cu  Cu21  1  0.05492300  0.40007900  0.90450600  1
  Cu  Cu22  1  0.10705600  0.06036400  0.79881200  1
  Cu  Cu23  1  0.94507700  0.59992100  0.09549400  1
  Cu  Cu24  1  0.67756000  0.75436300  0.59620300  1
  Cu  Cu25  1  0.62658400  0.59679000  0.41717100  1
  Cu  Cu26  1  0.57967400  0.56249800  0.17070400  1
  Cu  Cu27  1  0.89230100  0.29609900  0.13264700  1
  Cu  Cu28  1  0.50281400  0.67493300  0.96189800  1
  Cu  Cu29  1  0.65539700  0.24617600  0.47016900  1
  Cu  Cu30  1  0.32244000  0.24563700  0.40379700  1
  Cu  Cu31  1  0.37341600  0.40321000  0.58282900  1
  Cu  Cu32  1  0.94417200  0.78944400  0.40389700  1
  Cu  Cu33  1  0.79128500  0.62439600  0.83227800  1
  Cu  Cu34  1  0.22012700  0.91679600  0.29942900  1
  Cu  Cu35  1  0.05076500  0.90285200  0.61406700  1
  Cu  Cu36  1  0.34460300  0.75382400  0.52983100  1
  Cu  Cu37  1  0.44179300  0.08814000  0.60224900  1
  Cu  Cu38  1  0.74380600  0.26198500  0.88323000  1
  Cu  Cu39  1  0.55820700  0.91186000  0.39775100  1
  Cu  Cu40  1  0.25619400  0.73801500  0.11677000  1
  Cu  Cu41  1  0.56380000  0.86948900  0.12447200  1
  Cu  Cu42  1  0.10769900  0.70390100  0.86735300  1
  Cu  Cu43  1  0.94923500  0.09714800  0.38593300  1
  Cu  Cu44  1  0.49718600  0.32506700  0.03810200  1
  Cu  Cu45  1  0.77987300  0.08320400  0.70057100  1
  Cu  Cu46  1  0.43620000  0.13051100  0.87552800  1
  Cu  Cu47  1  0.89294400  0.93963600  0.20118800  1
  Cu  Cu48  1  0.92433100  0.47509000  0.30713100  1
  Cu  Cu49  1  0.05582800  0.21055600  0.59610300  1
  Cu  Cu50  1  0.20871500  0.37560400  0.16772200  1
  Cu  Cu51  1  0.42032600  0.43750200  0.82929600  1
