# generated using pymatgen
data_Cu(NiC3)2
_symmetry_space_group_name_H-M   'P 1'
_cell_length_a   10.25693816
_cell_length_b   10.25693816
_cell_length_c   10.25693816
_cell_angle_alpha   149.18697094
_cell_angle_beta   149.18697094
_cell_angle_gamma   44.13616692
_symmetry_Int_Tables_number   1
_chemical_formula_structural   Cu(NiC3)2
_chemical_formula_sum   'Cu2 Ni4 C12'
_cell_volume   282.31976626
_cell_formula_units_Z   2
loop_
 _symmetry_equiv_pos_site_id
 _symmetry_equiv_pos_as_xyz
  1  'x, y, z'
loop_
 _atom_site_type_symbol
 _atom_site_label
 _atom_site_symmetry_multiplicity
 _atom_site_fract_x
 _atom_site_fract_y
 _atom_site_fract_z
 _atom_site_occupancy
  C  C0  1  0.75000000  0.25000000  0.50000000  1
  C  C1  1  0.25000000  0.75000000  0.50000000  1
  Ni  Ni2  1  0.87153300  0.87153300  0.00000000  1
  Ni  Ni3  1  0.39360000  0.39360000  0.00000000  1
  Ni  Ni4  1  0.12846700  0.12846700  0.00000000  1
  Ni  Ni5  1  0.60640000  0.60640000  0.00000000  1
  Cu  Cu6  1  0.50000000  0.00000000  0.50000000  1
  Cu  Cu7  1  0.00000000  0.50000000  0.50000000  1
  C  C8  1  0.57550000  0.10857200  0.00000000  1
  C  C9  1  0.10857200  0.10857200  0.53307300  1
  C  C10  1  0.89142800  0.89142800  0.46692700  1
  C  C11  1  0.76929700  0.76929700  0.00000000  1
  C  C12  1  0.57550000  0.57550000  0.46692700  1
  C  C13  1  0.23070300  0.23070300  0.00000000  1
  C  C14  1  0.42450000  0.89142800  0.00000000  1
  C  C15  1  0.42450000  0.42450000  0.53307300  1
  C  C16  1  0.89142800  0.42450000  0.00000000  1
  C  C17  1  0.10857200  0.57550000  0.00000000  1
