# generated using pymatgen
data_Cu4Ni12C
_symmetry_space_group_name_H-M   'P 1'
_cell_length_a   8.15813770
_cell_length_b   8.15813770
_cell_length_c   8.15813770
_cell_angle_alpha   109.47122063
_cell_angle_beta   109.47122063
_cell_angle_gamma   109.47122063
_symmetry_Int_Tables_number   1
_chemical_formula_structural   Cu4Ni12C
_chemical_formula_sum   'Cu4 Ni12 C1'
_cell_volume   417.97586415
_cell_formula_units_Z   1
loop_
 _symmetry_equiv_pos_site_id
 _symmetry_equiv_pos_as_xyz
  1  'x, y, z'
loop_
 _atom_site_type_symbol
 _atom_site_label
 _atom_site_symmetry_multiplicity
 _atom_site_fract_x
 _atom_site_fract_y
 _atom_site_fract_z
 _atom_site_occupancy
  C  C0  1  0.00000000  0.00000000  0.00000000  1
  Ni  Ni1  1  0.33831800  0.18175100  0.84343300  1
  Ni  Ni2  1  0.66168200  0.81824900  0.15656700  1
  Ni  Ni3  1  0.66168200  0.50511400  0.84343300  1
  Ni  Ni4  1  0.33831800  0.49488600  0.15656700  1
  Ni  Ni5  1  0.18175100  0.84343300  0.33831800  1
  Ni  Ni6  1  0.81824900  0.15656700  0.66168200  1
  Ni  Ni7  1  0.50511400  0.84343300  0.66168200  1
  Ni  Ni8  1  0.49488600  0.15656700  0.33831800  1
  Ni  Ni9  1  0.84343300  0.33831800  0.18175100  1
  Ni  Ni10  1  0.15656700  0.66168200  0.81824900  1
  Ni  Ni11  1  0.84343300  0.66168200  0.50511400  1
  Ni  Ni12  1  0.15656700  0.33831800  0.49488600  1
  Cu  Cu13  1  0.00000000  0.00000000  0.50000000  1
  Cu  Cu14  1  0.50000000  0.00000000  0.00000000  1
  Cu  Cu15  1  0.00000000  0.50000000  0.00000000  1
  Cu  Cu16  1  0.50000000  0.50000000  0.50000000  1
