# generated using pymatgen
data_Cu4Ni2C11
_symmetry_space_group_name_H-M   'P 1'
_cell_length_a   6.85598200
_cell_length_b   7.03602732
_cell_length_c   9.90353677
_cell_angle_alpha   96.01316063
_cell_angle_beta   108.93319555
_cell_angle_gamma   101.62707052
_symmetry_Int_Tables_number   1
_chemical_formula_structural   Cu4Ni2C11
_chemical_formula_sum   'Cu8 Ni4 C22'
_cell_volume   435.08793678
_cell_formula_units_Z   2
loop_
 _symmetry_equiv_pos_site_id
 _symmetry_equiv_pos_as_xyz
  1  'x, y, z'
loop_
 _atom_site_type_symbol
 _atom_site_label
 _atom_site_symmetry_multiplicity
 _atom_site_fract_x
 _atom_site_fract_y
 _atom_site_fract_z
 _atom_site_occupancy
  C  C0  1  0.03413100  0.84950400  0.16556200  1
  C  C1  1  0.96586900  0.15049600  0.83443800  1
  Ni  Ni2  1  0.73246600  0.64244100  0.66394700  1
  Ni  Ni3  1  0.26753400  0.35755900  0.33605300  1
  Ni  Ni4  1  0.69595400  0.01717900  0.39928700  1
  Ni  Ni5  1  0.30404600  0.98282100  0.60071300  1
  Cu  Cu6  1  0.39909500  0.20456700  0.07491900  1
  Cu  Cu7  1  0.60090500  0.79543300  0.92508100  1
  Cu  Cu8  1  0.84763600  0.60966300  0.36797000  1
  Cu  Cu9  1  0.15236400  0.39033700  0.63203000  1
  Cu  Cu10  1  0.41087900  0.74671700  0.09303500  1
  Cu  Cu11  1  0.19906400  0.69707100  0.82255900  1
  Cu  Cu12  1  0.80093600  0.30292900  0.17744100  1
  Cu  Cu13  1  0.58912100  0.25328300  0.90696500  1
  C  C14  1  0.07546700  0.18532300  0.60534900  1
  C  C15  1  0.64058600  0.89679400  0.58677000  1
  C  C16  1  0.60190000  0.77387100  0.06498600  1
  C  C17  1  0.41136200  0.77501800  0.81470200  1
  C  C18  1  0.58863800  0.22498200  0.18529800  1
  C  C19  1  0.35941400  0.10320600  0.41323000  1
  C  C20  1  0.21146200  0.16557700  0.09547900  1
  C  C21  1  0.78170300  0.29604600  0.02049400  1
  C  C22  1  0.21829700  0.70395400  0.97950600  1
  C  C23  1  0.74205500  0.51239400  0.44628800  1
  C  C24  1  0.88903200  0.51481400  0.25113100  1
  C  C25  1  0.93837500  0.18318900  0.25122100  1
  C  C26  1  0.58168200  0.22768800  0.76668500  1
  C  C27  1  0.78853800  0.83442300  0.90452100  1
  C  C28  1  0.11096800  0.48518600  0.74886900  1
  C  C29  1  0.25794500  0.48760600  0.55371200  1
  C  C30  1  0.06162500  0.81681100  0.74877900  1
  C  C31  1  0.92453300  0.81467700  0.39465100  1
  C  C32  1  0.41831800  0.77231200  0.23331500  1
  C  C33  1  0.39810000  0.22612900  0.93501400  1
