# generated using pymatgen
data_Cu4NiC2
_symmetry_space_group_name_H-M   'P 1'
_cell_length_a   6.90167200
_cell_length_b   9.09494400
_cell_length_c   12.59050400
_cell_angle_alpha   90.00000000
_cell_angle_beta   90.00000000
_cell_angle_gamma   90.00000000
_symmetry_Int_Tables_number   1
_chemical_formula_structural   Cu4NiC2
_chemical_formula_sum   'Cu16 Ni4 C8'
_cell_volume   790.30996940
_cell_formula_units_Z   4
loop_
 _symmetry_equiv_pos_site_id
 _symmetry_equiv_pos_as_xyz
  1  'x, y, z'
loop_
 _atom_site_type_symbol
 _atom_site_label
 _atom_site_symmetry_multiplicity
 _atom_site_fract_x
 _atom_site_fract_y
 _atom_site_fract_z
 _atom_site_occupancy
  C  C0  1  0.75000000  0.87330800  0.08053700  1
  C  C1  1  0.25000000  0.12669200  0.91946300  1
  C  C2  1  0.75000000  0.37330800  0.41946300  1
  C  C3  1  0.25000000  0.62669200  0.58053700  1
  C  C4  1  0.75000000  0.52137400  0.83076300  1
  C  C5  1  0.25000000  0.47862600  0.16923700  1
  C  C6  1  0.75000000  0.02137400  0.66923700  1
  C  C7  1  0.25000000  0.97862600  0.33076300  1
  Ni  Ni8  1  0.75000000  0.27105400  0.07179400  1
  Ni  Ni9  1  0.25000000  0.72894600  0.92820600  1
  Ni  Ni10  1  0.75000000  0.77105400  0.42820600  1
  Ni  Ni11  1  0.25000000  0.22894600  0.57179400  1
  Cu  Cu12  1  0.75000000  0.51296800  0.09446200  1
  Cu  Cu13  1  0.25000000  0.48703200  0.90553800  1
  Cu  Cu14  1  0.75000000  0.01296800  0.40553800  1
  Cu  Cu15  1  0.25000000  0.98703200  0.59446200  1
  Cu  Cu16  1  0.75000000  0.19266900  0.90321000  1
  Cu  Cu17  1  0.25000000  0.80733100  0.09679000  1
  Cu  Cu18  1  0.75000000  0.69266900  0.59679000  1
  Cu  Cu19  1  0.25000000  0.30733100  0.40321000  1
  Cu  Cu20  1  0.48594200  0.17088000  0.14056900  1
  Cu  Cu21  1  0.98594200  0.82912000  0.85943100  1
  Cu  Cu22  1  0.01405800  0.67088000  0.35943100  1
  Cu  Cu23  1  0.51405800  0.32912000  0.64056900  1
  Cu  Cu24  1  0.51405800  0.82912000  0.85943100  1
  Cu  Cu25  1  0.01405800  0.17088000  0.14056900  1
  Cu  Cu26  1  0.98594200  0.32912000  0.64056900  1
  Cu  Cu27  1  0.48594200  0.67088000  0.35943100  1
