# generated using pymatgen
data_CuNi4C17
_symmetry_space_group_name_H-M   'P 1'
_cell_length_a   7.90845500
_cell_length_b   6.08387800
_cell_length_c   9.62135728
_cell_angle_alpha   75.99855152
_cell_angle_beta   90.00000000
_cell_angle_gamma   90.00000000
_symmetry_Int_Tables_number   1
_chemical_formula_structural   CuNi4C17
_chemical_formula_sum   'Cu2 Ni8 C34'
_cell_volume   449.16909513
_cell_formula_units_Z   2
loop_
 _symmetry_equiv_pos_site_id
 _symmetry_equiv_pos_as_xyz
  1  'x, y, z'
loop_
 _atom_site_type_symbol
 _atom_site_label
 _atom_site_symmetry_multiplicity
 _atom_site_fract_x
 _atom_site_fract_y
 _atom_site_fract_z
 _atom_site_occupancy
  C  C0  1  0.25000000  0.94267200  0.76415600  1
  C  C1  1  0.75000000  0.05732800  0.23584400  1
  C  C2  1  0.75000000  0.64070700  0.96307000  1
  C  C3  1  0.98280200  0.50781300  0.20949300  1
  C  C4  1  0.86404900  0.81692800  0.81550200  1
  C  C5  1  0.91089700  0.25223400  0.75384300  1
  C  C6  1  0.25000000  0.35929300  0.03693000  1
  C  C7  1  0.10262300  0.69483700  0.07048100  1
  C  C8  1  0.51719800  0.50781300  0.20949300  1
  C  C9  1  0.86460000  0.73823700  0.58835300  1
  C  C10  1  0.41089700  0.74776600  0.24615700  1
  C  C11  1  0.08910300  0.74776600  0.24615700  1
  C  C12  1  0.13540000  0.26176300  0.41164700  1
  C  C13  1  0.60262300  0.30516300  0.92951900  1
  C  C14  1  0.48280200  0.49218700  0.79050700  1
  C  C15  1  0.36404900  0.18307200  0.18449800  1
  C  C16  1  0.13595100  0.18307200  0.18449800  1
  C  C17  1  0.89737700  0.30516300  0.92951900  1
  C  C18  1  0.63595100  0.81692800  0.81550200  1
  C  C19  1  0.36460000  0.26176300  0.41164700  1
  C  C20  1  0.63540000  0.73823700  0.58835300  1
  C  C21  1  0.01719800  0.49218700  0.79050700  1
  C  C22  1  0.39737700  0.69483700  0.07048100  1
  C  C23  1  0.58910300  0.25223400  0.75384300  1
  Ni  Ni24  1  0.40589600  0.61746700  0.18546400  1
  Ni  Ni25  1  0.75000000  0.71506000  0.84757600  1
  Ni  Ni26  1  0.75000000  0.63551400  0.61346900  1
  Ni  Ni27  1  0.90589600  0.38253300  0.81453600  1
  Ni  Ni28  1  0.25000000  0.28494000  0.15242400  1
  Ni  Ni29  1  0.09410400  0.61746700  0.18546400  1
  Ni  Ni30  1  0.59410400  0.38253300  0.81453600  1
  Ni  Ni31  1  0.25000000  0.36448600  0.38653100  1
  C  C32  1  0.75000000  0.41984900  0.49465100  1
  C  C33  1  0.25000000  0.58015100  0.50534900  1
  Cu  Cu34  1  0.25000000  0.47554800  0.22789800  1
  Cu  Cu35  1  0.75000000  0.52445200  0.77210200  1
  C  C36  1  0.25000000  0.08250300  0.86183700  1
  C  C37  1  0.39691800  0.98274100  0.67683900  1
  C  C38  1  0.25000000  0.71008100  0.84277000  1
  C  C39  1  0.75000000  0.28991900  0.15723000  1
  C  C40  1  0.75000000  0.91749700  0.13816300  1
  C  C41  1  0.60308200  0.01725900  0.32316100  1
  C  C42  1  0.89691800  0.01725900  0.32316100  1
  C  C43  1  0.10308200  0.98274100  0.67683900  1
