# generated using pymatgen
data_CuNiC5
_symmetry_space_group_name_H-M   'P 1'
_cell_length_a   5.15050800
_cell_length_b   6.66386100
_cell_length_c   12.95491700
_cell_angle_alpha   90.00000000
_cell_angle_beta   90.00000000
_cell_angle_gamma   90.00000000
_symmetry_Int_Tables_number   1
_chemical_formula_structural   CuNiC5
_chemical_formula_sum   'Cu4 Ni4 C20'
_cell_volume   444.64215122
_cell_formula_units_Z   4
loop_
 _symmetry_equiv_pos_site_id
 _symmetry_equiv_pos_as_xyz
  1  'x, y, z'
loop_
 _atom_site_type_symbol
 _atom_site_label
 _atom_site_symmetry_multiplicity
 _atom_site_fract_x
 _atom_site_fract_y
 _atom_site_fract_z
 _atom_site_occupancy
  C  C0  1  0.25000000  0.76332800  0.53246800  1
  C  C1  1  0.75000000  0.23667200  0.46753200  1
  C  C2  1  0.25000000  0.35373400  0.24816300  1
  C  C3  1  0.75000000  0.73667200  0.03246800  1
  C  C4  1  0.75000000  0.14626600  0.74816300  1
  C  C5  1  0.25000000  0.85373400  0.25183700  1
  C  C6  1  0.25000000  0.26332800  0.96753200  1
  C  C7  1  0.75000000  0.64626600  0.75183700  1
  Ni  Ni8  1  0.75000000  0.14223500  0.14700200  1
  Ni  Ni9  1  0.25000000  0.85776500  0.85299800  1
  Ni  Ni10  1  0.75000000  0.64223500  0.35299800  1
  Ni  Ni11  1  0.25000000  0.35776500  0.64700200  1
  Cu  Cu12  1  0.75000000  0.39648100  0.90854500  1
  Cu  Cu13  1  0.75000000  0.89648100  0.59145500  1
  Cu  Cu14  1  0.25000000  0.10351900  0.40854500  1
  Cu  Cu15  1  0.25000000  0.60351900  0.09145500  1
  C  C16  1  0.75000000  0.79091200  0.29218700  1
  C  C17  1  0.46319100  0.93404300  0.88365200  1
  C  C18  1  0.03680900  0.43404300  0.61634800  1
  C  C19  1  0.25000000  0.70908800  0.79218700  1
  C  C20  1  0.53680900  0.56595700  0.38365200  1
  C  C21  1  0.96319100  0.06595700  0.11634800  1
  C  C22  1  0.03680900  0.93404300  0.88365200  1
  C  C23  1  0.25000000  0.20908800  0.70781300  1
  C  C24  1  0.53680900  0.06595700  0.11634800  1
  C  C25  1  0.46319100  0.43404300  0.61634800  1
  C  C26  1  0.75000000  0.29091200  0.20781300  1
  C  C27  1  0.96319100  0.56595700  0.38365200  1
