# generated using pymatgen
data_Cu5NiC
_symmetry_space_group_name_H-M   'P 1'
_cell_length_a   5.31646000
_cell_length_b   11.10796900
_cell_length_c   26.41427500
_cell_angle_alpha   90.00000000
_cell_angle_beta   90.00000000
_cell_angle_gamma   90.00000000
_symmetry_Int_Tables_number   1
_chemical_formula_structural   Cu5NiC
_chemical_formula_sum   'Cu80 Ni16 C16'
_cell_volume   1559.89693493
_cell_formula_units_Z   16
loop_
 _symmetry_equiv_pos_site_id
 _symmetry_equiv_pos_as_xyz
  1  'x, y, z'
loop_
 _atom_site_type_symbol
 _atom_site_label
 _atom_site_symmetry_multiplicity
 _atom_site_fract_x
 _atom_site_fract_y
 _atom_site_fract_z
 _atom_site_occupancy
  C  C0  1  0.00000000  0.05590000  0.15307100  1
  C  C1  1  0.50000000  0.17029600  0.97982100  1
  C  C2  1  0.00000000  0.56363600  0.10047400  1
  C  C3  1  0.50000000  0.17323500  0.72753700  1
  C  C4  1  0.50000000  0.68699400  0.77246000  1
  C  C5  1  0.50000000  0.18699400  0.22754000  1
  C  C6  1  0.00000000  0.55590000  0.84692900  1
  C  C7  1  0.50000000  0.18800400  0.47080100  1
  C  C8  1  0.00000000  0.07658800  0.64410700  1
  C  C9  1  0.50000000  0.67323500  0.27246300  1
  C  C10  1  0.00000000  0.06511900  0.39483100  1
  C  C11  1  0.00000000  0.57658800  0.35589300  1
  C  C12  1  0.00000000  0.06363600  0.89952600  1
  C  C13  1  0.50000000  0.68800400  0.52919900  1
  C  C14  1  0.50000000  0.67029600  0.02017900  1
  C  C15  1  0.00000000  0.56511900  0.60516900  1
  Ni  Ni16  1  0.00000000  0.76993400  0.94127300  1
  Ni  Ni17  1  0.00000000  0.78968500  0.69671600  1
  Ni  Ni18  1  0.00000000  0.26993400  0.05872700  1
  Ni  Ni19  1  0.00000000  0.78657900  0.44758800  1
  Ni  Ni20  1  0.00000000  0.76607300  0.19185300  1
  Ni  Ni21  1  0.50000000  0.45377800  0.92611700  1
  Ni  Ni22  1  0.50000000  0.96271600  0.31950700  1
  Ni  Ni23  1  0.50000000  0.98448300  0.56323500  1
  Ni  Ni24  1  0.00000000  0.28657900  0.55241200  1
  Ni  Ni25  1  0.50000000  0.48448300  0.43676500  1
  Ni  Ni26  1  0.50000000  0.96892800  0.81878300  1
  Ni  Ni27  1  0.50000000  0.95377800  0.07388300  1
  Ni  Ni28  1  0.00000000  0.26607300  0.80814700  1
  Ni  Ni29  1  0.00000000  0.28968500  0.30328400  1
  Ni  Ni30  1  0.50000000  0.46271600  0.68049300  1
  Ni  Ni31  1  0.50000000  0.46892800  0.18121700  1
  Cu  Cu32  1  0.00000000  0.68638600  0.66065000  1
  Cu  Cu33  1  0.50000000  0.83481900  0.81553100  1
  Cu  Cu34  1  0.75052300  0.60962800  0.05840000  1
  Cu  Cu35  1  0.77042700  0.75313900  0.47509700  1
  Cu  Cu36  1  0.75052300  0.10962800  0.94160000  1
  Cu  Cu37  1  0.27046500  0.50721400  0.15506000  1
  Cu  Cu38  1  0.00000000  0.41968100  0.56024900  1
  Cu  Cu39  1  0.50000000  0.01714500  0.76593000  1
  Cu  Cu40  1  0.50000000  0.35129600  0.44175800  1
  Cu  Cu41  1  0.72978400  0.02079900  0.58966800  1
  Cu  Cu42  1  0.24993300  0.11777200  0.19156500  1
  Cu  Cu43  1  0.72954500  0.97410300  0.10345400  1
  Cu  Cu44  1  0.77006900  0.25089800  0.02929200  1
  Cu  Cu45  1  0.00000000  0.89549300  0.92229800  1
  Cu  Cu46  1  0.50000000  0.56376100  0.71768400  1
  Cu  Cu47  1  0.50000000  0.82686100  0.05609000  1
  Cu  Cu48  1  0.72978400  0.52079900  0.41033200  1
  Cu  Cu49  1  0.75006700  0.61777200  0.80843500  1
  Cu  Cu50  1  0.00000000  0.72066100  0.13859600  1
  Cu  Cu51  1  0.00000000  0.22996800  0.60376800  1
  Cu  Cu52  1  0.77062400  0.22655700  0.78238700  1
  Cu  Cu53  1  0.75006700  0.11777200  0.19156500  1
  Cu  Cu54  1  0.72995500  0.96785500  0.35025300  1
  Cu  Cu55  1  0.22937600  0.22655700  0.78238700  1
  Cu  Cu56  1  0.00000000  0.90334800  0.66667300  1
  Cu  Cu57  1  0.50000000  0.34775200  0.70939500  1
  Cu  Cu58  1  0.50000000  0.33481900  0.18446900  1
  Cu  Cu59  1  0.50000000  0.51714500  0.23407000  1
  Cu  Cu60  1  0.77062400  0.72655700  0.21761300  1
  Cu  Cu61  1  0.50000000  0.03206700  0.02809100  1
  Cu  Cu62  1  0.50000000  0.06376100  0.28231600  1
  Cu  Cu63  1  0.72953500  0.50721400  0.15506000  1
  Cu  Cu64  1  0.27021600  0.52079900  0.41033200  1
  Cu  Cu65  1  0.22957300  0.75313900  0.47509700  1
  Cu  Cu66  1  0.22993100  0.25089800  0.02929200  1
  Cu  Cu67  1  0.77019100  0.78541200  0.72758300  1
  Cu  Cu68  1  0.00000000  0.40019800  0.81028700  1
  Cu  Cu69  1  0.25014800  0.12649300  0.68541700  1
  Cu  Cu70  1  0.72954500  0.47410300  0.89654600  1
  Cu  Cu71  1  0.27021600  0.02079900  0.58966800  1
  Cu  Cu72  1  0.50000000  0.03528800  0.51094900  1
  Cu  Cu73  1  0.72953500  0.00721400  0.84494000  1
  Cu  Cu74  1  0.00000000  0.39549300  0.07770200  1
  Cu  Cu75  1  0.77042700  0.25313900  0.52490300  1
  Cu  Cu76  1  0.00000000  0.69056600  0.89590400  1
  Cu  Cu77  1  0.00000000  0.40334800  0.33332700  1
  Cu  Cu78  1  0.00000000  0.90019800  0.18971300  1
  Cu  Cu79  1  0.24993300  0.61777200  0.80843500  1
  Cu  Cu80  1  0.74985200  0.62649300  0.31458300  1
  Cu  Cu81  1  0.50000000  0.84775200  0.29060500  1
  Cu  Cu82  1  0.50000000  0.85129600  0.55824200  1
  Cu  Cu83  1  0.22980900  0.78541200  0.72758300  1
  Cu  Cu84  1  0.50000000  0.32686100  0.94391000  1
  Cu  Cu85  1  0.22937600  0.72655700  0.21761300  1
  Cu  Cu86  1  0.77006900  0.75089800  0.97070800  1
  Cu  Cu87  1  0.22993100  0.75089800  0.97070800  1
  Cu  Cu88  1  0.24947700  0.60962800  0.05840000  1
  Cu  Cu89  1  0.00000000  0.72996800  0.39623200  1
  Cu  Cu90  1  0.25022300  0.13646200  0.42989400  1
  Cu  Cu91  1  0.00000000  0.18638600  0.33935000  1
  Cu  Cu92  1  0.24947700  0.10962800  0.94160000  1
  Cu  Cu93  1  0.00000000  0.19056600  0.10409600  1
  Cu  Cu94  1  0.00000000  0.22066100  0.86140400  1
  Cu  Cu95  1  0.22980900  0.28541200  0.27241700  1
  Cu  Cu96  1  0.27045500  0.47410300  0.89654600  1
  Cu  Cu97  1  0.72995500  0.46785500  0.64974700  1
  Cu  Cu98  1  0.74977700  0.63646200  0.57010600  1
  Cu  Cu99  1  0.74985200  0.12649300  0.68541700  1
  Cu  Cu100  1  0.00000000  0.91968100  0.43975100  1
  Cu  Cu101  1  0.27046500  0.00721400  0.84494000  1
  Cu  Cu102  1  0.22957300  0.25313900  0.52490300  1
  Cu  Cu103  1  0.74977700  0.13646200  0.42989400  1
  Cu  Cu104  1  0.27045500  0.97410300  0.10345400  1
  Cu  Cu105  1  0.25022300  0.63646200  0.57010600  1
  Cu  Cu106  1  0.77019100  0.28541200  0.27241700  1
  Cu  Cu107  1  0.27004500  0.46785500  0.64974700  1
  Cu  Cu108  1  0.27004500  0.96785500  0.35025300  1
  Cu  Cu109  1  0.25014800  0.62649300  0.31458300  1
  Cu  Cu110  1  0.50000000  0.53206700  0.97190900  1
  Cu  Cu111  1  0.50000000  0.53528800  0.48905100  1
