# generated using pymatgen
data_Cu4NiC3
_symmetry_space_group_name_H-M   'P 1'
_cell_length_a   6.48227047
_cell_length_b   6.48227047
_cell_length_c   11.91130500
_cell_angle_alpha   90.00000000
_cell_angle_beta   90.00000000
_cell_angle_gamma   142.39037159
_symmetry_Int_Tables_number   1
_chemical_formula_structural   Cu4NiC3
_chemical_formula_sum   'Cu8 Ni2 C6'
_cell_volume   305.45101146
_cell_formula_units_Z   2
loop_
 _symmetry_equiv_pos_site_id
 _symmetry_equiv_pos_as_xyz
  1  'x, y, z'
loop_
 _atom_site_type_symbol
 _atom_site_label
 _atom_site_symmetry_multiplicity
 _atom_site_fract_x
 _atom_site_fract_y
 _atom_site_fract_z
 _atom_site_occupancy
  C  C0  1  0.82118100  0.17881900  0.40062600  1
  C  C1  1  0.17881900  0.82118100  0.59937400  1
  C  C2  1  0.17881900  0.82118100  0.90062600  1
  C  C3  1  0.82118100  0.17881900  0.09937400  1
  C  C4  1  0.87906100  0.12093900  0.75000000  1
  C  C5  1  0.12093900  0.87906100  0.25000000  1
  Ni  Ni6  1  0.50000000  0.50000000  0.00000000  1
  Ni  Ni7  1  0.50000000  0.50000000  0.50000000  1
  Cu  Cu8  1  0.30416900  0.69583100  0.75000000  1
  Cu  Cu9  1  0.69583100  0.30416900  0.25000000  1
  Cu  Cu10  1  0.06720700  0.93279300  0.75000000  1
  Cu  Cu11  1  0.93279300  0.06720700  0.25000000  1
  Cu  Cu12  1  0.76632800  0.23367200  0.91238600  1
  Cu  Cu13  1  0.23367200  0.76632800  0.08761400  1
  Cu  Cu14  1  0.23367200  0.76632800  0.41238600  1
  Cu  Cu15  1  0.76632800  0.23367200  0.58761400  1
