# generated using pymatgen
data_Cu3NiC3
_symmetry_space_group_name_H-M   'P 1'
_cell_length_a   10.84879500
_cell_length_b   10.84879500
_cell_length_c   10.84879500
_cell_angle_alpha   90.00000000
_cell_angle_beta   90.00000000
_cell_angle_gamma   90.00000000
_symmetry_Int_Tables_number   1
_chemical_formula_structural   Cu3NiC3
_chemical_formula_sum   'Cu12 Ni4 C12'
_cell_volume   1276.86360542
_cell_formula_units_Z   4
loop_
 _symmetry_equiv_pos_site_id
 _symmetry_equiv_pos_as_xyz
  1  'x, y, z'
loop_
 _atom_site_type_symbol
 _atom_site_label
 _atom_site_symmetry_multiplicity
 _atom_site_fract_x
 _atom_site_fract_y
 _atom_site_fract_z
 _atom_site_occupancy
  C  C0  1  0.18035100  0.68035100  0.81964900  1
  C  C1  1  0.31153700  0.68846300  0.18846300  1
  C  C2  1  0.93008200  0.43008200  0.06991800  1
  C  C3  1  0.81153700  0.81153700  0.81153700  1
  C  C4  1  0.43008200  0.06991800  0.93008200  1
  C  C5  1  0.68035100  0.81964900  0.18035100  1
  C  C6  1  0.56991800  0.56991800  0.56991800  1
  C  C7  1  0.81964900  0.18035100  0.68035100  1
  C  C8  1  0.68846300  0.18846300  0.31153700  1
  C  C9  1  0.06991800  0.93008200  0.43008200  1
  C  C10  1  0.18846300  0.31153700  0.68846300  1
  C  C11  1  0.31964900  0.31964900  0.31964900  1
  Ni  Ni12  1  0.52820800  0.47179200  0.97179200  1
  Ni  Ni13  1  0.02820800  0.02820800  0.02820800  1
  Ni  Ni14  1  0.97179200  0.52820800  0.47179200  1
  Ni  Ni15  1  0.47179200  0.97179200  0.52820800  1
  Cu  Cu16  1  0.29281000  0.39542600  0.99553700  1
  Cu  Cu17  1  0.79281000  0.10457400  0.00446300  1
  Cu  Cu18  1  0.70719000  0.89542600  0.50446300  1
  Cu  Cu19  1  0.99553700  0.29281000  0.39542600  1
  Cu  Cu20  1  0.89542600  0.50446300  0.70719000  1
  Cu  Cu21  1  0.10457400  0.00446300  0.79281000  1
  Cu  Cu22  1  0.20719000  0.60457400  0.49553700  1
  Cu  Cu23  1  0.39542600  0.99553700  0.29281000  1
  Cu  Cu24  1  0.60457400  0.49553700  0.20719000  1
  Cu  Cu25  1  0.50446300  0.70719000  0.89542600  1
  Cu  Cu26  1  0.00446300  0.79281000  0.10457400  1
  Cu  Cu27  1  0.49553700  0.20719000  0.60457400  1
