# generated using pymatgen
data_Cu2Ni3
_symmetry_space_group_name_H-M   'P 1'
_cell_length_a   5.82337300
_cell_length_b   5.82337300
_cell_length_c   9.37394900
_cell_angle_alpha   90.00000000
_cell_angle_beta   90.00000000
_cell_angle_gamma   90.00000000
_symmetry_Int_Tables_number   1
_chemical_formula_structural   Cu2Ni3
_chemical_formula_sum   'Cu8 Ni12'
_cell_volume   317.88629412
_cell_formula_units_Z   4
loop_
 _symmetry_equiv_pos_site_id
 _symmetry_equiv_pos_as_xyz
  1  'x, y, z'
loop_
 _atom_site_type_symbol
 _atom_site_label
 _atom_site_symmetry_multiplicity
 _atom_site_fract_x
 _atom_site_fract_y
 _atom_site_fract_z
 _atom_site_occupancy
  Ni  Ni0  1  0.21755100  0.35034200  0.08491200  1
  Ni  Ni1  1  0.35034200  0.78244900  0.91508800  1
  Ni  Ni2  1  0.64965800  0.21755100  0.91508800  1
  Ni  Ni3  1  0.78244900  0.64965800  0.08491200  1
  Ni  Ni4  1  0.35034200  0.21755100  0.41508800  1
  Ni  Ni5  1  0.64965800  0.78244900  0.41508800  1
  Ni  Ni6  1  0.78244900  0.35034200  0.58491200  1
  Ni  Ni7  1  0.21755100  0.64965800  0.58491200  1
  Ni  Ni8  1  0.17111600  0.17111600  0.75000000  1
  Ni  Ni9  1  0.17111600  0.82888400  0.25000000  1
  Ni  Ni10  1  0.82888400  0.17111600  0.25000000  1
  Ni  Ni11  1  0.82888400  0.82888400  0.75000000  1
  Cu  Cu12  1  0.00000000  0.50000000  0.37575700  1
  Cu  Cu13  1  0.50000000  0.00000000  0.62424300  1
  Cu  Cu14  1  0.50000000  0.00000000  0.12424300  1
  Cu  Cu15  1  0.00000000  0.50000000  0.87575700  1
  Cu  Cu16  1  0.50000000  0.50000000  0.25000000  1
  Cu  Cu17  1  0.50000000  0.50000000  0.75000000  1
  Cu  Cu18  1  0.00000000  0.00000000  0.00000000  1
  Cu  Cu19  1  0.00000000  0.00000000  0.50000000  1
