# generated using pymatgen
data_Cu35(Ni5C7)2
_symmetry_space_group_name_H-M   'P 1'
_cell_length_a   10.54590333
_cell_length_b   10.54590333
_cell_length_c   15.00515800
_cell_angle_alpha   90.00000000
_cell_angle_beta   90.00000000
_cell_angle_gamma   119.99999582
_symmetry_Int_Tables_number   1
_chemical_formula_structural   Cu35(Ni5C7)2
_chemical_formula_sum   'Cu70 Ni20 C28'
_cell_volume   1445.23607993
_cell_formula_units_Z   2
loop_
 _symmetry_equiv_pos_site_id
 _symmetry_equiv_pos_as_xyz
  1  'x, y, z'
loop_
 _atom_site_type_symbol
 _atom_site_label
 _atom_site_symmetry_multiplicity
 _atom_site_fract_x
 _atom_site_fract_y
 _atom_site_fract_z
 _atom_site_occupancy
  C  C0  1  0.33333300  0.66666700  0.03710800  1
  C  C1  1  0.33333300  0.66666700  0.53710800  1
  C  C2  1  0.66666700  0.33333300  0.46289200  1
  C  C3  1  0.66666700  0.33333300  0.96289200  1
  C  C4  1  0.45688500  0.56688100  0.67595100  1
  C  C5  1  0.81656500  0.56002200  0.33332500  1
  C  C6  1  0.89000400  0.43311900  0.82404900  1
  C  C7  1  0.18343500  0.43997800  0.66667500  1
  C  C8  1  0.43997800  0.25654300  0.33332500  1
  C  C9  1  0.25654300  0.81656500  0.66667500  1
  C  C10  1  0.74345700  0.18343500  0.33332500  1
  C  C11  1  0.56002200  0.81656500  0.16667500  1
  C  C12  1  0.45688500  0.89000400  0.17595100  1
  C  C13  1  0.54311500  0.10999600  0.82404900  1
  C  C14  1  0.25654300  0.43997800  0.16667500  1
  C  C15  1  0.56688100  0.45688500  0.82404900  1
  C  C16  1  0.43997800  0.18343500  0.83332500  1
  C  C17  1  0.43311900  0.54311500  0.17595100  1
  C  C18  1  0.18343500  0.74345700  0.16667500  1
  C  C19  1  0.56688100  0.10999600  0.32404900  1
  C  C20  1  0.56002200  0.74345700  0.66667500  1
  C  C21  1  0.43311900  0.89000400  0.67595100  1
  C  C22  1  0.10999600  0.54311500  0.67595100  1
  C  C23  1  0.54311500  0.43311900  0.32404900  1
  C  C24  1  0.89000400  0.45688500  0.32404900  1
  C  C25  1  0.81656500  0.25654300  0.83332500  1
  C  C26  1  0.10999600  0.56688100  0.17595100  1
  C  C27  1  0.74345700  0.56002200  0.83332500  1
  Ni  Ni28  1  0.68950800  0.68950800  0.25000000  1
  Ni  Ni29  1  0.00000000  0.31049200  0.25000000  1
  Ni  Ni30  1  0.22977600  0.40241700  0.45347200  1
  Ni  Ni31  1  0.77022400  0.17264200  0.04652800  1
  Ni  Ni32  1  0.17264200  0.40241700  0.95347200  1
  Ni  Ni33  1  0.40241700  0.17264200  0.54652800  1
  Ni  Ni34  1  0.31049200  0.00000000  0.25000000  1
  Ni  Ni35  1  0.17264200  0.77022400  0.45347200  1
  Ni  Ni36  1  0.59758300  0.77022400  0.95347200  1
  Ni  Ni37  1  0.77022400  0.59758300  0.54652800  1
  Ni  Ni38  1  0.00000000  0.00000000  0.75000000  1
  Ni  Ni39  1  0.40241700  0.22977600  0.04652800  1
  Ni  Ni40  1  0.22977600  0.82735800  0.95347200  1
  Ni  Ni41  1  0.00000000  0.68950800  0.75000000  1
  Ni  Ni42  1  0.31049200  0.31049200  0.75000000  1
  Ni  Ni43  1  0.82735800  0.22977600  0.54652800  1
  Ni  Ni44  1  0.59758300  0.82735800  0.45347200  1
  Ni  Ni45  1  0.68950800  0.00000000  0.75000000  1
  Ni  Ni46  1  0.00000000  0.00000000  0.25000000  1
  Ni  Ni47  1  0.82735800  0.59758300  0.04652800  1
  Cu  Cu48  1  0.10481300  0.80250100  0.71563900  1
  Cu  Cu49  1  0.80087400  0.49857800  0.57243600  1
  Cu  Cu50  1  0.87339100  0.55742000  0.97775100  1
  Cu  Cu51  1  0.71535100  0.81619200  0.91698800  1
  Cu  Cu52  1  0.80250100  0.69768800  0.28436100  1
  Cu  Cu53  1  0.65273900  0.16856900  0.36388600  1
  Cu  Cu54  1  0.10084100  0.81619200  0.41698800  1
  Cu  Cu55  1  0.48417000  0.65273900  0.63611400  1
  Cu  Cu56  1  0.43179200  0.00000000  0.25000000  1
  Cu  Cu57  1  0.55742000  0.68403000  0.02224900  1
  Cu  Cu58  1  0.30229600  0.80087400  0.42756400  1
  Cu  Cu59  1  0.83143100  0.34726100  0.86388600  1
  Cu  Cu60  1  0.43179200  0.43179200  0.75000000  1
  Cu  Cu61  1  0.51583000  0.16856900  0.86388600  1
  Cu  Cu62  1  0.89518700  0.69768800  0.78436100  1
  Cu  Cu63  1  0.89518700  0.19749900  0.28436100  1
  Cu  Cu64  1  0.30231200  0.10481300  0.28436100  1
  Cu  Cu65  1  0.83143100  0.48417000  0.36388600  1
  Cu  Cu66  1  0.19912600  0.69770400  0.92756400  1
  Cu  Cu67  1  0.80087400  0.30229600  0.07243600  1
  Cu  Cu68  1  0.80250100  0.10481300  0.78436100  1
  Cu  Cu69  1  0.12660900  0.44258000  0.02224900  1
  Cu  Cu70  1  0.89915900  0.18380800  0.58301200  1
  Cu  Cu71  1  0.51583000  0.34726100  0.36388600  1
  Cu  Cu72  1  0.00000000  0.00000000  0.17412800  1
  Cu  Cu73  1  0.69770400  0.19912600  0.57243600  1
  Cu  Cu74  1  0.55742000  0.87339100  0.52224900  1
  Cu  Cu75  1  0.69770400  0.49857800  0.07243600  1
  Cu  Cu76  1  0.89915900  0.71535100  0.08301200  1
  Cu  Cu77  1  0.10481300  0.30231200  0.21563900  1
  Cu  Cu78  1  0.12660900  0.68403000  0.52224900  1
  Cu  Cu79  1  0.34726100  0.51583000  0.13611400  1
  Cu  Cu80  1  0.69768800  0.89518700  0.71563900  1
  Cu  Cu81  1  0.18380800  0.89915900  0.91698800  1
  Cu  Cu82  1  0.50142200  0.19912600  0.07243600  1
  Cu  Cu83  1  0.30229600  0.50142200  0.92756400  1
  Cu  Cu84  1  0.16856900  0.65273900  0.13611400  1
  Cu  Cu85  1  0.31597000  0.44258000  0.52224900  1
  Cu  Cu86  1  0.68403000  0.55742000  0.47775100  1
  Cu  Cu87  1  0.34726100  0.83143100  0.63611400  1
  Cu  Cu88  1  0.81619200  0.10084100  0.08301200  1
  Cu  Cu89  1  0.50142200  0.30229600  0.57243600  1
  Cu  Cu90  1  0.28464900  0.10084100  0.58301200  1
  Cu  Cu91  1  0.44258000  0.12660900  0.47775100  1
  Cu  Cu92  1  0.48417000  0.83143100  0.13611400  1
  Cu  Cu93  1  0.00000000  0.00000000  0.67412800  1
  Cu  Cu94  1  0.49857800  0.69770400  0.42756400  1
  Cu  Cu95  1  0.16856900  0.51583000  0.63611400  1
  Cu  Cu96  1  0.49857800  0.80087400  0.92756400  1
  Cu  Cu97  1  0.00000000  0.56820800  0.75000000  1
  Cu  Cu98  1  0.44258000  0.31597000  0.97775100  1
  Cu  Cu99  1  0.69768800  0.80250100  0.21563900  1
  Cu  Cu100  1  0.87339100  0.31597000  0.47775100  1
  Cu  Cu101  1  0.56820800  0.00000000  0.75000000  1
  Cu  Cu102  1  0.81619200  0.71535100  0.58301200  1
  Cu  Cu103  1  0.10084100  0.28464900  0.91698800  1
  Cu  Cu104  1  0.00000000  0.00000000  0.82587200  1
  Cu  Cu105  1  0.65273900  0.48417000  0.86388600  1
  Cu  Cu106  1  0.19912600  0.50142200  0.42756400  1
  Cu  Cu107  1  0.00000000  0.43179200  0.25000000  1
  Cu  Cu108  1  0.56820800  0.56820800  0.25000000  1
  Cu  Cu109  1  0.18380800  0.28464900  0.41698800  1
  Cu  Cu110  1  0.00000000  0.00000000  0.32587200  1
  Cu  Cu111  1  0.71535100  0.89915900  0.41698800  1
  Cu  Cu112  1  0.19749900  0.89518700  0.21563900  1
  Cu  Cu113  1  0.28464900  0.18380800  0.08301200  1
  Cu  Cu114  1  0.30231200  0.19749900  0.78436100  1
  Cu  Cu115  1  0.19749900  0.30231200  0.71563900  1
  Cu  Cu116  1  0.31597000  0.87339100  0.02224900  1
  Cu  Cu117  1  0.68403000  0.12660900  0.97775100  1
