# generated using pymatgen
data_Cu9Ni3C2
_symmetry_space_group_name_H-M   'P 1'
_cell_length_a   7.40736800
_cell_length_b   7.89768580
_cell_length_c   8.31379000
_cell_angle_alpha   70.35897100
_cell_angle_beta   73.09093869
_cell_angle_gamma   80.82789966
_symmetry_Int_Tables_number   1
_chemical_formula_structural   Cu9Ni3C2
_chemical_formula_sum   'Cu18 Ni6 C4'
_cell_volume   437.23752390
_cell_formula_units_Z   2
loop_
 _symmetry_equiv_pos_site_id
 _symmetry_equiv_pos_as_xyz
  1  'x, y, z'
loop_
 _atom_site_type_symbol
 _atom_site_label
 _atom_site_symmetry_multiplicity
 _atom_site_fract_x
 _atom_site_fract_y
 _atom_site_fract_z
 _atom_site_occupancy
  C  C0  1  0.69291100  0.79003200  0.86436600  1
  C  C1  1  0.30708900  0.20996800  0.13563400  1
  C  C2  1  0.00000000  0.00000000  0.50000000  1
  C  C3  1  0.00000000  0.00000000  0.00000000  1
  Ni  Ni4  1  0.29750600  0.21931900  0.59226900  1
  Ni  Ni5  1  0.70249400  0.78068100  0.40773100  1
  Ni  Ni6  1  0.26567100  0.73202700  0.23701200  1
  Ni  Ni7  1  0.23859400  0.64033300  0.79182200  1
  Ni  Ni8  1  0.76140600  0.35966700  0.20817800  1
  Ni  Ni9  1  0.73432900  0.26797300  0.76298800  1
  Cu  Cu10  1  0.45121500  0.77009800  0.70670000  1
  Cu  Cu11  1  0.47574500  0.29212800  0.82053500  1
  Cu  Cu12  1  0.70514900  0.53786200  0.48821700  1
  Cu  Cu13  1  0.77017300  0.45490100  0.97228700  1
  Cu  Cu14  1  0.22982700  0.54509900  0.02771300  1
  Cu  Cu15  1  0.52425500  0.70787200  0.17946500  1
  Cu  Cu16  1  0.15761600  0.19543500  0.44884900  1
  Cu  Cu17  1  0.84238400  0.80456500  0.55115100  1
  Cu  Cu18  1  0.76223500  0.13959200  0.60331200  1
  Cu  Cu19  1  0.25121800  0.93630300  0.04462000  1
  Cu  Cu20  1  0.23776500  0.86040800  0.39668800  1
  Cu  Cu21  1  0.94541000  0.17405000  0.20571700  1
  Cu  Cu22  1  0.90577900  0.78948100  0.20939800  1
  Cu  Cu23  1  0.09422100  0.21051900  0.79060200  1
  Cu  Cu24  1  0.54878500  0.22990200  0.29330000  1
  Cu  Cu25  1  0.74878200  0.06369700  0.95538000  1
  Cu  Cu26  1  0.05459000  0.82595000  0.79428300  1
  Cu  Cu27  1  0.29485100  0.46213800  0.51178300  1
