# generated using pymatgen
data_Cu8Ni2C27
_symmetry_space_group_name_H-M   'P 1'
_cell_length_a   14.02225512
_cell_length_b   14.02225512
_cell_length_c   11.58472600
_cell_angle_alpha   90.00000000
_cell_angle_beta   90.00000000
_cell_angle_gamma   121.92771610
_symmetry_Int_Tables_number   1
_chemical_formula_structural   Cu8Ni2C27
_chemical_formula_sum   'Cu16 Ni4 C54'
_cell_volume   1933.23151392
_cell_formula_units_Z   2
loop_
 _symmetry_equiv_pos_site_id
 _symmetry_equiv_pos_as_xyz
  1  'x, y, z'
loop_
 _atom_site_type_symbol
 _atom_site_label
 _atom_site_symmetry_multiplicity
 _atom_site_fract_x
 _atom_site_fract_y
 _atom_site_fract_z
 _atom_site_occupancy
  C  C0  1  0.01760900  0.48008600  0.44225700  1
  C  C1  1  0.85300000  0.63524000  0.70289000  1
  C  C2  1  0.51760900  0.98008600  0.05774300  1
  C  C3  1  0.48008600  0.01760900  0.55774300  1
  C  C4  1  0.35300000  0.13524000  0.79711000  1
  C  C5  1  0.63524000  0.85300000  0.29711000  1
  C  C6  1  0.98008600  0.51760900  0.94225700  1
  C  C7  1  0.13524000  0.35300000  0.20289000  1
  C  C8  1  0.05412100  0.93915400  0.42571600  1
  C  C9  1  0.55412100  0.43915400  0.07428400  1
  C  C10  1  0.93915400  0.05412100  0.57428400  1
  C  C11  1  0.43915400  0.55412100  0.92571600  1
  C  C12  1  0.99661200  0.99661200  0.00000000  1
  C  C13  1  0.49661200  0.49661200  0.50000000  1
  Ni  Ni14  1  0.34735700  0.67100100  0.70776100  1
  Ni  Ni15  1  0.17100100  0.84735700  0.20776100  1
  Ni  Ni16  1  0.84735700  0.17100100  0.79223900  1
  Ni  Ni17  1  0.67100100  0.34735700  0.29223900  1
  Cu  Cu18  1  0.81286300  0.70223500  0.10354900  1
  Cu  Cu19  1  0.29667200  0.69139700  0.09407400  1
  Cu  Cu20  1  0.29084700  0.70805400  0.38702100  1
  Cu  Cu21  1  0.68785600  0.78813500  0.60444100  1
  Cu  Cu22  1  0.20223500  0.31286300  0.60354900  1
  Cu  Cu23  1  0.79667200  0.19139700  0.40592600  1
  Cu  Cu24  1  0.19139700  0.79667200  0.59407400  1
  Cu  Cu25  1  0.69139700  0.29667200  0.90592600  1
  Cu  Cu26  1  0.79084700  0.20805400  0.11297900  1
  Cu  Cu27  1  0.28813500  0.18785600  0.10444100  1
  Cu  Cu28  1  0.70805400  0.29084700  0.61297900  1
  Cu  Cu29  1  0.18785600  0.28813500  0.89555900  1
  Cu  Cu30  1  0.78813500  0.68785600  0.39555900  1
  Cu  Cu31  1  0.20805400  0.79084700  0.88702100  1
  Cu  Cu32  1  0.31286300  0.20223500  0.39645100  1
  Cu  Cu33  1  0.70223500  0.81286300  0.89645100  1
  C  C34  1  0.37685600  0.36880800  0.17387400  1
  C  C35  1  0.36880800  0.37685600  0.82612600  1
  C  C36  1  0.13660100  0.85860600  0.75400800  1
  C  C37  1  0.27590500  0.93697900  0.01842600  1
  C  C38  1  0.98247500  0.80241900  0.01786300  1
  C  C39  1  0.62004600  0.85524500  0.74529200  1
  C  C40  1  0.35111500  0.88215300  0.30987200  1
  C  C41  1  0.54274800  0.22798000  0.02007900  1
  C  C42  1  0.63660100  0.35860600  0.74599200  1
  C  C43  1  0.88215300  0.35111500  0.69012800  1
  C  C44  1  0.61601700  0.62584000  0.32321100  1
  C  C45  1  0.30241900  0.48247500  0.51786300  1
  C  C46  1  0.86880800  0.87685600  0.67387400  1
  C  C47  1  0.80241900  0.98247500  0.98213700  1
  C  C48  1  0.22798000  0.54274800  0.97992100  1
  C  C49  1  0.11601700  0.12584000  0.17678900  1
  C  C50  1  0.05227300  0.23447200  0.47936000  1
  C  C51  1  0.65110600  0.12375800  0.83013800  1
  C  C52  1  0.77590500  0.43697900  0.48157400  1
  C  C53  1  0.12375800  0.65110600  0.16986200  1
  C  C54  1  0.23447200  0.05227300  0.52064000  1
  C  C55  1  0.35860600  0.63660100  0.25400800  1
  C  C56  1  0.12004600  0.35524500  0.75470800  1
  C  C57  1  0.04274800  0.72798000  0.47992100  1
  C  C58  1  0.93697900  0.27590500  0.98157400  1
  C  C59  1  0.55227300  0.73447200  0.02064000  1
  C  C60  1  0.48247500  0.30241900  0.48213700  1
  C  C61  1  0.73447200  0.55227300  0.97936000  1
  C  C62  1  0.87685600  0.86880800  0.32612600  1
  C  C63  1  0.62584000  0.61601700  0.67678900  1
  C  C64  1  0.43697900  0.77590500  0.51842600  1
  C  C65  1  0.85524500  0.62004600  0.25470800  1
  C  C66  1  0.85860600  0.13660100  0.24599200  1
  C  C67  1  0.62375800  0.15110600  0.33013800  1
  C  C68  1  0.72798000  0.04274800  0.52007900  1
  C  C69  1  0.38215300  0.85111500  0.80987200  1
  C  C70  1  0.35524500  0.12004600  0.24529200  1
  C  C71  1  0.12584000  0.11601700  0.82321100  1
  C  C72  1  0.85111500  0.38215300  0.19012800  1
  C  C73  1  0.15110600  0.62375800  0.66986200  1
