# generated using pymatgen
data_Cu2Ni3C4
_symmetry_space_group_name_H-M   'P 1'
_cell_length_a   3.94255200
_cell_length_b   12.57416000
_cell_length_c   14.07889100
_cell_angle_alpha   90.00000000
_cell_angle_beta   90.00000000
_cell_angle_gamma   90.00000000
_symmetry_Int_Tables_number   1
_chemical_formula_structural   Cu2Ni3C4
_chemical_formula_sum   'Cu8 Ni12 C16'
_cell_volume   697.95087968
_cell_formula_units_Z   4
loop_
 _symmetry_equiv_pos_site_id
 _symmetry_equiv_pos_as_xyz
  1  'x, y, z'
loop_
 _atom_site_type_symbol
 _atom_site_label
 _atom_site_symmetry_multiplicity
 _atom_site_fract_x
 _atom_site_fract_y
 _atom_site_fract_z
 _atom_site_occupancy
  C  C0  1  0.75000000  0.90428000  0.36816900  1
  C  C1  1  0.25000000  0.38770500  0.70811600  1
  C  C2  1  0.75000000  0.61229500  0.29188400  1
  C  C3  1  0.75000000  0.90036100  0.07750200  1
  C  C4  1  0.25000000  0.09963900  0.92249800  1
  C  C5  1  0.25000000  0.40036100  0.42249800  1
  C  C6  1  0.25000000  0.09572000  0.63183100  1
  C  C7  1  0.75000000  0.59963900  0.57750200  1
  C  C8  1  0.75000000  0.59572000  0.86816900  1
  C  C9  1  0.25000000  0.11229500  0.20811600  1
  C  C10  1  0.75000000  0.88770500  0.79188400  1
  C  C11  1  0.25000000  0.40428000  0.13183100  1
  C  C12  1  0.75000000  0.17170400  0.41448500  1
  C  C13  1  0.25000000  0.67170400  0.08551500  1
  C  C14  1  0.25000000  0.82829600  0.58551500  1
  C  C15  1  0.75000000  0.32829600  0.91448500  1
  Ni  Ni16  1  0.25000000  0.78811500  0.21837200  1
  Ni  Ni17  1  0.75000000  0.56772400  0.08701200  1
  Ni  Ni18  1  0.25000000  0.71188500  0.71837200  1
  Ni  Ni19  1  0.25000000  0.43227600  0.91298800  1
  Ni  Ni20  1  0.75000000  0.93227600  0.58701200  1
  Ni  Ni21  1  0.75000000  0.23598700  0.05578000  1
  Ni  Ni22  1  0.25000000  0.73598700  0.44422000  1
  Ni  Ni23  1  0.75000000  0.26401300  0.55578000  1
  Ni  Ni24  1  0.75000000  0.21188500  0.78162800  1
  Ni  Ni25  1  0.25000000  0.06772400  0.41298800  1
  Ni  Ni26  1  0.75000000  0.28811500  0.28162800  1
  Ni  Ni27  1  0.25000000  0.76401300  0.94422000  1
  Cu  Cu28  1  0.25000000  0.49328100  0.57346500  1
  Cu  Cu29  1  0.75000000  0.50671900  0.42653500  1
  Cu  Cu30  1  0.75000000  0.49347500  0.72902800  1
  Cu  Cu31  1  0.25000000  0.00671900  0.07346500  1
  Cu  Cu32  1  0.25000000  0.50652500  0.27097200  1
  Cu  Cu33  1  0.75000000  0.99328100  0.92653500  1
  Cu  Cu34  1  0.75000000  0.00652500  0.22902800  1
  Cu  Cu35  1  0.25000000  0.99347500  0.77097200  1
