# generated using pymatgen
data_CuNiC6
_symmetry_space_group_name_H-M   'P 1'
_cell_length_a   5.24551633
_cell_length_b   5.24551633
_cell_length_c   5.39765740
_cell_angle_alpha   60.92810063
_cell_angle_beta   60.92810063
_cell_angle_gamma   59.99999582
_symmetry_Int_Tables_number   1
_chemical_formula_structural   CuNiC6
_chemical_formula_sum   'Cu1 Ni1 C6'
_cell_volume   106.46793127
_cell_formula_units_Z   1
loop_
 _symmetry_equiv_pos_site_id
 _symmetry_equiv_pos_as_xyz
  1  'x, y, z'
loop_
 _atom_site_type_symbol
 _atom_site_label
 _atom_site_symmetry_multiplicity
 _atom_site_fract_x
 _atom_site_fract_y
 _atom_site_fract_z
 _atom_site_occupancy
  Ni  Ni0  1  0.50000000  0.50000000  0.50000000  1
  Cu  Cu1  1  0.00000000  0.00000000  0.00000000  1
  C  C2  1  0.67427000  0.23824100  0.24114600  1
  C  C3  1  0.84634300  0.67427000  0.24114600  1
  C  C4  1  0.76175900  0.15365700  0.75885400  1
  C  C5  1  0.15365700  0.32573000  0.75885400  1
  C  C6  1  0.32573000  0.76175900  0.75885400  1
  C  C7  1  0.23824100  0.84634300  0.24114600  1
