# generated using pymatgen
data_CuNiC12
_symmetry_space_group_name_H-M   'P 1'
_cell_length_a   5.66261214
_cell_length_b   5.66261214
_cell_length_c   18.31749600
_cell_angle_alpha   90.00000000
_cell_angle_beta   90.00000000
_cell_angle_gamma   120.00000158
_symmetry_Int_Tables_number   1
_chemical_formula_structural   CuNiC12
_chemical_formula_sum   'Cu4 Ni4 C48'
_cell_volume   508.66324888
_cell_formula_units_Z   4
loop_
 _symmetry_equiv_pos_site_id
 _symmetry_equiv_pos_as_xyz
  1  'x, y, z'
loop_
 _atom_site_type_symbol
 _atom_site_label
 _atom_site_symmetry_multiplicity
 _atom_site_fract_x
 _atom_site_fract_y
 _atom_site_fract_z
 _atom_site_occupancy
  Ni  Ni0  1  0.00000000  0.00000000  0.15554700  1
  Ni  Ni1  1  0.33333300  0.66666700  0.40541500  1
  Ni  Ni2  1  0.66666700  0.33333300  0.90541500  1
  Ni  Ni3  1  0.00000000  0.00000000  0.65554700  1
  Cu  Cu4  1  0.66666700  0.33333300  0.71808200  1
  Cu  Cu5  1  0.33333300  0.66666700  0.95465900  1
  Cu  Cu6  1  0.66666700  0.33333300  0.45465900  1
  Cu  Cu7  1  0.33333300  0.66666700  0.21808200  1
  C  C8  1  0.16333600  0.83666400  0.81348700  1
  C  C9  1  0.50147300  0.00294700  0.06239500  1
  C  C10  1  0.00294700  0.50147300  0.56239500  1
  C  C11  1  0.83666400  0.67332800  0.31348700  1
  C  C12  1  0.00000000  0.00000000  0.94586500  1
  C  C13  1  0.33333300  0.66666700  0.68711300  1
  C  C14  1  0.83666400  0.16333600  0.31348700  1
  C  C15  1  0.49852700  0.99705300  0.56239500  1
  C  C16  1  0.32667200  0.16333600  0.31348700  1
  C  C17  1  0.99705300  0.49852700  0.06239500  1
  C  C18  1  0.50147300  0.49852700  0.06239500  1
  C  C19  1  0.16333600  0.32667200  0.81348700  1
  C  C20  1  0.00000000  0.00000000  0.44586500  1
  C  C21  1  0.66666700  0.33333300  0.18711300  1
  C  C22  1  0.49852700  0.50147300  0.56239500  1
  C  C23  1  0.67332800  0.83666400  0.81348700  1
  C  C24  1  0.36049900  0.18025000  0.49986000  1
  C  C25  1  0.36814600  0.18407300  0.12144300  1
  C  C26  1  0.18025000  0.36049900  0.99986000  1
  C  C27  1  0.33333300  0.66666700  0.50957900  1
  C  C28  1  0.85257200  0.14742800  0.87456000  1
  C  C29  1  0.33333300  0.66666700  0.12150500  1
  C  C30  1  0.00000000  0.00000000  0.26007800  1
  C  C31  1  0.66666700  0.33333300  0.62150500  1
  C  C32  1  0.50651000  0.01302000  0.25168900  1
  C  C33  1  0.63950100  0.81975000  0.99986000  1
  C  C34  1  0.66666700  0.33333300  0.36685700  1
  C  C35  1  0.18407300  0.36814600  0.62144300  1
  C  C36  1  0.81592700  0.18407300  0.12144300  1
  C  C37  1  0.14742800  0.29485700  0.37456000  1
  C  C38  1  0.18407300  0.81592700  0.62144300  1
  C  C39  1  0.63185400  0.81592700  0.62144300  1
  C  C40  1  0.50651000  0.49349000  0.25168900  1
  C  C41  1  0.81592700  0.63185400  0.12144300  1
  C  C42  1  0.14742800  0.85257200  0.37456000  1
  C  C43  1  0.70514300  0.85257200  0.37456000  1
  C  C44  1  0.29485700  0.14742800  0.87456000  1
  C  C45  1  0.01302000  0.50651000  0.75168900  1
  C  C46  1  0.49349000  0.50651000  0.75168900  1
  C  C47  1  0.81975000  0.63950100  0.49986000  1
  C  C48  1  0.66666700  0.33333300  0.00957900  1
  C  C49  1  0.49349000  0.98698000  0.75168900  1
  C  C50  1  0.81975000  0.18025000  0.49986000  1
  C  C51  1  0.18025000  0.81975000  0.99986000  1
  C  C52  1  0.33333300  0.66666700  0.86685700  1
  C  C53  1  0.98698000  0.49349000  0.25168900  1
  C  C54  1  0.85257200  0.70514300  0.87456000  1
  C  C55  1  0.00000000  0.00000000  0.76007800  1
