# generated using pymatgen
data_Cu12Ni3C2
_symmetry_space_group_name_H-M   'P 1'
_cell_length_a   9.26271177
_cell_length_b   9.26271177
_cell_length_c   9.26271194
_cell_angle_alpha   55.18624893
_cell_angle_beta   55.18624893
_cell_angle_gamma   55.18625506
_symmetry_Int_Tables_number   1
_chemical_formula_structural   Cu12Ni3C2
_chemical_formula_sum   'Cu24 Ni6 C4'
_cell_volume   499.06125162
_cell_formula_units_Z   2
loop_
 _symmetry_equiv_pos_site_id
 _symmetry_equiv_pos_as_xyz
  1  'x, y, z'
loop_
 _atom_site_type_symbol
 _atom_site_label
 _atom_site_symmetry_multiplicity
 _atom_site_fract_x
 _atom_site_fract_y
 _atom_site_fract_z
 _atom_site_occupancy
  C  C0  1  0.85544200  0.85544200  0.85544200  1
  C  C1  1  0.14455800  0.14455800  0.14455800  1
  C  C2  1  0.65130700  0.65130700  0.65130700  1
  C  C3  1  0.34869300  0.34869300  0.34869300  1
  Ni  Ni4  1  0.54368700  0.24880000  0.95851600  1
  Ni  Ni5  1  0.95851600  0.54368700  0.24880000  1
  Ni  Ni6  1  0.24880000  0.95851600  0.54368700  1
  Ni  Ni7  1  0.45631300  0.75120000  0.04148400  1
  Ni  Ni8  1  0.04148400  0.45631300  0.75120000  1
  Ni  Ni9  1  0.75120000  0.04148400  0.45631300  1
  Cu  Cu10  1  0.40183000  0.20229900  0.98056600  1
  Cu  Cu11  1  0.98056600  0.40183000  0.20229900  1
  Cu  Cu12  1  0.20229900  0.98056600  0.40183000  1
  Cu  Cu13  1  0.59817000  0.79770100  0.01943400  1
  Cu  Cu14  1  0.01943400  0.59817000  0.79770100  1
  Cu  Cu15  1  0.79770100  0.01943400  0.59817000  1
  Cu  Cu16  1  0.52901200  0.21034200  0.14502600  1
  Cu  Cu17  1  0.14502600  0.52901200  0.21034200  1
  Cu  Cu18  1  0.21034200  0.14502600  0.52901200  1
  Cu  Cu19  1  0.47098800  0.78965800  0.85497400  1
  Cu  Cu20  1  0.85497400  0.47098800  0.78965800  1
  Cu  Cu21  1  0.78965800  0.85497400  0.47098800  1
  Cu  Cu22  1  0.73641300  0.13038800  0.86697500  1
  Cu  Cu23  1  0.86697500  0.73641300  0.13038800  1
  Cu  Cu24  1  0.13038800  0.86697500  0.73641300  1
  Cu  Cu25  1  0.26358700  0.86961200  0.13302500  1
  Cu  Cu26  1  0.13302500  0.26358700  0.86961200  1
  Cu  Cu27  1  0.86961200  0.13302500  0.26358700  1
  Cu  Cu28  1  0.51123000  0.45111000  0.83629000  1
  Cu  Cu29  1  0.83629000  0.51123000  0.45111000  1
  Cu  Cu30  1  0.45111000  0.83629000  0.51123000  1
  Cu  Cu31  1  0.48877000  0.54889000  0.16371000  1
  Cu  Cu32  1  0.16371000  0.48877000  0.54889000  1
  Cu  Cu33  1  0.54889000  0.16371000  0.48877000  1
