# generated using pymatgen
data_Cu(NiC)2
_symmetry_space_group_name_H-M   'P 1'
_cell_length_a   10.51691563
_cell_length_b   10.51691563
_cell_length_c   10.51691535
_cell_angle_alpha   22.80635085
_cell_angle_beta   22.80635085
_cell_angle_gamma   22.80635158
_symmetry_Int_Tables_number   1
_chemical_formula_structural   Cu(NiC)2
_chemical_formula_sum   'Cu1 Ni2 C2'
_cell_volume   153.35470354
_cell_formula_units_Z   1
loop_
 _symmetry_equiv_pos_site_id
 _symmetry_equiv_pos_as_xyz
  1  'x, y, z'
loop_
 _atom_site_type_symbol
 _atom_site_label
 _atom_site_symmetry_multiplicity
 _atom_site_fract_x
 _atom_site_fract_y
 _atom_site_fract_z
 _atom_site_occupancy
  Ni  Ni0  1  0.59919500  0.59919500  0.59919500  1
  Ni  Ni1  1  0.40080500  0.40080500  0.40080500  1
  Cu  Cu2  1  0.00000000  0.00000000  0.00000000  1
  C  C3  1  0.21671600  0.21671600  0.21671600  1
  C  C4  1  0.78328400  0.78328400  0.78328400  1
