# generated using pymatgen
data_Cu4Ni10C3
_symmetry_space_group_name_H-M   'P 1'
_cell_length_a   11.18626623
_cell_length_b   11.18626623
_cell_length_c   13.95531300
_cell_angle_alpha   90.00000000
_cell_angle_beta   90.00000000
_cell_angle_gamma   91.31675734
_symmetry_Int_Tables_number   1
_chemical_formula_structural   Cu4Ni10C3
_chemical_formula_sum   'Cu16 Ni40 C12'
_cell_volume   1745.80279741
_cell_formula_units_Z   4
loop_
 _symmetry_equiv_pos_site_id
 _symmetry_equiv_pos_as_xyz
  1  'x, y, z'
loop_
 _atom_site_type_symbol
 _atom_site_label
 _atom_site_symmetry_multiplicity
 _atom_site_fract_x
 _atom_site_fract_y
 _atom_site_fract_z
 _atom_site_occupancy
  Ni  Ni0  1  0.83211100  0.36064800  0.10018200  1
  Ni  Ni1  1  0.37442100  0.62557900  0.25000000  1
  Ni  Ni2  1  0.84861500  0.37083400  0.63455100  1
  Ni  Ni3  1  0.84861500  0.37083400  0.86544900  1
  Ni  Ni4  1  0.39853000  0.32521700  0.64488000  1
  Ni  Ni5  1  0.32521700  0.39853000  0.14488000  1
  Ni  Ni6  1  0.93735300  0.87780000  0.75000000  1
  Ni  Ni7  1  0.16788900  0.63935200  0.89981800  1
  Ni  Ni8  1  0.63935200  0.16788900  0.39981800  1
  Ni  Ni9  1  0.85876800  0.14123200  0.75000000  1
  Ni  Ni10  1  0.36064800  0.83211100  0.60018200  1
  Ni  Ni11  1  0.17977700  0.01817500  0.07382900  1
  Ni  Ni12  1  0.98182500  0.82022300  0.42617100  1
  Ni  Ni13  1  0.39853000  0.32521700  0.85512000  1
  Ni  Ni14  1  0.36064800  0.83211100  0.89981800  1
  Ni  Ni15  1  0.15138500  0.62916600  0.13455100  1
  Ni  Ni16  1  0.62557900  0.37442100  0.75000000  1
  Ni  Ni17  1  0.82022300  0.98182500  0.57382900  1
  Ni  Ni18  1  0.12220000  0.06264700  0.75000000  1
  Ni  Ni19  1  0.14123200  0.85876800  0.25000000  1
  Ni  Ni20  1  0.37083400  0.84861500  0.36544900  1
  Ni  Ni21  1  0.01817500  0.17977700  0.57382900  1
  Ni  Ni22  1  0.62916600  0.15138500  0.86544900  1
  Ni  Ni23  1  0.98182500  0.82022300  0.07382900  1
  Ni  Ni24  1  0.87780000  0.93735300  0.25000000  1
  Ni  Ni25  1  0.37083400  0.84861500  0.13455100  1
  Ni  Ni26  1  0.60147000  0.67478300  0.35512000  1
  Ni  Ni27  1  0.15138500  0.62916600  0.36544900  1
  Ni  Ni28  1  0.32521700  0.39853000  0.35512000  1
  Ni  Ni29  1  0.16788900  0.63935200  0.60018200  1
  Ni  Ni30  1  0.17977700  0.01817500  0.42617100  1
  Ni  Ni31  1  0.62916600  0.15138500  0.63455100  1
  Ni  Ni32  1  0.82022300  0.98182500  0.92617100  1
  Ni  Ni33  1  0.67478300  0.60147000  0.64488000  1
  Ni  Ni34  1  0.63935200  0.16788900  0.10018200  1
  Ni  Ni35  1  0.06264700  0.12220000  0.25000000  1
  Ni  Ni36  1  0.67478300  0.60147000  0.85512000  1
  Ni  Ni37  1  0.01817500  0.17977700  0.92617100  1
  Ni  Ni38  1  0.83211100  0.36064800  0.39981800  1
  Ni  Ni39  1  0.60147000  0.67478300  0.14488000  1
  Cu  Cu40  1  0.69055600  0.95174600  0.75000000  1
  Cu  Cu41  1  0.29173100  0.52444200  0.75000000  1
  Cu  Cu42  1  0.37963000  0.62037000  0.45060500  1
  Cu  Cu43  1  0.88648200  0.11351800  0.40985500  1
  Cu  Cu44  1  0.95174600  0.69055600  0.25000000  1
  Cu  Cu45  1  0.04825400  0.30944400  0.75000000  1
  Cu  Cu46  1  0.47555800  0.70826900  0.75000000  1
  Cu  Cu47  1  0.30944400  0.04825400  0.25000000  1
  Cu  Cu48  1  0.62037000  0.37963000  0.54939500  1
  Cu  Cu49  1  0.52444200  0.29173100  0.25000000  1
  Cu  Cu50  1  0.88648200  0.11351800  0.09014500  1
  Cu  Cu51  1  0.37963000  0.62037000  0.04939500  1
  Cu  Cu52  1  0.11351800  0.88648200  0.90985500  1
  Cu  Cu53  1  0.11351800  0.88648200  0.59014500  1
  Cu  Cu54  1  0.62037000  0.37963000  0.95060500  1
  Cu  Cu55  1  0.70826900  0.47555800  0.25000000  1
  C  C56  1  0.24958300  0.24958300  0.50000000  1
  C  C57  1  0.89099800  0.63582800  0.75000000  1
  C  C58  1  0.24958300  0.24958300  0.00000000  1
  C  C59  1  0.75041700  0.75041700  0.50000000  1
  C  C60  1  0.10900200  0.36417200  0.25000000  1
  C  C61  1  0.00000000  0.50000000  0.50000000  1
  C  C62  1  0.75041700  0.75041700  0.00000000  1
  C  C63  1  0.36417200  0.10900200  0.75000000  1
  C  C64  1  0.00000000  0.50000000  0.00000000  1
  C  C65  1  0.63582800  0.89099800  0.25000000  1
  C  C66  1  0.50000000  0.00000000  0.50000000  1
  C  C67  1  0.50000000  0.00000000  0.00000000  1
