# generated using pymatgen
data_Cu2Ni2C11
_symmetry_space_group_name_H-M   'P 1'
_cell_length_a   6.99002729
_cell_length_b   6.99002729
_cell_length_c   12.87657600
_cell_angle_alpha   90.00000000
_cell_angle_beta   90.00000000
_cell_angle_gamma   119.99999327
_symmetry_Int_Tables_number   1
_chemical_formula_structural   Cu2Ni2C11
_chemical_formula_sum   'Cu6 Ni6 C33'
_cell_volume   544.86485905
_cell_formula_units_Z   3
loop_
 _symmetry_equiv_pos_site_id
 _symmetry_equiv_pos_as_xyz
  1  'x, y, z'
loop_
 _atom_site_type_symbol
 _atom_site_label
 _atom_site_symmetry_multiplicity
 _atom_site_fract_x
 _atom_site_fract_y
 _atom_site_fract_z
 _atom_site_occupancy
  C  C0  1  0.47040600  0.00000000  0.16666700  1
  C  C1  1  0.52959400  0.52959400  0.50000000  1
  C  C2  1  0.00000000  0.47040600  0.83333300  1
  C  C3  1  0.44069500  0.00000000  0.66666700  1
  C  C4  1  0.55930500  0.55930500  0.00000000  1
  C  C5  1  0.00000000  0.44069500  0.33333300  1
  Ni  Ni6  1  0.06196900  0.10227600  0.62926000  1
  Ni  Ni7  1  0.89772400  0.95969300  0.29592600  1
  Ni  Ni8  1  0.93803100  0.04030700  0.03740700  1
  Ni  Ni9  1  0.95969300  0.89772400  0.70407400  1
  Ni  Ni10  1  0.10227600  0.06196900  0.37074000  1
  Ni  Ni11  1  0.04030700  0.93803100  0.96259300  1
  Cu  Cu12  1  0.55563700  0.54394600  0.24175800  1
  Cu  Cu13  1  0.98831000  0.44436300  0.57509200  1
  Cu  Cu14  1  0.54394600  0.55563700  0.75824200  1
  Cu  Cu15  1  0.45605400  0.01169000  0.90842500  1
  Cu  Cu16  1  0.44436300  0.98831000  0.42490800  1
  Cu  Cu17  1  0.01169000  0.45605400  0.09157500  1
  C  C18  1  0.58731700  0.75447500  0.69747900  1
  C  C19  1  0.41268300  0.16715800  0.96918700  1
  C  C20  1  0.16715800  0.41268300  0.03081300  1
  C  C21  1  0.75447500  0.58731700  0.30252100  1
  C  C22  1  0.48588000  0.35486200  0.16857500  1
  C  C23  1  0.73940400  0.61120300  0.82601300  1
  C  C24  1  0.24552500  0.83284200  0.36414600  1
  C  C25  1  0.64513800  0.13101800  0.83524200  1
  C  C26  1  0.62108300  0.12578500  0.34983300  1
  C  C27  1  0.86898200  0.51412000  0.50190900  1
  C  C28  1  0.49529900  0.87421500  0.98350000  1
  C  C29  1  0.09377000  0.00000000  0.66666700  1
  C  C30  1  0.12820000  0.38879700  0.50732100  1
  C  C31  1  0.83284200  0.24552500  0.63585400  1
  C  C32  1  0.87180000  0.26059600  0.15934600  1
  C  C33  1  0.51412000  0.86898200  0.49809100  1
  C  C34  1  0.50470100  0.37891700  0.68316700  1
  C  C35  1  0.90623000  0.90623000  0.00000000  1
  C  C36  1  0.87421500  0.49529900  0.01650000  1
  C  C37  1  0.61120300  0.73940400  0.17398700  1
  C  C38  1  0.37891700  0.50470100  0.31683300  1
  C  C39  1  0.00000000  0.09377000  0.33333300  1
  C  C40  1  0.35486200  0.48588000  0.83142500  1
  C  C41  1  0.13101800  0.64513800  0.16475800  1
  C  C42  1  0.12578500  0.62108300  0.65016700  1
  C  C43  1  0.26059600  0.87180000  0.84065400  1
  C  C44  1  0.38879700  0.12820000  0.49267900  1
