# generated using pymatgen
data_Cu2NiC8
_symmetry_space_group_name_H-M   'P 1'
_cell_length_a   13.01880065
_cell_length_b   13.01880065
_cell_length_c   5.13305200
_cell_angle_alpha   90.00000000
_cell_angle_beta   90.00000000
_cell_angle_gamma   155.49730522
_symmetry_Int_Tables_number   1
_chemical_formula_structural   Cu2NiC8
_chemical_formula_sum   'Cu4 Ni2 C16'
_cell_volume   360.81899668
_cell_formula_units_Z   2
loop_
 _symmetry_equiv_pos_site_id
 _symmetry_equiv_pos_as_xyz
  1  'x, y, z'
loop_
 _atom_site_type_symbol
 _atom_site_label
 _atom_site_symmetry_multiplicity
 _atom_site_fract_x
 _atom_site_fract_y
 _atom_site_fract_z
 _atom_site_occupancy
  C  C0  1  0.57465100  0.93353600  0.50000000  1
  C  C1  1  0.93353600  0.57465100  0.00000000  1
  C  C2  1  0.06646400  0.42534900  0.00000000  1
  C  C3  1  0.42534900  0.06646400  0.50000000  1
  Ni  Ni4  1  0.50000000  0.00000000  0.00000000  1
  Ni  Ni5  1  0.00000000  0.50000000  0.50000000  1
  Cu  Cu6  1  0.66270400  0.79042400  0.00000000  1
  Cu  Cu7  1  0.20957600  0.33729600  0.50000000  1
  Cu  Cu8  1  0.79042400  0.66270400  0.50000000  1
  Cu  Cu9  1  0.33729600  0.20957600  0.00000000  1
  C  C10  1  0.74816400  0.25183600  0.25000000  1
  C  C11  1  0.74816400  0.25183600  0.75000000  1
  C  C12  1  0.59927100  0.73027800  0.50000000  1
  C  C13  1  0.62427600  0.91320900  0.00000000  1
  C  C14  1  0.08679100  0.37572400  0.50000000  1
  C  C15  1  0.26972200  0.40072900  0.00000000  1
  C  C16  1  0.37572400  0.08679100  0.00000000  1
  C  C17  1  0.25183600  0.74816400  0.25000000  1
  C  C18  1  0.25183600  0.74816400  0.75000000  1
  C  C19  1  0.73027800  0.59927100  0.00000000  1
  C  C20  1  0.91320900  0.62427600  0.50000000  1
  C  C21  1  0.40072900  0.26972200  0.50000000  1
