# generated using pymatgen
data_Cu9NiC21
_symmetry_space_group_name_H-M   'P 1'
_cell_length_a   7.23343794
_cell_length_b   7.23343794
_cell_length_c   17.14814600
_cell_angle_alpha   90.00000000
_cell_angle_beta   90.00000000
_cell_angle_gamma   119.99999949
_symmetry_Int_Tables_number   1
_chemical_formula_structural   Cu9NiC21
_chemical_formula_sum   'Cu18 Ni2 C42'
_cell_volume   777.02917653
_cell_formula_units_Z   2
loop_
 _symmetry_equiv_pos_site_id
 _symmetry_equiv_pos_as_xyz
  1  'x, y, z'
loop_
 _atom_site_type_symbol
 _atom_site_label
 _atom_site_symmetry_multiplicity
 _atom_site_fract_x
 _atom_site_fract_y
 _atom_site_fract_z
 _atom_site_occupancy
  C  C0  1  0.33333300  0.66666700  0.37004000  1
  C  C1  1  0.33333300  0.66666700  0.12996000  1
  C  C2  1  0.66666700  0.33333300  0.62996000  1
  C  C3  1  0.66666700  0.33333300  0.87004000  1
  C  C4  1  0.00000000  0.00000000  0.25000000  1
  C  C5  1  0.00000000  0.00000000  0.75000000  1
  Ni  Ni6  1  0.00000000  0.00000000  0.00000000  1
  Ni  Ni7  1  0.00000000  0.00000000  0.50000000  1
  Cu  Cu8  1  0.72066400  0.16739200  0.07818700  1
  Cu  Cu9  1  0.27933600  0.83260800  0.57818700  1
  Cu  Cu10  1  0.50540000  0.88379200  0.75000000  1
  Cu  Cu11  1  0.55327200  0.72066400  0.92181300  1
  Cu  Cu12  1  0.44672800  0.27933600  0.42181300  1
  Cu  Cu13  1  0.83260800  0.55327200  0.42181300  1
  Cu  Cu14  1  0.49460000  0.11620800  0.25000000  1
  Cu  Cu15  1  0.37839200  0.49460000  0.75000000  1
  Cu  Cu16  1  0.16739200  0.44672800  0.57818700  1
  Cu  Cu17  1  0.88379200  0.37839200  0.25000000  1
  Cu  Cu18  1  0.44672800  0.27933600  0.07818700  1
  Cu  Cu19  1  0.27933600  0.83260800  0.92181300  1
  Cu  Cu20  1  0.72066400  0.16739200  0.42181300  1
  Cu  Cu21  1  0.11620800  0.62160800  0.75000000  1
  Cu  Cu22  1  0.62160800  0.50540000  0.25000000  1
  Cu  Cu23  1  0.83260800  0.55327200  0.07818700  1
  Cu  Cu24  1  0.55327200  0.72066400  0.57818700  1
  Cu  Cu25  1  0.16739200  0.44672800  0.92181300  1
  C  C26  1  0.16640200  0.45694400  0.75000000  1
  C  C27  1  0.61525500  0.49422300  0.42127700  1
  C  C28  1  0.41375000  0.33123800  0.75000000  1
  C  C29  1  0.24524800  0.23930500  0.42225000  1
  C  C30  1  0.50577700  0.12103200  0.42127700  1
  C  C31  1  0.33123800  0.91748900  0.25000000  1
  C  C32  1  0.50577700  0.12103200  0.07872300  1
  C  C33  1  0.12103200  0.61525500  0.92127700  1
  C  C34  1  0.83359800  0.54305600  0.25000000  1
  C  C35  1  0.75475200  0.76069500  0.57775000  1
  C  C36  1  0.23930500  0.99405700  0.92225000  1
  C  C37  1  0.00594300  0.24524800  0.57775000  1
  C  C38  1  0.49422300  0.87896800  0.92127700  1
  C  C39  1  0.99405700  0.75475200  0.42225000  1
  C  C40  1  0.54305600  0.70945800  0.75000000  1
  C  C41  1  0.38474500  0.50577700  0.92127700  1
  C  C42  1  0.76069500  0.00594300  0.07775000  1
  C  C43  1  0.38474500  0.50577700  0.57872300  1
  C  C44  1  0.87896800  0.38474500  0.07872300  1
  C  C45  1  0.99405700  0.75475200  0.07775000  1
  C  C46  1  0.61525500  0.49422300  0.07872300  1
  C  C47  1  0.49422300  0.87896800  0.57872300  1
  C  C48  1  0.70945800  0.16640200  0.25000000  1
  C  C49  1  0.08251100  0.41375000  0.25000000  1
  C  C50  1  0.23930500  0.99405700  0.57775000  1
  C  C51  1  0.91748900  0.58625000  0.75000000  1
  C  C52  1  0.29054200  0.83359800  0.75000000  1
  C  C53  1  0.45694400  0.29054200  0.25000000  1
  C  C54  1  0.87896800  0.38474500  0.42127700  1
  C  C55  1  0.12103200  0.61525500  0.57872300  1
  C  C56  1  0.58625000  0.66876200  0.25000000  1
  C  C57  1  0.76069500  0.00594300  0.42225000  1
  C  C58  1  0.66876200  0.08251100  0.75000000  1
  C  C59  1  0.00594300  0.24524800  0.92225000  1
  C  C60  1  0.24524800  0.23930500  0.07775000  1
  C  C61  1  0.75475200  0.76069500  0.92225000  1
