# generated using pymatgen
data_CuNiC3
_symmetry_space_group_name_H-M   'P 1'
_cell_length_a   5.24579400
_cell_length_b   8.94539600
_cell_length_c   18.44950300
_cell_angle_alpha   90.00000000
_cell_angle_beta   90.00000000
_cell_angle_gamma   90.00000000
_symmetry_Int_Tables_number   1
_chemical_formula_structural   CuNiC3
_chemical_formula_sum   'Cu16 Ni16 C48'
_cell_volume   865.75592898
_cell_formula_units_Z   16
loop_
 _symmetry_equiv_pos_site_id
 _symmetry_equiv_pos_as_xyz
  1  'x, y, z'
loop_
 _atom_site_type_symbol
 _atom_site_label
 _atom_site_symmetry_multiplicity
 _atom_site_fract_x
 _atom_site_fract_y
 _atom_site_fract_z
 _atom_site_occupancy
  Ni  Ni0  1  0.13047400  0.34721800  0.37587900  1
  Ni  Ni1  1  0.63047400  0.65278200  0.12412100  1
  Ni  Ni2  1  0.36952600  0.84721800  0.62412100  1
  Ni  Ni3  1  0.86952600  0.15278200  0.87587900  1
  Ni  Ni4  1  0.86952600  0.65278200  0.62412100  1
  Ni  Ni5  1  0.36952600  0.34721800  0.87587900  1
  Ni  Ni6  1  0.63047400  0.15278200  0.37587900  1
  Ni  Ni7  1  0.13047400  0.84721800  0.12412100  1
  Ni  Ni8  1  0.63648100  0.51119000  0.37606600  1
  Ni  Ni9  1  0.13648100  0.48881000  0.12393400  1
  Ni  Ni10  1  0.86351900  0.01119000  0.62393400  1
  Ni  Ni11  1  0.36351900  0.98881000  0.87606600  1
  Ni  Ni12  1  0.36351900  0.48881000  0.62393400  1
  Ni  Ni13  1  0.86351900  0.51119000  0.87606600  1
  Ni  Ni14  1  0.13648100  0.98881000  0.37606600  1
  Ni  Ni15  1  0.63648100  0.01119000  0.12393400  1
  Cu  Cu16  1  0.94445600  0.65895700  0.27186600  1
  Cu  Cu17  1  0.44445600  0.34104300  0.22813400  1
  Cu  Cu18  1  0.55554400  0.15895700  0.72813400  1
  Cu  Cu19  1  0.05554400  0.84104300  0.77186600  1
  Cu  Cu20  1  0.05554400  0.34104300  0.72813400  1
  Cu  Cu21  1  0.55554400  0.65895700  0.77186600  1
  Cu  Cu22  1  0.44445600  0.84104300  0.27186600  1
  Cu  Cu23  1  0.94445600  0.15895700  0.22813400  1
  Cu  Cu24  1  0.20442300  0.66269200  0.47418200  1
  Cu  Cu25  1  0.70442300  0.33730800  0.02581800  1
  Cu  Cu26  1  0.29557700  0.16269200  0.52581800  1
  Cu  Cu27  1  0.79557700  0.83730800  0.97418200  1
  Cu  Cu28  1  0.79557700  0.33730800  0.52581800  1
  Cu  Cu29  1  0.29557700  0.66269200  0.97418200  1
  Cu  Cu30  1  0.70442300  0.83730800  0.47418200  1
  Cu  Cu31  1  0.20442300  0.16269200  0.02581800  1
  C  C32  1  0.40059400  0.30324600  0.05145800  1
  C  C33  1  0.90059400  0.69675400  0.44854200  1
  C  C34  1  0.09940600  0.80324600  0.94854200  1
  C  C35  1  0.59940600  0.19675400  0.55145800  1
  C  C36  1  0.59940600  0.69675400  0.94854200  1
  C  C37  1  0.09940600  0.30324600  0.55145800  1
  C  C38  1  0.90059400  0.19675400  0.05145800  1
  C  C39  1  0.40059400  0.80324600  0.44854200  1
  C  C40  1  0.30926200  0.01742000  0.06750900  1
  C  C41  1  0.80926200  0.98258000  0.43249100  1
  C  C42  1  0.19073800  0.51742000  0.93249100  1
  C  C43  1  0.69073800  0.48258000  0.56750900  1
  C  C44  1  0.69073800  0.98258000  0.93249100  1
  C  C45  1  0.19073800  0.01742000  0.56750900  1
  C  C46  1  0.80926200  0.48258000  0.06750900  1
  C  C47  1  0.30926200  0.51742000  0.43249100  1
  C  C48  1  0.20354600  0.15922700  0.93701200  1
  C  C49  1  0.70354600  0.84077300  0.56298800  1
  C  C50  1  0.29645400  0.65922700  0.06298800  1
  C  C51  1  0.95256000  0.99931800  0.18840400  1
  C  C52  1  0.79645400  0.34077300  0.43701200  1
  C  C53  1  0.29645400  0.15922700  0.43701200  1
  C  C54  1  0.70354600  0.34077300  0.93701200  1
  C  C55  1  0.20354600  0.65922700  0.56298800  1
  C  C56  1  0.16182400  0.27872100  0.19706500  1
  C  C57  1  0.66182400  0.72127900  0.30293500  1
  C  C58  1  0.33817600  0.77872100  0.80293500  1
  C  C59  1  0.83817600  0.22127900  0.69706500  1
  C  C60  1  0.83817600  0.72127900  0.80293500  1
  C  C61  1  0.33817600  0.27872100  0.69706500  1
  C  C62  1  0.66182400  0.22127900  0.19706500  1
  C  C63  1  0.16182400  0.77872100  0.30293500  1
  C  C64  1  0.96091800  0.66008000  0.18361600  1
  C  C65  1  0.46091800  0.33992000  0.31638400  1
  C  C66  1  0.53908200  0.16008000  0.81638400  1
  C  C67  1  0.03908200  0.83992000  0.68361600  1
  C  C68  1  0.03908200  0.33992000  0.81638400  1
  C  C69  1  0.53908200  0.66008000  0.68361600  1
  C  C70  1  0.46091800  0.83992000  0.18361600  1
  C  C71  1  0.96091800  0.16008000  0.31638400  1
  C  C72  1  0.95256000  0.49931800  0.31159600  1
  C  C73  1  0.45256000  0.50068200  0.18840400  1
  C  C74  1  0.54744000  0.99931800  0.68840400  1
  C  C75  1  0.04744000  0.00068200  0.81159600  1
  C  C76  1  0.04744000  0.50068200  0.68840400  1
  C  C77  1  0.54744000  0.49931800  0.81159600  1
  C  C78  1  0.45256000  0.00068200  0.31159600  1
  C  C79  1  0.79645400  0.84077300  0.06298800  1
