# generated using pymatgen
data_Cu3(NiC16)2
_symmetry_space_group_name_H-M   'P 1'
_cell_length_a   19.72453100
_cell_length_b   19.72453100
_cell_length_c   19.72453111
_cell_angle_alpha   16.98919020
_cell_angle_beta   16.98919020
_cell_angle_gamma   16.98918987
_symmetry_Int_Tables_number   1
_chemical_formula_structural   Cu3(NiC16)2
_chemical_formula_sum   'Cu3 Ni2 C32'
_cell_volume   571.55120848
_cell_formula_units_Z   1
loop_
 _symmetry_equiv_pos_site_id
 _symmetry_equiv_pos_as_xyz
  1  'x, y, z'
loop_
 _atom_site_type_symbol
 _atom_site_label
 _atom_site_symmetry_multiplicity
 _atom_site_fract_x
 _atom_site_fract_y
 _atom_site_fract_z
 _atom_site_occupancy
  C  C0  1  0.72915600  0.72915600  0.72915600  1
  C  C1  1  0.81540100  0.81540100  0.81540100  1
  C  C2  1  0.88499700  0.88499700  0.88499700  1
  C  C3  1  0.11500300  0.11500300  0.11500300  1
  C  C4  1  0.27084400  0.27084400  0.27084400  1
  C  C5  1  0.35067800  0.35067800  0.35067800  1
  C  C6  1  0.64932200  0.64932200  0.64932200  1
  C  C7  1  0.18459900  0.18459900  0.18459900  1
  Ni  Ni8  1  0.96093000  0.96093000  0.96093000  1
  Ni  Ni9  1  0.03907000  0.03907000  0.03907000  1
  Cu  Cu10  1  0.41653600  0.41653600  0.41653600  1
  Cu  Cu11  1  0.58346400  0.58346400  0.58346400  1
  Cu  Cu12  1  0.50000000  0.50000000  0.50000000  1
  C  C13  1  0.33094000  0.86787800  0.86787800  1
  C  C14  1  0.67903500  0.19851200  0.67903500  1
  C  C15  1  0.22309800  0.72989600  0.22309800  1
  C  C16  1  0.80148800  0.32096500  0.32096500  1
  C  C17  1  0.11253000  0.59027900  0.59027900  1
  C  C18  1  0.27010400  0.77690200  0.77690200  1
  C  C19  1  0.19851200  0.67903500  0.67903500  1
  C  C20  1  0.59027900  0.11253000  0.59027900  1
  C  C21  1  0.40972100  0.88747000  0.40972100  1
  C  C22  1  0.32096500  0.32096500  0.80148800  1
  C  C23  1  0.40972100  0.40972100  0.88747000  1
  C  C24  1  0.59027900  0.59027900  0.11253000  1
  C  C25  1  0.32096500  0.80148800  0.32096500  1
  C  C26  1  0.22309800  0.22309800  0.72989600  1
  C  C27  1  0.66906000  0.13212200  0.13212200  1
  C  C28  1  0.67903500  0.67903500  0.19851200  1
  C  C29  1  0.86787800  0.86787800  0.33094000  1
  C  C30  1  0.77690200  0.27010400  0.77690200  1
  C  C31  1  0.88747000  0.40972100  0.40972100  1
  C  C32  1  0.72989600  0.22309800  0.22309800  1
  C  C33  1  0.86787800  0.33094000  0.86787800  1
  C  C34  1  0.13212200  0.13212200  0.66906000  1
  C  C35  1  0.13212200  0.66906000  0.13212200  1
  C  C36  1  0.77690200  0.77690200  0.27010400  1
