# generated using pymatgen
data_Cu6NiC32
_symmetry_space_group_name_H-M   'P 1'
_cell_length_a   10.50619500
_cell_length_b   10.51680546
_cell_length_c   14.75313589
_cell_angle_alpha   75.81537111
_cell_angle_beta   83.13806625
_cell_angle_gamma   61.72157678
_symmetry_Int_Tables_number   1
_chemical_formula_structural   Cu6NiC32
_chemical_formula_sum   'Cu12 Ni2 C64'
_cell_volume   1391.77566221
_cell_formula_units_Z   2
loop_
 _symmetry_equiv_pos_site_id
 _symmetry_equiv_pos_as_xyz
  1  'x, y, z'
loop_
 _atom_site_type_symbol
 _atom_site_label
 _atom_site_symmetry_multiplicity
 _atom_site_fract_x
 _atom_site_fract_y
 _atom_site_fract_z
 _atom_site_occupancy
  C  C0  1  0.99536500  0.35578800  0.45658300  1
  C  C1  1  0.66632000  0.50417600  0.94982600  1
  C  C2  1  0.99043600  0.15428500  0.04134000  1
  C  C3  1  0.33368000  0.49582400  0.05017400  1
  C  C4  1  0.00956400  0.84571500  0.95866000  1
  C  C5  1  0.32374000  0.98290800  0.55281800  1
  C  C6  1  0.31089000  0.20516000  0.95148800  1
  C  C7  1  0.68911000  0.79484000  0.04851200  1
  C  C8  1  0.00463500  0.64421200  0.54341700  1
  C  C9  1  0.01632800  0.24885000  0.74806000  1
  C  C10  1  0.98367200  0.75115000  0.25194000  1
  C  C11  1  0.67626000  0.01709200  0.44718200  1
  C  C12  1  0.33297700  0.57646700  0.75159100  1
  C  C13  1  0.66935300  0.32192000  0.54139300  1
  C  C14  1  0.66702300  0.42353300  0.24840900  1
  C  C15  1  0.33064700  0.67808000  0.45860700  1
  Ni  Ni16  1  0.30856300  0.06853800  0.24879700  1
  Ni  Ni17  1  0.69143700  0.93146200  0.75120300  1
  Cu  Cu18  1  0.67046200  0.11184800  0.15590500  1
  Cu  Cu19  1  0.34836300  0.27040300  0.64655600  1
  Cu  Cu20  1  0.99070900  0.94925700  0.64552900  1
  Cu  Cu21  1  0.33103500  0.39091900  0.34310800  1
  Cu  Cu22  1  0.66896500  0.60908100  0.65689200  1
  Cu  Cu23  1  0.00156000  0.44616900  0.14965800  1
  Cu  Cu24  1  0.32953800  0.88815200  0.84409500  1
  Cu  Cu25  1  0.33423700  0.80335700  0.14367600  1
  Cu  Cu26  1  0.99844000  0.55383100  0.85034200  1
  Cu  Cu27  1  0.65163700  0.72959700  0.35344400  1
  Cu  Cu28  1  0.66576300  0.19664300  0.85632400  1
  Cu  Cu29  1  0.00929100  0.05074300  0.35447100  1
  C  C30  1  0.37202400  0.43210000  0.60227100  1
  C  C31  1  0.20246000  0.28170400  0.58824100  1
  C  C32  1  0.49863000  0.09980800  0.16607300  1
  C  C33  1  0.35882100  0.70630100  0.90121100  1
  C  C34  1  0.00742200  0.61696300  0.10347900  1
  C  C35  1  0.17519200  0.80717300  0.11013500  1
  C  C36  1  0.79754000  0.71829600  0.41175900  1
  C  C37  1  0.99257800  0.38303700  0.89652100  1
  C  C38  1  0.64249300  0.50948700  0.76741500  1
  C  C39  1  0.85284300  0.19315500  0.39491800  1
  C  C40  1  0.80373600  0.98339000  0.09226000  1
  C  C41  1  0.51254400  0.09637100  0.63353800  1
  C  C42  1  0.96573000  0.42955800  0.27126000  1
  C  C43  1  0.30569600  0.25714900  0.76735900  1
  C  C44  1  0.82284100  0.48267900  0.60300800  1
  C  C45  1  0.48890900  0.32148400  0.41109300  1
  C  C46  1  0.69648000  0.76481900  0.67075200  1
  C  C47  1  0.50137000  0.90019200  0.83392700  1
  C  C48  1  0.30352000  0.23518100  0.32924800  1
  C  C49  1  0.05324800  0.09371600  0.23076400  1
  C  C50  1  0.17715900  0.51732100  0.39699200  1
  C  C51  1  0.66079300  0.19630100  0.73304100  1
  C  C52  1  0.85769900  0.44861700  0.09426800  1
  C  C53  1  0.62797600  0.56790000  0.39772900  1
  C  C54  1  0.03427000  0.57044200  0.72874000  1
  C  C55  1  0.01085400  0.87614700  0.39385000  1
  C  C56  1  0.51109100  0.67851600  0.58890700  1
  C  C57  1  0.94675200  0.90628400  0.76923600  1
  C  C58  1  0.19626400  0.01661000  0.90774000  1
  C  C59  1  0.33920700  0.80369900  0.26695900  1
  C  C60  1  0.74400400  0.07171800  0.26806700  1
  C  C61  1  0.17138000  0.03847900  0.39801100  1
  C  C62  1  0.67217600  0.01527600  0.89977700  1
  C  C63  1  0.82862000  0.96152100  0.60198900  1
  C  C64  1  0.98914600  0.12385300  0.60615000  1
  C  C65  1  0.35750700  0.49051300  0.23258500  1
  C  C66  1  0.82480800  0.19282700  0.88986500  1
  C  C67  1  0.48745600  0.90362900  0.36646200  1
  C  C68  1  0.14715700  0.80684500  0.60508200  1
  C  C69  1  0.14230100  0.55138300  0.90573200  1
  C  C70  1  0.32782400  0.98472400  0.10022300  1
  C  C71  1  0.25599600  0.92828200  0.73193300  1
  C  C72  1  0.17988200  0.28925500  0.13224400  1
  C  C73  1  0.49487700  0.66849700  0.10071800  1
  C  C74  1  0.69430400  0.74285100  0.23264100  1
  C  C75  1  0.64117900  0.29369900  0.09878900  1
  C  C76  1  0.50512300  0.33150300  0.89928200  1
  C  C77  1  0.82011800  0.71074500  0.86775600  1
