# generated using pymatgen
data_Cu3NiC3
_symmetry_space_group_name_H-M   'P 1'
_cell_length_a   6.88608505
_cell_length_b   6.88608505
_cell_length_c   17.21505651
_cell_angle_alpha   72.21621343
_cell_angle_beta   72.21621343
_cell_angle_gamma   55.46682928
_symmetry_Int_Tables_number   1
_chemical_formula_structural   Cu3NiC3
_chemical_formula_sum   'Cu12 Ni4 C12'
_cell_volume   631.16738055
_cell_formula_units_Z   4
loop_
 _symmetry_equiv_pos_site_id
 _symmetry_equiv_pos_as_xyz
  1  'x, y, z'
loop_
 _atom_site_type_symbol
 _atom_site_label
 _atom_site_symmetry_multiplicity
 _atom_site_fract_x
 _atom_site_fract_y
 _atom_site_fract_z
 _atom_site_occupancy
  C  C0  1  0.89493900  0.83028400  0.21537500  1
  C  C1  1  0.16971600  0.10506100  0.28462500  1
  C  C2  1  0.68333100  0.59858000  0.13425800  1
  C  C3  1  0.31666900  0.40142000  0.86574200  1
  C  C4  1  0.01121000  0.85871400  0.93761500  1
  C  C5  1  0.85871400  0.01121000  0.43761500  1
  C  C6  1  0.10506100  0.16971600  0.78462500  1
  C  C7  1  0.14128600  0.98879000  0.56238500  1
  C  C8  1  0.40142000  0.31666900  0.36574200  1
  C  C9  1  0.98879000  0.14128600  0.06238500  1
  C  C10  1  0.83028400  0.89493900  0.71537500  1
  C  C11  1  0.59858000  0.68333100  0.63425800  1
  Ni  Ni12  1  0.41022200  0.30233400  0.07199000  1
  Ni  Ni13  1  0.69766600  0.58977800  0.42801000  1
  Ni  Ni14  1  0.30233400  0.41022200  0.57199000  1
  Ni  Ni15  1  0.58977800  0.69766600  0.92801000  1
  Cu  Cu16  1  0.34587200  0.96343400  0.41420300  1
  Cu  Cu17  1  0.57421700  0.28290800  0.17329100  1
  Cu  Cu18  1  0.97803000  0.69103100  0.35921200  1
  Cu  Cu19  1  0.30896900  0.02197000  0.14078800  1
  Cu  Cu20  1  0.71709200  0.42578300  0.32670900  1
  Cu  Cu21  1  0.02197000  0.30896900  0.64078800  1
  Cu  Cu22  1  0.69103100  0.97803000  0.85921200  1
  Cu  Cu23  1  0.42578300  0.71709200  0.82670900  1
  Cu  Cu24  1  0.96343400  0.34587200  0.91420300  1
  Cu  Cu25  1  0.03656600  0.65412800  0.08579700  1
  Cu  Cu26  1  0.65412800  0.03656600  0.58579700  1
  Cu  Cu27  1  0.28290800  0.57421700  0.67329100  1
