# generated using pymatgen
data_Cu3Ni2C13
_symmetry_space_group_name_H-M   'P 1'
_cell_length_a   8.68919216
_cell_length_b   8.68919216
_cell_length_c   8.68919250
_cell_angle_alpha   56.45788729
_cell_angle_beta   56.45788729
_cell_angle_gamma   56.45788260
_symmetry_Int_Tables_number   1
_chemical_formula_structural   Cu3Ni2C13
_chemical_formula_sum   'Cu6 Ni4 C26'
_cell_volume   425.91141154
_cell_formula_units_Z   2
loop_
 _symmetry_equiv_pos_site_id
 _symmetry_equiv_pos_as_xyz
  1  'x, y, z'
loop_
 _atom_site_type_symbol
 _atom_site_label
 _atom_site_symmetry_multiplicity
 _atom_site_fract_x
 _atom_site_fract_y
 _atom_site_fract_z
 _atom_site_occupancy
  C  C0  1  0.00000000  0.00000000  0.00000000  1
  C  C1  1  0.50000000  0.50000000  0.50000000  1
  Ni  Ni2  1  0.64801100  0.64801100  0.64801100  1
  Ni  Ni3  1  0.35198900  0.35198900  0.35198900  1
  Ni  Ni4  1  0.85572600  0.85572600  0.85572600  1
  Ni  Ni5  1  0.14427400  0.14427400  0.14427400  1
  Cu  Cu6  1  0.53644800  0.96554200  0.24921600  1
  Cu  Cu7  1  0.24921600  0.53644800  0.96554200  1
  Cu  Cu8  1  0.96554200  0.24921600  0.53644800  1
  Cu  Cu9  1  0.46355200  0.03445800  0.75078400  1
  Cu  Cu10  1  0.75078400  0.46355200  0.03445800  1
  Cu  Cu11  1  0.03445800  0.75078400  0.46355200  1
  C  C12  1  0.52208400  0.80181600  0.45731700  1
  C  C13  1  0.45731700  0.52208400  0.80181600  1
  C  C14  1  0.80181600  0.45731700  0.52208400  1
  C  C15  1  0.47791600  0.19818400  0.54268300  1
  C  C16  1  0.54268300  0.47791600  0.19818400  1
  C  C17  1  0.19818400  0.54268300  0.47791600  1
  C  C18  1  0.74189200  0.89559300  0.09722200  1
  C  C19  1  0.09722200  0.74189200  0.89559300  1
  C  C20  1  0.89559300  0.09722200  0.74189200  1
  C  C21  1  0.25810800  0.10440700  0.90277800  1
  C  C22  1  0.90277800  0.25810800  0.10440700  1
  C  C23  1  0.10440700  0.90277800  0.25810800  1
  C  C24  1  0.52151200  0.15936600  0.23310500  1
  C  C25  1  0.23310500  0.52151200  0.15936600  1
  C  C26  1  0.15936600  0.23310500  0.52151200  1
  C  C27  1  0.47848800  0.84063400  0.76689500  1
  C  C28  1  0.76689500  0.47848800  0.84063400  1
  C  C29  1  0.84063400  0.76689500  0.47848800  1
  C  C30  1  0.37473300  0.99018600  0.20422700  1
  C  C31  1  0.20422700  0.37473300  0.99018600  1
  C  C32  1  0.99018600  0.20422700  0.37473300  1
  C  C33  1  0.62526700  0.00981400  0.79577300  1
  C  C34  1  0.79577300  0.62526700  0.00981400  1
  C  C35  1  0.00981400  0.79577300  0.62526700  1
