# generated using pymatgen
data_Cu4Ni2C11
_symmetry_space_group_name_H-M   'P 1'
_cell_length_a   12.13840467
_cell_length_b   12.13840467
_cell_length_c   6.86264600
_cell_angle_alpha   90.00000000
_cell_angle_beta   90.00000000
_cell_angle_gamma   120.00000366
_symmetry_Int_Tables_number   1
_chemical_formula_structural   Cu4Ni2C11
_chemical_formula_sum   'Cu12 Ni6 C33'
_cell_volume   875.68001160
_cell_formula_units_Z   3
loop_
 _symmetry_equiv_pos_site_id
 _symmetry_equiv_pos_as_xyz
  1  'x, y, z'
loop_
 _atom_site_type_symbol
 _atom_site_label
 _atom_site_symmetry_multiplicity
 _atom_site_fract_x
 _atom_site_fract_y
 _atom_site_fract_z
 _atom_site_occupancy
  C  C0  1  0.00000000  0.00000000  0.50000000  1
  C  C1  1  0.66666700  0.33333300  0.54278800  1
  C  C2  1  0.33333300  0.66666700  0.45721200  1
  Ni  Ni3  1  0.24293000  0.08317800  0.75677700  1
  Ni  Ni4  1  0.75707000  0.91682200  0.24322300  1
  Ni  Ni5  1  0.15975200  0.24293000  0.24322300  1
  Ni  Ni6  1  0.08317800  0.84024800  0.24322300  1
  Ni  Ni7  1  0.91682200  0.15975200  0.75677700  1
  Ni  Ni8  1  0.84024800  0.75707000  0.75677700  1
  Cu  Cu9  1  0.30843300  0.39983900  0.00406200  1
  Cu  Cu10  1  0.39983900  0.09140600  0.99593800  1
  Cu  Cu11  1  0.29951100  0.98125500  0.65618200  1
  Cu  Cu12  1  0.31825500  0.29951100  0.34381800  1
  Cu  Cu13  1  0.09140600  0.69156700  0.00406200  1
  Cu  Cu14  1  0.98125500  0.68174500  0.34381800  1
  Cu  Cu15  1  0.01874500  0.31825500  0.65618200  1
  Cu  Cu16  1  0.90859400  0.30843300  0.99593800  1
  Cu  Cu17  1  0.70048900  0.01874500  0.34381800  1
  Cu  Cu18  1  0.68174500  0.70048900  0.65618200  1
  Cu  Cu19  1  0.60016100  0.90859400  0.00406200  1
  Cu  Cu20  1  0.69156700  0.60016100  0.99593800  1
  C  C21  1  0.60141700  0.60232200  0.82944200  1
  C  C22  1  0.16774000  0.30130300  0.07141600  1
  C  C23  1  0.83226000  0.69869700  0.92858400  1
  C  C24  1  0.39858300  0.39767800  0.17055800  1
  C  C25  1  0.86643700  0.16774000  0.92858400  1
  C  C26  1  0.13356300  0.83226000  0.07141600  1
  C  C27  1  0.60232200  0.00090500  0.17055800  1
  C  C28  1  0.30130300  0.13356300  0.92858400  1
  C  C29  1  0.69869700  0.86643700  0.07141600  1
  C  C30  1  0.99909500  0.60141700  0.17055800  1
  C  C31  1  0.00090500  0.39858300  0.82944200  1
  C  C32  1  0.39767800  0.99909500  0.82944200  1
  C  C33  1  0.89473300  0.05865500  0.67440400  1
  C  C34  1  0.10526700  0.94134500  0.32559600  1
  C  C35  1  0.05865500  0.16392300  0.32559600  1
  C  C36  1  0.83607700  0.89473300  0.32559600  1
  C  C37  1  0.94134500  0.83607700  0.67440400  1
  C  C38  1  0.16392300  0.10526700  0.67440400  1
  C  C39  1  0.44684300  0.79171700  0.60587500  1
  C  C40  1  0.65512500  0.44684300  0.39412500  1
  C  C41  1  0.54118500  0.32035200  0.69295900  1
  C  C42  1  0.20828300  0.65512500  0.60587500  1
  C  C43  1  0.67964800  0.22083200  0.69295900  1
  C  C44  1  0.45881500  0.67964800  0.30704100  1
  C  C45  1  0.22083200  0.54118500  0.30704100  1
  C  C46  1  0.55315700  0.20828300  0.39412500  1
  C  C47  1  0.77916800  0.45881500  0.69295900  1
  C  C48  1  0.32035200  0.77916800  0.30704100  1
  C  C49  1  0.79171700  0.34487500  0.39412500  1
  C  C50  1  0.34487500  0.55315700  0.60587500  1
