# generated using pymatgen
data_CuNiC4
_symmetry_space_group_name_H-M   'P 1'
_cell_length_a   14.09720642
_cell_length_b   14.09720642
_cell_length_c   8.71598800
_cell_angle_alpha   90.00000000
_cell_angle_beta   90.00000000
_cell_angle_gamma   120.00000196
_symmetry_Int_Tables_number   1
_chemical_formula_structural   CuNiC4
_chemical_formula_sum   'Cu12 Ni12 C48'
_cell_volume   1500.07635176
_cell_formula_units_Z   12
loop_
 _symmetry_equiv_pos_site_id
 _symmetry_equiv_pos_as_xyz
  1  'x, y, z'
loop_
 _atom_site_type_symbol
 _atom_site_label
 _atom_site_symmetry_multiplicity
 _atom_site_fract_x
 _atom_site_fract_y
 _atom_site_fract_z
 _atom_site_occupancy
  Ni  Ni0  1  0.54404900  0.87847000  0.93692900  1
  Ni  Ni1  1  0.12153000  0.66557900  0.93692900  1
  Ni  Ni2  1  0.33442100  0.45595100  0.93692900  1
  Ni  Ni3  1  0.66557900  0.54404900  0.93692900  1
  Ni  Ni4  1  0.45595100  0.12153000  0.93692900  1
  Ni  Ni5  1  0.87847000  0.33442100  0.93692900  1
  Ni  Ni6  1  0.54404900  0.66557900  0.43692900  1
  Ni  Ni7  1  0.87847000  0.54404900  0.43692900  1
  Ni  Ni8  1  0.66557900  0.12153000  0.43692900  1
  Ni  Ni9  1  0.33442100  0.87847000  0.43692900  1
  Ni  Ni10  1  0.12153000  0.45595100  0.43692900  1
  Ni  Ni11  1  0.45595100  0.33442100  0.43692900  1
  Cu  Cu12  1  0.54618500  0.87724600  0.56213300  1
  Cu  Cu13  1  0.12275400  0.66893900  0.56213300  1
  Cu  Cu14  1  0.33106100  0.45381500  0.56213300  1
  Cu  Cu15  1  0.66893900  0.54618500  0.56213300  1
  Cu  Cu16  1  0.45381500  0.12275400  0.56213300  1
  Cu  Cu17  1  0.87724600  0.33106100  0.56213300  1
  Cu  Cu18  1  0.54618500  0.66893900  0.06213300  1
  Cu  Cu19  1  0.87724600  0.54618500  0.06213300  1
  Cu  Cu20  1  0.66893900  0.12275400  0.06213300  1
  Cu  Cu21  1  0.33106100  0.87724600  0.06213300  1
  Cu  Cu22  1  0.12275400  0.45381500  0.06213300  1
  Cu  Cu23  1  0.45381500  0.33106100  0.06213300  1
  C  C24  1  0.43132500  0.84377100  0.50009300  1
  C  C25  1  0.15622900  0.58755400  0.50009300  1
  C  C26  1  0.41244600  0.56867500  0.50009300  1
  C  C27  1  0.58755400  0.43132500  0.50009300  1
  C  C28  1  0.56867500  0.15622900  0.50009300  1
  C  C29  1  0.84377100  0.41244600  0.50009300  1
  C  C30  1  0.43132500  0.58755400  0.00009300  1
  C  C31  1  0.84377100  0.43132500  0.00009300  1
  C  C32  1  0.58755400  0.15622900  0.00009300  1
  C  C33  1  0.41244600  0.84377100  0.00009300  1
  C  C34  1  0.15622900  0.56867500  0.00009300  1
  C  C35  1  0.56867500  0.41244600  0.00009300  1
  C  C36  1  0.63139600  0.99116900  0.50311400  1
  C  C37  1  0.00883100  0.64022700  0.50311400  1
  C  C38  1  0.35977300  0.36860400  0.50311400  1
  C  C39  1  0.64022700  0.63139600  0.50311400  1
  C  C40  1  0.36860400  0.00883100  0.50311400  1
  C  C41  1  0.54400400  0.87844000  0.73756300  1
  C  C42  1  0.99116900  0.35977300  0.50311400  1
  C  C43  1  0.99116900  0.63139600  0.00311400  1
  C  C44  1  0.64022700  0.00883100  0.00311400  1
  C  C45  1  0.35977300  0.99116900  0.00311400  1
  C  C46  1  0.00883100  0.36860400  0.00311400  1
  C  C47  1  0.36860400  0.35977300  0.00311400  1
  C  C48  1  0.42044000  0.21520200  0.00747000  1
  C  C49  1  0.20523800  0.42044000  0.00747000  1
  C  C50  1  0.21520200  0.79476200  0.00747000  1
  C  C51  1  0.78479800  0.20523800  0.00747000  1
  C  C52  1  0.79476200  0.57956000  0.00747000  1
  C  C53  1  0.57956000  0.78479800  0.00747000  1
  C  C54  1  0.79476200  0.21520200  0.50747000  1
  C  C55  1  0.42044000  0.20523800  0.50747000  1
  C  C56  1  0.78479800  0.57956000  0.50747000  1
  C  C57  1  0.21520200  0.42044000  0.50747000  1
  C  C58  1  0.20523800  0.78479800  0.50747000  1
  C  C59  1  0.57956000  0.79476200  0.50747000  1
  C  C60  1  0.45599600  0.33443600  0.23756300  1
  C  C61  1  0.12156000  0.45599600  0.23756300  1
  C  C62  1  0.33443600  0.87844000  0.23756300  1
  C  C63  1  0.66556400  0.12156000  0.23756300  1
  C  C64  1  0.87844000  0.54400400  0.23756300  1
  C  C65  1  0.54400400  0.66556400  0.23756300  1
  C  C66  1  0.87844000  0.33443600  0.73756300  1
  C  C67  1  0.45599600  0.12156000  0.73756300  1
  C  C68  1  0.66556400  0.54400400  0.73756300  1
  C  C69  1  0.33443600  0.45599600  0.73756300  1
  C  C70  1  0.12156000  0.66556400  0.73756300  1
  C  C71  1  0.63139600  0.64022700  0.00311400  1
