# generated using pymatgen
data_Cu4Ni5C21
_symmetry_space_group_name_H-M   'P 1'
_cell_length_a   8.74760188
_cell_length_b   8.74760188
_cell_length_c   8.74760188
_cell_angle_alpha   95.61450444
_cell_angle_beta   95.61450444
_cell_angle_gamma   143.54563038
_symmetry_Int_Tables_number   1
_chemical_formula_structural   Cu4Ni5C21
_chemical_formula_sum   'Cu4 Ni5 C21'
_cell_volume   377.77206605
_cell_formula_units_Z   1
loop_
 _symmetry_equiv_pos_site_id
 _symmetry_equiv_pos_as_xyz
  1  'x, y, z'
loop_
 _atom_site_type_symbol
 _atom_site_label
 _atom_site_symmetry_multiplicity
 _atom_site_fract_x
 _atom_site_fract_y
 _atom_site_fract_z
 _atom_site_occupancy
  Ni  Ni0  1  0.12881100  0.33433700  0.98219000  1
  Ni  Ni1  1  0.85337900  0.87118900  0.20552500  1
  Ni  Ni2  1  0.66566300  0.64785300  0.79447500  1
  Ni  Ni3  1  0.25000000  0.75000000  0.50000000  1
  Ni  Ni4  1  0.35214700  0.14662100  0.01781000  1
  Cu  Cu5  1  0.55212300  0.34219800  0.43303900  1
  Cu  Cu6  1  0.65780200  0.09084100  0.20992500  1
  Cu  Cu7  1  0.88091600  0.44787700  0.79007500  1
  Cu  Cu8  1  0.90915900  0.11908400  0.56696100  1
  C  C9  1  0.36498600  0.51048700  0.35480700  1
  C  C10  1  0.15568000  0.01017900  0.64519300  1
  C  C11  1  0.98982100  0.63501400  0.14550100  1
  C  C12  1  0.48951300  0.84432000  0.85449900  1
  C  C13  1  0.88971800  0.66894500  0.01450000  1
  C  C14  1  0.22144400  0.54201200  0.75471100  1
  C  C15  1  0.06689100  0.00385200  0.47953200  1
  C  C16  1  0.45798800  0.21269900  0.67943100  1
  C  C17  1  0.41264100  0.93310900  0.93696100  1
  C  C18  1  0.65932800  0.01654500  0.74221200  1
  C  C19  1  0.53326700  0.77855600  0.32056900  1
  C  C20  1  0.99614800  0.47568000  0.06303900  1
  C  C21  1  0.33105500  0.34555500  0.22077300  1
  C  C22  1  0.78730100  0.46673300  0.24528900  1
  C  C23  1  0.12478200  0.11028200  0.77922700  1
  C  C24  1  0.98345500  0.72566600  0.64278200  1
  C  C25  1  0.27433400  0.91711600  0.25778800  1
  C  C26  1  0.52432000  0.58735900  0.52046800  1
  C  C27  1  0.08288400  0.34067200  0.35721800  1
  C  C28  1  0.65444500  0.87521800  0.98550000  1
  C  C29  1  0.75000000  0.25000000  0.50000000  1
