# generated using pymatgen
data_Cu16Ni53
_symmetry_space_group_name_H-M   'P 1'
_cell_length_a   7.67902797
_cell_length_b   7.67902797
_cell_length_c   33.32697800
_cell_angle_alpha   90.00000000
_cell_angle_beta   90.00000000
_cell_angle_gamma   109.26496491
_symmetry_Int_Tables_number   1
_chemical_formula_structural   Cu16Ni53
_chemical_formula_sum   'Cu32 Ni106'
_cell_volume   1855.16162243
_cell_formula_units_Z   2
loop_
 _symmetry_equiv_pos_site_id
 _symmetry_equiv_pos_as_xyz
  1  'x, y, z'
loop_
 _atom_site_type_symbol
 _atom_site_label
 _atom_site_symmetry_multiplicity
 _atom_site_fract_x
 _atom_site_fract_y
 _atom_site_fract_z
 _atom_site_occupancy
  Ni  Ni0  1  0.26502600  0.91357200  0.22284200  1
  Ni  Ni1  1  0.91966000  0.27526800  0.60155300  1
  Ni  Ni2  1  0.53445300  0.53445300  0.07639600  1
  Ni  Ni3  1  0.97469000  0.97469000  0.11369600  1
  Ni  Ni4  1  0.28849600  0.93078500  0.70818400  1
  Ni  Ni5  1  0.95189200  0.95189200  0.34638800  1
  Ni  Ni6  1  0.96058100  0.96058100  0.72815800  1
  Ni  Ni7  1  0.56637700  0.19473800  0.47656300  1
  Ni  Ni8  1  0.40113800  0.16058700  0.28028200  1
  Ni  Ni9  1  0.18838700  0.41210200  0.65401100  1
  Ni  Ni10  1  0.08370200  0.72755800  0.91421600  1
  Ni  Ni11  1  0.69473800  0.06637700  0.02343700  1
  Ni  Ni12  1  0.00000000  0.00000000  0.50000000  1
  Ni  Ni13  1  0.44214200  0.81287300  0.15734400  1
  Ni  Ni14  1  0.56921500  0.21150400  0.20818400  1
  Ni  Ni15  1  0.63491500  0.88544200  0.09173700  1
  Ni  Ni16  1  0.03445300  0.03445300  0.42360400  1
  Ni  Ni17  1  0.58034000  0.22473200  0.10155300  1
  Ni  Ni18  1  0.08642800  0.73497400  0.77715800  1
  Ni  Ni19  1  0.27244200  0.91629800  0.08578400  1
  Ni  Ni20  1  0.93362300  0.30526200  0.97656300  1
  Ni  Ni21  1  0.44968100  0.44968100  0.53599200  1
  Ni  Ni22  1  0.04810800  0.04810800  0.65361200  1
  Ni  Ni23  1  0.77244200  0.41629800  0.41421600  1
  Ni  Ni24  1  0.53941900  0.53941900  0.22815800  1
  Ni  Ni25  1  0.77526800  0.41966000  0.89844700  1
  Ni  Ni26  1  0.93078500  0.28849600  0.70818400  1
  Ni  Ni27  1  0.94968100  0.94968100  0.96400800  1
  Ni  Ni28  1  0.66058700  0.90113800  0.21971800  1
  Ni  Ni29  1  0.18712700  0.55785800  0.84265600  1
  Ni  Ni30  1  0.55031900  0.55031900  0.46400800  1
  Ni  Ni31  1  0.11455800  0.36508500  0.90826300  1
  Ni  Ni32  1  0.55785800  0.18712700  0.84265600  1
  Ni  Ni33  1  0.08497300  0.31843500  0.53185000  1
  Ni  Ni34  1  0.58497300  0.81843500  0.96815000  1
  Ni  Ni35  1  0.78849600  0.43078500  0.79181600  1
  Ni  Ni36  1  0.41210200  0.18838700  0.65401100  1
  Ni  Ni37  1  0.36508500  0.11455800  0.90826300  1
  Ni  Ni38  1  0.48695200  0.48695200  0.30942100  1
  Ni  Ni39  1  0.59886200  0.83941300  0.71971800  1
  Ni  Ni40  1  0.18156500  0.41502700  0.03185000  1
  Ni  Ni41  1  0.68712700  0.05785800  0.65734400  1
  Ni  Ni42  1  0.73497400  0.08642800  0.77715800  1
  Ni  Ni43  1  0.91502700  0.68156500  0.46815000  1
  Ni  Ni44  1  0.58370200  0.22755800  0.58578400  1
  Ni  Ni45  1  0.43362300  0.80526200  0.52343700  1
  Ni  Ni46  1  0.16058700  0.40113800  0.28028200  1
  Ni  Ni47  1  0.45189200  0.45189200  0.15361200  1
  Ni  Ni48  1  0.46058100  0.46058100  0.77184200  1
  Ni  Ni49  1  0.58642800  0.23497400  0.72284200  1
  Ni  Ni50  1  0.68838700  0.91210200  0.84598900  1
  Ni  Ni51  1  0.41966000  0.77526800  0.89844700  1
  Ni  Ni52  1  0.01304800  0.01304800  0.80942100  1
  Ni  Ni53  1  0.22755800  0.58370200  0.58578400  1
  Ni  Ni54  1  0.05785800  0.68712700  0.65734400  1
  Ni  Ni55  1  0.98695200  0.98695200  0.19057900  1
  Ni  Ni56  1  0.91210200  0.68838700  0.84598900  1
  Ni  Ni57  1  0.58789800  0.81161300  0.34598900  1
  Ni  Ni58  1  0.08789800  0.31161300  0.15401100  1
  Ni  Ni59  1  0.03941900  0.03941900  0.27184200  1
  Ni  Ni60  1  0.23497400  0.58642800  0.72284200  1
  Ni  Ni61  1  0.09886200  0.33941300  0.78028200  1
  Ni  Ni62  1  0.31287300  0.94214200  0.34265600  1
  Ni  Ni63  1  0.94214200  0.31287300  0.34265600  1
  Ni  Ni64  1  0.96554700  0.96554700  0.57639600  1
  Ni  Ni65  1  0.02531000  0.02531000  0.88630400  1
  Ni  Ni66  1  0.21150400  0.56921500  0.20818400  1
  Ni  Ni67  1  0.51304800  0.51304800  0.69057900  1
  Ni  Ni68  1  0.43078500  0.78849600  0.79181600  1
  Ni  Ni69  1  0.91357200  0.26502600  0.22284200  1
  Ni  Ni70  1  0.05031900  0.05031900  0.03599200  1
  Ni  Ni71  1  0.76502600  0.41357200  0.27715800  1
  Ni  Ni72  1  0.38544200  0.13491500  0.40826300  1
  Ni  Ni73  1  0.54810800  0.54810800  0.84638800  1
  Ni  Ni74  1  0.71150400  0.06921500  0.29181600  1
  Ni  Ni75  1  0.13491500  0.38544200  0.40826300  1
  Ni  Ni76  1  0.31843500  0.08497300  0.53185000  1
  Ni  Ni77  1  0.27526800  0.91966000  0.60155300  1
  Ni  Ni78  1  0.06637700  0.69473800  0.02343700  1
  Ni  Ni79  1  0.08034000  0.72473200  0.39844700  1
  Ni  Ni80  1  0.22473200  0.58034000  0.10155300  1
  Ni  Ni81  1  0.68156500  0.91502700  0.46815000  1
  Ni  Ni82  1  0.46554700  0.46554700  0.92360400  1
  Ni  Ni83  1  0.06921500  0.71150400  0.29181600  1
  Ni  Ni84  1  0.80526200  0.43362300  0.52343700  1
  Ni  Ni85  1  0.61455800  0.86508500  0.59173700  1
  Ni  Ni86  1  0.31161300  0.08789800  0.15401100  1
  Ni  Ni87  1  0.86508500  0.61455800  0.59173700  1
  Ni  Ni88  1  0.41502700  0.18156500  0.03185000  1
  Ni  Ni89  1  0.52531000  0.52531000  0.61369600  1
  Ni  Ni90  1  0.50000000  0.50000000  0.00000000  1
  Ni  Ni91  1  0.90113800  0.66058700  0.21971800  1
  Ni  Ni92  1  0.33941300  0.09886200  0.78028200  1
  Ni  Ni93  1  0.91629800  0.27244200  0.08578400  1
  Ni  Ni94  1  0.88544200  0.63491500  0.09173700  1
  Ni  Ni95  1  0.41357200  0.76502600  0.27715800  1
  Ni  Ni96  1  0.47469000  0.47469000  0.38630400  1
  Ni  Ni97  1  0.81287300  0.44214200  0.15734400  1
  Ni  Ni98  1  0.81843500  0.58497300  0.96815000  1
  Ni  Ni99  1  0.72755800  0.08370200  0.91421600  1
  Ni  Ni100  1  0.83941300  0.59886200  0.71971800  1
  Ni  Ni101  1  0.41629800  0.77244200  0.41421600  1
  Ni  Ni102  1  0.19473800  0.56637700  0.47656300  1
  Ni  Ni103  1  0.30526200  0.93362300  0.97656300  1
  Ni  Ni104  1  0.72473200  0.08034000  0.39844700  1
  Ni  Ni105  1  0.81161300  0.58789800  0.34598900  1
  Cu  Cu106  1  0.74418300  0.74418300  0.78142300  1
  Cu  Cu107  1  0.73347200  0.73347200  0.15619100  1
  Cu  Cu108  1  0.59146800  0.24100000  0.96523200  1
  Cu  Cu109  1  0.76833400  0.76833400  0.03034100  1
  Cu  Cu110  1  0.24100000  0.59146800  0.96523200  1
  Cu  Cu111  1  0.25900000  0.90853200  0.46523200  1
  Cu  Cu112  1  0.25391700  0.25391700  0.09238400  1
  Cu  Cu113  1  0.26652800  0.26652800  0.84380900  1
  Cu  Cu114  1  0.26833400  0.26833400  0.46965900  1
  Cu  Cu115  1  0.25581700  0.25581700  0.21857700  1
  Cu  Cu116  1  0.23166600  0.23166600  0.96965900  1
  Cu  Cu117  1  0.09496000  0.74135500  0.15468300  1
  Cu  Cu118  1  0.76652800  0.76652800  0.65619100  1
  Cu  Cu119  1  0.25864500  0.90504000  0.84531700  1
  Cu  Cu120  1  0.24418300  0.24418300  0.71857700  1
  Cu  Cu121  1  0.74135500  0.09496000  0.15468300  1
  Cu  Cu122  1  0.40504000  0.75864500  0.65468300  1
  Cu  Cu123  1  0.73166600  0.73166600  0.53034100  1
  Cu  Cu124  1  0.90853200  0.25900000  0.46523200  1
  Cu  Cu125  1  0.75864500  0.40504000  0.65468300  1
  Cu  Cu126  1  0.74608300  0.74608300  0.90761600  1
  Cu  Cu127  1  0.74100000  0.09146800  0.53476800  1
  Cu  Cu128  1  0.90504000  0.25864500  0.84531700  1
  Cu  Cu129  1  0.24608300  0.24608300  0.59238400  1
  Cu  Cu130  1  0.24135500  0.59496000  0.34531700  1
  Cu  Cu131  1  0.75900000  0.40853200  0.03476800  1
  Cu  Cu132  1  0.75581700  0.75581700  0.28142300  1
  Cu  Cu133  1  0.09146800  0.74100000  0.53476800  1
  Cu  Cu134  1  0.23347200  0.23347200  0.34380900  1
  Cu  Cu135  1  0.59496000  0.24135500  0.34531700  1
  Cu  Cu136  1  0.75391700  0.75391700  0.40761600  1
  Cu  Cu137  1  0.40853200  0.75900000  0.03476800  1
