# generated using pymatgen
data_Cu2NiC4
_symmetry_space_group_name_H-M   'P 1'
_cell_length_a   5.78442959
_cell_length_b   5.78442959
_cell_length_c   9.64708011
_cell_angle_alpha   72.55428286
_cell_angle_beta   72.55428286
_cell_angle_gamma   60.00000467
_symmetry_Int_Tables_number   1
_chemical_formula_structural   Cu2NiC4
_chemical_formula_sum   'Cu2 Ni1 C4'
_cell_volume   262.25755071
_cell_formula_units_Z   1
loop_
 _symmetry_equiv_pos_site_id
 _symmetry_equiv_pos_as_xyz
  1  'x, y, z'
loop_
 _atom_site_type_symbol
 _atom_site_label
 _atom_site_symmetry_multiplicity
 _atom_site_fract_x
 _atom_site_fract_y
 _atom_site_fract_z
 _atom_site_occupancy
  C  C0  1  0.38477100  0.38477100  0.84568700  1
  C  C1  1  0.20880700  0.20880700  0.37357900  1
  C  C2  1  0.79119300  0.79119300  0.62642100  1
  C  C3  1  0.61522900  0.61522900  0.15431300  1
  Ni  Ni4  1  0.00000000  0.00000000  0.00000000  1
  Cu  Cu5  1  0.08567800  0.08567800  0.74296600  1
  Cu  Cu6  1  0.91432200  0.91432200  0.25703400  1
