# generated using pymatgen
data_Cu2NiC4
_symmetry_space_group_name_H-M   'P 1'
_cell_length_a   6.19661028
_cell_length_b   6.19661003
_cell_length_c   6.19661053
_cell_angle_alpha   119.99999236
_cell_angle_beta   89.99999443
_cell_angle_gamma   60.00000277
_symmetry_Int_Tables_number   1
_chemical_formula_structural   Cu2NiC4
_chemical_formula_sum   'Cu4 Ni2 C8'
_cell_volume   168.24710473
_cell_formula_units_Z   2
loop_
 _symmetry_equiv_pos_site_id
 _symmetry_equiv_pos_as_xyz
  1  'x, y, z'
loop_
 _atom_site_type_symbol
 _atom_site_label
 _atom_site_symmetry_multiplicity
 _atom_site_fract_x
 _atom_site_fract_y
 _atom_site_fract_z
 _atom_site_occupancy
  Ni  Ni0  1  0.87500000  0.75000000  0.87500000  1
  Ni  Ni1  1  0.12500000  0.25000000  0.12500000  1
  Cu  Cu2  1  0.50000000  0.50000000  0.00000000  1
  Cu  Cu3  1  0.50000000  0.50000000  0.50000000  1
  Cu  Cu4  1  0.50000000  0.00000000  0.50000000  1
  Cu  Cu5  1  0.00000000  0.00000000  0.50000000  1
  C  C6  1  0.73684900  0.47369700  0.73684900  1
  C  C7  1  0.73684900  0.02630300  0.73684900  1
  C  C8  1  0.73684900  0.02630300  0.28945400  1
  C  C9  1  0.26315100  0.97369700  0.71054600  1
  C  C10  1  0.26315100  0.52630300  0.26315100  1
  C  C11  1  0.28945400  0.47369700  0.73684900  1
  C  C12  1  0.26315100  0.97369700  0.26315100  1
  C  C13  1  0.71054600  0.52630300  0.26315100  1
