# generated using pymatgen
data_Cu4Ni4C7
_symmetry_space_group_name_H-M   'P 1'
_cell_length_a   10.67963369
_cell_length_b   10.67963369
_cell_length_c   8.29809411
_cell_angle_alpha   84.19614915
_cell_angle_beta   84.19614915
_cell_angle_gamma   43.61766505
_symmetry_Int_Tables_number   1
_chemical_formula_structural   Cu4Ni4C7
_chemical_formula_sum   'Cu8 Ni8 C14'
_cell_volume   649.00750055
_cell_formula_units_Z   2
loop_
 _symmetry_equiv_pos_site_id
 _symmetry_equiv_pos_as_xyz
  1  'x, y, z'
loop_
 _atom_site_type_symbol
 _atom_site_label
 _atom_site_symmetry_multiplicity
 _atom_site_fract_x
 _atom_site_fract_y
 _atom_site_fract_z
 _atom_site_occupancy
  C  C0  1  0.33285600  0.66714400  0.25000000  1
  C  C1  1  0.66714400  0.33285600  0.75000000  1
  C  C2  1  0.70436300  0.89205100  0.26432500  1
  C  C3  1  0.29563700  0.10794900  0.73567500  1
  C  C4  1  0.10794900  0.29563700  0.23567500  1
  C  C5  1  0.89205100  0.70436300  0.76432500  1
  Ni  Ni6  1  0.40388000  0.34062700  0.16775300  1
  Ni  Ni7  1  0.84990400  0.98486700  0.95840500  1
  Ni  Ni8  1  0.15009600  0.01513300  0.04159500  1
  Ni  Ni9  1  0.01513300  0.15009600  0.54159500  1
  Ni  Ni10  1  0.34062700  0.40388000  0.66775300  1
  Ni  Ni11  1  0.65937300  0.59612000  0.33224700  1
  Ni  Ni12  1  0.98486700  0.84990400  0.45840500  1
  Ni  Ni13  1  0.59612000  0.65937300  0.83224700  1
  Cu  Cu14  1  0.41024900  0.18772400  0.13163500  1
  Cu  Cu15  1  0.05250700  0.21802500  0.97678100  1
  Cu  Cu16  1  0.18772400  0.41024900  0.63163500  1
  Cu  Cu17  1  0.81227600  0.58975100  0.36836500  1
  Cu  Cu18  1  0.58975100  0.81227600  0.86836500  1
  Cu  Cu19  1  0.78197500  0.94749300  0.52321900  1
  Cu  Cu20  1  0.21802500  0.05250700  0.47678100  1
  Cu  Cu21  1  0.94749300  0.78197500  0.02321900  1
  C  C22  1  0.22019800  0.86878800  0.08719300  1
  C  C23  1  0.39832800  0.45222700  0.18747700  1
  C  C24  1  0.13121200  0.77980200  0.41280700  1
  C  C25  1  0.86878800  0.22019800  0.58719300  1
  C  C26  1  0.45222700  0.39832800  0.68747700  1
  C  C27  1  0.77980200  0.13121200  0.91280700  1
  C  C28  1  0.60167200  0.54777300  0.81252300  1
  C  C29  1  0.54777300  0.60167200  0.31252300  1
