# generated using pymatgen
data_CuNi6C
_symmetry_space_group_name_H-M   'P 1'
_cell_length_a   4.70463500
_cell_length_b   5.32000965
_cell_length_c   5.32000965
_cell_angle_alpha   115.83138861
_cell_angle_beta   90.00000000
_cell_angle_gamma   90.00000000
_symmetry_Int_Tables_number   1
_chemical_formula_structural   CuNi6C
_chemical_formula_sum   'Cu2 Ni12 C2'
_cell_volume   119.84832907
_cell_formula_units_Z   2
loop_
 _symmetry_equiv_pos_site_id
 _symmetry_equiv_pos_as_xyz
  1  'x, y, z'
loop_
 _atom_site_type_symbol
 _atom_site_label
 _atom_site_symmetry_multiplicity
 _atom_site_fract_x
 _atom_site_fract_y
 _atom_site_fract_z
 _atom_site_occupancy
  C  C0  1  0.50000000  0.11277400  0.52797900  1
  C  C1  1  0.50000000  0.52797900  0.11277400  1
  Ni  Ni2  1  0.81710200  0.25766900  0.25766900  1
  Ni  Ni3  1  0.69378800  0.09773100  0.90233900  1
  Ni  Ni4  1  0.69378800  0.90233900  0.09773100  1
  Ni  Ni5  1  0.18345800  0.74346000  0.74346000  1
  Ni  Ni6  1  0.00000000  0.99349900  0.33233400  1
  Ni  Ni7  1  0.30621200  0.90233900  0.09773100  1
  Ni  Ni8  1  0.00000000  0.66934300  0.00713900  1
  Ni  Ni9  1  0.00000000  0.33233400  0.99349900  1
  Ni  Ni10  1  0.30621200  0.09773100  0.90233900  1
  Ni  Ni11  1  0.18289800  0.25766900  0.25766900  1
  Ni  Ni12  1  0.00000000  0.00713900  0.66934300  1
  Ni  Ni13  1  0.81654200  0.74346000  0.74346000  1
  Cu  Cu14  1  0.64651200  0.50196800  0.50196800  1
  Cu  Cu15  1  0.35348800  0.50196800  0.50196800  1
