# generated using pymatgen
data_Cu13NiC10
_symmetry_space_group_name_H-M   'P 1'
_cell_length_a   5.94303673
_cell_length_b   5.94303673
_cell_length_c   25.55257600
_cell_angle_alpha   90.00000000
_cell_angle_beta   90.00000000
_cell_angle_gamma   120.00000818
_symmetry_Int_Tables_number   1
_chemical_formula_structural   Cu13NiC10
_chemical_formula_sum   'Cu26 Ni2 C20'
_cell_volume   781.59561461
_cell_formula_units_Z   2
loop_
 _symmetry_equiv_pos_site_id
 _symmetry_equiv_pos_as_xyz
  1  'x, y, z'
loop_
 _atom_site_type_symbol
 _atom_site_label
 _atom_site_symmetry_multiplicity
 _atom_site_fract_x
 _atom_site_fract_y
 _atom_site_fract_z
 _atom_site_occupancy
  C  C0  1  0.00000000  0.00000000  0.75000000  1
  C  C1  1  0.66666700  0.33333300  0.03972200  1
  C  C2  1  0.33333300  0.66666700  0.53972200  1
  C  C3  1  0.33333300  0.66666700  0.36840800  1
  C  C4  1  0.66666700  0.33333300  0.63159200  1
  C  C5  1  0.66666700  0.33333300  0.86840800  1
  C  C6  1  0.33333300  0.66666700  0.96027800  1
  C  C7  1  0.33333300  0.66666700  0.13159200  1
  C  C8  1  0.66666700  0.33333300  0.46027800  1
  C  C9  1  0.00000000  0.00000000  0.25000000  1
  C  C10  1  0.33333300  0.66666700  0.68203900  1
  C  C11  1  0.66666700  0.33333300  0.18203900  1
  C  C12  1  0.66666700  0.33333300  0.31796100  1
  C  C13  1  0.33333300  0.66666700  0.81796100  1
  C  C14  1  0.00000000  0.00000000  0.88743500  1
  C  C15  1  0.00000000  0.00000000  0.11256500  1
  C  C16  1  0.00000000  0.00000000  0.38743500  1
  C  C17  1  0.00000000  0.00000000  0.61256500  1
  C  C18  1  0.00000000  0.00000000  0.50000000  1
  C  C19  1  0.00000000  0.00000000  0.00000000  1
  Ni  Ni20  1  0.66666700  0.33333300  0.75000000  1
  Ni  Ni21  1  0.33333300  0.66666700  0.25000000  1
  Cu  Cu22  1  0.82671100  0.65342200  0.15592800  1
  Cu  Cu23  1  0.33333300  0.66666700  0.75000000  1
  Cu  Cu24  1  0.84544800  0.69089600  0.54767800  1
  Cu  Cu25  1  0.17328900  0.82671100  0.84407200  1
  Cu  Cu26  1  0.82671100  0.17328900  0.34407200  1
  Cu  Cu27  1  0.15455200  0.84544800  0.45232200  1
  Cu  Cu28  1  0.15455200  0.84544800  0.04767800  1
  Cu  Cu29  1  0.34657800  0.17328900  0.34407200  1
  Cu  Cu30  1  0.15455200  0.30910400  0.45232200  1
  Cu  Cu31  1  0.84544800  0.15455200  0.95232200  1
  Cu  Cu32  1  0.30910400  0.15455200  0.54767800  1
  Cu  Cu33  1  0.17328900  0.82671100  0.65592800  1
  Cu  Cu34  1  0.69089600  0.84544800  0.45232200  1
  Cu  Cu35  1  0.66666700  0.33333300  0.25000000  1
  Cu  Cu36  1  0.17328900  0.34657800  0.84407200  1
  Cu  Cu37  1  0.17328900  0.34657800  0.65592800  1
  Cu  Cu38  1  0.82671100  0.65342200  0.34407200  1
  Cu  Cu39  1  0.69089600  0.84544800  0.04767800  1
  Cu  Cu40  1  0.30910400  0.15455200  0.95232200  1
  Cu  Cu41  1  0.84544800  0.15455200  0.54767800  1
  Cu  Cu42  1  0.65342200  0.82671100  0.65592800  1
  Cu  Cu43  1  0.82671100  0.17328900  0.15592800  1
  Cu  Cu44  1  0.34657800  0.17328900  0.15592800  1
  Cu  Cu45  1  0.84544800  0.69089600  0.95232200  1
  Cu  Cu46  1  0.15455200  0.30910400  0.04767800  1
  Cu  Cu47  1  0.65342200  0.82671100  0.84407200  1
