# generated using pymatgen
data_CuNiC12
_symmetry_space_group_name_H-M   'P 1'
_cell_length_a   15.14430967
_cell_length_b   12.50537918
_cell_length_c   12.48149581
_cell_angle_alpha   74.61465212
_cell_angle_beta   52.76454471
_cell_angle_gamma   52.62080317
_symmetry_Int_Tables_number   1
_chemical_formula_structural   CuNiC12
_chemical_formula_sum   'Cu4 Ni4 C48'
_cell_volume   1475.89579294
_cell_formula_units_Z   4
loop_
 _symmetry_equiv_pos_site_id
 _symmetry_equiv_pos_as_xyz
  1  'x, y, z'
loop_
 _atom_site_type_symbol
 _atom_site_label
 _atom_site_symmetry_multiplicity
 _atom_site_fract_x
 _atom_site_fract_y
 _atom_site_fract_z
 _atom_site_occupancy
  Ni  Ni0  1  0.62162600  0.62162600  0.12837400  1
  Ni  Ni1  1  0.12837400  0.12837400  0.62162600  1
  Ni  Ni2  1  0.87162600  0.87162600  0.37837400  1
  Ni  Ni3  1  0.37837400  0.37837400  0.87162600  1
  Cu  Cu4  1  0.37500000  0.37500000  0.37500000  1
  Cu  Cu5  1  0.62500000  0.62500000  0.62500000  1
  Cu  Cu6  1  0.12500000  0.12500000  0.12500000  1
  Cu  Cu7  1  0.87500000  0.87500000  0.87500000  1
  C  C8  1  0.13691200  0.86832700  0.88375300  1
  C  C9  1  0.64029800  0.36148700  0.46955600  1
  C  C10  1  0.61100900  0.88375300  0.86832700  1
  C  C11  1  0.53044400  0.97134100  0.35970200  1
  C  C12  1  0.86308800  0.13167300  0.11624700  1
  C  C13  1  0.63851300  0.35970200  0.97134100  1
  C  C14  1  0.88375300  0.61100900  0.13691200  1
  C  C15  1  0.46955600  0.02865900  0.64029800  1
  C  C16  1  0.35970200  0.63851300  0.53044400  1
  C  C17  1  0.36148700  0.64029800  0.02865900  1
  C  C18  1  0.11624700  0.38899100  0.86308800  1
  C  C19  1  0.02865900  0.46955600  0.36148700  1
  C  C20  1  0.13167300  0.86308800  0.38899100  1
  C  C21  1  0.86832700  0.13691200  0.61100900  1
  C  C22  1  0.38899100  0.11624700  0.13167300  1
  C  C23  1  0.97134100  0.53044400  0.63851300  1
  C  C24  1  0.09010400  0.08331500  0.40476000  1
  C  C25  1  0.90654200  0.41935200  0.58891900  1
  C  C26  1  0.14885100  0.85021900  0.18282200  1
  C  C27  1  0.58891900  0.58518700  0.90654200  1
  C  C28  1  0.07817900  0.59524000  0.91668500  1
  C  C29  1  0.68189100  0.81717800  0.14978100  1
  C  C30  1  0.41108100  0.41481300  0.09345800  1
  C  C31  1  0.65666700  0.83677200  0.65783200  1
  C  C32  1  0.41935200  0.90654200  0.58518700  1
  C  C33  1  0.31810900  0.18282200  0.85021900  1
  C  C34  1  0.90989600  0.91668500  0.59524000  1
  C  C35  1  0.34333300  0.16322800  0.34216800  1
  C  C36  1  0.92182100  0.40476000  0.08331500  1
  C  C37  1  0.83677200  0.65666700  0.34872900  1
  C  C38  1  0.16322800  0.34333300  0.65127100  1
  C  C39  1  0.58518700  0.58891900  0.41935200  1
  C  C40  1  0.85114900  0.14978100  0.81717800  1
  C  C41  1  0.34872900  0.65783200  0.83677200  1
  C  C42  1  0.18282200  0.31810900  0.14885100  1
  C  C43  1  0.14978100  0.85114900  0.68189100  1
  C  C44  1  0.81717800  0.68189100  0.85114900  1
  C  C45  1  0.40476000  0.92182100  0.09010400  1
  C  C46  1  0.65783200  0.34872900  0.65666700  1
  C  C47  1  0.09345800  0.58064800  0.41108100  1
  C  C48  1  0.59524000  0.07817900  0.90989600  1
  C  C49  1  0.08331500  0.09010400  0.92182100  1
  C  C50  1  0.34216800  0.65127100  0.34333300  1
  C  C51  1  0.85021900  0.14885100  0.31810900  1
  C  C52  1  0.41481300  0.41108100  0.58064800  1
  C  C53  1  0.65127100  0.34216800  0.16322800  1
  C  C54  1  0.91668500  0.90989600  0.07817900  1
  C  C55  1  0.58064800  0.09345800  0.41481300  1
