# generated using pymatgen
data_Cu2NiC9
_symmetry_space_group_name_H-M   'P 1'
_cell_length_a   6.35573200
_cell_length_b   7.88256400
_cell_length_c   15.07294105
_cell_angle_alpha   67.79701483
_cell_angle_beta   90.00000000
_cell_angle_gamma   90.00000000
_symmetry_Int_Tables_number   1
_chemical_formula_structural   Cu2NiC9
_chemical_formula_sum   'Cu8 Ni4 C36'
_cell_volume   699.15285315
_cell_formula_units_Z   4
loop_
 _symmetry_equiv_pos_site_id
 _symmetry_equiv_pos_as_xyz
  1  'x, y, z'
loop_
 _atom_site_type_symbol
 _atom_site_label
 _atom_site_symmetry_multiplicity
 _atom_site_fract_x
 _atom_site_fract_y
 _atom_site_fract_z
 _atom_site_occupancy
  Ni  Ni0  1  0.17322500  0.85903900  0.94068300  1
  Ni  Ni1  1  0.82677500  0.14096100  0.05931700  1
  Ni  Ni2  1  0.32677500  0.85903900  0.44068300  1
  Ni  Ni3  1  0.67322500  0.14096100  0.55931700  1
  Cu  Cu4  1  0.84271800  0.58574500  0.35574900  1
  Cu  Cu5  1  0.65728200  0.58574500  0.85574900  1
  Cu  Cu6  1  0.27910000  0.90255600  0.19727300  1
  Cu  Cu7  1  0.34271800  0.41425500  0.14425100  1
  Cu  Cu8  1  0.22090000  0.90255600  0.69727300  1
  Cu  Cu9  1  0.72090000  0.09744400  0.80272700  1
  Cu  Cu10  1  0.15728200  0.41425500  0.64425100  1
  Cu  Cu11  1  0.77910000  0.09744400  0.30272700  1
  C  C12  1  0.27799100  0.30655900  0.40272700  1
  C  C13  1  0.72200900  0.69344100  0.59727300  1
  C  C14  1  0.22200900  0.30655900  0.90272700  1
  C  C15  1  0.77799100  0.69344100  0.09727300  1
  C  C16  1  0.18542000  0.45287000  0.47271100  1
  C  C17  1  0.81458000  0.54713000  0.52728900  1
  C  C18  1  0.19816200  0.08088300  0.01555900  1
  C  C19  1  0.98209700  0.25489700  0.38950800  1
  C  C20  1  0.05412400  0.85435300  0.34329600  1
  C  C21  1  0.26462500  0.52751600  0.78433600  1
  C  C22  1  0.93012000  0.35570500  0.91799500  1
  C  C23  1  0.62377400  0.82466000  0.67751200  1
  C  C24  1  0.30183800  0.08088300  0.51555900  1
  C  C25  1  0.68542000  0.54713000  0.02728900  1
  C  C26  1  0.94444100  0.81606700  0.82610700  1
  C  C27  1  0.06988000  0.64429500  0.08200500  1
  C  C28  1  0.73537500  0.47248400  0.21566400  1
  C  C29  1  0.69816200  0.91911700  0.48444100  1
  C  C30  1  0.94587600  0.14564700  0.65670400  1
  C  C31  1  0.23537500  0.52751600  0.28433600  1
  C  C32  1  0.44587600  0.85435300  0.84329600  1
  C  C33  1  0.55412400  0.14564700  0.15670400  1
  C  C34  1  0.48209700  0.74510300  0.11049200  1
  C  C35  1  0.76462500  0.47248400  0.71566400  1
  C  C36  1  0.55555900  0.81606700  0.32610700  1
  C  C37  1  0.37622600  0.17534000  0.32248800  1
  C  C38  1  0.51790300  0.25489700  0.88950800  1
  C  C39  1  0.44444100  0.18393300  0.67389300  1
  C  C40  1  0.56988000  0.35570500  0.41799500  1
  C  C41  1  0.87622600  0.82466000  0.17751200  1
  C  C42  1  0.31458000  0.45287000  0.97271100  1
  C  C43  1  0.01790300  0.74510300  0.61049200  1
  C  C44  1  0.43012000  0.64429500  0.58200500  1
  C  C45  1  0.05555900  0.18393300  0.17389300  1
  C  C46  1  0.12377400  0.17534000  0.82248800  1
  C  C47  1  0.80183800  0.91911700  0.98444100  1
