# generated using pymatgen
data_Cu3(NiC6)2
_symmetry_space_group_name_H-M   'P 1'
_cell_length_a   8.87130900
_cell_length_b   8.54470300
_cell_length_c   14.67670623
_cell_angle_alpha   55.55817310
_cell_angle_beta   90.00000000
_cell_angle_gamma   90.00000000
_symmetry_Int_Tables_number   1
_chemical_formula_structural   Cu3(NiC6)2
_chemical_formula_sum   'Cu12 Ni8 C48'
_cell_volume   917.50770169
_cell_formula_units_Z   4
loop_
 _symmetry_equiv_pos_site_id
 _symmetry_equiv_pos_as_xyz
  1  'x, y, z'
loop_
 _atom_site_type_symbol
 _atom_site_label
 _atom_site_symmetry_multiplicity
 _atom_site_fract_x
 _atom_site_fract_y
 _atom_site_fract_z
 _atom_site_occupancy
  Ni  Ni0  1  0.03326500  0.63717600  0.61416100  1
  Ni  Ni1  1  0.03052500  0.86511900  0.88351700  1
  Ni  Ni2  1  0.46673500  0.63717600  0.11416100  1
  Ni  Ni3  1  0.96947500  0.13488100  0.11648300  1
  Ni  Ni4  1  0.53052500  0.13488100  0.61648300  1
  Ni  Ni5  1  0.96673500  0.36282400  0.38583900  1
  Ni  Ni6  1  0.53326500  0.36282400  0.88583900  1
  Ni  Ni7  1  0.46947500  0.86511900  0.38351700  1
  Cu  Cu8  1  0.11652600  0.75029400  0.35311300  1
  Cu  Cu9  1  0.61802200  0.52685000  0.35320200  1
  Cu  Cu10  1  0.38197800  0.47315000  0.64679800  1
  Cu  Cu11  1  0.25700500  0.04209000  0.99561100  1
  Cu  Cu12  1  0.88347400  0.24970600  0.64688700  1
  Cu  Cu13  1  0.75700500  0.95791000  0.50438900  1
  Cu  Cu14  1  0.88197800  0.52685000  0.85320200  1
  Cu  Cu15  1  0.74299500  0.95791000  0.00438900  1
  Cu  Cu16  1  0.24299500  0.04209000  0.49561100  1
  Cu  Cu17  1  0.61652600  0.24970600  0.14688700  1
  Cu  Cu18  1  0.11802200  0.47315000  0.14679800  1
  Cu  Cu19  1  0.38347400  0.75029400  0.85311300  1
  C  C20  1  0.22344800  0.49398000  0.68606500  1
  C  C21  1  0.90498400  0.34907000  0.52030400  1
  C  C22  1  0.06571800  0.61026900  0.32267500  1
  C  C23  1  0.66479000  0.76276300  0.04838500  1
  C  C24  1  0.80715800  0.95791700  0.10168000  1
  C  C25  1  0.86114100  0.99224300  0.91834500  1
  C  C26  1  0.48004600  0.93130900  0.78910000  1
  C  C27  1  0.93428200  0.38973100  0.67732500  1
  C  C28  1  0.01199100  0.37930200  0.24922400  1
  C  C29  1  0.37462800  0.33766400  0.60907000  1
  C  C30  1  0.21398200  0.78146600  0.82648500  1
  C  C31  1  0.55696400  0.32905700  0.44276500  1
  C  C32  1  0.40498400  0.65093000  0.97969600  1
  C  C33  1  0.19284200  0.04208300  0.89832000  1
  C  C34  1  0.51995400  0.06869100  0.21090000  1
  C  C35  1  0.83521000  0.76276300  0.54838500  1
  C  C36  1  0.48800900  0.37930200  0.74922400  1
  C  C37  1  0.30715800  0.04208300  0.39832000  1
  C  C38  1  0.16479000  0.23723700  0.45161500  1
  C  C39  1  0.56571800  0.38973100  0.17732500  1
  C  C40  1  0.33521000  0.23723700  0.95161500  1
  C  C41  1  0.78601800  0.21853400  0.17351500  1
  C  C42  1  0.71398200  0.21853400  0.67351500  1
  C  C43  1  0.36114100  0.00775700  0.58165500  1
  C  C44  1  0.27655200  0.49398000  0.18606500  1
  C  C45  1  0.51199100  0.62069800  0.25077600  1
  C  C46  1  0.98004600  0.06869100  0.71090000  1
  C  C47  1  0.13885900  0.00775700  0.08165500  1
  C  C48  1  0.77655200  0.50602000  0.31393500  1
  C  C49  1  0.44303600  0.67094300  0.55723500  1
  C  C50  1  0.28601800  0.78146600  0.32648500  1
  C  C51  1  0.62537200  0.66233600  0.39093000  1
  C  C52  1  0.63885900  0.99224300  0.41834500  1
  C  C53  1  0.98800900  0.62069800  0.75077600  1
  C  C54  1  0.01995400  0.93130900  0.28910000  1
  C  C55  1  0.94303600  0.32905700  0.94276500  1
  C  C56  1  0.72344800  0.50602000  0.81393500  1
  C  C57  1  0.09501600  0.65093000  0.47969600  1
  C  C58  1  0.37877200  0.88589800  0.06114700  1
  C  C59  1  0.69284200  0.95791700  0.60168000  1
  C  C60  1  0.43428200  0.61026900  0.82267500  1
  C  C61  1  0.59501600  0.34907000  0.02030400  1
  C  C62  1  0.87462800  0.66233600  0.89093000  1
  C  C63  1  0.62122800  0.11410200  0.93885300  1
  C  C64  1  0.12537200  0.33766400  0.10907000  1
  C  C65  1  0.05696400  0.67094300  0.05723500  1
  C  C66  1  0.12122800  0.88589800  0.56114700  1
  C  C67  1  0.87877200  0.11410200  0.43885300  1
