# generated using pymatgen
data_Cu2Ni2C11
_symmetry_space_group_name_H-M   'P 1'
_cell_length_a   8.54222300
_cell_length_b   17.65439900
_cell_length_c   22.94636600
_cell_angle_alpha   90.00000000
_cell_angle_beta   90.00000000
_cell_angle_gamma   90.00000000
_symmetry_Int_Tables_number   1
_chemical_formula_structural   Cu2Ni2C11
_chemical_formula_sum   'Cu16 Ni16 C88'
_cell_volume   3460.49127709
_cell_formula_units_Z   8
loop_
 _symmetry_equiv_pos_site_id
 _symmetry_equiv_pos_as_xyz
  1  'x, y, z'
loop_
 _atom_site_type_symbol
 _atom_site_label
 _atom_site_symmetry_multiplicity
 _atom_site_fract_x
 _atom_site_fract_y
 _atom_site_fract_z
 _atom_site_occupancy
  Ni  Ni0  1  0.50000000  0.50000000  0.50000000  1
  Ni  Ni1  1  0.50067500  0.90906400  0.77549100  1
  Ni  Ni2  1  0.49932500  0.59093600  0.27549100  1
  Ni  Ni3  1  0.00067500  0.59093600  0.27549100  1
  Ni  Ni4  1  0.50000000  0.00000000  0.50000000  1
  Ni  Ni5  1  0.00067500  0.09093600  0.22450900  1
  Ni  Ni6  1  0.00000000  0.50000000  0.50000000  1
  Ni  Ni7  1  0.00000000  0.00000000  0.00000000  1
  Ni  Ni8  1  0.50000000  0.00000000  0.00000000  1
  Ni  Ni9  1  0.00000000  0.50000000  0.00000000  1
  Ni  Ni10  1  0.50000000  0.50000000  0.00000000  1
  Ni  Ni11  1  0.49932500  0.09093600  0.22450900  1
  Ni  Ni12  1  0.99932500  0.40906400  0.72450900  1
  Ni  Ni13  1  0.50067500  0.40906400  0.72450900  1
  Ni  Ni14  1  0.00000000  0.00000000  0.50000000  1
  Ni  Ni15  1  0.99932500  0.90906400  0.77549100  1
  Cu  Cu16  1  0.49906000  0.74772400  0.93175800  1
  Cu  Cu17  1  0.49711700  0.32752900  0.32510200  1
  Cu  Cu18  1  0.50094000  0.25227600  0.06824200  1
  Cu  Cu19  1  0.99906000  0.75227600  0.43175800  1
  Cu  Cu20  1  0.50288300  0.67247100  0.67489800  1
  Cu  Cu21  1  0.99906000  0.25227600  0.06824200  1
  Cu  Cu22  1  0.99711700  0.67247100  0.67489800  1
  Cu  Cu23  1  0.00094000  0.74772400  0.93175800  1
  Cu  Cu24  1  0.00288300  0.32752900  0.32510200  1
  Cu  Cu25  1  0.49711700  0.82752900  0.17489800  1
  Cu  Cu26  1  0.50094000  0.75227600  0.43175800  1
  Cu  Cu27  1  0.00288300  0.82752900  0.17489800  1
  Cu  Cu28  1  0.00094000  0.24772400  0.56824200  1
  Cu  Cu29  1  0.99711700  0.17247100  0.82510200  1
  Cu  Cu30  1  0.49906000  0.24772400  0.56824200  1
  Cu  Cu31  1  0.50288300  0.17247100  0.82510200  1
  C  C32  1  0.75000000  0.10727700  0.66696700  1
  C  C33  1  0.75000000  0.43267800  0.15330800  1
  C  C34  1  0.75000000  0.93267800  0.34669200  1
  C  C35  1  0.25000000  0.65997200  0.09824600  1
  C  C36  1  0.25000000  0.39272300  0.16696700  1
  C  C37  1  0.25000000  0.06732200  0.65330800  1
  C  C38  1  0.25000000  0.56732200  0.84669200  1
  C  C39  1  0.25000000  0.86899900  0.61581300  1
  C  C40  1  0.25000000  0.15997200  0.40175400  1
  C  C41  1  0.75000000  0.84002800  0.59824600  1
  C  C42  1  0.75000000  0.13100100  0.38418700  1
  C  C43  1  0.75000000  0.60727700  0.83303300  1
  C  C44  1  0.25000000  0.36899900  0.88418700  1
  C  C45  1  0.75000000  0.34002800  0.90175400  1
  C  C46  1  0.75000000  0.63100100  0.11581300  1
  C  C47  1  0.25000000  0.89272300  0.33303300  1
  C  C48  1  0.25000000  0.85541400  0.96801000  1
  C  C49  1  0.25000000  0.44364100  0.29229300  1
  C  C50  1  0.02016400  0.81699100  0.31042200  1
  C  C51  1  0.75000000  0.41134900  0.39300800  1
  C  C52  1  0.95670600  0.53183600  0.14010800  1
  C  C53  1  0.75000000  0.43214400  0.28785000  1
  C  C54  1  0.75000000  0.84685000  0.98370200  1
  C  C55  1  0.75000000  0.62887200  0.93994100  1
  C  C56  1  0.75000000  0.79084100  0.69804400  1
  C  C57  1  0.75000000  0.21050500  0.29606900  1
  C  C58  1  0.25000000  0.12717100  0.55549500  1
  C  C59  1  0.48439100  0.72872400  0.06578100  1
  C  C60  1  0.54329400  0.03183600  0.35989200  1
  C  C61  1  0.98439100  0.27127600  0.93421900  1
  C  C62  1  0.25000000  0.90588000  0.10582500  1
  C  C63  1  0.25000000  0.15315000  0.01629800  1
  C  C64  1  0.95670600  0.03183600  0.35989200  1
  C  C65  1  0.25000000  0.58865100  0.60699200  1
  C  C66  1  0.25000000  0.82902500  0.86499000  1
  C  C67  1  0.25000000  0.20915900  0.30195600  1
  C  C68  1  0.45670600  0.96816400  0.64010800  1
  C  C69  1  0.25000000  0.40588000  0.39417500  1
  C  C70  1  0.02016400  0.31699100  0.18957800  1
  C  C71  1  0.75000000  0.29084100  0.80195600  1
  C  C72  1  0.25000000  0.94364100  0.20770700  1
  C  C73  1  0.75000000  0.12887200  0.56005900  1
  C  C74  1  0.75000000  0.64458600  0.46801000  1
  C  C75  1  0.25000000  0.15831200  0.12129600  1
  C  C76  1  0.75000000  0.87282900  0.44450500  1
  C  C77  1  0.75000000  0.93214400  0.21215000  1
  C  C78  1  0.25000000  0.35541400  0.53199000  1
  C  C79  1  0.98439100  0.77127600  0.56578100  1
  C  C80  1  0.75000000  0.71050500  0.20393100  1
  C  C81  1  0.25000000  0.06785600  0.78785000  1
  C  C82  1  0.25000000  0.65831200  0.37870400  1
  C  C83  1  0.25000000  0.28949500  0.79606900  1
  C  C84  1  0.51560900  0.27127600  0.93421900  1
  C  C85  1  0.75000000  0.09412000  0.89417500  1
  C  C86  1  0.52016400  0.18300900  0.68957800  1
  C  C87  1  0.25000000  0.70915900  0.19804400  1
  C  C88  1  0.25000000  0.87112800  0.43994100  1
  C  C89  1  0.47983600  0.81699100  0.31042200  1
  C  C90  1  0.75000000  0.55635900  0.70770700  1
  C  C91  1  0.25000000  0.78949500  0.70393100  1
  C  C92  1  0.75000000  0.59412000  0.60582500  1
  C  C93  1  0.25000000  0.65315000  0.48370200  1
  C  C94  1  0.25000000  0.56785600  0.71215000  1
  C  C95  1  0.45670600  0.46816400  0.85989200  1
  C  C96  1  0.75000000  0.14458600  0.03199000  1
  C  C97  1  0.51560900  0.77127600  0.56578100  1
  C  C98  1  0.52016400  0.68300900  0.81042200  1
  C  C99  1  0.25000000  0.62717100  0.94450500  1
  C  C100  1  0.75000000  0.34685000  0.51629800  1
  C  C101  1  0.75000000  0.17097500  0.13501000  1
  C  C102  1  0.25000000  0.32902500  0.63501000  1
  C  C103  1  0.47983600  0.31699100  0.18957800  1
  C  C104  1  0.01560900  0.72872400  0.06578100  1
  C  C105  1  0.97983600  0.68300900  0.81042200  1
  C  C106  1  0.04329400  0.46816400  0.85989200  1
  C  C107  1  0.25000000  0.37112800  0.06005900  1
  C  C108  1  0.75000000  0.84168800  0.87870400  1
  C  C109  1  0.75000000  0.37282900  0.05549500  1
  C  C110  1  0.75000000  0.05635900  0.79229300  1
  C  C111  1  0.01560900  0.22872400  0.43421900  1
  C  C112  1  0.97983600  0.18300900  0.68957800  1
  C  C113  1  0.25000000  0.08865100  0.89300800  1
  C  C114  1  0.54329400  0.53183600  0.14010800  1
  C  C115  1  0.75000000  0.91134900  0.10699200  1
  C  C116  1  0.48439100  0.22872400  0.43421900  1
  C  C117  1  0.04329400  0.96816400  0.64010800  1
  C  C118  1  0.75000000  0.67097500  0.36499000  1
  C  C119  1  0.75000000  0.34168800  0.62129600  1
