# generated using pymatgen
data_Cu9Ni2C5
_symmetry_space_group_name_H-M   'P 1'
_cell_length_a   5.12911900
_cell_length_b   8.86206900
_cell_length_c   16.87453061
_cell_angle_alpha   70.38240236
_cell_angle_beta   90.00000000
_cell_angle_gamma   90.00000000
_symmetry_Int_Tables_number   1
_chemical_formula_structural   Cu9Ni2C5
_chemical_formula_sum   'Cu36 Ni8 C20'
_cell_volume   722.50269739
_cell_formula_units_Z   4
loop_
 _symmetry_equiv_pos_site_id
 _symmetry_equiv_pos_as_xyz
  1  'x, y, z'
loop_
 _atom_site_type_symbol
 _atom_site_label
 _atom_site_symmetry_multiplicity
 _atom_site_fract_x
 _atom_site_fract_y
 _atom_site_fract_z
 _atom_site_occupancy
  C  C0  1  0.75023800  0.24280400  0.01217400  1
  C  C1  1  0.25023800  0.75719600  0.48782600  1
  C  C2  1  0.24976200  0.75719600  0.98782600  1
  C  C3  1  0.74976200  0.24280400  0.51217400  1
  C  C4  1  0.22977300  0.40819800  0.78259400  1
  C  C5  1  0.72977300  0.59180200  0.71740600  1
  C  C6  1  0.77022700  0.59180200  0.21740600  1
  C  C7  1  0.27022700  0.40819800  0.28259400  1
  C  C8  1  0.92717400  0.15529100  0.77262100  1
  C  C9  1  0.42717400  0.84470900  0.72737900  1
  C  C10  1  0.07282600  0.84470900  0.22737900  1
  C  C11  1  0.57282600  0.15529100  0.27262100  1
  C  C12  1  0.21900900  0.29435600  0.68511100  1
  C  C13  1  0.71900900  0.70564400  0.81488900  1
  C  C14  1  0.78099100  0.70564400  0.31488900  1
  C  C15  1  0.28099100  0.29435600  0.18511100  1
  C  C16  1  0.36725400  0.18581200  0.76495500  1
  C  C17  1  0.86725400  0.81418800  0.73504500  1
  C  C18  1  0.63274600  0.81418800  0.23504500  1
  C  C19  1  0.13274600  0.18581200  0.26495500  1
  Ni  Ni20  1  0.24177100  0.46807300  0.89758700  1
  Ni  Ni21  1  0.74177100  0.53192700  0.60241300  1
  Ni  Ni22  1  0.75822900  0.53192700  0.10241300  1
  Ni  Ni23  1  0.25822900  0.46807300  0.39758700  1
  Ni  Ni24  1  0.75297600  0.99961500  0.88806900  1
  Ni  Ni25  1  0.25297600  0.00038500  0.61193100  1
  Ni  Ni26  1  0.24702400  0.00038500  0.11193100  1
  Ni  Ni27  1  0.74702400  0.99961500  0.38806900  1
  Cu  Cu28  1  0.40022000  0.32436500  0.93593700  1
  Cu  Cu29  1  0.90022000  0.67563500  0.56406300  1
  Cu  Cu30  1  0.59978000  0.67563500  0.06406300  1
  Cu  Cu31  1  0.09978000  0.32436500  0.43593700  1
  Cu  Cu32  1  0.96674600  0.44376400  0.92361900  1
  Cu  Cu33  1  0.46674600  0.55623600  0.57638100  1
  Cu  Cu34  1  0.03325400  0.55623600  0.07638100  1
  Cu  Cu35  1  0.53325400  0.44376400  0.42361900  1
  Cu  Cu36  1  0.35165700  0.61406600  0.90750900  1
  Cu  Cu37  1  0.85165700  0.38593400  0.59249100  1
  Cu  Cu38  1  0.64834300  0.38593400  0.09249100  1
  Cu  Cu39  1  0.14834300  0.61406600  0.40750900  1
  Cu  Cu40  1  0.25124500  0.50734500  0.79950200  1
  Cu  Cu41  1  0.75124500  0.49265500  0.70049800  1
  Cu  Cu42  1  0.74875500  0.49265500  0.20049800  1
  Cu  Cu43  1  0.24875500  0.50734500  0.29950200  1
  Cu  Cu44  1  0.47666800  0.95859100  0.90319600  1
  Cu  Cu45  1  0.97666800  0.04140900  0.59680400  1
  Cu  Cu46  1  0.52333200  0.04140900  0.09680400  1
  Cu  Cu47  1  0.02333200  0.95859100  0.40319600  1
  Cu  Cu48  1  0.92036600  0.85798000  0.90213300  1
  Cu  Cu49  1  0.42036600  0.14202000  0.59786700  1
  Cu  Cu50  1  0.07963400  0.14202000  0.09786700  1
  Cu  Cu51  1  0.57963400  0.85798000  0.40213300  1
  Cu  Cu52  1  0.85250000  0.10862800  0.92944200  1
  Cu  Cu53  1  0.35250000  0.89137200  0.57055800  1
  Cu  Cu54  1  0.14750000  0.89137200  0.07055800  1
  Cu  Cu55  1  0.64750000  0.10862800  0.42944200  1
  Cu  Cu56  1  0.75525100  0.09591800  0.78972100  1
  Cu  Cu57  1  0.25525100  0.90408200  0.71027900  1
  Cu  Cu58  1  0.24474900  0.90408200  0.21027900  1
  Cu  Cu59  1  0.74474900  0.09591800  0.28972100  1
  Cu  Cu60  1  0.21171600  0.25372700  0.74683200  1
  Cu  Cu61  1  0.71171600  0.74627300  0.75316800  1
  Cu  Cu62  1  0.78828400  0.74627300  0.25316800  1
  Cu  Cu63  1  0.28828400  0.25372700  0.24683200  1
