# generated using pymatgen
data_CuNiC18
_symmetry_space_group_name_H-M   'P 1'
_cell_length_a   6.63347077
_cell_length_b   6.63347077
_cell_length_c   16.03268251
_cell_angle_alpha   77.61853180
_cell_angle_beta   77.61853180
_cell_angle_gamma   84.59505244
_symmetry_Int_Tables_number   1
_chemical_formula_structural   CuNiC18
_chemical_formula_sum   'Cu3 Ni3 C54'
_cell_volume   672.18970536
_cell_formula_units_Z   3
loop_
 _symmetry_equiv_pos_site_id
 _symmetry_equiv_pos_as_xyz
  1  'x, y, z'
loop_
 _atom_site_type_symbol
 _atom_site_label
 _atom_site_symmetry_multiplicity
 _atom_site_fract_x
 _atom_site_fract_y
 _atom_site_fract_z
 _atom_site_occupancy
  Ni  Ni0  1  0.70092200  0.29992800  0.33183400  1
  Ni  Ni1  1  0.30133800  0.69866200  0.50000000  1
  Ni  Ni2  1  0.70007200  0.29907800  0.66816600  1
  Cu  Cu3  1  0.29939000  0.70088200  0.83509200  1
  Cu  Cu4  1  0.70294200  0.29705800  0.00000000  1
  Cu  Cu5  1  0.29911800  0.70061000  0.16490800  1
  C  C6  1  0.90551700  0.09690900  0.83163500  1
  C  C7  1  0.09037200  0.90962800  0.00000000  1
  C  C8  1  0.90309100  0.09448300  0.16836500  1
  C  C9  1  0.09143000  0.90602400  0.33472100  1
  C  C10  1  0.90422700  0.09577300  0.50000000  1
  C  C11  1  0.09397600  0.90857000  0.66527900  1
  C  C12  1  0.38179500  0.19333200  0.83843700  1
  C  C13  1  0.80493600  0.62112700  0.82646400  1
  C  C14  1  0.19292600  0.37909900  0.00593700  1
  C  C15  1  0.62090100  0.80707400  0.99406300  1
  C  C16  1  0.37887300  0.19506400  0.17353600  1
  C  C17  1  0.80666800  0.61820500  0.16156300  1
  C  C18  1  0.19912500  0.38006300  0.34064400  1
  C  C19  1  0.61758800  0.80123400  0.32763200  1
  C  C20  1  0.38291100  0.20096600  0.50656800  1
  C  C21  1  0.79903400  0.61708900  0.49343200  1
  C  C22  1  0.19876600  0.38241200  0.67236800  1
  C  C23  1  0.61993700  0.80087500  0.65935600  1
  C  C24  1  0.33315300  0.37002600  0.75058300  1
  C  C25  1  0.61237700  0.10231900  0.81324700  1
  C  C26  1  0.20079400  0.02834100  0.86865800  1
  C  C27  1  0.97460200  0.80016400  0.79345800  1
  C  C28  1  0.89175900  0.38898000  0.85496000  1
  C  C29  1  0.36581600  0.33748600  0.91553800  1
  C  C30  1  0.63730300  0.66384300  0.91755400  1
  C  C31  1  0.10947200  0.61340500  0.97723600  1
  C  C32  1  0.02749400  0.20076600  0.03615100  1
  C  C33  1  0.79923400  0.97250600  0.96384900  1
  C  C34  1  0.38659500  0.89052800  0.02276400  1
  C  C35  1  0.33615700  0.36269700  0.08244600  1
  C  C36  1  0.66251400  0.63418400  0.08446200  1
  C  C37  1  0.61102000  0.10824100  0.14504000  1
  C  C38  1  0.19983600  0.02539800  0.20654200  1
  C  C39  1  0.97165900  0.79920600  0.13134200  1
  C  C40  1  0.89768100  0.38762300  0.18675300  1
  C  C41  1  0.35682100  0.34140800  0.24795700  1
  C  C42  1  0.62997400  0.66684700  0.24941700  1
  C  C43  1  0.11233800  0.61627900  0.31307500  1
  C  C44  1  0.03348900  0.19408700  0.37149100  1
  C  C45  1  0.80588900  0.96105200  0.29980900  1
  C  C46  1  0.38285800  0.89304900  0.35233500  1
  C  C47  1  0.33767700  0.36090600  0.41607400  1
  C  C48  1  0.66031600  0.63468200  0.41772900  1
  C  C49  1  0.61569900  0.10615300  0.48178900  1
  C  C50  1  0.19467700  0.03544400  0.53729000  1
  C  C51  1  0.96455600  0.80532300  0.46271000  1
  C  C52  1  0.89384700  0.38430100  0.51821100  1
  C  C53  1  0.36531800  0.33968400  0.58227100  1
  C  C54  1  0.63909400  0.66232300  0.58392600  1
  C  C55  1  0.10695100  0.61714200  0.64766500  1
  C  C56  1  0.03894800  0.19411100  0.70019100  1
  C  C57  1  0.80591300  0.96651100  0.62850900  1
  C  C58  1  0.38372100  0.88766200  0.68692500  1
  C  C59  1  0.65859200  0.64317900  0.75204300  1
