# generated using pymatgen
data_Cu9NiC7
_symmetry_space_group_name_H-M   'P 1'
_cell_length_a   15.26866180
_cell_length_b   15.26866180
_cell_length_c   15.26866180
_cell_angle_alpha   109.47122063
_cell_angle_beta   109.47122063
_cell_angle_gamma   109.47122063
_symmetry_Int_Tables_number   1
_chemical_formula_structural   Cu9NiC7
_chemical_formula_sum   'Cu72 Ni8 C56'
_cell_volume   2740.19226463
_cell_formula_units_Z   8
loop_
 _symmetry_equiv_pos_site_id
 _symmetry_equiv_pos_as_xyz
  1  'x, y, z'
loop_
 _atom_site_type_symbol
 _atom_site_label
 _atom_site_symmetry_multiplicity
 _atom_site_fract_x
 _atom_site_fract_y
 _atom_site_fract_z
 _atom_site_occupancy
  C  C0  1  0.00000000  0.50000000  0.50000000  1
  C  C1  1  0.00000000  0.50000000  0.00000000  1
  C  C2  1  0.50000000  0.50000000  0.50000000  1
  C  C3  1  0.50000000  0.00000000  0.00000000  1
  C  C4  1  0.00000000  0.00000000  0.50000000  1
  C  C5  1  0.50000000  0.00000000  0.50000000  1
  C  C6  1  0.00000000  0.00000000  0.00000000  1
  C  C7  1  0.50000000  0.50000000  0.00000000  1
  C  C8  1  0.73951100  0.25000000  0.98951100  1
  C  C9  1  0.01959000  0.48041000  0.25000000  1
  C  C10  1  0.98951100  0.75000000  0.73951100  1
  C  C11  1  0.26959000  0.23041000  0.75000000  1
  C  C12  1  0.76048900  0.75000000  0.51048900  1
  C  C13  1  0.98041000  0.96082000  0.23041000  1
  C  C14  1  0.25000000  0.76048900  0.51048900  1
  C  C15  1  0.25000000  0.73041000  0.76959000  1
  C  C16  1  0.23041000  0.98041000  0.96082000  1
  C  C17  1  0.48041000  0.73041000  0.46082000  1
  C  C18  1  0.75000000  0.01048900  0.26048900  1
  C  C19  1  0.48951100  0.75000000  0.23951100  1
  C  C20  1  0.75000000  0.98041000  0.51959000  1
  C  C21  1  0.25000000  0.26048900  0.01048900  1
  C  C22  1  0.51959000  0.26959000  0.53918000  1
  C  C23  1  0.26048900  0.01048900  0.25000000  1
  C  C24  1  0.76048900  0.51048900  0.25000000  1
  C  C25  1  0.23951100  0.25000000  0.48951100  1
  C  C26  1  0.26959000  0.53918000  0.51959000  1
  C  C27  1  0.48951100  0.23951100  0.25000000  1
  C  C28  1  0.98041000  0.51959000  0.75000000  1
  C  C29  1  0.23951100  0.48951100  0.75000000  1
  C  C30  1  0.96082000  0.23041000  0.98041000  1
  C  C31  1  0.25000000  0.48951100  0.23951100  1
  C  C32  1  0.73041000  0.46082000  0.48041000  1
  C  C33  1  0.51048900  0.76048900  0.75000000  1
  C  C34  1  0.73041000  0.76959000  0.25000000  1
  C  C35  1  0.51959000  0.75000000  0.98041000  1
  C  C36  1  0.53918000  0.51959000  0.26959000  1
  C  C37  1  0.98951100  0.73951100  0.25000000  1
  C  C38  1  0.25000000  0.98951100  0.73951100  1
  C  C39  1  0.76959000  0.25000000  0.73041000  1
  C  C40  1  0.75000000  0.51048900  0.76048900  1
  C  C41  1  0.01959000  0.03918000  0.76959000  1
  C  C42  1  0.46082000  0.48041000  0.73041000  1
  C  C43  1  0.23041000  0.75000000  0.26959000  1
  C  C44  1  0.75000000  0.23951100  0.48951100  1
  C  C45  1  0.26048900  0.75000000  0.01048900  1
  C  C46  1  0.48041000  0.25000000  0.01959000  1
  C  C47  1  0.75000000  0.73951100  0.98951100  1
  C  C48  1  0.51048900  0.25000000  0.76048900  1
  C  C49  1  0.75000000  0.26959000  0.23041000  1
  C  C50  1  0.03918000  0.76959000  0.01959000  1
  C  C51  1  0.76959000  0.01959000  0.03918000  1
  C  C52  1  0.01048900  0.26048900  0.75000000  1
  C  C53  1  0.73951100  0.98951100  0.75000000  1
  C  C54  1  0.01048900  0.25000000  0.26048900  1
  C  C55  1  0.25000000  0.01959000  0.48041000  1
  Ni  Ni56  1  0.25000000  0.25000000  0.25000000  1
  Ni  Ni57  1  0.25000000  0.50000000  0.00000000  1
  Ni  Ni58  1  0.50000000  0.00000000  0.75000000  1
  Ni  Ni59  1  0.00000000  0.25000000  0.50000000  1
  Ni  Ni60  1  0.75000000  0.75000000  0.75000000  1
  Ni  Ni61  1  0.00000000  0.75000000  0.50000000  1
  Ni  Ni62  1  0.75000000  0.50000000  0.00000000  1
  Ni  Ni63  1  0.50000000  0.00000000  0.25000000  1
  Cu  Cu64  1  0.71080900  0.60540500  0.35540500  1
  Cu  Cu65  1  0.06244700  0.71481100  0.15058500  1
  Cu  Cu66  1  0.91186200  0.34941500  0.06422600  1
  Cu  Cu67  1  0.43755300  0.58813800  0.65236400  1
  Cu  Cu68  1  0.28919100  0.39459500  0.64459500  1
  Cu  Cu69  1  0.64459500  0.85540500  0.25000000  1
  Cu  Cu70  1  0.41186200  0.34763600  0.56244700  1
  Cu  Cu71  1  0.35540500  0.71080900  0.60540500  1
  Cu  Cu72  1  0.35540500  0.14459500  0.75000000  1
  Cu  Cu73  1  0.08813800  0.93755300  0.15236400  1
  Cu  Cu74  1  0.34941500  0.78518900  0.43755300  1
  Cu  Cu75  1  0.21481100  0.15236400  0.56422600  1
  Cu  Cu76  1  0.34763600  0.28518900  0.93577400  1
  Cu  Cu77  1  0.71481100  0.06422600  0.65236400  1
  Cu  Cu78  1  0.65058500  0.21481100  0.56244700  1
  Cu  Cu79  1  0.15236400  0.08813800  0.93755300  1
  Cu  Cu80  1  0.58813800  0.43577400  0.15058500  1
  Cu  Cu81  1  0.56422600  0.21481100  0.15236400  1
  Cu  Cu82  1  0.06422600  0.65236400  0.71481100  1
  Cu  Cu83  1  0.93577400  0.08813800  0.65058500  1
  Cu  Cu84  1  0.14459500  0.75000000  0.35540500  1
  Cu  Cu85  1  0.93755300  0.15236400  0.08813800  1
  Cu  Cu86  1  0.34763600  0.56244700  0.41186200  1
  Cu  Cu87  1  0.56422600  0.84941500  0.41186200  1
  Cu  Cu88  1  0.75000000  0.35540500  0.14459500  1
  Cu  Cu89  1  0.65058500  0.93577400  0.08813800  1
  Cu  Cu90  1  0.89459500  0.78919100  0.14459500  1
  Cu  Cu91  1  0.65236400  0.71481100  0.06422600  1
  Cu  Cu92  1  0.93755300  0.28518900  0.84941500  1
  Cu  Cu93  1  0.43577400  0.15058500  0.58813800  1
  Cu  Cu94  1  0.25000000  0.64459500  0.85540500  1
  Cu  Cu95  1  0.34941500  0.06422600  0.91186200  1
  Cu  Cu96  1  0.15058500  0.06244700  0.71481100  1
  Cu  Cu97  1  0.43755300  0.34941500  0.78518900  1
  Cu  Cu98  1  0.21481100  0.56244700  0.65058500  1
  Cu  Cu99  1  0.78919100  0.14459500  0.89459500  1
  Cu  Cu100  1  0.84763600  0.91186200  0.06244700  1
  Cu  Cu101  1  0.10540500  0.39459500  0.25000000  1
  Cu  Cu102  1  0.78518900  0.43755300  0.34941500  1
  Cu  Cu103  1  0.60540500  0.35540500  0.71080900  1
  Cu  Cu104  1  0.85540500  0.10540500  0.21080900  1
  Cu  Cu105  1  0.39459500  0.64459500  0.28919100  1
  Cu  Cu106  1  0.84941500  0.93755300  0.28518900  1
  Cu  Cu107  1  0.64459500  0.28919100  0.39459500  1
  Cu  Cu108  1  0.71481100  0.15058500  0.06244700  1
  Cu  Cu109  1  0.15236400  0.56422600  0.21481100  1
  Cu  Cu110  1  0.84941500  0.41186200  0.56422600  1
  Cu  Cu111  1  0.85540500  0.25000000  0.64459500  1
  Cu  Cu112  1  0.39459500  0.25000000  0.10540500  1
  Cu  Cu113  1  0.84763600  0.43577400  0.78518900  1
  Cu  Cu114  1  0.78518900  0.84763600  0.43577400  1
  Cu  Cu115  1  0.06422600  0.91186200  0.34941500  1
  Cu  Cu116  1  0.43577400  0.78518900  0.84763600  1
  Cu  Cu117  1  0.14459500  0.89459500  0.78919100  1
  Cu  Cu118  1  0.93577400  0.34763600  0.28518900  1
  Cu  Cu119  1  0.56244700  0.65058500  0.21481100  1
  Cu  Cu120  1  0.89459500  0.60540500  0.75000000  1
  Cu  Cu121  1  0.06244700  0.84763600  0.91186200  1
  Cu  Cu122  1  0.75000000  0.89459500  0.60540500  1
  Cu  Cu123  1  0.41186200  0.56422600  0.84941500  1
  Cu  Cu124  1  0.21080900  0.85540500  0.10540500  1
  Cu  Cu125  1  0.56244700  0.41186200  0.34763600  1
  Cu  Cu126  1  0.08813800  0.65058500  0.93577400  1
  Cu  Cu127  1  0.28518900  0.84941500  0.93755300  1
  Cu  Cu128  1  0.65236400  0.43755300  0.58813800  1
  Cu  Cu129  1  0.25000000  0.10540500  0.39459500  1
  Cu  Cu130  1  0.10540500  0.21080900  0.85540500  1
  Cu  Cu131  1  0.91186200  0.06244700  0.84763600  1
  Cu  Cu132  1  0.28518900  0.93577400  0.34763600  1
  Cu  Cu133  1  0.15058500  0.58813800  0.43577400  1
  Cu  Cu134  1  0.58813800  0.65236400  0.43755300  1
  Cu  Cu135  1  0.60540500  0.75000000  0.89459500  1
