# generated using pymatgen
data_Cu2NiC9
_symmetry_space_group_name_H-M   'P 1'
_cell_length_a   9.83901400
_cell_length_b   10.26571400
_cell_length_c   14.68120700
_cell_angle_alpha   90.00000000
_cell_angle_beta   90.00000000
_cell_angle_gamma   90.00000000
_symmetry_Int_Tables_number   1
_chemical_formula_structural   Cu2NiC9
_chemical_formula_sum   'Cu16 Ni8 C72'
_cell_volume   1482.86802772
_cell_formula_units_Z   8
loop_
 _symmetry_equiv_pos_site_id
 _symmetry_equiv_pos_as_xyz
  1  'x, y, z'
loop_
 _atom_site_type_symbol
 _atom_site_label
 _atom_site_symmetry_multiplicity
 _atom_site_fract_x
 _atom_site_fract_y
 _atom_site_fract_z
 _atom_site_occupancy
  C  C0  1  0.72236400  0.03447100  0.39609700  1
  C  C1  1  0.22236400  0.96552900  0.10390300  1
  C  C2  1  0.27763600  0.46552900  0.89609700  1
  C  C3  1  0.77763600  0.03447100  0.89609700  1
  C  C4  1  0.72236400  0.53447100  0.10390300  1
  C  C5  1  0.22236400  0.46552900  0.39609700  1
  C  C6  1  0.27763600  0.96552900  0.60390300  1
  C  C7  1  0.77763600  0.53447100  0.60390300  1
  Ni  Ni8  1  0.31051100  0.81717400  0.80387300  1
  Ni  Ni9  1  0.68948900  0.68282600  0.30387300  1
  Ni  Ni10  1  0.81051100  0.68282600  0.80387300  1
  Ni  Ni11  1  0.68948900  0.18282600  0.19612700  1
  Ni  Ni12  1  0.18948900  0.81717400  0.30387300  1
  Ni  Ni13  1  0.31051100  0.31717400  0.69612700  1
  Ni  Ni14  1  0.81051100  0.18282600  0.69612700  1
  Ni  Ni15  1  0.18948900  0.31717400  0.19612700  1
  Cu  Cu16  1  0.00048600  0.21915300  0.55645500  1
  Cu  Cu17  1  0.83140200  0.39666600  0.34744400  1
  Cu  Cu18  1  0.66859800  0.39666600  0.84744400  1
  Cu  Cu19  1  0.33140200  0.60333400  0.15255600  1
  Cu  Cu20  1  0.50048600  0.28084700  0.55645500  1
  Cu  Cu21  1  0.99951400  0.28084700  0.05645500  1
  Cu  Cu22  1  0.00048600  0.71915300  0.94354500  1
  Cu  Cu23  1  0.83140200  0.89666600  0.15255600  1
  Cu  Cu24  1  0.99951400  0.78084700  0.44354500  1
  Cu  Cu25  1  0.66859800  0.89666600  0.65255600  1
  Cu  Cu26  1  0.16859800  0.10333400  0.84744400  1
  Cu  Cu27  1  0.33140200  0.10333400  0.34744400  1
  Cu  Cu28  1  0.50048600  0.78084700  0.94354500  1
  Cu  Cu29  1  0.16859800  0.60333400  0.65255600  1
  Cu  Cu30  1  0.49951400  0.71915300  0.44354500  1
  Cu  Cu31  1  0.49951400  0.21915300  0.05645500  1
  C  C32  1  0.89050600  0.32110200  0.63153100  1
  C  C33  1  0.89050600  0.82110200  0.86846900  1
  C  C34  1  0.74261200  0.01030600  0.22885500  1
  C  C35  1  0.10393600  0.61170900  0.87582900  1
  C  C36  1  0.24261200  0.48969400  0.22885500  1
  C  C37  1  0.72435300  0.23252700  0.82021500  1
  C  C38  1  0.90326600  0.62930300  0.02440200  1
  C  C39  1  0.22435300  0.76747300  0.67978500  1
  C  C40  1  0.75738800  0.51030600  0.77114500  1
  C  C41  1  0.88994000  0.17020600  0.99819400  1
  C  C42  1  0.77564700  0.23252700  0.32021500  1
  C  C43  1  0.25738800  0.98969400  0.77114500  1
  C  C44  1  0.40326600  0.87069700  0.02440200  1
  C  C45  1  0.10393600  0.11170900  0.62417100  1
  C  C46  1  0.75738800  0.01030600  0.72885500  1
  C  C47  1  0.51044200  0.58744100  0.16663800  1
  C  C48  1  0.60393600  0.38829100  0.62417100  1
  C  C49  1  0.10949400  0.67889800  0.36846900  1
  C  C50  1  0.61006000  0.67020600  0.00180600  1
  C  C51  1  0.60393600  0.88829100  0.87582900  1
  C  C52  1  0.70961400  0.42669800  0.96344800  1
  C  C53  1  0.72435300  0.73252700  0.67978500  1
  C  C54  1  0.48955800  0.91255900  0.66663800  1
  C  C55  1  0.24261200  0.98969400  0.27114500  1
  C  C56  1  0.74261200  0.51030600  0.27114500  1
  C  C57  1  0.77564700  0.73252700  0.17978500  1
  C  C58  1  0.29038600  0.57330200  0.03655200  1
  C  C59  1  0.48955800  0.41255900  0.83336200  1
  C  C60  1  0.40326600  0.37069700  0.47559800  1
  C  C61  1  0.51044200  0.08744100  0.33336200  1
  C  C62  1  0.29038600  0.07330200  0.46344800  1
  C  C63  1  0.27564700  0.76747300  0.17978500  1
  C  C64  1  0.01044200  0.41255900  0.33336200  1
  C  C65  1  0.88994000  0.67020600  0.50180600  1
  C  C66  1  0.70961400  0.92669800  0.53655200  1
  C  C67  1  0.60949400  0.32110200  0.13153100  1
  C  C68  1  0.01044200  0.91255900  0.16663800  1
  C  C69  1  0.10949400  0.17889800  0.13153100  1
  C  C70  1  0.27564700  0.26747300  0.32021500  1
  C  C71  1  0.89606400  0.38829100  0.12417100  1
  C  C72  1  0.90326600  0.12930300  0.47559800  1
  C  C73  1  0.98955800  0.58744100  0.66663800  1
  C  C74  1  0.89606400  0.88829100  0.37582800  1
  C  C75  1  0.39606400  0.61170900  0.37582800  1
  C  C76  1  0.38994000  0.32979400  0.99819400  1
  C  C77  1  0.39606400  0.11170900  0.12417100  1
  C  C78  1  0.59673400  0.12930300  0.97559800  1
  C  C79  1  0.79038600  0.42669800  0.46344800  1
  C  C80  1  0.09673400  0.87069700  0.52440200  1
  C  C81  1  0.11006000  0.32979400  0.49819400  1
  C  C82  1  0.20961400  0.57330200  0.53655200  1
  C  C83  1  0.98955800  0.08744100  0.83336200  1
  C  C84  1  0.11006000  0.82979400  0.00180600  1
  C  C85  1  0.79038600  0.92669800  0.03655200  1
  C  C86  1  0.61006000  0.17020600  0.49819400  1
  C  C87  1  0.60949400  0.82110200  0.36846900  1
  C  C88  1  0.38994000  0.82979400  0.50180600  1
  C  C89  1  0.39050600  0.67889800  0.86846900  1
  C  C90  1  0.25738800  0.48969400  0.72885500  1
  C  C91  1  0.39050600  0.17889800  0.63153100  1
  C  C92  1  0.59673400  0.62930300  0.52440200  1
  C  C93  1  0.20961400  0.07330200  0.96344800  1
  C  C94  1  0.22435300  0.26747300  0.82021500  1
  C  C95  1  0.09673400  0.37069700  0.97559800  1
