# generated using pymatgen
data_CuNiC6
_symmetry_space_group_name_H-M   'P 1'
_cell_length_a   4.90631936
_cell_length_b   4.90631936
_cell_length_c   6.15369500
_cell_angle_alpha   90.00000000
_cell_angle_beta   90.00000000
_cell_angle_gamma   90.49362204
_symmetry_Int_Tables_number   1
_chemical_formula_structural   CuNiC6
_chemical_formula_sum   'Cu2 Ni2 C12'
_cell_volume   148.12606175
_cell_formula_units_Z   2
loop_
 _symmetry_equiv_pos_site_id
 _symmetry_equiv_pos_as_xyz
  1  'x, y, z'
loop_
 _atom_site_type_symbol
 _atom_site_label
 _atom_site_symmetry_multiplicity
 _atom_site_fract_x
 _atom_site_fract_y
 _atom_site_fract_z
 _atom_site_occupancy
  C  C0  1  0.68286800  0.68286800  0.50000000  1
  C  C1  1  0.80249100  0.19750900  0.25000000  1
  C  C2  1  0.31713200  0.31713200  0.00000000  1
  C  C3  1  0.19750900  0.80249100  0.75000000  1
  Ni  Ni4  1  0.68197800  0.68197800  0.00000000  1
  Ni  Ni5  1  0.31802200  0.31802200  0.50000000  1
  Cu  Cu6  1  0.18108100  0.81891900  0.25000000  1
  Cu  Cu7  1  0.81891900  0.18108100  0.75000000  1
  C  C8  1  0.71715400  0.34691700  0.96641200  1
  C  C9  1  0.65308300  0.28284600  0.53358800  1
  C  C10  1  0.15151200  0.22166400  0.71812200  1
  C  C11  1  0.84848800  0.77833600  0.21812200  1
  C  C12  1  0.77833600  0.84848800  0.78187800  1
  C  C13  1  0.28284600  0.65308300  0.46641200  1
  C  C14  1  0.22166400  0.15151200  0.28187800  1
  C  C15  1  0.34691700  0.71715400  0.03358800  1
