# generated using pymatgen
data_Cu(NiC)4
_symmetry_space_group_name_H-M   'P 1'
_cell_length_a   6.95492000
_cell_length_b   7.06402000
_cell_length_c   13.50009100
_cell_angle_alpha   90.00000000
_cell_angle_beta   90.00000000
_cell_angle_gamma   90.00000000
_symmetry_Int_Tables_number   1
_chemical_formula_structural   Cu(NiC)4
_chemical_formula_sum   'Cu4 Ni16 C16'
_cell_volume   663.25533951
_cell_formula_units_Z   4
loop_
 _symmetry_equiv_pos_site_id
 _symmetry_equiv_pos_as_xyz
  1  'x, y, z'
loop_
 _atom_site_type_symbol
 _atom_site_label
 _atom_site_symmetry_multiplicity
 _atom_site_fract_x
 _atom_site_fract_y
 _atom_site_fract_z
 _atom_site_occupancy
  Ni  Ni0  1  0.34893700  0.66939400  0.87526400  1
  Ni  Ni1  1  0.84893700  0.83060600  0.87526400  1
  Ni  Ni2  1  0.65106300  0.33060600  0.37526400  1
  Ni  Ni3  1  0.98468400  0.67692000  0.09541700  1
  Ni  Ni4  1  0.48468400  0.82308000  0.40458300  1
  Ni  Ni5  1  0.51531600  0.17692000  0.90458300  1
  Ni  Ni6  1  0.51531600  0.17692000  0.59541700  1
  Ni  Ni7  1  0.01531600  0.32308000  0.90458300  1
  Ni  Ni8  1  0.15106300  0.16939400  0.12473600  1
  Ni  Ni9  1  0.15106300  0.16939400  0.37526400  1
  Ni  Ni10  1  0.98468400  0.67692000  0.40458300  1
  Ni  Ni11  1  0.65106300  0.33060600  0.12473600  1
  Ni  Ni12  1  0.48468400  0.82308000  0.09541700  1
  Ni  Ni13  1  0.01531600  0.32308000  0.59541700  1
  Ni  Ni14  1  0.34893700  0.66939400  0.62473600  1
  Ni  Ni15  1  0.84893700  0.83060600  0.62473600  1
  Cu  Cu16  1  0.67615500  0.50322000  0.75000000  1
  Cu  Cu17  1  0.17615500  0.99678000  0.75000000  1
  Cu  Cu18  1  0.32384500  0.49678000  0.25000000  1
  Cu  Cu19  1  0.82384500  0.00322000  0.25000000  1
  C  C20  1  0.69185700  0.53154100  0.54034200  1
  C  C21  1  0.19185700  0.96845900  0.95965800  1
  C  C22  1  0.31691000  0.35083600  0.75000000  1
  C  C23  1  0.80814300  0.03154100  0.04034200  1
  C  C24  1  0.30814300  0.46845900  0.04034200  1
  C  C25  1  0.45247500  0.10878300  0.25000000  1
  C  C26  1  0.68309000  0.64916400  0.25000000  1
  C  C27  1  0.95247500  0.39121700  0.25000000  1
  C  C28  1  0.81691000  0.14916400  0.75000000  1
  C  C29  1  0.69185700  0.53154100  0.95965800  1
  C  C30  1  0.19185700  0.96845900  0.54034200  1
  C  C31  1  0.04752500  0.60878300  0.75000000  1
  C  C32  1  0.30814300  0.46845900  0.45965800  1
  C  C33  1  0.54752500  0.89121700  0.75000000  1
  C  C34  1  0.80814300  0.03154100  0.45965800  1
  C  C35  1  0.18309000  0.85083600  0.25000000  1
