# generated using pymatgen
data_CuNiC8
_symmetry_space_group_name_H-M   'P 1'
_cell_length_a   6.64345595
_cell_length_b   6.64345595
_cell_length_c   8.65134500
_cell_angle_alpha   90.00000000
_cell_angle_beta   90.00000000
_cell_angle_gamma   116.98727905
_symmetry_Int_Tables_number   1
_chemical_formula_structural   CuNiC8
_chemical_formula_sum   'Cu2 Ni2 C16'
_cell_volume   340.25283454
_cell_formula_units_Z   2
loop_
 _symmetry_equiv_pos_site_id
 _symmetry_equiv_pos_as_xyz
  1  'x, y, z'
loop_
 _atom_site_type_symbol
 _atom_site_label
 _atom_site_symmetry_multiplicity
 _atom_site_fract_x
 _atom_site_fract_y
 _atom_site_fract_z
 _atom_site_occupancy
  C  C0  1  0.19130900  0.80869100  0.75000000  1
  C  C1  1  0.80869100  0.19130900  0.25000000  1
  Ni  Ni2  1  0.50000000  0.50000000  0.50000000  1
  Ni  Ni3  1  0.50000000  0.50000000  0.00000000  1
  Cu  Cu4  1  0.80798800  0.19201200  0.75000000  1
  Cu  Cu5  1  0.19201100  0.80798800  0.25000000  1
  C  C6  1  0.79906400  0.20093600  0.48634800  1
  C  C7  1  0.84505700  0.56384000  0.75000000  1
  C  C8  1  0.43616000  0.15494300  0.75000000  1
  C  C9  1  0.15494300  0.43616000  0.25000000  1
  C  C10  1  0.79906400  0.20093600  0.01365200  1
  C  C11  1  0.20093600  0.79906400  0.51365200  1
  C  C12  1  0.83014800  0.52333400  0.25000000  1
  C  C13  1  0.47666600  0.16985200  0.25000000  1
  C  C14  1  0.56384000  0.84505700  0.25000000  1
  C  C15  1  0.52333400  0.83014800  0.75000000  1
  C  C16  1  0.20093600  0.79906400  0.98634800  1
  C  C17  1  0.16985200  0.47666600  0.75000000  1
  C  C18  1  0.00939500  0.99060500  0.75000000  1
  C  C19  1  0.99060500  0.00939500  0.25000000  1
