# generated using pymatgen
data_Cu8NiC5
_symmetry_space_group_name_H-M   'P 1'
_cell_length_a   13.60466187
_cell_length_b   13.60466187
_cell_length_c   13.60466203
_cell_angle_alpha   30.11230958
_cell_angle_beta   30.11230958
_cell_angle_gamma   30.11230694
_symmetry_Int_Tables_number   1
_chemical_formula_structural   Cu8NiC5
_chemical_formula_sum   'Cu8 Ni1 C5'
_cell_volume   561.49360613
_cell_formula_units_Z   1
loop_
 _symmetry_equiv_pos_site_id
 _symmetry_equiv_pos_as_xyz
  1  'x, y, z'
loop_
 _atom_site_type_symbol
 _atom_site_label
 _atom_site_symmetry_multiplicity
 _atom_site_fract_x
 _atom_site_fract_y
 _atom_site_fract_z
 _atom_site_occupancy
  C  C0  1  0.31807900  0.31807900  0.31807900  1
  C  C1  1  0.50000000  0.50000000  0.50000000  1
  C  C2  1  0.78017100  0.78017100  0.78017100  1
  C  C3  1  0.68192100  0.68192100  0.68192100  1
  C  C4  1  0.21982900  0.21982900  0.21982900  1
  Ni  Ni5  1  0.00000000  0.00000000  0.00000000  1
  Cu  Cu6  1  0.77587600  0.77587600  0.25048700  1
  Cu  Cu7  1  0.87158000  0.87158000  0.87158000  1
  Cu  Cu8  1  0.22412400  0.74951300  0.22412400  1
  Cu  Cu9  1  0.25048700  0.77587600  0.77587600  1
  Cu  Cu10  1  0.12842000  0.12842000  0.12842000  1
  Cu  Cu11  1  0.77587600  0.25048700  0.77587600  1
  Cu  Cu12  1  0.74951200  0.22412400  0.22412400  1
  Cu  Cu13  1  0.22412400  0.22412400  0.74951300  1
