# generated using pymatgen
data_CuNi10C7
_symmetry_space_group_name_H-M   'P 1'
_cell_length_a   8.99352100
_cell_length_b   12.15111600
_cell_length_c   22.68919300
_cell_angle_alpha   90.00000000
_cell_angle_beta   90.00000000
_cell_angle_gamma   90.00000000
_symmetry_Int_Tables_number   1
_chemical_formula_structural   CuNi10C7
_chemical_formula_sum   'Cu8 Ni80 C56'
_cell_volume   2479.50489088
_cell_formula_units_Z   8
loop_
 _symmetry_equiv_pos_site_id
 _symmetry_equiv_pos_as_xyz
  1  'x, y, z'
loop_
 _atom_site_type_symbol
 _atom_site_label
 _atom_site_symmetry_multiplicity
 _atom_site_fract_x
 _atom_site_fract_y
 _atom_site_fract_z
 _atom_site_occupancy
  C  C0  1  0.75000000  0.04771400  0.01621600  1
  C  C1  1  0.75000000  0.44323700  0.04341600  1
  C  C2  1  0.75000000  0.62317300  0.23667600  1
  C  C3  1  0.25000000  0.37682700  0.76332400  1
  C  C4  1  0.75000000  0.87682700  0.73667600  1
  C  C5  1  0.25000000  0.54771400  0.48378400  1
  C  C6  1  0.25000000  0.12317300  0.26332400  1
  C  C7  1  0.75000000  0.45228600  0.51621600  1
  C  C8  1  0.75000000  0.05676300  0.54341600  1
  C  C9  1  0.25000000  0.94323700  0.45658400  1
  C  C10  1  0.25000000  0.67952800  0.27182700  1
  C  C11  1  0.75000000  0.17952800  0.22817300  1
  C  C12  1  0.75000000  0.32047200  0.72817300  1
  C  C13  1  0.25000000  0.95228600  0.98378400  1
  C  C14  1  0.25000000  0.82047200  0.77182700  1
  C  C15  1  0.25000000  0.55676300  0.95658400  1
  C  C16  1  0.00020500  0.59674000  0.65088900  1
  C  C17  1  0.00020500  0.90326000  0.15088900  1
  C  C18  1  0.49979500  0.59674000  0.65088900  1
  C  C19  1  0.50020500  0.40326000  0.34911100  1
  C  C20  1  0.99979500  0.09674000  0.84911100  1
  C  C21  1  0.49979500  0.90326000  0.15088900  1
  C  C22  1  0.50020500  0.09674000  0.84911100  1
  C  C23  1  0.99979500  0.40326000  0.34911100  1
  C  C24  1  0.93105600  0.58887800  0.81022800  1
  C  C25  1  0.92894300  0.12285400  0.38251000  1
  C  C26  1  0.57205700  0.75021400  0.02001700  1
  C  C27  1  0.42894300  0.87714600  0.61749000  1
  C  C28  1  0.56886300  0.69596100  0.38806900  1
  C  C29  1  0.57105700  0.12285400  0.38251000  1
  C  C30  1  0.93105600  0.91112200  0.31022800  1
  C  C31  1  0.92794300  0.74978600  0.52001700  1
  C  C32  1  0.06894400  0.41112200  0.18977200  1
  C  C33  1  0.07105700  0.87714600  0.61749000  1
  C  C34  1  0.56886300  0.80403900  0.88806900  1
  C  C35  1  0.06894400  0.08887800  0.68977200  1
  C  C36  1  0.42794300  0.25021400  0.47998300  1
  C  C37  1  0.56894400  0.58887800  0.81022800  1
  C  C38  1  0.07105700  0.62285400  0.11749000  1
  C  C39  1  0.43105600  0.41112200  0.18977200  1
  C  C40  1  0.43113700  0.30403900  0.61193100  1
  C  C41  1  0.43105600  0.08887800  0.68977200  1
  C  C42  1  0.56894400  0.91112200  0.31022800  1
  C  C43  1  0.42894300  0.62285400  0.11749000  1
  C  C44  1  0.92894300  0.37714600  0.88251000  1
  C  C45  1  0.92794300  0.75021400  0.02001700  1
  C  C46  1  0.07205700  0.25021400  0.47998300  1
  C  C47  1  0.93113700  0.80403900  0.88806900  1
  C  C48  1  0.93113700  0.69596100  0.38806900  1
  C  C49  1  0.57105700  0.37714600  0.88251000  1
  C  C50  1  0.43113700  0.19596100  0.11193100  1
  C  C51  1  0.06886300  0.19596100  0.11193100  1
  C  C52  1  0.06886300  0.30403900  0.61193100  1
  C  C53  1  0.07205700  0.24978600  0.97998300  1
  C  C54  1  0.57205700  0.74978600  0.52001700  1
  C  C55  1  0.42794300  0.24978600  0.97998300  1
  Ni  Ni56  1  0.96997800  0.78766200  0.33641000  1
  Ni  Ni57  1  0.02355700  0.78230700  0.66257400  1
  Ni  Ni58  1  0.98941700  0.00040200  0.36073400  1
  Ni  Ni59  1  0.02828900  0.13958400  0.94585200  1
  Ni  Ni60  1  0.96997800  0.71233800  0.83641000  1
  Ni  Ni61  1  0.50068700  0.13773500  0.44982100  1
  Ni  Ni62  1  0.50915400  0.75080600  0.95122400  1
  Ni  Ni63  1  0.03002200  0.28766200  0.16359000  1
  Ni  Ni64  1  0.75000000  0.68188800  0.39196500  1
  Ni  Ni65  1  0.47171100  0.36041600  0.44585200  1
  Ni  Ni66  1  0.99931300  0.13773500  0.44982100  1
  Ni  Ni67  1  0.98660100  0.08335600  0.12786000  1
  Ni  Ni68  1  0.51334800  0.43031900  0.25129000  1
  Ni  Ni69  1  0.52828900  0.63958400  0.55414800  1
  Ni  Ni70  1  0.00068700  0.63773500  0.05017900  1
  Ni  Ni71  1  0.01334800  0.93031900  0.24871000  1
  Ni  Ni72  1  0.01334800  0.56968100  0.74871000  1
  Ni  Ni73  1  0.75000000  0.57638000  0.80447500  1
  Ni  Ni74  1  0.00068700  0.86226500  0.55017900  1
  Ni  Ni75  1  0.48660100  0.91664400  0.87214000  1
  Ni  Ni76  1  0.75000000  0.92362000  0.30447500  1
  Ni  Ni77  1  0.75000000  0.81811200  0.89196500  1
  Ni  Ni78  1  0.53002200  0.71233800  0.83641000  1
  Ni  Ni79  1  0.97644300  0.28230700  0.83742600  1
  Ni  Ni80  1  0.98941700  0.49959800  0.86073400  1
  Ni  Ni81  1  0.25000000  0.27651400  0.98309300  1
  Ni  Ni82  1  0.99931300  0.36226500  0.94982100  1
  Ni  Ni83  1  0.53002200  0.78766200  0.33641000  1
  Ni  Ni84  1  0.75000000  0.77651400  0.51690700  1
  Ni  Ni85  1  0.47171100  0.13958400  0.94585200  1
  Ni  Ni86  1  0.49931300  0.86226500  0.55017900  1
  Ni  Ni87  1  0.97171100  0.63958400  0.55414800  1
  Ni  Ni88  1  0.25000000  0.61206800  0.10627000  1
  Ni  Ni89  1  0.99084600  0.74919400  0.45122400  1
  Ni  Ni90  1  0.25000000  0.18188800  0.10803500  1
  Ni  Ni91  1  0.02828900  0.36041600  0.44585200  1
  Ni  Ni92  1  0.00915400  0.25080600  0.54877600  1
  Ni  Ni93  1  0.51334800  0.06968100  0.75129000  1
  Ni  Ni94  1  0.01058300  0.99959800  0.63926600  1
  Ni  Ni95  1  0.46997800  0.21233800  0.66359000  1
  Ni  Ni96  1  0.50915400  0.74919400  0.45122400  1
  Ni  Ni97  1  0.25000000  0.31811200  0.60803500  1
  Ni  Ni98  1  0.48660100  0.58335600  0.37214000  1
  Ni  Ni99  1  0.52828900  0.86041600  0.05414800  1
  Ni  Ni100  1  0.00915400  0.24919400  0.04877600  1
  Ni  Ni101  1  0.48941700  0.50040200  0.13926600  1
  Ni  Ni102  1  0.01058300  0.50040200  0.13926600  1
  Ni  Ni103  1  0.49084600  0.25080600  0.54877600  1
  Ni  Ni104  1  0.98665200  0.43031900  0.25129000  1
  Ni  Ni105  1  0.01339900  0.91664400  0.87214000  1
  Ni  Ni106  1  0.48665200  0.93031900  0.24871000  1
  Ni  Ni107  1  0.51058300  0.49959800  0.86073400  1
  Ni  Ni108  1  0.98660100  0.41664400  0.62786000  1
  Ni  Ni109  1  0.97644300  0.21769300  0.33742600  1
  Ni  Ni110  1  0.51339900  0.41664400  0.62786000  1
  Ni  Ni111  1  0.25000000  0.42362000  0.19552500  1
  Ni  Ni112  1  0.99084600  0.75080600  0.95122400  1
  Ni  Ni113  1  0.47644300  0.71769300  0.16257400  1
  Ni  Ni114  1  0.25000000  0.07638000  0.69552500  1
  Ni  Ni115  1  0.75000000  0.72348600  0.01690700  1
  Ni  Ni116  1  0.51339900  0.08335600  0.12786000  1
  Ni  Ni117  1  0.25000000  0.88793200  0.60627000  1
  Ni  Ni118  1  0.49084600  0.24919400  0.04877600  1
  Ni  Ni119  1  0.01339900  0.58335600  0.37214000  1
  Ni  Ni120  1  0.75000000  0.38793200  0.89373000  1
  Ni  Ni121  1  0.25000000  0.22348600  0.48309300  1
  Ni  Ni122  1  0.97171100  0.86041600  0.05414800  1
  Ni  Ni123  1  0.50068700  0.36226500  0.94982100  1
  Ni  Ni124  1  0.98665200  0.06968100  0.75129000  1
  Ni  Ni125  1  0.47644300  0.78230700  0.66257400  1
  Ni  Ni126  1  0.49931300  0.63773500  0.05017900  1
  Ni  Ni127  1  0.51058300  0.00040200  0.36073400  1
  Ni  Ni128  1  0.46997800  0.28766200  0.16359000  1
  Ni  Ni129  1  0.03002200  0.21233800  0.66359000  1
  Ni  Ni130  1  0.02355700  0.71769300  0.16257400  1
  Ni  Ni131  1  0.52355700  0.21769300  0.33742600  1
  Ni  Ni132  1  0.48941700  0.99959800  0.63926600  1
  Ni  Ni133  1  0.75000000  0.11206800  0.39373000  1
  Ni  Ni134  1  0.48665200  0.56968100  0.74871000  1
  Ni  Ni135  1  0.52355700  0.28230700  0.83742600  1
  Cu  Cu136  1  0.75000000  0.60229700  0.65948700  1
  Cu  Cu137  1  0.25000000  0.58427300  0.64404000  1
  Cu  Cu138  1  0.25000000  0.39770300  0.34051300  1
  Cu  Cu139  1  0.25000000  0.10229700  0.84051300  1
  Cu  Cu140  1  0.75000000  0.41572700  0.35596000  1
  Cu  Cu141  1  0.75000000  0.08427300  0.85596000  1
  Cu  Cu142  1  0.75000000  0.89770300  0.15948700  1
  Cu  Cu143  1  0.25000000  0.91572700  0.14404000  1
