# generated using pymatgen
data_Cu3NiC2
_symmetry_space_group_name_H-M   'P 1'
_cell_length_a   9.38178513
_cell_length_b   9.38178513
_cell_length_c   6.54250300
_cell_angle_alpha   90.00000000
_cell_angle_beta   90.00000000
_cell_angle_gamma   119.99999384
_symmetry_Int_Tables_number   1
_chemical_formula_structural   Cu3NiC2
_chemical_formula_sum   'Cu18 Ni6 C12'
_cell_volume   498.70710205
_cell_formula_units_Z   6
loop_
 _symmetry_equiv_pos_site_id
 _symmetry_equiv_pos_as_xyz
  1  'x, y, z'
loop_
 _atom_site_type_symbol
 _atom_site_label
 _atom_site_symmetry_multiplicity
 _atom_site_fract_x
 _atom_site_fract_y
 _atom_site_fract_z
 _atom_site_occupancy
  C  C0  1  0.02504800  0.67768000  0.49833600  1
  C  C1  1  0.97495200  0.65263200  0.99833600  1
  C  C2  1  0.32232000  0.34736800  0.49833600  1
  C  C3  1  0.30882300  0.97280000  0.27840300  1
  C  C4  1  0.02720000  0.33602300  0.27840300  1
  C  C5  1  0.66397700  0.69117700  0.27840300  1
  C  C6  1  0.69117700  0.66397700  0.77840300  1
  C  C7  1  0.65263200  0.97495200  0.49833600  1
  C  C8  1  0.97280000  0.30882300  0.77840300  1
  C  C9  1  0.33602300  0.02720000  0.77840300  1
  C  C10  1  0.34736800  0.32232000  0.99833600  1
  C  C11  1  0.67768000  0.02504800  0.99833600  1
  Ni  Ni12  1  0.00000000  0.00000000  0.88374700  1
  Ni  Ni13  1  0.33333300  0.66666700  0.71997400  1
  Ni  Ni14  1  0.66666700  0.33333300  0.21997400  1
  Ni  Ni15  1  0.00000000  0.00000000  0.38374700  1
  Ni  Ni16  1  0.66666700  0.33333300  0.71357100  1
  Ni  Ni17  1  0.33333300  0.66666700  0.21357100  1
  Cu  Cu18  1  0.92004900  0.84025100  0.38357800  1
  Cu  Cu19  1  0.42399400  0.82618900  0.21410400  1
  Cu  Cu20  1  0.40219500  0.57600600  0.21410400  1
  Cu  Cu21  1  0.73037000  0.23767900  0.22218100  1
  Cu  Cu22  1  0.57600600  0.40219500  0.71410400  1
  Cu  Cu23  1  0.84025100  0.92004900  0.88357800  1
  Cu  Cu24  1  0.76232100  0.49269100  0.22218100  1
  Cu  Cu25  1  0.92020200  0.07995100  0.38357800  1
  Cu  Cu26  1  0.07979800  0.15974900  0.88357800  1
  Cu  Cu27  1  0.59780500  0.17381100  0.71410400  1
  Cu  Cu28  1  0.17381100  0.59780500  0.21410400  1
  Cu  Cu29  1  0.82618900  0.42399400  0.71410400  1
  Cu  Cu30  1  0.07995100  0.92020200  0.88357800  1
  Cu  Cu31  1  0.50730900  0.26963000  0.22218100  1
  Cu  Cu32  1  0.26963000  0.50730900  0.72218100  1
  Cu  Cu33  1  0.15974900  0.07979800  0.38357800  1
  Cu  Cu34  1  0.23767900  0.73037000  0.72218100  1
  Cu  Cu35  1  0.49269100  0.76232100  0.72218100  1
