# generated using pymatgen
data_Cu16Ni6C
_symmetry_space_group_name_H-M   'P 1'
_cell_length_a   4.47519202
_cell_length_b   5.88429481
_cell_length_c   8.98925294
_cell_angle_alpha   105.93312332
_cell_angle_beta   92.45341279
_cell_angle_gamma   111.62065170
_symmetry_Int_Tables_number   1
_chemical_formula_structural   Cu16Ni6C
_chemical_formula_sum   'Cu16 Ni6 C1'
_cell_volume   208.84660823
_cell_formula_units_Z   1
loop_
 _symmetry_equiv_pos_site_id
 _symmetry_equiv_pos_as_xyz
  1  'x, y, z'
loop_
 _atom_site_type_symbol
 _atom_site_label
 _atom_site_symmetry_multiplicity
 _atom_site_fract_x
 _atom_site_fract_y
 _atom_site_fract_z
 _atom_site_occupancy
  C  C0  1  0.00000000  0.50000000  0.50000000  1
  Ni  Ni1  1  0.31248200  0.61189700  0.30471500  1
  Ni  Ni2  1  0.68751800  0.38810300  0.69528500  1
  Ni  Ni3  1  0.11088200  0.33562700  0.13229600  1
  Ni  Ni4  1  0.26596700  0.30837600  0.31287700  1
  Ni  Ni5  1  0.88911800  0.66437300  0.86770400  1
  Ni  Ni6  1  0.73403300  0.69162400  0.68712300  1
  Cu  Cu7  1  0.25612500  0.30858900  0.02397700  1
  Cu  Cu8  1  0.41035600  0.23540400  0.66873400  1
  Cu  Cu9  1  0.51858400  0.28431000  0.34195000  1
  Cu  Cu10  1  0.14194900  0.71544000  0.38286600  1
  Cu  Cu11  1  0.87361800  0.87077500  0.81440700  1
  Cu  Cu12  1  0.48141600  0.71569000  0.65805000  1
  Cu  Cu13  1  0.85805100  0.28456000  0.61713400  1
  Cu  Cu14  1  0.20190300  0.60790200  0.17138200  1
  Cu  Cu15  1  0.17966900  0.73822800  0.89750500  1
  Cu  Cu16  1  0.74387500  0.69141100  0.97602300  1
  Cu  Cu17  1  0.82033100  0.26177200  0.10249500  1
  Cu  Cu18  1  0.07335700  0.21428300  0.39920000  1
  Cu  Cu19  1  0.92664300  0.78571700  0.60080000  1
  Cu  Cu20  1  0.12638200  0.12922500  0.18559300  1
  Cu  Cu21  1  0.79809700  0.39209800  0.82861800  1
  Cu  Cu22  1  0.58964400  0.76459600  0.33126600  1
