# generated using pymatgen
data_Cu2Ni7C9
_symmetry_space_group_name_H-M   'P 1'
_cell_length_a   6.95266900
_cell_length_b   10.19053700
_cell_length_c   17.54036900
_cell_angle_alpha   90.00000000
_cell_angle_beta   90.00000000
_cell_angle_gamma   90.00000000
_symmetry_Int_Tables_number   1
_chemical_formula_structural   Cu2Ni7C9
_chemical_formula_sum   'Cu8 Ni28 C36'
_cell_volume   1242.76023854
_cell_formula_units_Z   4
loop_
 _symmetry_equiv_pos_site_id
 _symmetry_equiv_pos_as_xyz
  1  'x, y, z'
loop_
 _atom_site_type_symbol
 _atom_site_label
 _atom_site_symmetry_multiplicity
 _atom_site_fract_x
 _atom_site_fract_y
 _atom_site_fract_z
 _atom_site_occupancy
  C  C0  1  0.75299300  0.74895000  0.33531800  1
  C  C1  1  0.73728400  0.51480900  0.40881800  1
  C  C2  1  0.23728400  0.98519100  0.59118200  1
  C  C3  1  0.74700700  0.25105000  0.83531800  1
  C  C4  1  0.26271600  0.01480900  0.09118200  1
  C  C5  1  0.24700700  0.24895000  0.16468200  1
  C  C6  1  0.25299400  0.75105000  0.66468200  1
  C  C7  1  0.76271600  0.48519100  0.90881800  1
  Ni  Ni8  1  0.25376400  0.76141400  0.76913800  1
  Ni  Ni9  1  0.26413900  0.87326200  0.15503500  1
  Ni  Ni10  1  0.37167600  0.40840300  0.17635100  1
  Ni  Ni11  1  0.95901700  0.47713700  0.46068200  1
  Ni  Ni12  1  0.12832400  0.59159700  0.67635100  1
  Ni  Ni13  1  0.24623600  0.23858600  0.26913800  1
  Ni  Ni14  1  0.02095900  0.33826000  0.15181400  1
  Ni  Ni15  1  0.42766000  0.91224700  0.67338800  1
  Ni  Ni16  1  0.04098300  0.97713700  0.03931800  1
  Ni  Ni17  1  0.10039600  0.08530800  0.52145700  1
  Ni  Ni18  1  0.54098300  0.52286300  0.96068200  1
  Ni  Ni19  1  0.62832400  0.90840300  0.32364900  1
  Ni  Ni20  1  0.76413900  0.62673800  0.84496500  1
  Ni  Ni21  1  0.39960400  0.91469200  0.02145700  1
  Ni  Ni22  1  0.23586100  0.12673800  0.65503500  1
  Ni  Ni23  1  0.45901700  0.02286300  0.53931800  1
  Ni  Ni24  1  0.47904100  0.66174000  0.65181400  1
  Ni  Ni25  1  0.73586100  0.37326200  0.34496500  1
  Ni  Ni26  1  0.97904100  0.83826000  0.34818600  1
  Ni  Ni27  1  0.75376400  0.73858600  0.23086200  1
  Ni  Ni28  1  0.89960400  0.58530800  0.97854300  1
  Ni  Ni29  1  0.87167600  0.09159700  0.82364900  1
  Ni  Ni30  1  0.57234000  0.41224700  0.82661200  1
  Ni  Ni31  1  0.52095900  0.16174000  0.84818600  1
  Ni  Ni32  1  0.07234000  0.08775300  0.17338800  1
  Ni  Ni33  1  0.74623600  0.26141400  0.73086200  1
  Ni  Ni34  1  0.60039600  0.41469200  0.47854300  1
  Ni  Ni35  1  0.92766000  0.58775300  0.32661200  1
  Cu  Cu36  1  0.35667500  0.21573800  0.04070000  1
  Cu  Cu37  1  0.14332500  0.78426200  0.54070000  1
  Cu  Cu38  1  0.52706100  0.14127500  0.12631300  1
  Cu  Cu39  1  0.97293900  0.85872500  0.62631300  1
  Cu  Cu40  1  0.85667500  0.28426200  0.95930000  1
  Cu  Cu41  1  0.64332500  0.71573800  0.45930000  1
  Cu  Cu42  1  0.02706100  0.35872500  0.87368700  1
  Cu  Cu43  1  0.47293900  0.64127500  0.37368700  1
  C  C44  1  0.05003100  0.49269000  0.68596200  1
  C  C45  1  0.98566900  0.64907400  0.02128800  1
  C  C46  1  0.93647200  0.05041800  0.20664000  1
  C  C47  1  0.38036300  0.10167900  0.85632100  1
  C  C48  1  0.75309100  0.73791100  0.16463000  1
  C  C49  1  0.25309100  0.76208900  0.83537000  1
  C  C50  1  0.74690900  0.26208900  0.66463000  1
  C  C51  1  0.48566900  0.85092600  0.97871200  1
  C  C52  1  0.88036300  0.39832100  0.14367900  1
  C  C53  1  0.55003100  0.00731000  0.31403800  1
  C  C54  1  0.76424600  0.71780400  0.80506100  1
  C  C55  1  0.73575400  0.28219600  0.30506100  1
  C  C56  1  0.51433100  0.35092600  0.52128800  1
  C  C57  1  0.59847300  0.04655200  0.50549800  1
  C  C58  1  0.06352800  0.55041800  0.29336000  1
  C  C59  1  0.11963700  0.89832100  0.35632100  1
  C  C60  1  0.94996900  0.99269000  0.81403800  1
  C  C61  1  0.23575400  0.21780400  0.69493900  1
  C  C62  1  0.61963700  0.60167900  0.64367900  1
  C  C63  1  0.40152700  0.54655200  0.99450200  1
  C  C64  1  0.44996900  0.50731000  0.18596200  1
  C  C65  1  0.90152700  0.95344800  0.00549800  1
  C  C66  1  0.24690900  0.23791100  0.33537000  1
  C  C67  1  0.43647200  0.44958200  0.79336000  1
  C  C68  1  0.09847300  0.45344800  0.49450200  1
  C  C69  1  0.56352800  0.94958200  0.70664000  1
  C  C70  1  0.01433100  0.14907400  0.47871200  1
  C  C71  1  0.26424600  0.78219600  0.19493900  1
