# generated using pymatgen
data_Cu6Ni5C3
_symmetry_space_group_name_H-M   'P 1'
_cell_length_a   12.59847580
_cell_length_b   12.59847580
_cell_length_c   12.59847632
_cell_angle_alpha   99.95492107
_cell_angle_beta   99.95492107
_cell_angle_gamma   99.95492225
_symmetry_Int_Tables_number   1
_chemical_formula_structural   Cu6Ni5C3
_chemical_formula_sum   'Cu36 Ni30 C18'
_cell_volume   1897.04715986
_cell_formula_units_Z   6
loop_
 _symmetry_equiv_pos_site_id
 _symmetry_equiv_pos_as_xyz
  1  'x, y, z'
loop_
 _atom_site_type_symbol
 _atom_site_label
 _atom_site_symmetry_multiplicity
 _atom_site_fract_x
 _atom_site_fract_y
 _atom_site_fract_z
 _atom_site_occupancy
  C  C0  1  0.37015000  0.91479200  0.21887000  1
  C  C1  1  0.91479200  0.21887000  0.37015000  1
  C  C2  1  0.08520800  0.78113000  0.62985000  1
  C  C3  1  0.62985000  0.08520800  0.78113000  1
  C  C4  1  0.21887000  0.37015000  0.91479200  1
  C  C5  1  0.78113000  0.62985000  0.08520800  1
  C  C6  1  0.44420500  0.71005800  0.83907200  1
  C  C7  1  0.83907200  0.44420500  0.71005800  1
  C  C8  1  0.71005800  0.83907200  0.44420500  1
  C  C9  1  0.16092800  0.55579500  0.28994200  1
  C  C10  1  0.28994200  0.16092800  0.55579500  1
  C  C11  1  0.55579500  0.28994200  0.16092800  1
  Ni  Ni12  1  0.14500100  0.16061000  0.47974900  1
  Ni  Ni13  1  0.52025100  0.85499900  0.83939000  1
  Ni  Ni14  1  0.06530000  0.42550800  0.30640200  1
  Ni  Ni15  1  0.74778100  0.78036100  0.30806000  1
  Ni  Ni16  1  0.58558200  0.87611600  0.36246700  1
  Ni  Ni17  1  0.30806000  0.74778100  0.78036100  1
  Ni  Ni18  1  0.21963900  0.69194000  0.25221900  1
  Ni  Ni19  1  0.25221900  0.21963900  0.69194000  1
  Ni  Ni20  1  0.78036100  0.30806000  0.74778100  1
  Ni  Ni21  1  0.21264300  0.01109200  0.59070800  1
  Ni  Ni22  1  0.12388400  0.63753300  0.41441800  1
  Ni  Ni23  1  0.47974900  0.14500100  0.16061000  1
  Ni  Ni24  1  0.85499900  0.83939000  0.52025100  1
  Ni  Ni25  1  0.78735700  0.98890800  0.40929200  1
  Ni  Ni26  1  0.01109200  0.59070800  0.21264300  1
  Ni  Ni27  1  0.30640200  0.06530000  0.42550800  1
  Ni  Ni28  1  0.36246700  0.58558200  0.87611600  1
  Ni  Ni29  1  0.69359800  0.93470000  0.57449200  1
  Ni  Ni30  1  0.93470000  0.57449200  0.69359800  1
  Ni  Ni31  1  0.69194000  0.25221900  0.21963900  1
  Ni  Ni32  1  0.16061000  0.47974900  0.14500100  1
  Ni  Ni33  1  0.98890800  0.40929200  0.78735700  1
  Ni  Ni34  1  0.83939000  0.52025100  0.85499900  1
  Ni  Ni35  1  0.87611600  0.36246700  0.58558200  1
  Ni  Ni36  1  0.57449200  0.69359800  0.93470000  1
  Ni  Ni37  1  0.59070800  0.21264300  0.01109200  1
  Ni  Ni38  1  0.42550800  0.30640200  0.06530000  1
  Ni  Ni39  1  0.63753300  0.41441800  0.12388400  1
  Ni  Ni40  1  0.40929200  0.78735700  0.98890800  1
  Ni  Ni41  1  0.41441800  0.12388400  0.63753300  1
  Cu  Cu42  1  0.38583100  0.83058800  0.06851400  1
  Cu  Cu43  1  0.68852100  0.49333100  0.10684200  1
  Cu  Cu44  1  0.76573200  0.73784400  0.22512000  1
  Cu  Cu45  1  0.01239800  0.34466200  0.31813200  1
  Cu  Cu46  1  0.93824300  0.82824000  0.56882600  1
  Cu  Cu47  1  0.17176000  0.43117400  0.06175700  1
  Cu  Cu48  1  0.34769900  0.27153000  0.53895100  1
  Cu  Cu49  1  0.93148600  0.61416900  0.16941200  1
  Cu  Cu50  1  0.27153000  0.53895100  0.34769900  1
  Cu  Cu51  1  0.65533700  0.68186800  0.98760200  1
  Cu  Cu52  1  0.61416900  0.16941200  0.93148600  1
  Cu  Cu53  1  0.43117400  0.06175700  0.17176000  1
  Cu  Cu54  1  0.73784400  0.22512000  0.76573200  1
  Cu  Cu55  1  0.53895100  0.34769900  0.27153000  1
  Cu  Cu56  1  0.89315800  0.31147900  0.50666900  1
  Cu  Cu57  1  0.22512000  0.76573200  0.73784400  1
  Cu  Cu58  1  0.46104900  0.65230100  0.72847000  1
  Cu  Cu59  1  0.82824000  0.56882600  0.93824300  1
  Cu  Cu60  1  0.31813200  0.01239800  0.34466200  1
  Cu  Cu61  1  0.56882600  0.93824300  0.82824000  1
  Cu  Cu62  1  0.34466200  0.31813200  0.01239800  1
  Cu  Cu63  1  0.16941200  0.93148600  0.61416900  1
  Cu  Cu64  1  0.23426800  0.26215600  0.77488000  1
  Cu  Cu65  1  0.10684200  0.68852100  0.49333100  1
  Cu  Cu66  1  0.68186800  0.98760200  0.65533800  1
  Cu  Cu67  1  0.50666900  0.89315800  0.31147900  1
  Cu  Cu68  1  0.65230100  0.72847000  0.46104900  1
  Cu  Cu69  1  0.72847000  0.46104900  0.65230100  1
  Cu  Cu70  1  0.83058800  0.06851400  0.38583100  1
  Cu  Cu71  1  0.77488000  0.23426800  0.26215600  1
  Cu  Cu72  1  0.06175700  0.17176000  0.43117400  1
  Cu  Cu73  1  0.49333100  0.10684200  0.68852100  1
  Cu  Cu74  1  0.26215600  0.77488000  0.23426800  1
  Cu  Cu75  1  0.98760200  0.65533700  0.68186800  1
  Cu  Cu76  1  0.06851400  0.38583100  0.83058800  1
  Cu  Cu77  1  0.31147900  0.50666900  0.89315800  1
  C  C78  1  0.11370200  0.93480500  0.05095700  1
  C  C79  1  0.93480500  0.05095700  0.11370200  1
  C  C80  1  0.05095700  0.11370200  0.93480500  1
  C  C81  1  0.94904300  0.88629800  0.06519500  1
  C  C82  1  0.06519500  0.94904300  0.88629800  1
  C  C83  1  0.88629800  0.06519500  0.94904300  1
