# generated using pymatgen
data_Cu12Ni3C4
_symmetry_space_group_name_H-M   'P 1'
_cell_length_a   10.37864900
_cell_length_b   10.41768300
_cell_length_c   10.48335300
_cell_angle_alpha   90.00000000
_cell_angle_beta   90.00000000
_cell_angle_gamma   90.00000000
_symmetry_Int_Tables_number   1
_chemical_formula_structural   Cu12Ni3C4
_chemical_formula_sum   'Cu48 Ni12 C16'
_cell_volume   1133.47559193
_cell_formula_units_Z   4
loop_
 _symmetry_equiv_pos_site_id
 _symmetry_equiv_pos_as_xyz
  1  'x, y, z'
loop_
 _atom_site_type_symbol
 _atom_site_label
 _atom_site_symmetry_multiplicity
 _atom_site_fract_x
 _atom_site_fract_y
 _atom_site_fract_z
 _atom_site_occupancy
  C  C0  1  0.42010600  0.55612100  0.06257400  1
  C  C1  1  0.07989400  0.44387900  0.56257400  1
  C  C2  1  0.78629700  0.31251100  0.18852900  1
  C  C3  1  0.92010600  0.94387900  0.93742600  1
  C  C4  1  0.71370300  0.68748900  0.68852900  1
  C  C5  1  0.28629700  0.18748900  0.81147100  1
  C  C6  1  0.21370300  0.81251100  0.31147100  1
  C  C7  1  0.57989400  0.05612100  0.43742600  1
  C  C8  1  0.44462600  0.41593700  0.40656200  1
  C  C9  1  0.55537400  0.91593700  0.09343800  1
  C  C10  1  0.94462600  0.08406300  0.59343800  1
  C  C11  1  0.05537400  0.58406300  0.90656200  1
  C  C12  1  0.35382900  0.82352400  0.66315200  1
  C  C13  1  0.85382900  0.67647600  0.33684800  1
  C  C14  1  0.14617100  0.17647600  0.16315200  1
  C  C15  1  0.64617100  0.32352400  0.83684800  1
  Ni  Ni16  1  0.74793900  0.61852000  0.03261900  1
  Ni  Ni17  1  0.25206100  0.11852000  0.46738100  1
  Ni  Ni18  1  0.24793900  0.88148000  0.96738100  1
  Ni  Ni19  1  0.75206100  0.38148000  0.53261900  1
  Ni  Ni20  1  0.13537300  0.49746600  0.23965300  1
  Ni  Ni21  1  0.86462700  0.99746600  0.26034700  1
  Ni  Ni22  1  0.63537300  0.00253400  0.76034700  1
  Ni  Ni23  1  0.36462700  0.50253400  0.73965300  1
  Ni  Ni24  1  0.96530300  0.27616100  0.87909800  1
  Ni  Ni25  1  0.53469700  0.72383900  0.37909800  1
  Ni  Ni26  1  0.46530300  0.22383900  0.12090200  1
  Ni  Ni27  1  0.03469700  0.77616100  0.62090200  1
  Cu  Cu28  1  0.85189200  0.67430200  0.95013100  1
  Cu  Cu29  1  0.14810800  0.17430200  0.54986900  1
  Cu  Cu30  1  0.35189200  0.82569800  0.04986900  1
  Cu  Cu31  1  0.64810800  0.32569800  0.45013100  1
  Cu  Cu32  1  0.68350000  0.50936100  0.96750400  1
  Cu  Cu33  1  0.31650000  0.00936100  0.53249600  1
  Cu  Cu34  1  0.18350000  0.99063900  0.03249600  1
  Cu  Cu35  1  0.81650000  0.49063900  0.46750400  1
  Cu  Cu36  1  0.65008700  0.71832700  0.05987000  1
  Cu  Cu37  1  0.34991300  0.21832700  0.44013000  1
  Cu  Cu38  1  0.15008700  0.78167300  0.94013000  1
  Cu  Cu39  1  0.84991300  0.28167300  0.55987000  1
  Cu  Cu40  1  0.80652900  0.56967100  0.15406000  1
  Cu  Cu41  1  0.19347100  0.06967100  0.34594000  1
  Cu  Cu42  1  0.30652900  0.93032900  0.84594000  1
  Cu  Cu43  1  0.69347100  0.43032900  0.65406000  1
  Cu  Cu44  1  0.07622300  0.36799900  0.25716000  1
  Cu  Cu45  1  0.92377700  0.86799900  0.24284000  1
  Cu  Cu46  1  0.05922900  0.59246400  0.31566400  1
  Cu  Cu47  1  0.57622300  0.13200100  0.74284000  1
  Cu  Cu48  1  0.26970300  0.50016100  0.29002600  1
  Cu  Cu49  1  0.73029700  0.00016100  0.20997400  1
  Cu  Cu50  1  0.76970300  0.99983900  0.70997400  1
  Cu  Cu51  1  0.23029700  0.49983900  0.79002600  1
  Cu  Cu52  1  0.14167600  0.53668100  0.10322900  1
  Cu  Cu53  1  0.85832400  0.03668100  0.39677100  1
  Cu  Cu54  1  0.64167600  0.96331900  0.89677100  1
  Cu  Cu55  1  0.35832400  0.46331900  0.60322900  1
  Cu  Cu56  1  0.44546700  0.72030600  0.48918200  1
  Cu  Cu57  1  0.55453300  0.22030600  0.01081800  1
  Cu  Cu58  1  0.94546700  0.77969400  0.51081800  1
  Cu  Cu59  1  0.05453300  0.27969400  0.98918200  1
  Cu  Cu60  1  0.66827200  0.75547900  0.42399200  1
  Cu  Cu61  1  0.33172800  0.25547900  0.07600800  1
  Cu  Cu62  1  0.16827200  0.74452100  0.57600800  1
  Cu  Cu63  1  0.83172800  0.24452100  0.92399200  1
  Cu  Cu64  1  0.48964800  0.82496600  0.28877900  1
  Cu  Cu65  1  0.51035200  0.32496600  0.21122100  1
  Cu  Cu66  1  0.98964800  0.67503400  0.71122100  1
  Cu  Cu67  1  0.01035200  0.17503400  0.78877900  1
  Cu  Cu68  1  0.53499000  0.59533600  0.31562000  1
  Cu  Cu69  1  0.46501000  0.09533600  0.18438000  1
  Cu  Cu70  1  0.03499000  0.90466400  0.68438000  1
  Cu  Cu71  1  0.96501000  0.40466400  0.81562000  1
  Cu  Cu72  1  0.44077100  0.40753600  0.81566400  1
  Cu  Cu73  1  0.55922900  0.90753600  0.68433600  1
  Cu  Cu74  1  0.94077100  0.09246400  0.18433600  1
  Cu  Cu75  1  0.42377700  0.63200100  0.75716000  1
