# generated using pymatgen
data_Cu2Ni2C
_symmetry_space_group_name_H-M   'P 1'
_cell_length_a   12.63522743
_cell_length_b   12.63522743
_cell_length_c   12.63522743
_cell_angle_alpha   60.00000000
_cell_angle_beta   60.00000000
_cell_angle_gamma   60.00000000
_symmetry_Int_Tables_number   1
_chemical_formula_structural   Cu2Ni2C
_chemical_formula_sum   'Cu14 Ni14 C7'
_cell_volume   1426.37655876
_cell_formula_units_Z   7
loop_
 _symmetry_equiv_pos_site_id
 _symmetry_equiv_pos_as_xyz
  1  'x, y, z'
loop_
 _atom_site_type_symbol
 _atom_site_label
 _atom_site_symmetry_multiplicity
 _atom_site_fract_x
 _atom_site_fract_y
 _atom_site_fract_z
 _atom_site_occupancy
  Ni  Ni0  1  0.89301200  0.32096300  0.89301200  1
  Ni  Ni1  1  0.67903700  0.10698800  0.10698800  1
  Ni  Ni2  1  0.10698800  0.10698800  0.10698800  1
  Ni  Ni3  1  0.10698800  0.10698800  0.67903700  1
  Ni  Ni4  1  0.89301200  0.89301200  0.89301200  1
  Ni  Ni5  1  0.89301200  0.89301200  0.32096300  1
  Ni  Ni6  1  0.32096300  0.89301200  0.89301200  1
  Ni  Ni7  1  0.10698800  0.67903700  0.10698800  1
  Ni  Ni8  1  0.28623100  0.71376900  0.71376900  1
  Ni  Ni9  1  0.71376900  0.28623100  0.71376900  1
  Ni  Ni10  1  0.28623100  0.71376900  0.28623100  1
  Ni  Ni11  1  0.28623100  0.28623100  0.71376900  1
  Ni  Ni12  1  0.71376900  0.71376900  0.28623100  1
  Ni  Ni13  1  0.71376900  0.28623100  0.28623100  1
  Cu  Cu14  1  0.67114300  0.98657100  0.67114300  1
  Cu  Cu15  1  0.01342900  0.32885700  0.32885700  1
  Cu  Cu16  1  0.32885700  0.32885700  0.32885700  1
  Cu  Cu17  1  0.32885700  0.32885700  0.01342900  1
  Cu  Cu18  1  0.67114300  0.67114300  0.67114300  1
  Cu  Cu19  1  0.67114300  0.67114300  0.98657100  1
  Cu  Cu20  1  0.98657100  0.67114300  0.67114300  1
  Cu  Cu21  1  0.32885700  0.01342900  0.32885700  1
  Cu  Cu22  1  0.50000000  0.50000000  0.00000000  1
  Cu  Cu23  1  0.00000000  0.00000000  0.50000000  1
  Cu  Cu24  1  0.00000000  0.50000000  0.50000000  1
  Cu  Cu25  1  0.50000000  0.00000000  0.00000000  1
  Cu  Cu26  1  0.50000000  0.00000000  0.50000000  1
  Cu  Cu27  1  0.00000000  0.50000000  0.00000000  1
  C  C28  1  0.00000000  0.00000000  0.00000000  1
  C  C29  1  0.14469100  0.85530900  0.85530900  1
  C  C30  1  0.85530900  0.14469100  0.85530900  1
  C  C31  1  0.14469100  0.85530900  0.14469100  1
  C  C32  1  0.14469100  0.14469100  0.85530900  1
  C  C33  1  0.85530900  0.85530900  0.14469100  1
  C  C34  1  0.85530900  0.14469100  0.14469100  1
