# generated using pymatgen
data_Cu9Ni3C19
_symmetry_space_group_name_H-M   'P 1'
_cell_length_a   19.83865300
_cell_length_b   9.51937400
_cell_length_c   10.56319725
_cell_angle_alpha   66.04386043
_cell_angle_beta   90.00000000
_cell_angle_gamma   90.00000000
_symmetry_Int_Tables_number   1
_chemical_formula_structural   Cu9Ni3C19
_chemical_formula_sum   'Cu36 Ni12 C76'
_cell_volume   1823.03073149
_cell_formula_units_Z   4
loop_
 _symmetry_equiv_pos_site_id
 _symmetry_equiv_pos_as_xyz
  1  'x, y, z'
loop_
 _atom_site_type_symbol
 _atom_site_label
 _atom_site_symmetry_multiplicity
 _atom_site_fract_x
 _atom_site_fract_y
 _atom_site_fract_z
 _atom_site_occupancy
  C  C0  1  0.56967600  0.69731600  0.47860600  1
  C  C1  1  0.93032400  0.69731600  0.97860600  1
  C  C2  1  0.43032400  0.30268400  0.52139400  1
  C  C3  1  0.06967600  0.30268400  0.02139400  1
  C  C4  1  0.48947100  0.00487800  0.32978600  1
  C  C5  1  0.78098900  0.57421000  0.98420400  1
  C  C6  1  0.06324300  0.97965100  0.22756800  1
  C  C7  1  0.71462300  0.67712800  0.57443000  1
  C  C8  1  0.88885500  0.86311200  0.66685100  1
  C  C9  1  0.11114500  0.13688800  0.33314900  1
  C  C10  1  0.71901100  0.57421000  0.48420400  1
  C  C11  1  0.67730600  0.88486900  0.23926000  1
  C  C12  1  0.21901100  0.42579000  0.01579600  1
  C  C13  1  0.17730600  0.11513100  0.26074000  1
  C  C14  1  0.78537700  0.67712800  0.07443000  1
  C  C15  1  0.21462300  0.32287200  0.92557000  1
  C  C16  1  0.93675700  0.02034900  0.77243200  1
  C  C17  1  0.51052900  0.99512200  0.67021400  1
  C  C18  1  0.28098900  0.42579000  0.51579600  1
  C  C19  1  0.01052900  0.00487800  0.82978600  1
  C  C20  1  0.56324300  0.02034900  0.27243200  1
  C  C21  1  0.32269400  0.11513100  0.76074000  1
  C  C22  1  0.82269400  0.88486900  0.73926000  1
  C  C23  1  0.98947100  0.99512200  0.17021400  1
  C  C24  1  0.28537700  0.32287200  0.42557000  1
  C  C25  1  0.43675700  0.97965100  0.72756800  1
  C  C26  1  0.38885500  0.13688800  0.83314900  1
  C  C27  1  0.61114500  0.86311200  0.16685100  1
  C  C28  1  0.54057400  0.35233800  0.75943800  1
  C  C29  1  0.33022400  0.16031800  0.33148600  1
  C  C30  1  0.65074500  0.33291000  0.33930200  1
  C  C31  1  0.93937500  0.26898800  0.41634700  1
  C  C32  1  0.43937500  0.73101200  0.08365300  1
  C  C33  1  0.06062500  0.73101200  0.58365300  1
  C  C34  1  0.58377700  0.35920700  0.40529000  1
  C  C35  1  0.41622300  0.64079300  0.59471000  1
  C  C36  1  0.08377700  0.64079300  0.09471000  1
  C  C37  1  0.33636700  0.06404500  0.24195100  1
  C  C38  1  0.34925500  0.66709000  0.66069800  1
  C  C39  1  0.95942600  0.35233800  0.25943800  1
  C  C40  1  0.15074500  0.66709000  0.16069800  1
  C  C41  1  0.45942600  0.64766200  0.24056200  1
  C  C42  1  0.66363300  0.93595500  0.75804900  1
  C  C43  1  0.83022400  0.83968200  0.16851400  1
  C  C44  1  0.16363300  0.06404500  0.74195100  1
  C  C45  1  0.91622300  0.35920700  0.90529000  1
  C  C46  1  0.66977600  0.83968200  0.66851400  1
  C  C47  1  0.04057400  0.64766200  0.74056200  1
  C  C48  1  0.84925500  0.33291000  0.83930200  1
  C  C49  1  0.16977600  0.16031800  0.83148600  1
  C  C50  1  0.56062500  0.26898800  0.91634700  1
  C  C51  1  0.83636700  0.93595500  0.25804900  1
  Ni  Ni52  1  0.65516600  0.46717900  0.16393700  1
  Ni  Ni53  1  0.15016500  0.18992800  0.56524700  1
  Ni  Ni54  1  0.64908700  0.26235800  0.93998400  1
  Ni  Ni55  1  0.84483400  0.46717900  0.66393700  1
  Ni  Ni56  1  0.14908700  0.73764200  0.56001600  1
  Ni  Ni57  1  0.35091300  0.73764200  0.06001600  1
  Ni  Ni58  1  0.15516600  0.53282100  0.33606300  1
  Ni  Ni59  1  0.85091300  0.26235800  0.43998400  1
  Ni  Ni60  1  0.34483400  0.53282100  0.83606300  1
  Ni  Ni61  1  0.34983500  0.18992800  0.06524700  1
  Ni  Ni62  1  0.65016500  0.81007200  0.93475300  1
  Ni  Ni63  1  0.84983500  0.81007200  0.43475300  1
  Cu  Cu64  1  0.03718000  0.73638100  0.07415700  1
  Cu  Cu65  1  0.00534700  0.72544500  0.78772600  1
  Cu  Cu66  1  0.91649400  0.47911200  0.92901300  1
  Cu  Cu67  1  0.03592600  0.02747800  0.14428100  1
  Cu  Cu68  1  0.31107800  0.36791600  0.48215100  1
  Cu  Cu69  1  0.88425000  0.82888300  0.10847300  1
  Cu  Cu70  1  0.58350600  0.47911200  0.42901300  1
  Cu  Cu71  1  0.06128000  0.51130500  0.79994900  1
  Cu  Cu72  1  0.49465300  0.72544500  0.28772600  1
  Cu  Cu73  1  0.11575000  0.17111700  0.89152700  1
  Cu  Cu74  1  0.46407400  0.02747800  0.64428100  1
  Cu  Cu75  1  0.63088800  0.84729900  0.25608100  1
  Cu  Cu76  1  0.18892200  0.36791600  0.98215100  1
  Cu  Cu77  1  0.99465300  0.27455500  0.21227400  1
  Cu  Cu78  1  0.72660400  0.78267000  0.66887300  1
  Cu  Cu79  1  0.93872000  0.48869500  0.20005100  1
  Cu  Cu80  1  0.43872000  0.51130500  0.29994900  1
  Cu  Cu81  1  0.77339600  0.78267000  0.16887300  1
  Cu  Cu82  1  0.36911200  0.15270100  0.74391900  1
  Cu  Cu83  1  0.27339600  0.21733000  0.33112700  1
  Cu  Cu84  1  0.56128000  0.48869500  0.70005100  1
  Cu  Cu85  1  0.22660400  0.21733000  0.83112700  1
  Cu  Cu86  1  0.46282000  0.73638100  0.57415700  1
  Cu  Cu87  1  0.81107800  0.63208400  0.01784900  1
  Cu  Cu88  1  0.08350600  0.52088800  0.07098700  1
  Cu  Cu89  1  0.96407400  0.97252200  0.85571900  1
  Cu  Cu90  1  0.50534700  0.27455500  0.71227400  1
  Cu  Cu91  1  0.61575000  0.82888300  0.60847300  1
  Cu  Cu92  1  0.96282000  0.26361900  0.92584300  1
  Cu  Cu93  1  0.13088800  0.15270100  0.24391900  1
  Cu  Cu94  1  0.41649400  0.52088800  0.57098700  1
  Cu  Cu95  1  0.86911200  0.84729900  0.75608100  1
  Cu  Cu96  1  0.38425000  0.17111700  0.39152700  1
  Cu  Cu97  1  0.53592600  0.97252200  0.35571900  1
  Cu  Cu98  1  0.68892200  0.63208400  0.51784900  1
  Cu  Cu99  1  0.53718000  0.26361900  0.42584300  1
  C  C100  1  0.96901000  0.34408900  0.48860300  1
  C  C101  1  0.29484200  0.64539600  0.58984600  1
  C  C102  1  0.46278400  0.87911500  0.02534100  1
  C  C103  1  0.88839200  0.03901000  0.21688000  1
  C  C104  1  0.20515800  0.64539600  0.08984600  1
  C  C105  1  0.77888000  0.01962600  0.24852800  1
  C  C106  1  0.53721600  0.12088500  0.97465900  1
  C  C107  1  0.70515800  0.35460400  0.41015400  1
  C  C108  1  0.03721600  0.87911500  0.52534100  1
  C  C109  1  0.65667000  0.18848900  0.34389300  1
  C  C110  1  0.61160800  0.03901000  0.71688000  1
  C  C111  1  0.22112000  0.98037400  0.75147200  1
  C  C112  1  0.11160800  0.96099000  0.78312000  1
  C  C113  1  0.34333000  0.81151100  0.65610700  1
  C  C114  1  0.27888000  0.98037400  0.25147200  1
  C  C115  1  0.03099000  0.65591100  0.51139700  1
  C  C116  1  0.84333000  0.18848900  0.84389300  1
  C  C117  1  0.53099000  0.34408900  0.98860300  1
  C  C118  1  0.79484200  0.35460400  0.91015400  1
  C  C119  1  0.72112000  0.01962600  0.74852800  1
  C  C120  1  0.15667000  0.81151100  0.15610700  1
  C  C121  1  0.96278400  0.12088500  0.47465900  1
  C  C122  1  0.46901000  0.65591100  0.01139700  1
  C  C123  1  0.38839200  0.96099000  0.28312000  1
