# generated using pymatgen
data_Cu7NiC2
_symmetry_space_group_name_H-M   'P 1'
_cell_length_a   9.20488600
_cell_length_b   9.89320000
_cell_length_c   14.32853000
_cell_angle_alpha   90.00000000
_cell_angle_beta   90.00000000
_cell_angle_gamma   90.00000000
_symmetry_Int_Tables_number   1
_chemical_formula_structural   Cu7NiC2
_chemical_formula_sum   'Cu28 Ni4 C8'
_cell_volume   1304.83873456
_cell_formula_units_Z   4
loop_
 _symmetry_equiv_pos_site_id
 _symmetry_equiv_pos_as_xyz
  1  'x, y, z'
loop_
 _atom_site_type_symbol
 _atom_site_label
 _atom_site_symmetry_multiplicity
 _atom_site_fract_x
 _atom_site_fract_y
 _atom_site_fract_z
 _atom_site_occupancy
  Ni  Ni0  1  0.75000000  0.32370700  0.60360000  1
  Ni  Ni1  1  0.25000000  0.17629300  0.10360000  1
  Ni  Ni2  1  0.25000000  0.67629300  0.39640000  1
  Ni  Ni3  1  0.75000000  0.82370700  0.89640000  1
  Cu  Cu4  1  0.93202400  0.63573700  0.18513300  1
  Cu  Cu5  1  0.93202400  0.13573700  0.31486700  1
  Cu  Cu6  1  0.46456400  0.80366700  0.45986500  1
  Cu  Cu7  1  0.75000000  0.22122600  0.25549800  1
  Cu  Cu8  1  0.52245200  0.73373400  0.58640900  1
  Cu  Cu9  1  0.43202400  0.36426300  0.81486700  1
  Cu  Cu10  1  0.96456400  0.19633300  0.54013500  1
  Cu  Cu11  1  0.52245200  0.23373400  0.91359100  1
  Cu  Cu12  1  0.25000000  0.27877400  0.75549800  1
  Cu  Cu13  1  0.97754800  0.73373400  0.58640900  1
  Cu  Cu14  1  0.02245200  0.76626600  0.08640900  1
  Cu  Cu15  1  0.47754800  0.76626600  0.08640900  1
  Cu  Cu16  1  0.02245200  0.26626600  0.41359100  1
  Cu  Cu17  1  0.97754800  0.23373400  0.91359100  1
  Cu  Cu18  1  0.03543600  0.30366700  0.04013500  1
  Cu  Cu19  1  0.06797600  0.36426300  0.81486700  1
  Cu  Cu20  1  0.43202400  0.86426300  0.68513300  1
  Cu  Cu21  1  0.56797600  0.13573700  0.31486700  1
  Cu  Cu22  1  0.25000000  0.77877400  0.74450200  1
  Cu  Cu23  1  0.56797600  0.63573700  0.18513300  1
  Cu  Cu24  1  0.06797600  0.86426300  0.68513300  1
  Cu  Cu25  1  0.53543600  0.19633300  0.54013500  1
  Cu  Cu26  1  0.75000000  0.72122600  0.24450200  1
  Cu  Cu27  1  0.46456400  0.30366700  0.04013500  1
  Cu  Cu28  1  0.47754800  0.26626600  0.41359100  1
  Cu  Cu29  1  0.03543600  0.80366700  0.45986500  1
  Cu  Cu30  1  0.96456400  0.69633300  0.95986500  1
  Cu  Cu31  1  0.53543600  0.69633300  0.95986500  1
  C  C32  1  0.25000000  0.88168300  0.29013200  1
  C  C33  1  0.75000000  0.98546300  0.02588000  1
  C  C34  1  0.25000000  0.01453700  0.97412000  1
  C  C35  1  0.75000000  0.11831700  0.70986800  1
  C  C36  1  0.75000000  0.48546300  0.47412000  1
  C  C37  1  0.25000000  0.51453700  0.52588000  1
  C  C38  1  0.75000000  0.61831700  0.79013200  1
  C  C39  1  0.25000000  0.38168300  0.20986800  1
