# generated using pymatgen
data_Cu16Ni7C6
_symmetry_space_group_name_H-M   'P 1'
_cell_length_a   9.05837735
_cell_length_b   9.05837735
_cell_length_c   13.26655707
_cell_angle_alpha   68.69902537
_cell_angle_beta   68.69902537
_cell_angle_gamma   85.74337898
_symmetry_Int_Tables_number   1
_chemical_formula_structural   Cu16Ni7C6
_chemical_formula_sum   'Cu32 Ni14 C12'
_cell_volume   942.83217745
_cell_formula_units_Z   2
loop_
 _symmetry_equiv_pos_site_id
 _symmetry_equiv_pos_as_xyz
  1  'x, y, z'
loop_
 _atom_site_type_symbol
 _atom_site_label
 _atom_site_symmetry_multiplicity
 _atom_site_fract_x
 _atom_site_fract_y
 _atom_site_fract_z
 _atom_site_occupancy
  C  C0  1  0.09103400  0.59194500  0.83317000  1
  C  C1  1  0.59194500  0.09103400  0.83317000  1
  C  C2  1  0.90896600  0.40805500  0.16683000  1
  C  C3  1  0.40805500  0.90896600  0.16683000  1
  C  C4  1  0.92756100  0.42593400  0.66430700  1
  C  C5  1  0.42593400  0.92756100  0.66430700  1
  C  C6  1  0.07243900  0.57406600  0.33569300  1
  C  C7  1  0.57406600  0.07243900  0.33569300  1
  C  C8  1  0.00000000  0.00000000  0.00000000  1
  C  C9  1  0.00000000  0.00000000  0.50000000  1
  C  C10  1  0.50000000  0.50000000  0.00000000  1
  C  C11  1  0.50000000  0.50000000  0.50000000  1
  Ni  Ni12  1  0.01053300  0.01053300  0.73135400  1
  Ni  Ni13  1  0.98946700  0.98946700  0.26864600  1
  Ni  Ni14  1  0.24322200  0.24322200  0.76734600  1
  Ni  Ni15  1  0.75677800  0.75677800  0.23265400  1
  Ni  Ni16  1  0.49092900  0.49092900  0.26880600  1
  Ni  Ni17  1  0.50907100  0.50907100  0.73119400  1
  Ni  Ni18  1  0.26048600  0.26048600  0.23256400  1
  Ni  Ni19  1  0.73951400  0.73951400  0.76743600  1
  Ni  Ni20  1  0.73116800  0.26883200  0.00000000  1
  Ni  Ni21  1  0.26883200  0.73116800  0.00000000  1
  Ni  Ni22  1  0.22996300  0.22996300  0.00451600  1
  Ni  Ni23  1  0.77003700  0.77003700  0.99548400  1
  Ni  Ni24  1  0.23194300  0.23194300  0.49666700  1
  Ni  Ni25  1  0.76805700  0.76805700  0.50333300  1
  Cu  Cu26  1  0.92237700  0.09593300  0.78386500  1
  Cu  Cu27  1  0.09593300  0.92237700  0.78386500  1
  Cu  Cu28  1  0.07762300  0.90406700  0.21613500  1
  Cu  Cu29  1  0.90406700  0.07762300  0.21613500  1
  Cu  Cu30  1  0.20888000  0.38233900  0.71634200  1
  Cu  Cu31  1  0.38233900  0.20888000  0.71634200  1
  Cu  Cu32  1  0.79112000  0.61766100  0.28365800  1
  Cu  Cu33  1  0.61766100  0.79112000  0.28365800  1
  Cu  Cu34  1  0.40177500  0.57541500  0.21825700  1
  Cu  Cu35  1  0.57541500  0.40177500  0.21825700  1
  Cu  Cu36  1  0.59822500  0.42458500  0.78174300  1
  Cu  Cu37  1  0.42458500  0.59822500  0.78174300  1
  Cu  Cu38  1  0.12163600  0.29509300  0.28382700  1
  Cu  Cu39  1  0.29509300  0.12163600  0.28382700  1
  Cu  Cu40  1  0.87836400  0.70490700  0.71617300  1
  Cu  Cu41  1  0.70490700  0.87836400  0.71617300  1
  Cu  Cu42  1  0.87853300  0.30728600  0.94485900  1
  Cu  Cu43  1  0.30728600  0.87853300  0.94485900  1
  Cu  Cu44  1  0.12146700  0.69271400  0.05514100  1
  Cu  Cu45  1  0.69271400  0.12146700  0.05514100  1
  Cu  Cu46  1  0.80028200  0.24803600  0.53455200  1
  Cu  Cu47  1  0.24803600  0.80028200  0.53455200  1
  Cu  Cu48  1  0.19971800  0.75196400  0.46544800  1
  Cu  Cu49  1  0.75196400  0.19971800  0.46544800  1
  Cu  Cu50  1  0.36833700  0.19486500  0.00437000  1
  Cu  Cu51  1  0.19486500  0.36833700  0.00437000  1
  Cu  Cu52  1  0.63166300  0.80513500  0.99563000  1
  Cu  Cu53  1  0.80513500  0.63166300  0.99563000  1
  Cu  Cu54  1  0.19725200  0.37065400  0.49599400  1
  Cu  Cu55  1  0.37065400  0.19725200  0.49599400  1
  Cu  Cu56  1  0.80274800  0.62934600  0.50400600  1
  Cu  Cu57  1  0.62934600  0.80274800  0.50400600  1
