# generated using pymatgen
data_Cu4NiC53
_symmetry_space_group_name_H-M   'P 1'
_cell_length_a   9.96822500
_cell_length_b   9.96822500
_cell_length_c   12.42281300
_cell_angle_alpha   90.00000000
_cell_angle_beta   90.00000000
_cell_angle_gamma   90.00000000
_symmetry_Int_Tables_number   1
_chemical_formula_structural   Cu4NiC53
_chemical_formula_sum   'Cu8 Ni2 C106'
_cell_volume   1234.39914504
_cell_formula_units_Z   2
loop_
 _symmetry_equiv_pos_site_id
 _symmetry_equiv_pos_as_xyz
  1  'x, y, z'
loop_
 _atom_site_type_symbol
 _atom_site_label
 _atom_site_symmetry_multiplicity
 _atom_site_fract_x
 _atom_site_fract_y
 _atom_site_fract_z
 _atom_site_occupancy
  Ni  Ni0  1  0.50000000  0.50000000  0.00000000  1
  Ni  Ni1  1  0.00000000  0.00000000  0.50000000  1
  Cu  Cu2  1  0.70995100  0.70413000  0.00000000  1
  Cu  Cu3  1  0.20413000  0.20995100  0.50000000  1
  Cu  Cu4  1  0.29587000  0.70995100  0.00000000  1
  Cu  Cu5  1  0.20995100  0.79587000  0.50000000  1
  Cu  Cu6  1  0.79587000  0.79004900  0.50000000  1
  Cu  Cu7  1  0.29004900  0.29587000  0.00000000  1
  Cu  Cu8  1  0.79004900  0.20413000  0.50000000  1
  Cu  Cu9  1  0.70413000  0.29004900  0.00000000  1
  C  C10  1  0.54345600  0.71385300  0.24330800  1
  C  C11  1  0.78614700  0.95654400  0.25669200  1
  C  C12  1  0.71385300  0.45654400  0.24330800  1
  C  C13  1  0.04345600  0.78614700  0.74330800  1
  C  C14  1  0.78614700  0.95654400  0.74330800  1
  C  C15  1  0.71385300  0.45654400  0.75669200  1
  C  C16  1  0.95654400  0.21385300  0.25669200  1
  C  C17  1  0.54345600  0.71385300  0.75669200  1
  C  C18  1  0.21385300  0.04345600  0.74330800  1
  C  C19  1  0.95654400  0.21385300  0.74330800  1
  C  C20  1  0.21385300  0.04345600  0.25669200  1
  C  C21  1  0.45654400  0.28614700  0.75669200  1
  C  C22  1  0.04345600  0.78614700  0.25669200  1
  C  C23  1  0.28614700  0.54345600  0.75669200  1
  C  C24  1  0.28614700  0.54345600  0.24330800  1
  C  C25  1  0.45654400  0.28614700  0.24330800  1
  C  C26  1  0.89852200  0.43524700  0.60031600  1
  C  C27  1  0.43524700  0.10147800  0.39968400  1
  C  C28  1  0.41096400  0.67780900  0.46911400  1
  C  C29  1  0.39852200  0.06475300  0.89968400  1
  C  C30  1  0.82219100  0.08903600  0.03088600  1
  C  C31  1  0.91096400  0.82219100  0.03088600  1
  C  C32  1  0.43524700  0.10147800  0.60031600  1
  C  C33  1  0.58903600  0.32219100  0.46911400  1
  C  C34  1  0.56475300  0.89852200  0.60031600  1
  C  C35  1  0.82219100  0.08903600  0.96911400  1
  C  C36  1  0.10147800  0.56475300  0.39968400  1
  C  C37  1  0.17780900  0.91096400  0.96911400  1
  C  C38  1  0.06475300  0.60147800  0.10031600  1
  C  C39  1  0.67780900  0.58903600  0.53088600  1
  C  C40  1  0.08903600  0.17780900  0.96911400  1
  C  C41  1  0.39852200  0.06475300  0.10031600  1
  C  C42  1  0.91096400  0.82219100  0.96911400  1
  C  C43  1  0.32219100  0.41096400  0.46911400  1
  C  C44  1  0.93524700  0.39852200  0.89968400  1
  C  C45  1  0.60147800  0.93524700  0.89968400  1
  C  C46  1  0.89852200  0.43524700  0.39968400  1
  C  C47  1  0.56475300  0.89852200  0.39968400  1
  C  C48  1  0.67780900  0.58903600  0.46911400  1
  C  C49  1  0.10147800  0.56475300  0.60031600  1
  C  C50  1  0.32219100  0.41096400  0.53088600  1
  C  C51  1  0.93524700  0.39852200  0.10031600  1
  C  C52  1  0.60147800  0.93524700  0.10031600  1
  C  C53  1  0.06475300  0.60147800  0.89968400  1
  C  C54  1  0.58903600  0.32219100  0.53088600  1
  C  C55  1  0.41096400  0.67780900  0.53088600  1
  C  C56  1  0.17780900  0.91096400  0.03088600  1
  C  C57  1  0.08903600  0.17780900  0.03088600  1
  C  C58  1  0.02379600  0.77638200  0.38778700  1
  C  C59  1  0.66162000  0.60771500  0.71755700  1
  C  C60  1  0.83838000  0.10771500  0.78244300  1
  C  C61  1  0.69820000  0.93878600  0.11178500  1
  C  C62  1  0.22361800  0.02379600  0.38778700  1
  C  C63  1  0.47620400  0.27638200  0.11221300  1
  C  C64  1  0.19820000  0.56121400  0.61178500  1
  C  C65  1  0.27638200  0.52379600  0.88778700  1
  C  C66  1  0.66162000  0.60771500  0.28244300  1
  C  C67  1  0.93878600  0.30180000  0.11178500  1
  C  C68  1  0.97620400  0.22361800  0.61221300  1
  C  C69  1  0.37391600  0.12608400  0.75000000  1
  C  C70  1  0.72361800  0.47620400  0.88778700  1
  C  C71  1  0.06121400  0.69820000  0.88821500  1
  C  C72  1  0.97620400  0.22361800  0.38778700  1
  C  C73  1  0.12608400  0.62608400  0.75000000  1
  C  C74  1  0.52379600  0.72361800  0.11221300  1
  C  C75  1  0.87391600  0.37391600  0.25000000  1
  C  C76  1  0.37391600  0.12608400  0.25000000  1
  C  C77  1  0.87391600  0.37391600  0.75000000  1
  C  C78  1  0.22361800  0.02379600  0.61221300  1
  C  C79  1  0.39228500  0.66162000  0.71755700  1
  C  C80  1  0.16162000  0.89228500  0.78244300  1
  C  C81  1  0.33838000  0.39228500  0.71755700  1
  C  C82  1  0.83838000  0.10771500  0.21755700  1
  C  C83  1  0.16162000  0.89228500  0.21755700  1
  C  C84  1  0.93878600  0.30180000  0.88821500  1
  C  C85  1  0.02379600  0.77638200  0.61221300  1
  C  C86  1  0.69820000  0.93878600  0.88821500  1
  C  C87  1  0.06121400  0.69820000  0.11178500  1
  C  C88  1  0.30180000  0.06121400  0.88821500  1
  C  C89  1  0.62608400  0.87391600  0.25000000  1
  C  C90  1  0.12608400  0.62608400  0.25000000  1
  C  C91  1  0.39228500  0.66162000  0.28244300  1
  C  C92  1  0.77638200  0.97620400  0.38778700  1
  C  C93  1  0.62608400  0.87391600  0.75000000  1
  C  C94  1  0.80180000  0.43878600  0.61178500  1
  C  C95  1  0.30180000  0.06121400  0.11178500  1
  C  C96  1  0.52379600  0.72361800  0.88778700  1
  C  C97  1  0.19820000  0.56121400  0.38821500  1
  C  C98  1  0.89228500  0.83838000  0.21755700  1
  C  C99  1  0.89228500  0.83838000  0.78244300  1
  C  C100  1  0.43878600  0.19820000  0.38821500  1
  C  C101  1  0.56121400  0.80180000  0.61178500  1
  C  C102  1  0.60771500  0.33838000  0.28244300  1
  C  C103  1  0.72361800  0.47620400  0.11221300  1
  C  C104  1  0.10771500  0.16162000  0.21755700  1
  C  C105  1  0.33838000  0.39228500  0.28244300  1
  C  C106  1  0.10771500  0.16162000  0.78244300  1
  C  C107  1  0.27638200  0.52379600  0.11221300  1
  C  C108  1  0.43878600  0.19820000  0.61178500  1
  C  C109  1  0.60771500  0.33838000  0.71755700  1
  C  C110  1  0.77638200  0.97620400  0.61221300  1
  C  C111  1  0.47620400  0.27638200  0.88778700  1
  C  C112  1  0.56121400  0.80180000  0.38821500  1
  C  C113  1  0.80180000  0.43878600  0.38821500  1
  C  C114  1  0.50000000  0.50000000  0.50000000  1
  C  C115  1  0.00000000  0.00000000  0.00000000  1
