# generated using pymatgen
data_CuNiC16
_symmetry_space_group_name_H-M   'P 1'
_cell_length_a   13.19810547
_cell_length_b   13.19810547
_cell_length_c   13.19810547
_cell_angle_alpha   131.96541333
_cell_angle_beta   131.96541333
_cell_angle_gamma   70.28365826
_symmetry_Int_Tables_number   1
_chemical_formula_structural   CuNiC16
_chemical_formula_sum   'Cu2 Ni2 C32'
_cell_volume   1245.71800269
_cell_formula_units_Z   2
loop_
 _symmetry_equiv_pos_site_id
 _symmetry_equiv_pos_as_xyz
  1  'x, y, z'
loop_
 _atom_site_type_symbol
 _atom_site_label
 _atom_site_symmetry_multiplicity
 _atom_site_fract_x
 _atom_site_fract_y
 _atom_site_fract_z
 _atom_site_occupancy
  C  C0  1  0.87500000  0.90356500  0.52856500  1
  C  C1  1  0.65356500  0.12500000  0.02856500  1
  C  C2  1  0.37500000  0.90356500  0.02856500  1
  C  C3  1  0.87500000  0.34643500  0.97143500  1
  C  C4  1  0.65356500  0.62500000  0.52856500  1
  C  C5  1  0.09643500  0.12500000  0.47143500  1
  C  C6  1  0.37500000  0.34643500  0.47143500  1
  C  C7  1  0.09643500  0.62500000  0.97143500  1
  Ni  Ni8  1  0.00000000  0.00000000  0.00000000  1
  Ni  Ni9  1  0.75000000  0.25000000  0.50000000  1
  Cu  Cu10  1  0.25000000  0.75000000  0.50000000  1
  Cu  Cu11  1  0.50000000  0.50000000  0.00000000  1
  C  C12  1  0.00008200  0.25380800  0.74627300  1
  C  C13  1  0.72669900  0.50093100  0.22576800  1
  C  C14  1  0.02330100  0.74906900  0.27423200  1
  C  C15  1  0.49906900  0.72483700  0.22576800  1
  C  C16  1  0.49906900  0.27330100  0.77423200  1
  C  C17  1  0.62771000  0.12771000  0.50000000  1
  C  C18  1  0.74991800  0.99619200  0.75372700  1
  C  C19  1  0.74619200  0.99991800  0.25372700  1
  C  C20  1  0.13766800  0.63766800  0.50000000  1
  C  C21  1  0.87771000  0.87771000  0.00000000  1
  C  C22  1  0.25093100  0.97669900  0.72576800  1
  C  C23  1  0.87229000  0.37229000  0.50000000  1
  C  C24  1  0.50753500  0.25380800  0.25372700  1
  C  C25  1  0.25093100  0.52516300  0.27423200  1
  C  C26  1  0.27516300  0.50093100  0.77423200  1
  C  C27  1  0.00380800  0.25008200  0.24627300  1
  C  C28  1  0.24246500  0.99619200  0.24627300  1
  C  C29  1  0.61233200  0.61233200  0.00000000  1
  C  C30  1  0.12229000  0.12229000  0.00000000  1
  C  C31  1  0.36233200  0.86233200  0.50000000  1
  C  C32  1  0.00380800  0.75753500  0.75372700  1
  C  C33  1  0.47483700  0.74906900  0.72576800  1
  C  C34  1  0.38766800  0.38766800  0.00000000  1
  C  C35  1  0.74619200  0.49246500  0.74627300  1
