# generated using pymatgen
data_Cu10Ni3C8
_symmetry_space_group_name_H-M   'P 1'
_cell_length_a   9.43892376
_cell_length_b   9.43892376
_cell_length_c   9.43892376
_cell_angle_alpha   60.00000000
_cell_angle_beta   60.00000000
_cell_angle_gamma   60.00000000
_symmetry_Int_Tables_number   1
_chemical_formula_structural   Cu10Ni3C8
_chemical_formula_sum   'Cu20 Ni6 C16'
_cell_volume   594.63769628
_cell_formula_units_Z   2
loop_
 _symmetry_equiv_pos_site_id
 _symmetry_equiv_pos_as_xyz
  1  'x, y, z'
loop_
 _atom_site_type_symbol
 _atom_site_label
 _atom_site_symmetry_multiplicity
 _atom_site_fract_x
 _atom_site_fract_y
 _atom_site_fract_z
 _atom_site_occupancy
  C  C0  1  0.64863800  0.00000000  0.35136200  1
  C  C1  1  0.35136200  0.64863800  0.00000000  1
  C  C2  1  0.00000000  0.00000000  0.35136200  1
  C  C3  1  0.64863800  0.00000000  0.00000000  1
  C  C4  1  0.35136200  0.00000000  0.64863800  1
  C  C5  1  0.00000000  0.35136200  0.64863800  1
  C  C6  1  0.00000000  0.35136200  0.00000000  1
  C  C7  1  0.64863800  0.35136200  0.00000000  1
  C  C8  1  0.50000000  0.50000000  0.50000000  1
  C  C9  1  0.00000000  0.64863800  0.00000000  1
  C  C10  1  0.00000000  0.00000000  0.64863800  1
  C  C11  1  0.00000000  0.64863800  0.35136200  1
  C  C12  1  0.35136200  0.00000000  0.00000000  1
  C  C13  1  0.00000000  0.00000000  0.00000000  1
  C  C14  1  0.25000000  0.25000000  0.25000000  1
  C  C15  1  0.75000000  0.75000000  0.75000000  1
  Ni  Ni16  1  0.69650900  0.30349100  0.30349100  1
  Ni  Ni17  1  0.30349100  0.69650900  0.69650900  1
  Ni  Ni18  1  0.69650900  0.69650900  0.30349100  1
  Ni  Ni19  1  0.30349100  0.69650900  0.30349100  1
  Ni  Ni20  1  0.69650900  0.30349100  0.69650900  1
  Ni  Ni21  1  0.30349100  0.30349100  0.69650900  1
  Cu  Cu22  1  0.59628100  0.90371900  0.90371900  1
  Cu  Cu23  1  0.59628100  0.90371900  0.59628100  1
  Cu  Cu24  1  0.30004300  0.89998600  0.89998600  1
  Cu  Cu25  1  0.59628100  0.59628100  0.90371900  1
  Cu  Cu26  1  0.90371900  0.59628100  0.90371900  1
  Cu  Cu27  1  0.09628100  0.09628100  0.40371900  1
  Cu  Cu28  1  0.40371900  0.09628100  0.09628100  1
  Cu  Cu29  1  0.90371900  0.59628100  0.59628100  1
  Cu  Cu30  1  0.10001400  0.69995700  0.10001400  1
  Cu  Cu31  1  0.89998600  0.30004300  0.89998600  1
  Cu  Cu32  1  0.10001400  0.10001400  0.10001400  1
  Cu  Cu33  1  0.40371900  0.40371900  0.09628100  1
  Cu  Cu34  1  0.90371900  0.90371900  0.59628100  1
  Cu  Cu35  1  0.69995700  0.10001400  0.10001400  1
  Cu  Cu36  1  0.09628100  0.40371900  0.40371900  1
  Cu  Cu37  1  0.89998600  0.89998600  0.30004300  1
  Cu  Cu38  1  0.40371900  0.09628100  0.40371900  1
  Cu  Cu39  1  0.89998600  0.89998600  0.89998600  1
  Cu  Cu40  1  0.10001400  0.10001400  0.69995700  1
  Cu  Cu41  1  0.09628100  0.40371900  0.09628100  1
