# generated using pymatgen
data_Cu9NiC11
_symmetry_space_group_name_H-M   'P 1'
_cell_length_a   6.70624800
_cell_length_b   6.84531297
_cell_length_c   11.55136234
_cell_angle_alpha   76.57345469
_cell_angle_beta   81.69417926
_cell_angle_gamma   72.27873185
_symmetry_Int_Tables_number   1
_chemical_formula_structural   Cu9NiC11
_chemical_formula_sum   'Cu18 Ni2 C22'
_cell_volume   489.75259642
_cell_formula_units_Z   2
loop_
 _symmetry_equiv_pos_site_id
 _symmetry_equiv_pos_as_xyz
  1  'x, y, z'
loop_
 _atom_site_type_symbol
 _atom_site_label
 _atom_site_symmetry_multiplicity
 _atom_site_fract_x
 _atom_site_fract_y
 _atom_site_fract_z
 _atom_site_occupancy
  C  C0  1  0.00000000  0.00000000  0.00000000  1
  C  C1  1  0.00000000  0.50000000  0.50000000  1
  C  C2  1  0.43122900  0.18612500  0.33821300  1
  C  C3  1  0.43471700  0.25904700  0.10796200  1
  C  C4  1  0.15600000  0.74324900  0.15279600  1
  C  C5  1  0.84400000  0.25675100  0.84720400  1
  C  C6  1  0.56857300  0.55527900  0.12952400  1
  C  C7  1  0.58954100  0.63791000  0.51105800  1
  C  C8  1  0.90444000  0.87058900  0.43948400  1
  C  C9  1  0.58337900  0.58252000  0.57503500  1
  C  C10  1  0.56528300  0.74095300  0.89203800  1
  C  C11  1  0.95267400  0.32634100  0.07837400  1
  C  C12  1  0.88754800  0.67344000  0.25739900  1
  C  C13  1  0.04732600  0.67365900  0.92162600  1
  C  C14  1  0.11245200  0.32656000  0.74260100  1
  C  C15  1  0.43142700  0.44472100  0.87047600  1
  C  C16  1  0.41045900  0.36209000  0.48894200  1
  C  C17  1  0.56877100  0.81387500  0.66178700  1
  C  C18  1  0.41662100  0.41748000  0.42496500  1
  C  C19  1  0.79804400  0.47850200  0.32237300  1
  C  C20  1  0.20195600  0.52149800  0.67762700  1
  C  C21  1  0.09556000  0.12941100  0.56051600  1
  Ni  Ni22  1  0.62017600  0.12732100  0.27012400  1
  Ni  Ni23  1  0.37982400  0.87267900  0.72987600  1
  Cu  Cu24  1  0.47972000  0.30022700  0.85278300  1
  Cu  Cu25  1  0.78271700  0.98599000  0.73303600  1
  Cu  Cu26  1  0.01087100  0.79072200  0.13144400  1
  Cu  Cu27  1  0.16715300  0.39934900  0.66340100  1
  Cu  Cu28  1  0.76276700  0.21894600  0.31297600  1
  Cu  Cu29  1  0.46881800  0.69568400  0.85339000  1
  Cu  Cu30  1  0.40553000  0.17385900  0.94605000  1
  Cu  Cu31  1  0.95071500  0.77104200  0.51249700  1
  Cu  Cu32  1  0.21728300  0.01401000  0.26696400  1
  Cu  Cu33  1  0.27530300  0.86721000  0.35093300  1
  Cu  Cu34  1  0.53118200  0.30431600  0.14661000  1
  Cu  Cu35  1  0.23723300  0.78105400  0.68702400  1
  Cu  Cu36  1  0.04928500  0.22895800  0.48750300  1
  Cu  Cu37  1  0.59447000  0.82614100  0.05395000  1
  Cu  Cu38  1  0.72469700  0.13279000  0.64906700  1
  Cu  Cu39  1  0.83284700  0.60065100  0.33659900  1
  Cu  Cu40  1  0.98912900  0.20927800  0.86855600  1
  Cu  Cu41  1  0.52028000  0.69977300  0.14721700  1
