# generated using pymatgen
data_Cu2NiC5
_symmetry_space_group_name_H-M   'P 1'
_cell_length_a   7.99555600
_cell_length_b   5.13923900
_cell_length_c   7.12222523
_cell_angle_alpha   82.45651407
_cell_angle_beta   90.00000000
_cell_angle_gamma   90.00000000
_symmetry_Int_Tables_number   1
_chemical_formula_structural   Cu2NiC5
_chemical_formula_sum   'Cu8 Ni4 C20'
_cell_volume   290.12705632
_cell_formula_units_Z   4
loop_
 _symmetry_equiv_pos_site_id
 _symmetry_equiv_pos_as_xyz
  1  'x, y, z'
loop_
 _atom_site_type_symbol
 _atom_site_label
 _atom_site_symmetry_multiplicity
 _atom_site_fract_x
 _atom_site_fract_y
 _atom_site_fract_z
 _atom_site_occupancy
  C  C0  1  0.82573500  0.94105600  0.09527000  1
  C  C1  1  0.32573500  0.55894400  0.90473000  1
  C  C2  1  0.17426500  0.05894400  0.90473000  1
  C  C3  1  0.67426500  0.44105600  0.09527000  1
  Ni  Ni4  1  0.02958400  0.47784100  0.19877400  1
  Ni  Ni5  1  0.52958400  0.02215900  0.80122600  1
  Ni  Ni6  1  0.97041600  0.52215900  0.80122600  1
  Ni  Ni7  1  0.47041600  0.97784100  0.19877400  1
  Cu  Cu8  1  0.21719300  0.26224800  0.33761000  1
  Cu  Cu9  1  0.71719300  0.23775200  0.66239000  1
  Cu  Cu10  1  0.78280700  0.73775200  0.66239000  1
  Cu  Cu11  1  0.28280700  0.76224800  0.33761000  1
  Cu  Cu12  1  0.86504300  0.58712500  0.39177700  1
  Cu  Cu13  1  0.36504300  0.91287500  0.60822300  1
  Cu  Cu14  1  0.13495700  0.41287500  0.60822300  1
  Cu  Cu15  1  0.63495700  0.08712500  0.39177700  1
  C  C16  1  0.12070000  0.67380100  0.05620600  1
  C  C17  1  0.62070000  0.82619900  0.94379400  1
  C  C18  1  0.87930000  0.32619900  0.94379400  1
  C  C19  1  0.37930000  0.17380100  0.05620600  1
  C  C20  1  0.99772800  0.23692400  0.10356300  1
  C  C21  1  0.49772800  0.26307600  0.89643700  1
  C  C22  1  0.00227200  0.76307600  0.89643700  1
  C  C23  1  0.50227200  0.73692400  0.10356300  1
  C  C24  1  0.14571500  0.41346600  0.35396400  1
  C  C25  1  0.64571500  0.08653400  0.64603600  1
  C  C26  1  0.85428500  0.58653400  0.64603600  1
  C  C27  1  0.35428500  0.91346600  0.35396400  1
  C  C28  1  0.87298100  0.59344500  0.25220000  1
  C  C29  1  0.37298100  0.90655500  0.74780000  1
  C  C30  1  0.12701900  0.40655500  0.74780000  1
  C  C31  1  0.62701900  0.09344500  0.25220000  1
