# generated using pymatgen
data_Cu2Ni8C29
_symmetry_space_group_name_H-M   'P 1'
_cell_length_a   9.16587100
_cell_length_b   12.54309200
_cell_length_c   15.63704600
_cell_angle_alpha   90.00000000
_cell_angle_beta   90.00000000
_cell_angle_gamma   90.00000000
_symmetry_Int_Tables_number   1
_chemical_formula_structural   Cu2Ni8C29
_chemical_formula_sum   'Cu8 Ni32 C116'
_cell_volume   1797.76558411
_cell_formula_units_Z   4
loop_
 _symmetry_equiv_pos_site_id
 _symmetry_equiv_pos_as_xyz
  1  'x, y, z'
loop_
 _atom_site_type_symbol
 _atom_site_label
 _atom_site_symmetry_multiplicity
 _atom_site_fract_x
 _atom_site_fract_y
 _atom_site_fract_z
 _atom_site_occupancy
  C  C0  1  0.75000000  0.25563300  0.09304000  1
  C  C1  1  0.25000000  0.24436700  0.59304000  1
  C  C2  1  0.25000000  0.74436700  0.90696000  1
  C  C3  1  0.75000000  0.75563300  0.40696000  1
  C  C4  1  0.65236100  0.60486500  0.73221900  1
  C  C5  1  0.84855200  0.85992500  0.97629400  1
  C  C6  1  0.52041100  0.85739800  0.11254800  1
  C  C7  1  0.88435700  0.97711200  0.14289200  1
  C  C8  1  0.62301800  0.36151000  0.28932700  1
  C  C9  1  0.65236100  0.10486500  0.76778100  1
  C  C10  1  0.38435700  0.02288800  0.85710800  1
  C  C11  1  0.12301800  0.13849000  0.78932700  1
  C  C12  1  0.60980300  0.88036200  0.70774600  1
  C  C13  1  0.12521200  0.59387100  0.09508300  1
  C  C14  1  0.34818800  0.79585600  0.56557800  1
  C  C15  1  0.34818800  0.29585600  0.93442200  1
  C  C16  1  0.15236100  0.89513500  0.23221900  1
  C  C17  1  0.37698200  0.63849000  0.71067300  1
  C  C18  1  0.87478800  0.90612900  0.59508300  1
  C  C19  1  0.02041100  0.64260200  0.61254800  1
  C  C20  1  0.51892000  0.49301600  0.83836100  1
  C  C21  1  0.15144800  0.14007500  0.02370600  1
  C  C22  1  0.84782700  0.14860100  0.62116700  1
  C  C23  1  0.37478800  0.09387100  0.40491700  1
  C  C24  1  0.75000000  0.20357800  0.33446000  1
  C  C25  1  0.88435700  0.47711200  0.35710800  1
  C  C26  1  0.75000000  0.06621500  0.54500500  1
  C  C27  1  0.15144800  0.64007500  0.47629400  1
  C  C28  1  0.75000000  0.99128200  0.80899400  1
  C  C29  1  0.12521200  0.09387100  0.40491700  1
  C  C30  1  0.87478800  0.40612900  0.90491700  1
  C  C31  1  0.34855200  0.64007500  0.47629400  1
  C  C32  1  0.84855200  0.35992500  0.52370600  1
  C  C33  1  0.65217300  0.14860100  0.62116700  1
  C  C34  1  0.25000000  0.79642200  0.66554000  1
  C  C35  1  0.11564300  0.52288800  0.64289200  1
  C  C36  1  0.65217300  0.64860100  0.87883300  1
  C  C37  1  0.34782700  0.35139900  0.12116700  1
  C  C38  1  0.75000000  0.70357800  0.16554000  1
  C  C39  1  0.98108000  0.99301600  0.66163900  1
  C  C40  1  0.25000000  0.43378500  0.04500500  1
  C  C41  1  0.98108000  0.49301600  0.83836100  1
  C  C42  1  0.60980300  0.38036200  0.79225400  1
  C  C43  1  0.25000000  0.29642200  0.83446000  1
  C  C44  1  0.65181200  0.70414400  0.06557800  1
  C  C45  1  0.15217300  0.35139900  0.12116700  1
  C  C46  1  0.34763900  0.39513500  0.26778100  1
  C  C47  1  0.48108000  0.00698400  0.33836100  1
  C  C48  1  0.02041100  0.14260200  0.88745200  1
  C  C49  1  0.34763900  0.89513500  0.23221900  1
  C  C50  1  0.15236100  0.39513500  0.26778100  1
  C  C51  1  0.10980300  0.61963800  0.20774600  1
  C  C52  1  0.89019700  0.88036200  0.70774600  1
  C  C53  1  0.61564300  0.97711200  0.14289200  1
  C  C54  1  0.62301800  0.86151000  0.21067300  1
  C  C55  1  0.25000000  0.52245300  0.50766200  1
  C  C56  1  0.52041100  0.35739800  0.38745200  1
  C  C57  1  0.87698200  0.86151000  0.21067300  1
  C  C58  1  0.25000000  0.93378500  0.45499500  1
  C  C59  1  0.25000000  0.00871800  0.19100600  1
  C  C60  1  0.61564300  0.47711200  0.35710800  1
  C  C61  1  0.01892000  0.50698400  0.16163900  1
  C  C62  1  0.65144800  0.85992500  0.97629400  1
  C  C63  1  0.65181200  0.20414400  0.43442200  1
  C  C64  1  0.48108000  0.50698400  0.16163900  1
  C  C65  1  0.84818800  0.20414400  0.43442200  1
  C  C66  1  0.97958900  0.35739800  0.38745200  1
  C  C67  1  0.12301800  0.63849000  0.71067300  1
  C  C68  1  0.51892000  0.99301600  0.66163900  1
  C  C69  1  0.37698200  0.13849000  0.78932700  1
  C  C70  1  0.65144800  0.35992500  0.52370600  1
  C  C71  1  0.75000000  0.56621500  0.95499500  1
  C  C72  1  0.84763900  0.10486500  0.76778100  1
  C  C73  1  0.47958900  0.14260200  0.88745200  1
  C  C74  1  0.84782700  0.64860100  0.87883300  1
  C  C75  1  0.62521200  0.40612900  0.90491700  1
  C  C76  1  0.39019700  0.11963800  0.29225400  1
  C  C77  1  0.10980300  0.11963800  0.29225400  1
  C  C78  1  0.75000000  0.49128200  0.69100600  1
  C  C79  1  0.01892000  0.00698400  0.33836100  1
  C  C80  1  0.15181200  0.79585600  0.56557800  1
  C  C81  1  0.84763900  0.60486500  0.73221900  1
  C  C82  1  0.47958900  0.64260200  0.61254800  1
  C  C83  1  0.15181200  0.29585600  0.93442200  1
  C  C84  1  0.34855200  0.14007500  0.02370600  1
  C  C85  1  0.89019700  0.38036200  0.79225400  1
  C  C86  1  0.87698200  0.36151000  0.28932700  1
  C  C87  1  0.62521200  0.90612900  0.59508300  1
  C  C88  1  0.25000000  0.50871800  0.30899400  1
  C  C89  1  0.25000000  0.02245300  0.99233800  1
  C  C90  1  0.39019700  0.61963800  0.20774600  1
  C  C91  1  0.15217300  0.85139900  0.37883300  1
  C  C92  1  0.84818800  0.70414400  0.06557800  1
  C  C93  1  0.11564300  0.02288800  0.85710800  1
  C  C94  1  0.97958900  0.85739800  0.11254800  1
  C  C95  1  0.75000000  0.47754700  0.49233800  1
  C  C96  1  0.34782700  0.85139900  0.37883300  1
  C  C97  1  0.75000000  0.97754700  0.00766200  1
  C  C98  1  0.37478800  0.59387100  0.09508300  1
  C  C99  1  0.38435700  0.52288800  0.64289200  1
  Ni  Ni100  1  0.61621800  0.44238700  0.84155000  1
  Ni  Ni101  1  0.38283700  0.61020200  0.64450400  1
  Ni  Ni102  1  0.88378200  0.94238700  0.65845000  1
  Ni  Ni103  1  0.38378200  0.55761300  0.15845000  1
  Ni  Ni104  1  0.25000000  0.44489300  0.26131300  1
  Ni  Ni105  1  0.25000000  0.10971900  0.99202100  1
  Ni  Ni106  1  0.75000000  0.55510700  0.73868700  1
  Ni  Ni107  1  0.25000000  0.26879300  0.90112500  1
  Ni  Ni108  1  0.75000000  0.05510700  0.76131300  1
  Ni  Ni109  1  0.25000000  0.89980400  0.39022900  1
  Ni  Ni110  1  0.61716300  0.88979800  0.14450400  1
  Ni  Ni111  1  0.11716300  0.61020200  0.64450400  1
  Ni  Ni112  1  0.25000000  0.60971900  0.50797900  1
  Ni  Ni113  1  0.75000000  0.10019600  0.60977100  1
  Ni  Ni114  1  0.88283700  0.38979800  0.35549600  1
  Ni  Ni115  1  0.25000000  0.76879300  0.59887500  1
  Ni  Ni116  1  0.11716300  0.11020200  0.85549600  1
  Ni  Ni117  1  0.61621800  0.94238700  0.65845000  1
  Ni  Ni118  1  0.75000000  0.89028100  0.00797900  1
  Ni  Ni119  1  0.75000000  0.60019600  0.89022900  1
  Ni  Ni120  1  0.75000000  0.73120700  0.09887500  1
  Ni  Ni121  1  0.25000000  0.39980400  0.10977100  1
  Ni  Ni122  1  0.88378200  0.44238700  0.84155000  1
  Ni  Ni123  1  0.88283700  0.88979800  0.14450400  1
  Ni  Ni124  1  0.38283700  0.11020200  0.85549600  1
  Ni  Ni125  1  0.75000000  0.23120700  0.40112500  1
  Ni  Ni126  1  0.11621800  0.05761300  0.34155000  1
  Ni  Ni127  1  0.11621800  0.55761300  0.15845000  1
  Ni  Ni128  1  0.75000000  0.39028100  0.49202100  1
  Ni  Ni129  1  0.61716300  0.38979800  0.35549600  1
  Ni  Ni130  1  0.38378200  0.05761300  0.34155000  1
  Ni  Ni131  1  0.25000000  0.94489300  0.23868700  1
  Cu  Cu132  1  0.75000000  0.85074300  0.09866200  1
  Cu  Cu133  1  0.75000000  0.50936300  0.82746700  1
  Cu  Cu134  1  0.25000000  0.14925700  0.90133800  1
  Cu  Cu135  1  0.75000000  0.00936300  0.67253300  1
  Cu  Cu136  1  0.25000000  0.99063700  0.32746700  1
  Cu  Cu137  1  0.25000000  0.64925700  0.59866200  1
  Cu  Cu138  1  0.75000000  0.35074300  0.40133800  1
  Cu  Cu139  1  0.25000000  0.49063700  0.17253300  1
  C  C140  1  0.25000000  0.31458400  0.45989400  1
  C  C141  1  0.45686900  0.80023600  0.84151500  1
  C  C142  1  0.04313100  0.30023600  0.65848500  1
  C  C143  1  0.25000000  0.56466000  0.90302500  1
  C  C144  1  0.95686900  0.69976400  0.34151500  1
  C  C145  1  0.54313100  0.69976400  0.34151500  1
  C  C146  1  0.75000000  0.68541600  0.54010600  1
  C  C147  1  0.45686900  0.30023600  0.65848500  1
  C  C148  1  0.04313100  0.80023600  0.84151500  1
  C  C149  1  0.75000000  0.93534000  0.40302500  1
  C  C150  1  0.75000000  0.18541600  0.95989400  1
  C  C151  1  0.25000000  0.06466000  0.59697500  1
  C  C152  1  0.95686900  0.19976400  0.15848500  1
  C  C153  1  0.54313100  0.19976400  0.15848500  1
  C  C154  1  0.75000000  0.43534000  0.09697500  1
  C  C155  1  0.25000000  0.81458400  0.04010600  1
