# generated using pymatgen
data_Cu2NiC17
_symmetry_space_group_name_H-M   'P 1'
_cell_length_a   11.19570511
_cell_length_b   11.19570511
_cell_length_c   11.19570511
_cell_angle_alpha   60.00000000
_cell_angle_beta   60.00000000
_cell_angle_gamma   60.00000000
_symmetry_Int_Tables_number   1
_chemical_formula_structural   Cu2NiC17
_chemical_formula_sum   'Cu4 Ni2 C34'
_cell_volume   992.29168932
_cell_formula_units_Z   2
loop_
 _symmetry_equiv_pos_site_id
 _symmetry_equiv_pos_as_xyz
  1  'x, y, z'
loop_
 _atom_site_type_symbol
 _atom_site_label
 _atom_site_symmetry_multiplicity
 _atom_site_fract_x
 _atom_site_fract_y
 _atom_site_fract_z
 _atom_site_occupancy
  Ni  Ni0  1  0.00000000  0.00000000  0.00000000  1
  Ni  Ni1  1  0.25000000  0.25000000  0.25000000  1
  Cu  Cu2  1  0.12500000  0.62500000  0.62500000  1
  Cu  Cu3  1  0.62500000  0.12500000  0.62500000  1
  Cu  Cu4  1  0.62500000  0.62500000  0.12500000  1
  Cu  Cu5  1  0.62500000  0.62500000  0.62500000  1
  C  C6  1  0.50000000  0.50000000  0.50000000  1
  C  C7  1  0.75000000  0.75000000  0.75000000  1
  C  C8  1  0.77950700  0.40683100  0.40683100  1
  C  C9  1  0.40683100  0.77950700  0.40683100  1
  C  C10  1  0.40683100  0.40683100  0.77950700  1
  C  C11  1  0.40683100  0.40683100  0.40683100  1
  C  C12  1  0.47049300  0.84316900  0.84316900  1
  C  C13  1  0.84316900  0.47049300  0.84316900  1
  C  C14  1  0.84316900  0.84316900  0.47049300  1
  C  C15  1  0.84316900  0.84316900  0.84316900  1
  C  C16  1  0.85985100  0.25406400  0.25406400  1
  C  C17  1  0.25406400  0.85985100  0.63202100  1
  C  C18  1  0.25406400  0.63202100  0.85985100  1
  C  C19  1  0.63202100  0.25406400  0.25406400  1
  C  C20  1  0.25406400  0.25406400  0.85985100  1
  C  C21  1  0.85985100  0.63202100  0.25406400  1
  C  C22  1  0.63202100  0.85985100  0.25406400  1
  C  C23  1  0.25406400  0.25406400  0.63202100  1
  C  C24  1  0.25406400  0.85985100  0.25406400  1
  C  C25  1  0.63202100  0.25406400  0.85985100  1
  C  C26  1  0.85985100  0.25406400  0.63202100  1
  C  C27  1  0.25406400  0.63202100  0.25406400  1
  C  C28  1  0.39014900  0.99593600  0.99593600  1
  C  C29  1  0.99593600  0.39014900  0.61797900  1
  C  C30  1  0.99593600  0.61797900  0.39014900  1
  C  C31  1  0.61797900  0.99593600  0.99593600  1
  C  C32  1  0.99593600  0.99593600  0.39014900  1
  C  C33  1  0.39014900  0.61797900  0.99593600  1
  C  C34  1  0.61797900  0.39014900  0.99593600  1
  C  C35  1  0.99593600  0.99593600  0.61797900  1
  C  C36  1  0.99593600  0.39014900  0.99593600  1
  C  C37  1  0.61797900  0.99593600  0.39014900  1
  C  C38  1  0.39014900  0.99593600  0.61797900  1
  C  C39  1  0.99593600  0.61797900  0.99593600  1
