# generated using pymatgen
data_Cu24Ni2C27
_symmetry_space_group_name_H-M   'P 1'
_cell_length_a   7.04817400
_cell_length_b   7.04817400
_cell_length_c   21.10035800
_cell_angle_alpha   90.00000000
_cell_angle_beta   90.00000000
_cell_angle_gamma   90.00000000
_symmetry_Int_Tables_number   1
_chemical_formula_structural   Cu24Ni2C27
_chemical_formula_sum   'Cu48 Ni4 C54'
_cell_volume   1048.19735137
_cell_formula_units_Z   2
loop_
 _symmetry_equiv_pos_site_id
 _symmetry_equiv_pos_as_xyz
  1  'x, y, z'
loop_
 _atom_site_type_symbol
 _atom_site_label
 _atom_site_symmetry_multiplicity
 _atom_site_fract_x
 _atom_site_fract_y
 _atom_site_fract_z
 _atom_site_occupancy
  C  C0  1  0.50000000  0.50000000  0.29129700  1
  C  C1  1  0.50000000  0.50000000  0.70870300  1
  C  C2  1  0.00000000  0.00000000  0.20870300  1
  C  C3  1  0.00000000  0.00000000  0.79129700  1
  C  C4  1  0.50000000  0.50000000  0.50000000  1
  C  C5  1  0.00000000  0.00000000  0.00000000  1
  Ni  Ni6  1  0.00000000  0.50000000  0.25000000  1
  Ni  Ni7  1  0.00000000  0.50000000  0.75000000  1
  Ni  Ni8  1  0.50000000  0.00000000  0.25000000  1
  Ni  Ni9  1  0.50000000  0.00000000  0.75000000  1
  Cu  Cu10  1  0.84032100  0.14885400  0.41539500  1
  Cu  Cu11  1  0.15967900  0.85114600  0.41539500  1
  Cu  Cu12  1  0.15967900  0.14885400  0.58460500  1
  Cu  Cu13  1  0.84032100  0.85114600  0.58460500  1
  Cu  Cu14  1  0.65967900  0.35114600  0.08460500  1
  Cu  Cu15  1  0.34032100  0.64885400  0.08460500  1
  Cu  Cu16  1  0.34032100  0.35114600  0.91539500  1
  Cu  Cu17  1  0.65967900  0.64885400  0.91539500  1
  Cu  Cu18  1  0.14885400  0.84032100  0.58460500  1
  Cu  Cu19  1  0.85114600  0.15967900  0.58460500  1
  Cu  Cu20  1  0.14885400  0.15967900  0.41539500  1
  Cu  Cu21  1  0.85114600  0.84032100  0.41539500  1
  Cu  Cu22  1  0.35114600  0.65967900  0.91539500  1
  Cu  Cu23  1  0.64885400  0.34032100  0.91539500  1
  Cu  Cu24  1  0.35114600  0.34032100  0.08460500  1
  Cu  Cu25  1  0.64885400  0.65967900  0.08460500  1
  Cu  Cu26  1  0.90342600  0.32236400  0.37310300  1
  Cu  Cu27  1  0.09657400  0.67763600  0.37310300  1
  Cu  Cu28  1  0.09657400  0.32236400  0.62689700  1
  Cu  Cu29  1  0.90342600  0.67763600  0.62689700  1
  Cu  Cu30  1  0.59657400  0.17763600  0.12689700  1
  Cu  Cu31  1  0.40342600  0.82236400  0.12689700  1
  Cu  Cu32  1  0.40342600  0.17763600  0.87310300  1
  Cu  Cu33  1  0.59657400  0.82236400  0.87310300  1
  Cu  Cu34  1  0.32236400  0.90342600  0.62689700  1
  Cu  Cu35  1  0.67763600  0.09657400  0.62689700  1
  Cu  Cu36  1  0.32236400  0.09657400  0.37310300  1
  Cu  Cu37  1  0.67763600  0.90342600  0.37310300  1
  Cu  Cu38  1  0.17763600  0.59657400  0.87310300  1
  Cu  Cu39  1  0.82236400  0.40342600  0.87310300  1
  Cu  Cu40  1  0.17763600  0.40342600  0.12689700  1
  Cu  Cu41  1  0.82236400  0.59657400  0.12689700  1
  Cu  Cu42  1  0.84492300  0.41611800  0.47034500  1
  Cu  Cu43  1  0.15507700  0.58388200  0.47034500  1
  Cu  Cu44  1  0.15507700  0.41611800  0.52965500  1
  Cu  Cu45  1  0.84492300  0.58388200  0.52965500  1
  Cu  Cu46  1  0.65507700  0.08388200  0.02965500  1
  Cu  Cu47  1  0.34492300  0.91611800  0.02965500  1
  Cu  Cu48  1  0.34492300  0.08388200  0.97034500  1
  Cu  Cu49  1  0.65507700  0.91611800  0.97034500  1
  Cu  Cu50  1  0.41611800  0.84492300  0.52965500  1
  Cu  Cu51  1  0.58388200  0.15507700  0.52965500  1
  Cu  Cu52  1  0.41611800  0.15507700  0.47034500  1
  Cu  Cu53  1  0.58388200  0.84492300  0.47034500  1
  Cu  Cu54  1  0.08388200  0.65507700  0.97034500  1
  Cu  Cu55  1  0.91611800  0.34492300  0.97034500  1
  Cu  Cu56  1  0.08388200  0.34492300  0.02965500  1
  Cu  Cu57  1  0.91611800  0.65507700  0.02965500  1
  C  C58  1  0.50000000  0.50000000  0.37735600  1
  C  C59  1  0.50000000  0.50000000  0.62264400  1
  C  C60  1  0.00000000  0.00000000  0.12264400  1
  C  C61  1  0.00000000  0.00000000  0.87735600  1
  C  C62  1  0.50000000  0.50000000  0.20515800  1
  C  C63  1  0.50000000  0.50000000  0.79484200  1
  C  C64  1  0.00000000  0.00000000  0.29484200  1
  C  C65  1  0.00000000  0.00000000  0.70515800  1
  C  C66  1  0.77285800  0.50000000  0.50000000  1
  C  C67  1  0.22714200  0.50000000  0.50000000  1
  C  C68  1  0.72714200  0.00000000  0.00000000  1
  C  C69  1  0.27285800  0.00000000  0.00000000  1
  C  C70  1  0.50000000  0.77285800  0.50000000  1
  C  C71  1  0.50000000  0.22714200  0.50000000  1
  C  C72  1  0.00000000  0.72714200  0.00000000  1
  C  C73  1  0.00000000  0.27285800  0.00000000  1
  C  C74  1  0.82667400  0.46197700  0.29390400  1
  C  C75  1  0.17332600  0.53802300  0.29390400  1
  C  C76  1  0.17332600  0.46197700  0.70609600  1
  C  C77  1  0.82667400  0.53802300  0.70609600  1
  C  C78  1  0.67332600  0.03802300  0.20609600  1
  C  C79  1  0.32667400  0.96197700  0.20609600  1
  C  C80  1  0.32667400  0.03802300  0.79390400  1
  C  C81  1  0.67332600  0.96197700  0.79390400  1
  C  C82  1  0.46197700  0.82667400  0.70609600  1
  C  C83  1  0.53802300  0.17332600  0.70609600  1
  C  C84  1  0.46197700  0.17332600  0.29390400  1
  C  C85  1  0.53802300  0.82667400  0.29390400  1
  C  C86  1  0.03802300  0.67332600  0.79390400  1
  C  C87  1  0.96197700  0.32667400  0.79390400  1
  C  C88  1  0.03802300  0.32667400  0.20609600  1
  C  C89  1  0.96197700  0.67332600  0.20609600  1
  C  C90  1  0.92282500  0.26490600  0.41519300  1
  C  C91  1  0.07717500  0.73509400  0.41519300  1
  C  C92  1  0.07717500  0.26490600  0.58480700  1
  C  C93  1  0.92282500  0.73509400  0.58480700  1
  C  C94  1  0.57717500  0.23509400  0.08480700  1
  C  C95  1  0.42282500  0.76490600  0.08480700  1
  C  C96  1  0.42282500  0.23509400  0.91519300  1
  C  C97  1  0.57717500  0.76490600  0.91519300  1
  C  C98  1  0.26490600  0.92282500  0.58480700  1
  C  C99  1  0.73509400  0.07717500  0.58480700  1
  C  C100  1  0.26490600  0.07717500  0.41519300  1
  C  C101  1  0.73509400  0.92282500  0.41519300  1
  C  C102  1  0.23509400  0.57717500  0.91519300  1
  C  C103  1  0.76490600  0.42282500  0.91519300  1
  C  C104  1  0.23509400  0.42282500  0.08480700  1
  C  C105  1  0.76490600  0.57717500  0.08480700  1
