# generated using pymatgen
data_Cu27Ni9C5
_symmetry_space_group_name_H-M   'P 1'
_cell_length_a   13.68255400
_cell_length_b   13.68255400
_cell_length_c   13.68255400
_cell_angle_alpha   90.00000000
_cell_angle_beta   90.00000000
_cell_angle_gamma   90.00000000
_symmetry_Int_Tables_number   1
_chemical_formula_structural   Cu27Ni9C5
_chemical_formula_sum   'Cu108 Ni36 C20'
_cell_volume   2561.54218479
_cell_formula_units_Z   4
loop_
 _symmetry_equiv_pos_site_id
 _symmetry_equiv_pos_as_xyz
  1  'x, y, z'
loop_
 _atom_site_type_symbol
 _atom_site_label
 _atom_site_symmetry_multiplicity
 _atom_site_fract_x
 _atom_site_fract_y
 _atom_site_fract_z
 _atom_site_occupancy
  C  C0  1  0.81164100  0.56164100  0.87500000  1
  C  C1  1  0.62500000  0.18835900  0.06164100  1
  C  C2  1  0.43835900  0.37500000  0.68835900  1
  C  C3  1  0.06164100  0.62500000  0.18835900  1
  C  C4  1  0.12500000  0.31164100  0.93835900  1
  C  C5  1  0.68835900  0.43835900  0.37500000  1
  C  C6  1  0.18835900  0.06164100  0.62500000  1
  C  C7  1  0.93835900  0.12500000  0.31164100  1
  C  C8  1  0.37500000  0.68835900  0.43835900  1
  C  C9  1  0.31164100  0.93835900  0.12500000  1
  C  C10  1  0.87500000  0.81164100  0.56164100  1
  C  C11  1  0.56164100  0.87500000  0.81164100  1
  C  C12  1  0.04943200  0.45056800  0.54943200  1
  C  C13  1  0.20056800  0.70056800  0.79943200  1
  C  C14  1  0.70056800  0.79943200  0.20056800  1
  C  C15  1  0.79943200  0.20056800  0.70056800  1
  C  C16  1  0.95056800  0.95056800  0.95056800  1
  C  C17  1  0.29943200  0.29943200  0.29943200  1
  C  C18  1  0.45056800  0.54943200  0.04943200  1
  C  C19  1  0.54943200  0.04943200  0.45056800  1
  Ni  Ni20  1  0.48620000  0.76380000  0.12500000  1
  Ni  Ni21  1  0.11150100  0.83661200  0.64874200  1
  Ni  Ni22  1  0.87500000  0.98620000  0.73620000  1
  Ni  Ni23  1  0.12500000  0.48620000  0.76380000  1
  Ni  Ni24  1  0.35125800  0.61150100  0.66338800  1
  Ni  Ni25  1  0.01380000  0.23620000  0.62500000  1
  Ni  Ni26  1  0.38849900  0.16338800  0.14874200  1
  Ni  Ni27  1  0.63849900  0.89874200  0.58661200  1
  Ni  Ni28  1  0.60125800  0.41338800  0.13849900  1
  Ni  Ni29  1  0.98620000  0.73620000  0.87500000  1
  Ni  Ni30  1  0.61150100  0.66338800  0.35125800  1
  Ni  Ni31  1  0.14874200  0.38849900  0.16338800  1
  Ni  Ni32  1  0.51380000  0.26380000  0.37500000  1
  Ni  Ni33  1  0.85125800  0.88849900  0.33661200  1
  Ni  Ni34  1  0.76380000  0.12500000  0.48620000  1
  Ni  Ni35  1  0.86150100  0.10125800  0.08661200  1
  Ni  Ni36  1  0.37500000  0.51380000  0.26380000  1
  Ni  Ni37  1  0.62500000  0.01380000  0.23620000  1
  Ni  Ni38  1  0.83661200  0.64874200  0.11150100  1
  Ni  Ni39  1  0.23620000  0.62500000  0.01380000  1
  Ni  Ni40  1  0.41338800  0.13849900  0.60125800  1
  Ni  Ni41  1  0.64874200  0.11150100  0.83661200  1
  Ni  Ni42  1  0.88849900  0.33661200  0.85125800  1
  Ni  Ni43  1  0.16338800  0.14874200  0.38849900  1
  Ni  Ni44  1  0.10125800  0.08661200  0.86150100  1
  Ni  Ni45  1  0.08661200  0.86150100  0.10125800  1
  Ni  Ni46  1  0.26380000  0.37500000  0.51380000  1
  Ni  Ni47  1  0.39874200  0.91338800  0.36150100  1
  Ni  Ni48  1  0.89874200  0.58661200  0.63849900  1
  Ni  Ni49  1  0.58661200  0.63849900  0.89874200  1
  Ni  Ni50  1  0.66338800  0.35125800  0.61150100  1
  Ni  Ni51  1  0.36150100  0.39874200  0.91338800  1
  Ni  Ni52  1  0.73620000  0.87500000  0.98620000  1
  Ni  Ni53  1  0.33661200  0.85125800  0.88849900  1
  Ni  Ni54  1  0.13849900  0.60125800  0.41338800  1
  Ni  Ni55  1  0.91338800  0.36150100  0.39874200  1
  Cu  Cu56  1  0.00235400  0.82498800  0.08340200  1
  Cu  Cu57  1  0.16659800  0.42501200  0.24764600  1
  Cu  Cu58  1  0.37500000  0.44688000  0.19688000  1
  Cu  Cu59  1  0.08890700  0.42679800  0.10656100  1
  Cu  Cu60  1  0.94688000  0.30312000  0.62500000  1
  Cu  Cu61  1  0.34195400  0.49270800  0.34658600  1
  Cu  Cu62  1  0.49764600  0.17501200  0.58340200  1
  Cu  Cu63  1  0.33890700  0.85656100  0.32320200  1
  Cu  Cu64  1  0.07320200  0.89343900  0.58890700  1
  Cu  Cu65  1  0.35975600  0.80467100  0.81033900  1
  Cu  Cu66  1  0.15341400  0.65804600  0.99270800  1
  Cu  Cu67  1  0.69688000  0.12500000  0.55312000  1
  Cu  Cu68  1  0.80312000  0.87500000  0.05312000  1
  Cu  Cu69  1  0.10975600  0.93966100  0.05467100  1
  Cu  Cu70  1  0.75235400  0.66659800  0.07498800  1
  Cu  Cu71  1  0.74764600  0.33340200  0.57498800  1
  Cu  Cu72  1  0.32320200  0.33890700  0.85656100  1
  Cu  Cu73  1  0.65341400  0.84195400  0.00729200  1
  Cu  Cu74  1  0.69532900  0.18966100  0.85975600  1
  Cu  Cu75  1  0.84195400  0.00729200  0.65341400  1
  Cu  Cu76  1  0.92679800  0.39343900  0.91109300  1
  Cu  Cu77  1  0.83340200  0.92501200  0.25235400  1
  Cu  Cu78  1  0.49270800  0.34658600  0.34195400  1
  Cu  Cu79  1  0.80467100  0.81033900  0.35975600  1
  Cu  Cu80  1  0.91659800  0.50235400  0.67501200  1
  Cu  Cu81  1  0.25729200  0.59195400  0.09658600  1
  Cu  Cu82  1  0.18966100  0.85975600  0.69532900  1
  Cu  Cu83  1  0.75729200  0.90804600  0.90341400  1
  Cu  Cu84  1  0.19532900  0.31033900  0.14024400  1
  Cu  Cu85  1  0.55467100  0.39024400  0.06033900  1
  Cu  Cu86  1  0.31033900  0.14024400  0.19532900  1
  Cu  Cu87  1  0.41659800  0.99764600  0.32498800  1
  Cu  Cu88  1  0.07498800  0.75235400  0.66659800  1
  Cu  Cu89  1  0.41109300  0.57320200  0.60656100  1
  Cu  Cu90  1  0.83890700  0.64343900  0.67679800  1
  Cu  Cu91  1  0.66659800  0.07498800  0.75235400  1
  Cu  Cu92  1  0.09195400  0.40341400  0.74270800  1
  Cu  Cu93  1  0.67679800  0.83890700  0.64343900  1
  Cu  Cu94  1  0.57498800  0.74764600  0.33340200  1
  Cu  Cu95  1  0.82498800  0.08340200  0.00235400  1
  Cu  Cu96  1  0.17501200  0.58340200  0.49764600  1
  Cu  Cu97  1  0.14343900  0.82320200  0.16109300  1
  Cu  Cu98  1  0.30312000  0.62500000  0.94688000  1
  Cu  Cu99  1  0.39024400  0.06033900  0.55467100  1
  Cu  Cu100  1  0.50729200  0.84658600  0.15804600  1
  Cu  Cu101  1  0.66109300  0.35656100  0.17679800  1
  Cu  Cu102  1  0.74270800  0.09195400  0.40341400  1
  Cu  Cu103  1  0.62500000  0.94688000  0.30312000  1
  Cu  Cu104  1  0.68966100  0.64024400  0.30467100  1
  Cu  Cu105  1  0.33340200  0.57498800  0.74764600  1
  Cu  Cu106  1  0.89343900  0.58890700  0.07320200  1
  Cu  Cu107  1  0.19688000  0.37500000  0.44688000  1
  Cu  Cu108  1  0.90804600  0.90341400  0.75729200  1
  Cu  Cu109  1  0.64343900  0.67679800  0.83890700  1
  Cu  Cu110  1  0.42679800  0.10656100  0.08890700  1
  Cu  Cu111  1  0.06033900  0.55467100  0.39024400  1
  Cu  Cu112  1  0.55312000  0.69688000  0.12500000  1
  Cu  Cu113  1  0.43966100  0.44532900  0.89024400  1
  Cu  Cu114  1  0.00729200  0.65341400  0.84195400  1
  Cu  Cu115  1  0.58340200  0.49764600  0.17501200  1
  Cu  Cu116  1  0.99270800  0.15341400  0.65804600  1
  Cu  Cu117  1  0.94532900  0.60975600  0.56033900  1
  Cu  Cu118  1  0.34658600  0.34195400  0.49270800  1
  Cu  Cu119  1  0.08340200  0.00235400  0.82498800  1
  Cu  Cu120  1  0.09658600  0.25729200  0.59195400  1
  Cu  Cu121  1  0.24270800  0.40804600  0.59658600  1
  Cu  Cu122  1  0.93966100  0.05467100  0.10975600  1
  Cu  Cu123  1  0.44688000  0.19688000  0.37500000  1
  Cu  Cu124  1  0.84658600  0.15804600  0.50729200  1
  Cu  Cu125  1  0.32498800  0.41659800  0.99764600  1
  Cu  Cu126  1  0.50235400  0.67501200  0.91659800  1
  Cu  Cu127  1  0.40804600  0.59658600  0.24270800  1
  Cu  Cu128  1  0.56033900  0.94532900  0.60975600  1
  Cu  Cu129  1  0.39343900  0.91109300  0.92679800  1
  Cu  Cu130  1  0.85656100  0.32320200  0.33890700  1
  Cu  Cu131  1  0.87500000  0.05312000  0.80312000  1
  Cu  Cu132  1  0.59658600  0.24270800  0.40804600  1
  Cu  Cu133  1  0.05312000  0.80312000  0.87500000  1
  Cu  Cu134  1  0.14024400  0.19532900  0.31033900  1
  Cu  Cu135  1  0.57320200  0.60656100  0.41109300  1
  Cu  Cu136  1  0.44532900  0.89024400  0.43966100  1
  Cu  Cu137  1  0.92501200  0.25235400  0.83340200  1
  Cu  Cu138  1  0.15804600  0.50729200  0.84658600  1
  Cu  Cu139  1  0.24764600  0.16659800  0.42501200  1
  Cu  Cu140  1  0.89024400  0.43966100  0.44532900  1
  Cu  Cu141  1  0.91109300  0.92679800  0.39343900  1
  Cu  Cu142  1  0.05467100  0.10975600  0.93966100  1
  Cu  Cu143  1  0.82320200  0.16109300  0.14343900  1
  Cu  Cu144  1  0.42501200  0.24764600  0.16659800  1
  Cu  Cu145  1  0.30467100  0.68966100  0.64024400  1
  Cu  Cu146  1  0.85975600  0.69532900  0.18966100  1
  Cu  Cu147  1  0.99764600  0.32498800  0.41659800  1
  Cu  Cu148  1  0.35656100  0.17679800  0.66109300  1
  Cu  Cu149  1  0.12500000  0.55312000  0.69688000  1
  Cu  Cu150  1  0.16109300  0.14343900  0.82320200  1
  Cu  Cu151  1  0.65804600  0.99270800  0.15341400  1
  Cu  Cu152  1  0.67501200  0.91659800  0.50235400  1
  Cu  Cu153  1  0.59195400  0.09658600  0.25729200  1
  Cu  Cu154  1  0.60656100  0.41109300  0.57320200  1
  Cu  Cu155  1  0.10656100  0.08890700  0.42679800  1
  Cu  Cu156  1  0.40341400  0.74270800  0.09195400  1
  Cu  Cu157  1  0.81033900  0.35975600  0.80467100  1
  Cu  Cu158  1  0.90341400  0.75729200  0.90804600  1
  Cu  Cu159  1  0.58890700  0.07320200  0.89343900  1
  Cu  Cu160  1  0.25235400  0.83340200  0.92501200  1
  Cu  Cu161  1  0.17679800  0.66109300  0.35656100  1
  Cu  Cu162  1  0.64024400  0.30467100  0.68966100  1
  Cu  Cu163  1  0.60975600  0.56033900  0.94532900  1
