# generated using pymatgen
data_Cu3NiC
_symmetry_space_group_name_H-M   'P 1'
_cell_length_a   5.76964479
_cell_length_b   5.76964479
_cell_length_c   6.85962157
_cell_angle_alpha   98.08595857
_cell_angle_beta   98.08595857
_cell_angle_gamma   119.99106474
_symmetry_Int_Tables_number   1
_chemical_formula_structural   Cu3NiC
_chemical_formula_sum   'Cu6 Ni2 C2'
_cell_volume   189.78855981
_cell_formula_units_Z   2
loop_
 _symmetry_equiv_pos_site_id
 _symmetry_equiv_pos_as_xyz
  1  'x, y, z'
loop_
 _atom_site_type_symbol
 _atom_site_label
 _atom_site_symmetry_multiplicity
 _atom_site_fract_x
 _atom_site_fract_y
 _atom_site_fract_z
 _atom_site_occupancy
  C  C0  1  0.33328400  0.66671600  0.50000000  1
  C  C1  1  0.66671600  0.33328400  0.50000000  1
  Ni  Ni2  1  0.05565500  0.05565500  0.66432100  1
  Ni  Ni3  1  0.94434500  0.94434500  0.33567900  1
  Cu  Cu4  1  0.07270000  0.42738700  0.71739300  1
  Cu  Cu5  1  0.57261300  0.92730000  0.28260700  1
  Cu  Cu6  1  0.28110000  0.28110000  0.28184700  1
  Cu  Cu7  1  0.71890000  0.71890000  0.71815300  1
  Cu  Cu8  1  0.42738700  0.07270000  0.71739300  1
  Cu  Cu9  1  0.92730000  0.57261300  0.28260700  1
