# generated using pymatgen
data_Cu5Ni5C13
_symmetry_space_group_name_H-M   'P 1'
_cell_length_a   7.24695102
_cell_length_b   7.24695102
_cell_length_c   12.38186480
_cell_angle_alpha   87.46476176
_cell_angle_beta   87.46476176
_cell_angle_gamma   112.34991120
_symmetry_Int_Tables_number   1
_chemical_formula_structural   Cu5Ni5C13
_chemical_formula_sum   'Cu10 Ni10 C26'
_cell_volume   599.52327161
_cell_formula_units_Z   2
loop_
 _symmetry_equiv_pos_site_id
 _symmetry_equiv_pos_as_xyz
  1  'x, y, z'
loop_
 _atom_site_type_symbol
 _atom_site_label
 _atom_site_symmetry_multiplicity
 _atom_site_fract_x
 _atom_site_fract_y
 _atom_site_fract_z
 _atom_site_occupancy
  C  C0  1  0.95487700  0.24920400  0.88120500  1
  C  C1  1  0.75079600  0.04512300  0.61879500  1
  C  C2  1  0.04512300  0.75079600  0.11879500  1
  C  C3  1  0.24920400  0.95487700  0.38120500  1
  C  C4  1  0.16981600  0.83018400  0.75000000  1
  C  C5  1  0.83018400  0.16981600  0.25000000  1
  Ni  Ni6  1  0.65092400  0.65419500  0.93246900  1
  Ni  Ni7  1  0.34580500  0.34907600  0.56753100  1
  Ni  Ni8  1  0.34907600  0.34580500  0.06753100  1
  Ni  Ni9  1  0.65419500  0.65092400  0.43246900  1
  Ni  Ni10  1  0.51400400  0.22512500  0.95636900  1
  Ni  Ni11  1  0.77487500  0.48599600  0.54363100  1
  Ni  Ni12  1  0.48599600  0.77487500  0.04363100  1
  Ni  Ni13  1  0.22512500  0.51400400  0.45636900  1
  Ni  Ni14  1  0.50547600  0.49452400  0.75000000  1
  Ni  Ni15  1  0.49452400  0.50547600  0.25000000  1
  Cu  Cu16  1  0.79774900  0.70062400  0.88587200  1
  Cu  Cu17  1  0.29937600  0.20225100  0.61412800  1
  Cu  Cu18  1  0.20225100  0.29937600  0.11412800  1
  Cu  Cu19  1  0.70062400  0.79774900  0.38587200  1
  Cu  Cu20  1  0.42977100  0.11394200  0.89874500  1
  Cu  Cu21  1  0.88605800  0.57022900  0.60125500  1
  Cu  Cu22  1  0.57022900  0.88605800  0.10125500  1
  Cu  Cu23  1  0.11394200  0.42977100  0.39874500  1
  Cu  Cu24  1  0.41296200  0.58703800  0.75000000  1
  Cu  Cu25  1  0.58703800  0.41296200  0.25000000  1
  C  C26  1  0.83908100  0.83953900  0.81115400  1
  C  C27  1  0.16046100  0.16091900  0.68884600  1
  C  C28  1  0.16091900  0.16046100  0.18884600  1
  C  C29  1  0.83953900  0.83908100  0.31115400  1
  C  C30  1  0.91360100  0.61296300  0.90907200  1
  C  C31  1  0.38703700  0.08639900  0.59092800  1
  C  C32  1  0.08639900  0.38703700  0.09092800  1
  C  C33  1  0.61296300  0.91360100  0.40907200  1
  C  C34  1  0.24120300  0.02621300  0.91927600  1
  C  C35  1  0.97378700  0.75879700  0.58072400  1
  C  C36  1  0.75879700  0.97378700  0.08072400  1
  C  C37  1  0.02621300  0.24120300  0.41927600  1
  C  C38  1  0.52599300  0.08363800  0.81856900  1
  C  C39  1  0.91636200  0.47400700  0.68143100  1
  C  C40  1  0.47400700  0.91636200  0.18143100  1
  C  C41  1  0.08363800  0.52599300  0.31856900  1
  C  C42  1  0.41793700  0.69017300  0.66346200  1
  C  C43  1  0.30982700  0.58206300  0.83653800  1
  C  C44  1  0.58206300  0.30982700  0.33653800  1
  C  C45  1  0.69017300  0.41793700  0.16346200  1
