# generated using pymatgen
data_Cu16Ni16C5
_symmetry_space_group_name_H-M   'P 1'
_cell_length_a   11.89549700
_cell_length_b   9.56153700
_cell_length_c   20.76239582
_cell_angle_alpha   81.31432687
_cell_angle_beta   90.00000000
_cell_angle_gamma   90.00000000
_symmetry_Int_Tables_number   1
_chemical_formula_structural   Cu16Ni16C5
_chemical_formula_sum   'Cu64 Ni64 C20'
_cell_volume   2334.41658238
_cell_formula_units_Z   4
loop_
 _symmetry_equiv_pos_site_id
 _symmetry_equiv_pos_as_xyz
  1  'x, y, z'
loop_
 _atom_site_type_symbol
 _atom_site_label
 _atom_site_symmetry_multiplicity
 _atom_site_fract_x
 _atom_site_fract_y
 _atom_site_fract_z
 _atom_site_occupancy
  C  C0  1  0.11982400  0.22279700  0.30345800  1
  C  C1  1  0.26593700  0.53137200  0.41988100  1
  C  C2  1  0.27574300  0.26976000  0.00493000  1
  C  C3  1  0.61982400  0.77720300  0.19654200  1
  C  C4  1  0.72425700  0.73024000  0.99507000  1
  C  C5  1  0.14152800  0.18021700  0.81544000  1
  C  C6  1  0.22425700  0.26976000  0.50493000  1
  C  C7  1  0.76593700  0.46862800  0.08011900  1
  C  C8  1  0.73406300  0.46862800  0.58011900  1
  C  C9  1  0.35847200  0.18021700  0.31544000  1
  C  C10  1  0.64152800  0.81978300  0.68456000  1
  C  C11  1  0.77574300  0.73024000  0.49507000  1
  C  C12  1  0.23406300  0.53137200  0.91988100  1
  C  C13  1  0.38017600  0.22279700  0.80345800  1
  C  C14  1  0.88017600  0.77720300  0.69654200  1
  C  C15  1  0.85847200  0.81978300  0.18456000  1
  C  C16  1  0.74083000  0.70185500  0.11291300  1
  C  C17  1  0.24083000  0.29814500  0.38708700  1
  C  C18  1  0.75917000  0.70185500  0.61291300  1
  C  C19  1  0.25917000  0.29814500  0.88708700  1
  Ni  Ni20  1  0.29561700  0.65989700  0.35124600  1
  Ni  Ni21  1  0.61879100  0.44414500  0.10207300  1
  Ni  Ni22  1  0.26781500  0.62566000  0.48948700  1
  Ni  Ni23  1  0.87439900  0.64152100  0.22674100  1
  Ni  Ni24  1  0.73218500  0.37434000  0.51051300  1
  Ni  Ni25  1  0.35541100  0.09272000  0.24461600  1
  Ni  Ni26  1  0.38120900  0.55585500  0.89792700  1
  Ni  Ni27  1  0.76745000  0.65851000  0.42012700  1
  Ni  Ni28  1  0.36159900  0.40547200  0.76572600  1
  Ni  Ni29  1  0.87151000  0.77734700  0.99577800  1
  Ni  Ni30  1  0.11012000  0.04808000  0.35179000  1
  Ni  Ni31  1  0.85541100  0.90728000  0.25538400  1
  Ni  Ni32  1  0.01823300  0.74131200  0.66878800  1
  Ni  Ni33  1  0.62849000  0.77734700  0.49577800  1
  Ni  Ni34  1  0.79561700  0.34010300  0.14875400  1
  Ni  Ni35  1  0.10063900  0.16353300  0.22628300  1
  Ni  Ni36  1  0.84138200  0.97011800  0.12086000  1
  Ni  Ni37  1  0.99725100  0.18401400  0.83924600  1
  Ni  Ni38  1  0.00274900  0.81598600  0.16075400  1
  Ni  Ni39  1  0.07755700  0.31093100  0.49011400  1
  Ni  Ni40  1  0.62560100  0.64152100  0.72674100  1
  Ni  Ni41  1  0.98176700  0.25868800  0.33121200  1
  Ni  Ni42  1  0.41427000  0.48829600  0.42212700  1
  Ni  Ni43  1  0.57755700  0.68906900  0.00988600  1
  Ni  Ni44  1  0.23218500  0.62566000  0.98948700  1
  Ni  Ni45  1  0.37439900  0.35847900  0.27325900  1
  Ni  Ni46  1  0.68560600  0.91035200  0.97290600  1
  Ni  Ni47  1  0.51823300  0.25868800  0.83121200  1
  Ni  Ni48  1  0.18560600  0.08964800  0.52709400  1
  Ni  Ni49  1  0.12849000  0.22265300  0.00422200  1
  Ni  Ni50  1  0.63840100  0.59452800  0.23427400  1
  Ni  Ni51  1  0.91427000  0.51170400  0.07787300  1
  Ni  Ni52  1  0.08573000  0.48829600  0.92212700  1
  Ni  Ni53  1  0.34138200  0.02988200  0.37914000  1
  Ni  Ni54  1  0.70438300  0.34010300  0.64875400  1
  Ni  Ni55  1  0.65861800  0.97011800  0.62086000  1
  Ni  Ni56  1  0.23255000  0.34149000  0.57987300  1
  Ni  Ni57  1  0.48176700  0.74131200  0.16878800  1
  Ni  Ni58  1  0.37151000  0.22265300  0.50422200  1
  Ni  Ni59  1  0.88988000  0.95192000  0.64821000  1
  Ni  Ni60  1  0.49725100  0.81598600  0.66075400  1
  Ni  Ni61  1  0.15861800  0.02988200  0.87914000  1
  Ni  Ni62  1  0.61012000  0.95192000  0.14821000  1
  Ni  Ni63  1  0.73255000  0.65851000  0.92012700  1
  Ni  Ni64  1  0.39936100  0.16353300  0.72628300  1
  Ni  Ni65  1  0.26745000  0.34149000  0.07987300  1
  Ni  Ni66  1  0.88120900  0.44414500  0.60207300  1
  Ni  Ni67  1  0.14458900  0.09272000  0.74461600  1
  Ni  Ni68  1  0.12560100  0.35847900  0.77325900  1
  Ni  Ni69  1  0.92244300  0.68906900  0.50988600  1
  Ni  Ni70  1  0.86159900  0.59452800  0.73427400  1
  Ni  Ni71  1  0.31439400  0.08964800  0.02709400  1
  Ni  Ni72  1  0.11879100  0.55585500  0.39792700  1
  Ni  Ni73  1  0.38988000  0.04808000  0.85179000  1
  Ni  Ni74  1  0.20438300  0.65989700  0.85124600  1
  Ni  Ni75  1  0.76781500  0.37434000  0.01051300  1
  Ni  Ni76  1  0.58573000  0.51170400  0.57787300  1
  Ni  Ni77  1  0.42244300  0.31093100  0.99011400  1
  Ni  Ni78  1  0.89936100  0.83646700  0.77371700  1
  Ni  Ni79  1  0.60063900  0.83646700  0.27371700  1
  Ni  Ni80  1  0.50274900  0.18401400  0.33924600  1
  Ni  Ni81  1  0.81439400  0.91035200  0.47290600  1
  Ni  Ni82  1  0.64458900  0.90728000  0.75538400  1
  Ni  Ni83  1  0.13840100  0.40547200  0.26572600  1
  Cu  Cu84  1  0.02741100  0.58092300  0.38001200  1
  Cu  Cu85  1  0.40479000  0.93695800  0.88185700  1
  Cu  Cu86  1  0.35656400  0.03822200  0.19837400  1
  Cu  Cu87  1  0.59521000  0.06304200  0.11814300  1
  Cu  Cu88  1  0.01108900  0.52781300  0.07971700  1
  Cu  Cu89  1  0.53546800  0.81428500  0.49376800  1
  Cu  Cu90  1  0.64343600  0.96177800  0.80162600  1
  Cu  Cu91  1  0.77151300  0.31135000  0.96737000  1
  Cu  Cu92  1  0.72848700  0.31135000  0.46737000  1
  Cu  Cu93  1  0.51108900  0.47218700  0.42028300  1
  Cu  Cu94  1  0.46453200  0.18571500  0.50623200  1
  Cu  Cu95  1  0.23788200  0.38341500  0.62921600  1
  Cu  Cu96  1  0.73788200  0.61658500  0.87078400  1
  Cu  Cu97  1  0.60751300  0.52733100  0.75243400  1
  Cu  Cu98  1  0.91618700  0.87047700  0.82418100  1
  Cu  Cu99  1  0.85636700  0.47790000  0.75950200  1
  Cu  Cu100  1  0.58381300  0.87047700  0.32418100  1
  Cu  Cu101  1  0.98891100  0.47218700  0.92028300  1
  Cu  Cu102  1  0.59649800  0.18406700  0.35439200  1
  Cu  Cu103  1  0.90350200  0.18406700  0.85439200  1
  Cu  Cu104  1  0.89248700  0.52733100  0.25243400  1
  Cu  Cu105  1  0.60872700  0.27609700  0.84875400  1
  Cu  Cu106  1  0.26211800  0.38341500  0.12921600  1
  Cu  Cu107  1  0.15635300  0.97370200  0.54203100  1
  Cu  Cu108  1  0.35636700  0.52210000  0.74049800  1
  Cu  Cu109  1  0.31523400  0.74618300  0.30698500  1
  Cu  Cu110  1  0.10751300  0.47266900  0.74756600  1
  Cu  Cu111  1  0.48891100  0.52781300  0.57971700  1
  Cu  Cu112  1  0.41618700  0.12952300  0.67581900  1
  Cu  Cu113  1  0.81523400  0.25381700  0.19301500  1
  Cu  Cu114  1  0.66210000  0.06519400  0.57888000  1
  Cu  Cu115  1  0.33790000  0.93480600  0.42112000  1
  Cu  Cu116  1  0.83790000  0.06519400  0.07888000  1
  Cu  Cu117  1  0.03546800  0.18571500  0.00623200  1
  Cu  Cu118  1  0.97258900  0.41907700  0.61998800  1
  Cu  Cu119  1  0.09521000  0.93695800  0.38185700  1
  Cu  Cu120  1  0.64363300  0.47790000  0.25950200  1
  Cu  Cu121  1  0.52741100  0.41907700  0.11998800  1
  Cu  Cu122  1  0.40350200  0.81593300  0.64560800  1
  Cu  Cu123  1  0.48156500  0.67167900  0.01703800  1
  Cu  Cu124  1  0.14363300  0.52210000  0.24049800  1
  Cu  Cu125  1  0.47258900  0.58092300  0.88001200  1
  Cu  Cu126  1  0.22848700  0.68865000  0.03263000  1
  Cu  Cu127  1  0.90479000  0.06304200  0.61814300  1
  Cu  Cu128  1  0.39248700  0.47266900  0.24756600  1
  Cu  Cu129  1  0.01843500  0.67167900  0.51703800  1
  Cu  Cu130  1  0.08381300  0.12952300  0.17581900  1
  Cu  Cu131  1  0.09649800  0.81593300  0.14560800  1
  Cu  Cu132  1  0.65635300  0.02629800  0.95796900  1
  Cu  Cu133  1  0.16210000  0.93480600  0.92112000  1
  Cu  Cu134  1  0.96453200  0.81428500  0.99376800  1
  Cu  Cu135  1  0.85656400  0.96177800  0.30162600  1
  Cu  Cu136  1  0.98156500  0.32832100  0.48296200  1
  Cu  Cu137  1  0.27151300  0.68865000  0.53263000  1
  Cu  Cu138  1  0.76211800  0.61658500  0.37078400  1
  Cu  Cu139  1  0.68476600  0.25381700  0.69301500  1
  Cu  Cu140  1  0.10872700  0.72390300  0.65124600  1
  Cu  Cu141  1  0.34364700  0.97370200  0.04203100  1
  Cu  Cu142  1  0.14343600  0.03822200  0.69837400  1
  Cu  Cu143  1  0.39127300  0.72390300  0.15124600  1
  Cu  Cu144  1  0.51843500  0.32832100  0.98296200  1
  Cu  Cu145  1  0.89127300  0.27609700  0.34875400  1
  Cu  Cu146  1  0.18476600  0.74618300  0.80698500  1
  Cu  Cu147  1  0.84364700  0.02629800  0.45796900  1
