# generated using pymatgen
data_Cu3Ni2C11
_symmetry_space_group_name_H-M   'P 1'
_cell_length_a   10.71719846
_cell_length_b   10.71719846
_cell_length_c   10.71719846
_cell_angle_alpha   113.83847925
_cell_angle_beta   113.83847925
_cell_angle_gamma   101.05088037
_symmetry_Int_Tables_number   1
_chemical_formula_structural   Cu3Ni2C11
_chemical_formula_sum   'Cu12 Ni8 C44'
_cell_volume   932.56732517
_cell_formula_units_Z   4
loop_
 _symmetry_equiv_pos_site_id
 _symmetry_equiv_pos_as_xyz
  1  'x, y, z'
loop_
 _atom_site_type_symbol
 _atom_site_label
 _atom_site_symmetry_multiplicity
 _atom_site_fract_x
 _atom_site_fract_y
 _atom_site_fract_z
 _atom_site_occupancy
  C  C0  1  0.42231500  0.92231500  0.84463000  1
  C  C1  1  0.67231500  0.32768500  0.00000000  1
  C  C2  1  0.32768500  0.67231500  0.00000000  1
  C  C3  1  0.07768500  0.57768500  0.15537000  1
  C  C4  1  0.32768500  0.32768500  0.65537000  1
  C  C5  1  0.07768500  0.92231500  0.50000000  1
  C  C6  1  0.42231500  0.57768500  0.50000000  1
  C  C7  1  0.67231500  0.67231500  0.34463000  1
  C  C8  1  0.71631700  0.98076600  0.26444900  1
  C  C9  1  0.71631700  0.45186700  0.73555100  1
  C  C10  1  0.01923400  0.28368300  0.73555100  1
  C  C11  1  0.20186700  0.96631700  0.23555100  1
  C  C12  1  0.73076600  0.96631700  0.76444900  1
  C  C13  1  0.03368300  0.79813300  0.76444900  1
  C  C14  1  0.03368300  0.26923400  0.23555100  1
  C  C15  1  0.54813300  0.28368300  0.26444900  1
  Ni  Ni16  1  0.47073000  0.84562100  0.37489100  1
  Ni  Ni17  1  0.47073000  0.09583900  0.62510900  1
  Ni  Ni18  1  0.15437900  0.52927000  0.62510900  1
  Ni  Ni19  1  0.84583900  0.72073000  0.12510900  1
  Ni  Ni20  1  0.59562100  0.72073000  0.87489100  1
  Ni  Ni21  1  0.27927000  0.15416100  0.87489100  1
  Ni  Ni22  1  0.27927000  0.40437900  0.12510900  1
  Ni  Ni23  1  0.90416100  0.52927000  0.37489100  1
  Cu  Cu24  1  0.37500000  0.97908300  0.10408300  1
  Cu  Cu25  1  0.72908300  0.12500000  0.10408300  1
  Cu  Cu26  1  0.02091700  0.62500000  0.89591700  1
  Cu  Cu27  1  0.87500000  0.27091700  0.89591700  1
  Cu  Cu28  1  0.37500000  0.27091700  0.39591700  1
  Cu  Cu29  1  0.02091700  0.12500000  0.39591700  1
  Cu  Cu30  1  0.72908300  0.62500000  0.60408300  1
  Cu  Cu31  1  0.87500000  0.97908300  0.60408300  1
  Cu  Cu32  1  0.00000000  0.00000000  0.00000000  1
  Cu  Cu33  1  0.75000000  0.25000000  0.50000000  1
  Cu  Cu34  1  0.25000000  0.75000000  0.50000000  1
  Cu  Cu35  1  0.50000000  0.50000000  0.00000000  1
  C  C36  1  0.54900800  0.81586800  0.26686000  1
  C  C37  1  0.54900800  0.28214700  0.73314000  1
  C  C38  1  0.18413200  0.45099200  0.73314000  1
  C  C39  1  0.03214700  0.79900800  0.23314000  1
  C  C40  1  0.56586800  0.79900800  0.76686000  1
  C  C41  1  0.20099200  0.96785300  0.76686000  1
  C  C42  1  0.20099200  0.43413200  0.23314000  1
  C  C43  1  0.71785300  0.45099200  0.26686000  1
  C  C44  1  0.52456700  0.02456700  0.50000000  1
  C  C45  1  0.77456700  0.77456700  0.00000000  1
  C  C46  1  0.22543300  0.22543300  0.00000000  1
  C  C47  1  0.97543300  0.47543300  0.50000000  1
  C  C48  1  0.20976500  0.47498600  0.01742200  1
  C  C49  1  0.45756400  0.19234300  0.98257800  1
  C  C50  1  0.52501400  0.79023500  0.98257800  1
  C  C51  1  0.94234300  0.45976500  0.23477900  1
  C  C52  1  0.22498600  0.70756400  0.76522100  1
  C  C53  1  0.54023500  0.05765700  0.76522100  1
  C  C54  1  0.29243600  0.77501400  0.23477900  1
  C  C55  1  0.80765700  0.54243600  0.01742200  1
  C  C56  1  0.54023500  0.77501400  0.48257800  1
  C  C57  1  0.29243600  0.05765700  0.51742200  1
  C  C58  1  0.22498600  0.45976500  0.51742200  1
  C  C59  1  0.80765700  0.79023500  0.26522100  1
  C  C60  1  0.52501400  0.54243600  0.73477900  1
  C  C61  1  0.20976500  0.19234300  0.73477900  1
  C  C62  1  0.45756400  0.47498600  0.26522100  1
  C  C63  1  0.94234300  0.70756400  0.48257800  1
