# generated using pymatgen
data_Cu6Ni3C2
_symmetry_space_group_name_H-M   'P 1'
_cell_length_a   5.58508289
_cell_length_b   5.58508289
_cell_length_c   5.58508276
_cell_angle_alpha   90.31035452
_cell_angle_beta   90.31035452
_cell_angle_gamma   90.31034134
_symmetry_Int_Tables_number   1
_chemical_formula_structural   Cu6Ni3C2
_chemical_formula_sum   'Cu6 Ni3 C2'
_cell_volume   174.20863418
_cell_formula_units_Z   1
loop_
 _symmetry_equiv_pos_site_id
 _symmetry_equiv_pos_as_xyz
  1  'x, y, z'
loop_
 _atom_site_type_symbol
 _atom_site_label
 _atom_site_symmetry_multiplicity
 _atom_site_fract_x
 _atom_site_fract_y
 _atom_site_fract_z
 _atom_site_occupancy
  C  C0  1  0.44527000  0.44527000  0.44527000  1
  C  C1  1  0.98025600  0.98025600  0.98025600  1
  Ni  Ni2  1  0.52675200  0.95781400  0.93229400  1
  Ni  Ni3  1  0.95781400  0.93229400  0.52675200  1
  Ni  Ni4  1  0.93229400  0.52675200  0.95781400  1
  Cu  Cu5  1  0.75919000  0.93442400  0.42177400  1
  Cu  Cu6  1  0.42177400  0.75919000  0.93442400  1
  Cu  Cu7  1  0.93575900  0.39401300  0.14192200  1
  Cu  Cu8  1  0.14192200  0.93575900  0.39401300  1
  Cu  Cu9  1  0.39401300  0.14192200  0.93575900  1
  Cu  Cu10  1  0.93442400  0.42177400  0.75919000  1
