# generated using pymatgen
data_Cu6Ni5C6
_symmetry_space_group_name_H-M   'P 1'
_cell_length_a   26.57385713
_cell_length_b   25.18932507
_cell_length_c   10.02253356
_cell_angle_alpha   86.73204489
_cell_angle_beta   71.14816049
_cell_angle_gamma   22.11979462
_symmetry_Int_Tables_number   1
_chemical_formula_structural   Cu6Ni5C6
_chemical_formula_sum   'Cu24 Ni20 C24'
_cell_volume   1752.74956866
_cell_formula_units_Z   4
loop_
 _symmetry_equiv_pos_site_id
 _symmetry_equiv_pos_as_xyz
  1  'x, y, z'
loop_
 _atom_site_type_symbol
 _atom_site_label
 _atom_site_symmetry_multiplicity
 _atom_site_fract_x
 _atom_site_fract_y
 _atom_site_fract_z
 _atom_site_occupancy
  C  C0  1  0.90120600  0.22159400  0.77630800  1
  C  C1  1  0.47369200  0.14910800  0.34879400  1
  C  C2  1  0.02840600  0.34879400  0.14910800  1
  C  C3  1  0.10089200  0.77630800  0.22159400  1
  Ni  Ni4  1  0.18802000  0.00208000  0.04904200  1
  Ni  Ni5  1  0.63857000  0.07675000  0.77229300  1
  Ni  Ni6  1  0.49490000  0.38531000  0.45662800  1
  Ni  Ni7  1  0.66316300  0.45662800  0.38531000  1
  Ni  Ni8  1  0.47377600  0.56379000  0.73026500  1
  Ni  Ni9  1  0.37169900  0.05322600  0.43446900  1
  Ni  Ni10  1  0.51973500  0.01783100  0.77622400  1
  Ni  Ni11  1  0.51238700  0.77229300  0.07675000  1
  Ni  Ni12  1  0.14060500  0.43446900  0.05322600  1
  Ni  Ni13  1  0.79337200  0.58683700  0.75510000  1
  Ni  Ni14  1  0.23216900  0.73026500  0.56379000  1
  Ni  Ni15  1  0.17325000  0.61143000  0.73761300  1
  Ni  Ni16  1  0.76085800  0.04904200  0.00208000  1
  Ni  Ni17  1  0.20095800  0.48914200  0.06198000  1
  Ni  Ni18  1  0.81553100  0.10939500  0.87830100  1
  Ni  Ni19  1  0.24792000  0.06198000  0.48914200  1
  Ni  Ni20  1  0.19677400  0.87830100  0.10939500  1
  Ni  Ni21  1  0.47770700  0.73761300  0.61143000  1
  Ni  Ni22  1  0.68621000  0.77622400  0.01783100  1
  Ni  Ni23  1  0.86469000  0.75510000  0.58683700  1
  C  C24  1  0.78515300  0.88891900  0.65881300  1
  C  C25  1  0.97983600  0.82668500  0.85328500  1
  C  C26  1  0.03854700  0.88498700  0.72520600  1
  C  C27  1  0.35126000  0.72520600  0.88498700  1
  C  C28  1  0.39671500  0.90980500  0.27016400  1
  C  C29  1  0.36108100  0.46484700  0.58288500  1
  C  C30  1  0.77986600  0.65318200  0.83925700  1
  C  C31  1  0.36501300  0.21145300  0.89874000  1
  C  C32  1  0.42331500  0.27016400  0.90980500  1
  C  C33  1  0.59118700  0.58288500  0.46484700  1
  C  C34  1  0.66711500  0.65881300  0.88891900  1
  C  C35  1  0.70600100  0.16152000  0.99951900  1
  C  C36  1  0.34019500  0.85328500  0.82668500  1
  C  C37  1  0.25048100  0.11704100  0.54399900  1
  C  C38  1  0.08848000  0.54399900  0.11704100  1
  C  C39  1  0.13295900  0.99951900  0.16152000  1
  C  C40  1  0.59681800  0.47013400  0.52230500  1
  C  C41  1  0.41074300  0.52230500  0.47013400  1
  C  C42  1  0.72769500  0.83925700  0.65318200  1
  C  C43  1  0.52479400  0.89874000  0.21145300  1
  Cu  Cu44  1  0.22570700  0.93285200  0.47716700  1
  Cu  Cu45  1  0.32973100  0.61974300  0.13753100  1
  Cu  Cu46  1  0.57894400  0.50643400  0.07432100  1
  Cu  Cu47  1  0.84850300  0.47555600  0.11431200  1
  Cu  Cu48  1  0.32143800  0.37313200  0.35314100  1
  Cu  Cu49  1  0.77444400  0.40149700  0.68837200  1
  Cu  Cu50  1  0.02437600  0.04440200  0.86928100  1
  Cu  Cu51  1  0.36427300  0.47716700  0.93285200  1
  Cu  Cu52  1  0.17567900  0.40969900  0.67105600  1
  Cu  Cu53  1  0.84030100  0.07432100  0.50643400  1
  Cu  Cu54  1  0.56162800  0.11431200  0.47555600  1
  Cu  Cu55  1  0.74356600  0.67105600  0.40969900  1
  Cu  Cu56  1  0.89685900  0.29771100  0.92856200  1
  Cu  Cu57  1  0.31714800  0.02429300  0.88572700  1
  Cu  Cu58  1  0.63025700  0.92026900  0.33700500  1
  Cu  Cu59  1  0.06194100  0.86928100  0.04440200  1
  Cu  Cu60  1  0.87686800  0.92856200  0.29771100  1
  Cu  Cu61  1  0.95228900  0.35314100  0.37313200  1
  Cu  Cu62  1  0.77283300  0.88572700  0.02429300  1
  Cu  Cu63  1  0.13568800  0.68837200  0.40149700  1
  Cu  Cu64  1  0.11246900  0.33700500  0.92026900  1
  Cu  Cu65  1  0.20559800  0.22562400  0.18805900  1
  Cu  Cu66  1  0.38071900  0.18805900  0.22562400  1
  Cu  Cu67  1  0.91299500  0.13753100  0.61974300  1
