# generated using pymatgen
data_CuNiC16
_symmetry_space_group_name_H-M   'P 1'
_cell_length_a   9.08380195
_cell_length_b   9.08380195
_cell_length_c   9.08380225
_cell_angle_alpha   56.48482721
_cell_angle_beta   56.48482721
_cell_angle_gamma   56.48483330
_symmetry_Int_Tables_number   1
_chemical_formula_structural   CuNiC16
_chemical_formula_sum   'Cu2 Ni2 C32'
_cell_volume   486.94898664
_cell_formula_units_Z   2
loop_
 _symmetry_equiv_pos_site_id
 _symmetry_equiv_pos_as_xyz
  1  'x, y, z'
loop_
 _atom_site_type_symbol
 _atom_site_label
 _atom_site_symmetry_multiplicity
 _atom_site_fract_x
 _atom_site_fract_y
 _atom_site_fract_z
 _atom_site_occupancy
  C  C0  1  0.99834800  0.99834800  0.99834800  1
  C  C1  1  0.49834800  0.49834800  0.49834800  1
  Ni  Ni2  1  0.14931300  0.14931300  0.14931300  1
  Ni  Ni3  1  0.64931300  0.64931300  0.64931300  1
  Cu  Cu4  1  0.35034000  0.35034000  0.35034000  1
  Cu  Cu5  1  0.85034000  0.85034000  0.85034000  1
  C  C6  1  0.74895900  0.03781400  0.46500500  1
  C  C7  1  0.03781400  0.46500500  0.74895900  1
  C  C8  1  0.46500500  0.74895900  0.03781400  1
  C  C9  1  0.53781400  0.24895900  0.96500500  1
  C  C10  1  0.96500500  0.53781400  0.24895900  1
  C  C11  1  0.24895900  0.96500500  0.53781400  1
  C  C12  1  0.26790700  0.13358900  0.51467500  1
  C  C13  1  0.51467500  0.26790700  0.13358900  1
  C  C14  1  0.92806400  0.06131800  0.28338600  1
  C  C15  1  0.13358900  0.51467500  0.26790700  1
  C  C16  1  0.57558900  0.21707000  0.43409800  1
  C  C17  1  0.76790700  0.01467500  0.63358900  1
  C  C18  1  0.06131800  0.28338600  0.92806400  1
  C  C19  1  0.21707000  0.43409800  0.57558900  1
  C  C20  1  0.43409800  0.57558900  0.21707000  1
  C  C21  1  0.36300700  0.22898300  0.99253300  1
  C  C22  1  0.71707000  0.07558900  0.93409800  1
  C  C23  1  0.99253300  0.36300700  0.22898300  1
  C  C24  1  0.01467500  0.63358900  0.76790700  1
  C  C25  1  0.28338600  0.92806400  0.06131800  1
  C  C26  1  0.63358900  0.76790700  0.01467500  1
  C  C27  1  0.56131800  0.42806400  0.78338600  1
  C  C28  1  0.78338600  0.56131800  0.42806400  1
  C  C29  1  0.93409800  0.71707000  0.07558900  1
  C  C30  1  0.22898300  0.99253300  0.36300700  1
  C  C31  1  0.42806400  0.78338600  0.56131800  1
  C  C32  1  0.86300700  0.49253300  0.72898300  1
  C  C33  1  0.07558900  0.93409800  0.71707000  1
  C  C34  1  0.49253300  0.72898300  0.86300700  1
  C  C35  1  0.72898300  0.86300700  0.49253300  1
