# generated using pymatgen
data_Cu(Ni3C2)2
_symmetry_space_group_name_H-M   'P 1'
_cell_length_a   7.59240212
_cell_length_b   7.59240212
_cell_length_c   7.59240212
_cell_angle_alpha   120.91047724
_cell_angle_beta   119.49440206
_cell_angle_gamma   89.65412201
_symmetry_Int_Tables_number   1
_chemical_formula_structural   Cu(Ni3C2)2
_chemical_formula_sum   'Cu2 Ni12 C8'
_cell_volume   308.46051124
_cell_formula_units_Z   2
loop_
 _symmetry_equiv_pos_site_id
 _symmetry_equiv_pos_as_xyz
  1  'x, y, z'
loop_
 _atom_site_type_symbol
 _atom_site_label
 _atom_site_symmetry_multiplicity
 _atom_site_fract_x
 _atom_site_fract_y
 _atom_site_fract_z
 _atom_site_occupancy
  C  C0  1  0.00000000  0.50000000  0.00000000  1
  C  C1  1  0.00000000  0.00000000  0.50000000  1
  C  C2  1  0.00000000  0.50000000  0.50000000  1
  C  C3  1  0.50000000  0.50000000  0.00000000  1
  C  C4  1  0.50000000  0.00000000  0.50000000  1
  C  C5  1  0.50000000  0.50000000  0.50000000  1
  C  C6  1  0.00000000  0.00000000  0.00000000  1
  C  C7  1  0.50000000  0.00000000  0.00000000  1
  Ni  Ni8  1  0.18673100  0.92793000  0.86977700  1
  Ni  Ni9  1  0.19124500  0.94124500  0.25000000  1
  Ni  Ni10  1  0.18673100  0.31695400  0.25880100  1
  Ni  Ni11  1  0.55815300  0.92793000  0.24119900  1
  Ni  Ni12  1  0.44184700  0.68304600  0.36977700  1
  Ni  Ni13  1  0.43119300  0.68119300  0.75000000  1
  Ni  Ni14  1  0.56880600  0.31880600  0.25000000  1
  Ni  Ni15  1  0.55815300  0.31695400  0.63022300  1
  Ni  Ni16  1  0.44184700  0.07207000  0.75880100  1
  Ni  Ni17  1  0.81326900  0.68304600  0.74119900  1
  Ni  Ni18  1  0.80875500  0.05875500  0.75000000  1
  Ni  Ni19  1  0.81326900  0.07207000  0.13022300  1
  Cu  Cu20  1  0.84680200  0.59680200  0.25000000  1
  Cu  Cu21  1  0.15319800  0.40319800  0.75000000  1
