# generated using pymatgen
data_Cu3(NiC7)2
_symmetry_space_group_name_H-M   'P 1'
_cell_length_a   11.02117200
_cell_length_b   11.02117200
_cell_length_c   11.02117200
_cell_angle_alpha   90.00000000
_cell_angle_beta   90.00000000
_cell_angle_gamma   90.00000000
_symmetry_Int_Tables_number   1
_chemical_formula_structural   Cu3(NiC7)2
_chemical_formula_sum   'Cu12 Ni8 C56'
_cell_volume   1338.70023786
_cell_formula_units_Z   4
loop_
 _symmetry_equiv_pos_site_id
 _symmetry_equiv_pos_as_xyz
  1  'x, y, z'
loop_
 _atom_site_type_symbol
 _atom_site_label
 _atom_site_symmetry_multiplicity
 _atom_site_fract_x
 _atom_site_fract_y
 _atom_site_fract_z
 _atom_site_occupancy
  C  C0  1  0.45788500  0.04211500  0.95788500  1
  C  C1  1  0.82096000  0.17904000  0.67904000  1
  C  C2  1  0.17904000  0.67904000  0.82096000  1
  C  C3  1  0.95788500  0.45788500  0.04211500  1
  C  C4  1  0.67904000  0.82096000  0.17904000  1
  C  C5  1  0.32096000  0.32096000  0.32096000  1
  C  C6  1  0.04211500  0.95788500  0.45788500  1
  C  C7  1  0.54211500  0.54211500  0.54211500  1
  Ni  Ni8  1  0.88786800  0.61213200  0.38786800  1
  Ni  Ni9  1  0.11213200  0.11213200  0.11213200  1
  Ni  Ni10  1  0.33732900  0.66267100  0.16267100  1
  Ni  Ni11  1  0.83732900  0.83732900  0.83732900  1
  Ni  Ni12  1  0.16267100  0.33732900  0.66267100  1
  Ni  Ni13  1  0.66267100  0.16267100  0.33732900  1
  Ni  Ni14  1  0.61213200  0.38786800  0.88786800  1
  Ni  Ni15  1  0.38786800  0.88786800  0.61213200  1
  Cu  Cu16  1  0.19929000  0.62398200  0.47372900  1
  Cu  Cu17  1  0.87601800  0.52627100  0.69929000  1
  Cu  Cu18  1  0.30071000  0.37601800  0.97372900  1
  Cu  Cu19  1  0.80071000  0.12398200  0.02627100  1
  Cu  Cu20  1  0.47372900  0.19929000  0.62398200  1
  Cu  Cu21  1  0.02627100  0.80071000  0.12398200  1
  Cu  Cu22  1  0.69929000  0.87601800  0.52627100  1
  Cu  Cu23  1  0.62398200  0.47372900  0.19929000  1
  Cu  Cu24  1  0.97372900  0.30071000  0.37601800  1
  Cu  Cu25  1  0.52627100  0.69929000  0.87601800  1
  Cu  Cu26  1  0.37601800  0.97372900  0.30071000  1
  Cu  Cu27  1  0.12398200  0.02627100  0.80071000  1
  C  C28  1  0.98406300  0.45770700  0.32953400  1
  C  C29  1  0.39760800  0.81948700  0.25491400  1
  C  C30  1  0.94559400  0.77544000  0.98350900  1
  C  C31  1  0.54927000  0.28787400  0.73799900  1
  C  C32  1  0.21212600  0.26200100  0.04927000  1
  C  C33  1  0.32953400  0.98406300  0.45770700  1
  C  C34  1  0.05440600  0.27544000  0.51649100  1
  C  C35  1  0.25491400  0.39760800  0.81948700  1
  C  C36  1  0.48350900  0.55440600  0.22456000  1
  C  C37  1  0.23799900  0.95073000  0.71212600  1
  C  C38  1  0.54229300  0.82953400  0.51593700  1
  C  C39  1  0.67046600  0.48406300  0.04229300  1
  C  C40  1  0.74508600  0.89760800  0.68051300  1
  C  C41  1  0.01593700  0.95770700  0.17046600  1
  C  C42  1  0.22456000  0.48350900  0.55440600  1
  C  C43  1  0.75491400  0.10239200  0.18051300  1
  C  C44  1  0.51593700  0.54229300  0.82953400  1
  C  C45  1  0.73799900  0.54927000  0.28787400  1
  C  C46  1  0.95073000  0.71212600  0.23799900  1
  C  C47  1  0.98350900  0.94559400  0.77544000  1
  C  C48  1  0.77544000  0.98350900  0.94559400  1
  C  C49  1  0.17046600  0.01593700  0.95770700  1
  C  C50  1  0.24508600  0.60239200  0.31948700  1
  C  C51  1  0.45770700  0.32953400  0.98406300  1
  C  C52  1  0.18051300  0.75491400  0.10239200  1
  C  C53  1  0.04927000  0.21212600  0.26200100  1
  C  C54  1  0.44559400  0.72456000  0.01649100  1
  C  C55  1  0.31948700  0.24508600  0.60239200  1
  C  C56  1  0.45073000  0.78787400  0.76200100  1
  C  C57  1  0.26200100  0.04927000  0.21212600  1
  C  C58  1  0.68051300  0.74508600  0.89760800  1
  C  C59  1  0.95770700  0.17046600  0.01593700  1
  C  C60  1  0.78787400  0.76200100  0.45073000  1
  C  C61  1  0.01649100  0.44559400  0.72456000  1
  C  C62  1  0.71212600  0.23799900  0.95073000  1
  C  C63  1  0.04229300  0.67046600  0.48406300  1
  C  C64  1  0.55440600  0.22456000  0.48350900  1
  C  C65  1  0.28787400  0.73799900  0.54927000  1
  C  C66  1  0.89760800  0.68051300  0.74508600  1
  C  C67  1  0.51649100  0.05440600  0.27544000  1
  C  C68  1  0.76200100  0.45073000  0.78787400  1
  C  C69  1  0.10239200  0.18051300  0.75491400  1
  C  C70  1  0.82953400  0.51593700  0.54229300  1
  C  C71  1  0.48406300  0.04229300  0.67046600  1
  C  C72  1  0.27544000  0.51649100  0.05440600  1
  C  C73  1  0.81948700  0.25491400  0.39760800  1
  C  C74  1  0.72456000  0.01649100  0.44559400  1
  C  C75  1  0.60239200  0.31948700  0.24508600  1
