# generated using pymatgen
data_Cu3Ni2C9
_symmetry_space_group_name_H-M   'P 1'
_cell_length_a   8.16913800
_cell_length_b   11.29002060
_cell_length_c   17.98692990
_cell_angle_alpha   96.06928143
_cell_angle_beta   88.60270482
_cell_angle_gamma   103.38733047
_symmetry_Int_Tables_number   1
_chemical_formula_structural   Cu3Ni2C9
_chemical_formula_sum   'Cu12 Ni8 C36'
_cell_volume   1604.80585532
_cell_formula_units_Z   4
loop_
 _symmetry_equiv_pos_site_id
 _symmetry_equiv_pos_as_xyz
  1  'x, y, z'
loop_
 _atom_site_type_symbol
 _atom_site_label
 _atom_site_symmetry_multiplicity
 _atom_site_fract_x
 _atom_site_fract_y
 _atom_site_fract_z
 _atom_site_occupancy
  Ni  Ni0  1  0.17722500  0.65492400  0.82409500  1
  Ni  Ni1  1  0.32804800  0.15620500  0.67695400  1
  Ni  Ni2  1  0.49677800  0.67960900  0.50949700  1
  Ni  Ni3  1  0.50322200  0.32039100  0.49050300  1
  Ni  Ni4  1  0.01650400  0.17999500  0.99324600  1
  Ni  Ni5  1  0.82277500  0.34507600  0.17590500  1
  Ni  Ni6  1  0.98349600  0.82000500  0.00675400  1
  Ni  Ni7  1  0.67195200  0.84379500  0.32304600  1
  Cu  Cu8  1  0.87213700  0.47769000  0.97111800  1
  Cu  Cu9  1  0.46900200  0.52335400  0.69164000  1
  Cu  Cu10  1  0.20539800  0.46566800  0.64153200  1
  Cu  Cu11  1  0.79460200  0.53433200  0.35846800  1
  Cu  Cu12  1  0.37229700  0.96792700  0.47112300  1
  Cu  Cu13  1  0.53099800  0.47664600  0.30836000  1
  Cu  Cu14  1  0.96376300  0.02727400  0.18973600  1
  Cu  Cu15  1  0.12786300  0.52231000  0.02888200  1
  Cu  Cu16  1  0.70051900  0.98053500  0.13962500  1
  Cu  Cu17  1  0.29948100  0.01946500  0.86037500  1
  Cu  Cu18  1  0.03623700  0.97272600  0.81026400  1
  Cu  Cu19  1  0.62770300  0.03207300  0.52887700  1
  C  C20  1  0.25447500  0.70009500  0.98553600  1
  C  C21  1  0.91147400  0.45580200  0.85007100  1
  C  C22  1  0.58697000  0.36750000  0.64976200  1
  C  C23  1  0.73518300  0.61468600  0.01881300  1
  C  C24  1  0.59556400  0.70169900  0.65525100  1
  C  C25  1  0.43903400  0.53387900  0.81323000  1
  C  C26  1  0.24827100  0.45904600  0.51705100  1
  C  C27  1  0.08022500  0.28754200  0.67761700  1
  C  C28  1  0.92394100  0.38777700  0.32420500  1
  C  C29  1  0.07605900  0.61222300  0.67579500  1
  C  C30  1  0.75880200  0.20017800  0.48150500  1
  C  C31  1  0.91977500  0.71245800  0.32238300  1
  C  C32  1  0.75172900  0.54095400  0.48294900  1
  C  C33  1  0.41097800  0.96466000  0.34988000  1
  C  C34  1  0.56096600  0.46612100  0.18677000  1
  C  C35  1  0.40443600  0.29830100  0.34474900  1
  C  C36  1  0.09127500  0.88062100  0.15153600  1
  C  C37  1  0.26481700  0.38531400  0.98118700  1
  C  C38  1  0.24116700  0.11549300  0.51452000  1
  C  C39  1  0.41303000  0.63250000  0.35023800  1
  C  C40  1  0.08437900  0.21123800  0.15151400  1
  C  C41  1  0.93437800  0.04783800  0.31133300  1
  C  C42  1  0.08852600  0.54419800  0.14992900  1
  C  C43  1  0.74547800  0.96540600  0.01538500  1
  C  C44  1  0.57341800  0.80149300  0.17395100  1
  C  C45  1  0.74552500  0.29990500  0.01446400  1
  C  C46  1  0.42312300  0.87106900  0.82202900  1
  C  C47  1  0.57687700  0.12893100  0.17797100  1
  C  C48  1  0.42658200  0.19850700  0.82604900  1
  C  C49  1  0.25452200  0.03459400  0.98461500  1
  C  C50  1  0.06562200  0.95216200  0.68866700  1
  C  C51  1  0.91562100  0.78876200  0.84848600  1
  C  C52  1  0.75883300  0.88450700  0.48548000  1
  C  C53  1  0.90872500  0.11937900  0.84846400  1
  C  C54  1  0.58902200  0.03534000  0.65012000  1
  C  C55  1  0.24119800  0.79982200  0.51849500  1
