# generated using pymatgen
data_Cu(NiC)3
_symmetry_space_group_name_H-M   'P 1'
_cell_length_a   6.06130000
_cell_length_b   7.75685400
_cell_length_c   10.23903400
_cell_angle_alpha   90.00000000
_cell_angle_beta   90.00000000
_cell_angle_gamma   90.00000000
_symmetry_Int_Tables_number   1
_chemical_formula_structural   Cu(NiC)3
_chemical_formula_sum   'Cu4 Ni12 C12'
_cell_volume   481.40476204
_cell_formula_units_Z   4
loop_
 _symmetry_equiv_pos_site_id
 _symmetry_equiv_pos_as_xyz
  1  'x, y, z'
loop_
 _atom_site_type_symbol
 _atom_site_label
 _atom_site_symmetry_multiplicity
 _atom_site_fract_x
 _atom_site_fract_y
 _atom_site_fract_z
 _atom_site_occupancy
  C  C0  1  0.25000000  0.01299300  0.27549400  1
  C  C1  1  0.75000000  0.98700700  0.72450600  1
  C  C2  1  0.25000000  0.51299300  0.22450600  1
  C  C3  1  0.75000000  0.48700700  0.77549400  1
  C  C4  1  0.25000000  0.18116900  0.92993300  1
  C  C5  1  0.75000000  0.81883100  0.07006700  1
  C  C6  1  0.25000000  0.68116900  0.57006700  1
  C  C7  1  0.75000000  0.31883100  0.42993300  1
  C  C8  1  0.25000000  0.23910400  0.59342400  1
  C  C9  1  0.75000000  0.76089600  0.40657600  1
  C  C10  1  0.25000000  0.73910400  0.90657600  1
  C  C11  1  0.75000000  0.26089600  0.09342400  1
  Ni  Ni12  1  0.75000000  0.66686900  0.53736800  1
  Ni  Ni13  1  0.25000000  0.33313100  0.46263200  1
  Ni  Ni14  1  0.25000000  0.83313100  0.03736800  1
  Ni  Ni15  1  0.75000000  0.16686900  0.96263200  1
  Ni  Ni16  1  0.53791500  0.74469500  0.32805100  1
  Ni  Ni17  1  0.03791500  0.25530500  0.67194900  1
  Ni  Ni18  1  0.96208500  0.24469500  0.17194900  1
  Ni  Ni19  1  0.46208500  0.75530500  0.82805100  1
  Ni  Ni20  1  0.46208500  0.25530500  0.67194900  1
  Ni  Ni21  1  0.96208500  0.74469500  0.32805100  1
  Ni  Ni22  1  0.03791500  0.75530500  0.82805100  1
  Ni  Ni23  1  0.53791500  0.24469500  0.17194900  1
  Cu  Cu24  1  0.75000000  0.46885400  0.04937400  1
  Cu  Cu25  1  0.25000000  0.53114600  0.95062600  1
  Cu  Cu26  1  0.25000000  0.03114600  0.54937400  1
  Cu  Cu27  1  0.75000000  0.96885400  0.45062600  1
