# generated using pymatgen
data_CuNi9C40
_symmetry_space_group_name_H-M   'P 1'
_cell_length_a   38.58422700
_cell_length_b   5.74890400
_cell_length_c   5.77465569
_cell_angle_alpha   88.47188990
_cell_angle_beta   90.00000000
_cell_angle_gamma   90.00000000
_symmetry_Int_Tables_number   1
_chemical_formula_structural   CuNi9C40
_chemical_formula_sum   'Cu2 Ni18 C80'
_cell_volume   1280.46135561
_cell_formula_units_Z   2
loop_
 _symmetry_equiv_pos_site_id
 _symmetry_equiv_pos_as_xyz
  1  'x, y, z'
loop_
 _atom_site_type_symbol
 _atom_site_label
 _atom_site_symmetry_multiplicity
 _atom_site_fract_x
 _atom_site_fract_y
 _atom_site_fract_z
 _atom_site_occupancy
  Ni  Ni0  1  0.10218800  0.03043400  0.95621000  1
  Ni  Ni1  1  0.29810400  0.97091100  0.96921200  1
  Ni  Ni2  1  0.50000000  0.00245500  0.96174400  1
  Ni  Ni3  1  0.70189600  0.97091100  0.96921200  1
  Ni  Ni4  1  0.89781200  0.03043400  0.95621000  1
  Ni  Ni5  1  0.30009300  0.47514700  0.47877900  1
  Ni  Ni6  1  0.10728700  0.37077500  0.57189200  1
  Ni  Ni7  1  0.50000000  0.49947700  0.46026700  1
  Ni  Ni8  1  0.69990700  0.47514700  0.47877900  1
  Ni  Ni9  1  0.89271300  0.37077500  0.57189200  1
  Ni  Ni10  1  0.20262000  0.40666500  0.57899800  1
  Ni  Ni11  1  0.60058800  0.49235000  0.45873300  1
  Ni  Ni12  1  0.39941200  0.49235000  0.45873300  1
  Ni  Ni13  1  0.79738000  0.40666500  0.57899800  1
  Ni  Ni14  1  0.19781300  0.95039100  0.93198000  1
  Ni  Ni15  1  0.39962000  0.99800600  0.96070000  1
  Ni  Ni16  1  0.60038000  0.99800600  0.96070000  1
  Ni  Ni17  1  0.80218700  0.95039100  0.93198000  1
  Cu  Cu18  1  0.00000000  0.32558700  0.45431200  1
  Cu  Cu19  1  0.00000000  0.96773200  0.04113400  1
  C  C20  1  0.14677000  0.88533800  0.41324100  1
  C  C21  1  0.44990300  0.99984900  0.47495200  1
  C  C22  1  0.65102100  0.98951900  0.47911700  1
  C  C23  1  0.75146800  0.95378400  0.49935100  1
  C  C24  1  0.85323000  0.88533800  0.41324100  1
  C  C25  1  0.05176100  0.50488000  0.03480200  1
  C  C26  1  0.94823900  0.50488000  0.03480200  1
  C  C27  1  0.24831100  0.45323000  0.02098400  1
  C  C28  1  0.14965700  0.44771400  0.07144200  1
  C  C29  1  0.44989000  0.49996000  0.97477500  1
  C  C30  1  0.55011000  0.49996000  0.97477500  1
  C  C31  1  0.85034300  0.44771400  0.07144200  1
  C  C32  1  0.35005700  0.49497100  0.97730600  1
  C  C33  1  0.64994300  0.49497100  0.97730600  1
  C  C34  1  0.75168900  0.45323000  0.02098400  1
  C  C35  1  0.24853200  0.95378400  0.49935100  1
  C  C36  1  0.55009700  0.99984900  0.47495200  1
  C  C37  1  0.34897900  0.98951900  0.47911700  1
  C  C38  1  0.04955800  0.79081700  0.58330300  1
  C  C39  1  0.95044200  0.79081700  0.58330300  1
  C  C40  1  0.00000000  0.90481900  0.53840600  1
  C  C41  1  0.19539400  0.96030500  0.50127000  1
  C  C42  1  0.39976400  0.95142100  0.52680300  1
  C  C43  1  0.60023600  0.95142100  0.52680300  1
  C  C44  1  0.80460600  0.96030500  0.50127000  1
  C  C45  1  0.10268700  0.89341300  0.57559300  1
  C  C46  1  0.34499000  0.76333300  0.77291200  1
  C  C47  1  0.54413200  0.75831900  0.76120300  1
  C  C48  1  0.05167800  0.85822500  0.88865000  1
  C  C49  1  0.25074200  0.71319900  0.73985100  1
  C  C50  1  0.74925800  0.71319900  0.73985100  1
  C  C51  1  0.94832200  0.85822500  0.88865000  1
  C  C52  1  0.65501000  0.76333300  0.77291200  1
  C  C53  1  0.45586800  0.75831900  0.76120300  1
  C  C54  1  0.89731300  0.89341300  0.57559300  1
  C  C55  1  0.06310300  0.67102800  0.30341800  1
  C  C56  1  0.14356300  0.80047300  0.08486600  1
  C  C57  1  0.25470500  0.76046400  0.24783700  1
  C  C58  1  0.34462400  0.74430800  0.27076300  1
  C  C59  1  0.54466100  0.76021600  0.25937600  1
  C  C60  1  0.85643700  0.80047300  0.08486600  1
  C  C61  1  0.65537600  0.74430800  0.27076300  1
  C  C62  1  0.74529500  0.76046400  0.24783700  1
  C  C63  1  0.45533900  0.76021600  0.25937600  1
  C  C64  1  0.93689700  0.67102800  0.30341800  1
  C  C65  1  0.00000000  0.57819700  0.08917900  1
  C  C66  1  0.19948300  0.53841100  0.03365100  1
  C  C67  1  0.60006200  0.55937600  0.02234900  1
  C  C68  1  0.39993800  0.55937600  0.02234900  1
  C  C69  1  0.80051700  0.53841100  0.03365100  1
  C  C70  1  0.29943500  0.45873800  0.01979800  1
  C  C71  1  0.10005000  0.45640300  0.96013800  1
  C  C72  1  0.50000000  0.45042100  0.02792200  1
  C  C73  1  0.70056500  0.45873800  0.01979800  1
  C  C74  1  0.89995000  0.45640300  0.96013800  1
  C  C75  1  0.95839500  0.47742100  0.68759600  1
  C  C76  1  0.04160500  0.47742100  0.68759600  1
  C  C77  1  0.24439900  0.20789100  0.80884800  1
  C  C78  1  0.15713200  0.25368200  0.82669400  1
  C  C79  1  0.55531800  0.26442300  0.75540400  1
  C  C80  1  0.35454500  0.27154600  0.74455600  1
  C  C81  1  0.44468200  0.26442300  0.75540400  1
  C  C82  1  0.64545500  0.27154600  0.74455600  1
  C  C83  1  0.75560100  0.20789100  0.80884800  1
  C  C84  1  0.84286800  0.25368200  0.82669400  1
  C  C85  1  0.04194800  0.21820300  0.18659400  1
  C  C86  1  0.95805200  0.21820300  0.18659400  1
  C  C87  1  0.13664600  0.19266900  0.27425900  1
  C  C88  1  0.64585000  0.23896100  0.24959400  1
  C  C89  1  0.24610000  0.26083400  0.30093400  1
  C  C90  1  0.44359600  0.25381500  0.25635900  1
  C  C91  1  0.35415000  0.23896100  0.24959400  1
  C  C92  1  0.55640400  0.25381500  0.25635900  1
  C  C93  1  0.86335400  0.19266900  0.27425900  1
  C  C94  1  0.75390000  0.26083400  0.30093400  1
  C  C95  1  0.15565500  0.56358000  0.43181200  1
  C  C96  1  0.29846900  0.03738300  0.52913400  1
  C  C97  1  0.50000000  0.06575700  0.51495300  1
  C  C98  1  0.70153100  0.03738300  0.52913400  1
  C  C99  1  0.84434500  0.56358000  0.43181200  1
