# generated using pymatgen
data_Cu5NiC8
_symmetry_space_group_name_H-M   'P 1'
_cell_length_a   7.19623700
_cell_length_b   11.20502000
_cell_length_c   15.43184000
_cell_angle_alpha   90.00000000
_cell_angle_beta   90.00000000
_cell_angle_gamma   90.00000000
_symmetry_Int_Tables_number   1
_chemical_formula_structural   Cu5NiC8
_chemical_formula_sum   'Cu40 Ni8 C64'
_cell_volume   1244.33067036
_cell_formula_units_Z   8
loop_
 _symmetry_equiv_pos_site_id
 _symmetry_equiv_pos_as_xyz
  1  'x, y, z'
loop_
 _atom_site_type_symbol
 _atom_site_label
 _atom_site_symmetry_multiplicity
 _atom_site_fract_x
 _atom_site_fract_y
 _atom_site_fract_z
 _atom_site_occupancy
  C  C0  1  0.65292100  0.21701200  0.19964100  1
  C  C1  1  0.84707900  0.71701200  0.80035900  1
  C  C2  1  0.15292100  0.78298800  0.30035900  1
  C  C3  1  0.34707900  0.28298800  0.69964100  1
  C  C4  1  0.34707900  0.78298800  0.80035900  1
  C  C5  1  0.15292100  0.28298800  0.19964100  1
  C  C6  1  0.84707900  0.21701200  0.69964100  1
  C  C7  1  0.65292100  0.71701200  0.30035900  1
  C  C8  1  0.72058900  0.07794000  0.47759200  1
  C  C9  1  0.77941100  0.57794000  0.52240800  1
  C  C10  1  0.22058900  0.92206000  0.02240800  1
  C  C11  1  0.27941100  0.42206000  0.97759200  1
  C  C12  1  0.27941100  0.92206000  0.52240800  1
  C  C13  1  0.22058900  0.42206000  0.47759200  1
  C  C14  1  0.77941100  0.07794000  0.97759200  1
  C  C15  1  0.72058900  0.57794000  0.02240800  1
  Ni  Ni16  1  0.86045800  0.46790700  0.32833300  1
  Ni  Ni17  1  0.63954200  0.96790700  0.67166700  1
  Ni  Ni18  1  0.36045800  0.53209300  0.17166700  1
  Ni  Ni19  1  0.13954200  0.03209300  0.82833300  1
  Ni  Ni20  1  0.13954200  0.53209300  0.67166700  1
  Ni  Ni21  1  0.36045800  0.03209300  0.32833300  1
  Ni  Ni22  1  0.63954200  0.46790700  0.82833300  1
  Ni  Ni23  1  0.86045800  0.96790700  0.17166700  1
  Cu  Cu24  1  0.05182900  0.12567800  0.39940600  1
  Cu  Cu25  1  0.44817100  0.62567800  0.60059400  1
  Cu  Cu26  1  0.55182900  0.87432200  0.10059400  1
  Cu  Cu27  1  0.94817100  0.37432200  0.89940600  1
  Cu  Cu28  1  0.94817100  0.87432200  0.60059400  1
  Cu  Cu29  1  0.55182900  0.37432200  0.39940600  1
  Cu  Cu30  1  0.44817100  0.12567800  0.89940600  1
  Cu  Cu31  1  0.05182900  0.62567800  0.10059400  1
  Cu  Cu32  1  0.93918200  0.24560100  0.37693700  1
  Cu  Cu33  1  0.56081800  0.74560100  0.62306300  1
  Cu  Cu34  1  0.43918200  0.75439900  0.12306300  1
  Cu  Cu35  1  0.06081800  0.25439900  0.87693700  1
  Cu  Cu36  1  0.06081800  0.75439900  0.62306300  1
  Cu  Cu37  1  0.43918200  0.25439900  0.37693700  1
  Cu  Cu38  1  0.56081800  0.24560100  0.87693700  1
  Cu  Cu39  1  0.93918200  0.74560100  0.12306300  1
  Cu  Cu40  1  0.49841500  0.53585500  0.70989800  1
  Cu  Cu41  1  0.00158500  0.03585500  0.29010200  1
  Cu  Cu42  1  0.99841500  0.46414500  0.79010200  1
  Cu  Cu43  1  0.50158500  0.96414500  0.20989800  1
  Cu  Cu44  1  0.50158500  0.46414500  0.29010200  1
  Cu  Cu45  1  0.99841500  0.96414500  0.70989800  1
  Cu  Cu46  1  0.00158500  0.53585500  0.20989800  1
  Cu  Cu47  1  0.49841500  0.03585500  0.79010200  1
  Cu  Cu48  1  0.53625200  0.65329600  0.91258100  1
  Cu  Cu49  1  0.96374800  0.15329600  0.08741900  1
  Cu  Cu50  1  0.03625200  0.34670400  0.58741900  1
  Cu  Cu51  1  0.46374800  0.84670400  0.41258100  1
  Cu  Cu52  1  0.46374800  0.34670400  0.08741900  1
  Cu  Cu53  1  0.03625200  0.84670400  0.91258100  1
  Cu  Cu54  1  0.96374800  0.65329600  0.41258100  1
  Cu  Cu55  1  0.53625200  0.15329600  0.58741900  1
  Cu  Cu56  1  0.54234400  0.76845300  0.97364000  1
  Cu  Cu57  1  0.95765600  0.26845300  0.02636000  1
  Cu  Cu58  1  0.04234400  0.23154700  0.52636000  1
  Cu  Cu59  1  0.45765600  0.73154700  0.47364000  1
  Cu  Cu60  1  0.45765600  0.23154700  0.02636000  1
  Cu  Cu61  1  0.04234400  0.73154700  0.97364000  1
  Cu  Cu62  1  0.95765600  0.76845300  0.47364000  1
  Cu  Cu63  1  0.54234400  0.26845300  0.52636000  1
  C  C64  1  0.65611700  0.49459100  0.35590400  1
  C  C65  1  0.84388300  0.99459100  0.64409600  1
  C  C66  1  0.15611700  0.50540900  0.14409600  1
  C  C67  1  0.34388300  0.00540900  0.85590400  1
  C  C68  1  0.34388300  0.50540900  0.64409600  1
  C  C69  1  0.15611700  0.00540900  0.35590400  1
  C  C70  1  0.84388300  0.49459100  0.85590400  1
  C  C71  1  0.65611700  0.99459100  0.14409600  1
  C  C72  1  0.89035200  0.33965800  0.29588800  1
  C  C73  1  0.60964800  0.83965800  0.70411200  1
  C  C74  1  0.39035200  0.66034200  0.20411200  1
  C  C75  1  0.10964800  0.16034200  0.79588800  1
  C  C76  1  0.10964800  0.66034200  0.70411200  1
  C  C77  1  0.39035200  0.16034200  0.29588800  1
  C  C78  1  0.60964800  0.33965800  0.79588800  1
  C  C79  1  0.89035200  0.83965800  0.20411200  1
  C  C80  1  0.98922900  0.50454300  0.40305100  1
  C  C81  1  0.51077100  0.00454300  0.59694900  1
  C  C82  1  0.48922900  0.49545700  0.09694900  1
  C  C83  1  0.01077100  0.99545700  0.90305100  1
  C  C84  1  0.01077100  0.49545700  0.59694900  1
  C  C85  1  0.48922900  0.99545700  0.40305100  1
  C  C86  1  0.51077100  0.50454300  0.90305100  1
  C  C87  1  0.98922900  0.00454300  0.09694900  1
  C  C88  1  0.89322500  0.55994000  0.24974000  1
  C  C89  1  0.60677500  0.05994000  0.75026000  1
  C  C90  1  0.39322500  0.44006000  0.25026000  1
  C  C91  1  0.10677500  0.94006000  0.74974000  1
  C  C92  1  0.10677500  0.44006000  0.75026000  1
  C  C93  1  0.39322500  0.94006000  0.24974000  1
  C  C94  1  0.60677500  0.55994000  0.74974000  1
  C  C95  1  0.89322500  0.05994000  0.25026000  1
  C  C96  1  0.97005700  0.18838400  0.42546500  1
  C  C97  1  0.52994300  0.68838400  0.57453500  1
  C  C98  1  0.47005700  0.81161600  0.07453500  1
  C  C99  1  0.02994300  0.31161600  0.92546500  1
  C  C100  1  0.02994300  0.81161600  0.57453500  1
  C  C101  1  0.47005700  0.31161600  0.42546500  1
  C  C102  1  0.52994300  0.18838400  0.92546500  1
  C  C103  1  0.97005700  0.68838400  0.07453500  1
  C  C104  1  0.91634900  0.23725700  0.08412900  1
  C  C105  1  0.58365100  0.73725700  0.91587100  1
  C  C106  1  0.41634900  0.76274300  0.41587100  1
  C  C107  1  0.08365100  0.26274300  0.58412900  1
  C  C108  1  0.08365100  0.76274300  0.91587100  1
  C  C109  1  0.41634900  0.26274300  0.08412900  1
  C  C110  1  0.58365100  0.23725700  0.58412900  1
  C  C111  1  0.91634900  0.73725700  0.41587100  1
