# generated using pymatgen
data_Cu8Ni4C29
_symmetry_space_group_name_H-M   'P 1'
_cell_length_a   9.41719800
_cell_length_b   9.48640583
_cell_length_c   9.57448501
_cell_angle_alpha   95.54620694
_cell_angle_beta   94.21019450
_cell_angle_gamma   95.18288289
_symmetry_Int_Tables_number   1
_chemical_formula_structural   Cu8Ni4C29
_chemical_formula_sum   'Cu8 Ni4 C29'
_cell_volume   844.93870778
_cell_formula_units_Z   1
loop_
 _symmetry_equiv_pos_site_id
 _symmetry_equiv_pos_as_xyz
  1  'x, y, z'
loop_
 _atom_site_type_symbol
 _atom_site_label
 _atom_site_symmetry_multiplicity
 _atom_site_fract_x
 _atom_site_fract_y
 _atom_site_fract_z
 _atom_site_occupancy
  C  C0  1  0.97839700  0.97805600  0.05380700  1
  C  C1  1  0.78137500  0.74875700  0.79356900  1
  C  C2  1  0.24066600  0.20990000  0.23439600  1
  Ni  Ni3  1  0.10160800  0.88498700  0.33442400  1
  Ni  Ni4  1  0.66936000  0.88729900  0.10858500  1
  Ni  Ni5  1  0.11972300  0.65693400  0.88684000  1
  Ni  Ni6  1  0.88373700  0.32293700  0.10984300  1
  Cu  Cu7  1  0.32677900  0.88220900  0.09524800  1
  Cu  Cu8  1  0.10333500  0.87603500  0.67149100  1
  Cu  Cu9  1  0.88407300  0.66900200  0.10781700  1
  Cu  Cu10  1  0.10724200  0.30777400  0.88527700  1
  Cu  Cu11  1  0.89247100  0.11683200  0.33393200  1
  Cu  Cu12  1  0.32463400  0.09112700  0.87622400  1
  Cu  Cu13  1  0.88985700  0.10635200  0.66991700  1
  Cu  Cu14  1  0.67076000  0.10539400  0.88741800  1
  C  C15  1  0.41896100  0.23111300  0.43440100  1
  C  C16  1  0.64154500  0.54955700  0.64974500  1
  C  C17  1  0.78955800  0.00263400  0.22451100  1
  C  C18  1  0.24813500  0.88885100  0.23769700  1
  C  C19  1  0.72117300  0.95352900  0.94299800  1
  C  C20  1  0.95240000  0.95408500  0.71345700  1
  C  C21  1  0.49542800  0.90291100  0.12773100  1
  C  C22  1  0.12021600  0.87092200  0.50896200  1
  C  C23  1  0.07763000  0.72068300  0.72447700  1
  C  C24  1  0.72393000  0.71687400  0.07354900  1
  C  C25  1  0.96545700  0.77532400  0.23637000  1
  C  C26  1  0.26820100  0.75526700  0.97716400  1
  C  C27  1  0.96513500  0.72353700  0.96722300  1
  C  C28  1  0.12400700  0.47630400  0.89126600  1
  C  C29  1  0.89383800  0.50403700  0.11597100  1
  C  C30  1  0.04299400  0.24973600  0.03222800  1
  C  C31  1  0.00154800  0.23576900  0.74715900  1
  C  C32  1  0.26578500  0.24732100  0.87770400  1
  C  C33  1  0.89760500  0.27314700  0.28184600  1
  C  C34  1  0.74218400  0.23300800  0.99863200  1
  C  C35  1  0.87120600  0.10757800  0.50069800  1
  C  C36  1  0.49626700  0.09996300  0.86858300  1
  C  C37  1  0.27756100  0.03803100  0.03103200  1
  C  C38  1  0.05294500  0.06220300  0.30029900  1
  C  C39  1  0.73325600  0.10659200  0.73142800  1
  C  C40  1  0.23902000  0.97742700  0.75608000  1
