# generated using pymatgen
data_Cu2Ni3C20
_symmetry_space_group_name_H-M   'P 1'
_cell_length_a   5.67513002
_cell_length_b   7.98522400
_cell_length_c   14.32480664
_cell_angle_alpha   90.00006582
_cell_angle_beta   78.56650479
_cell_angle_gamma   90.00005899
_symmetry_Int_Tables_number   1
_chemical_formula_structural   Cu2Ni3C20
_chemical_formula_sum   'Cu4 Ni6 C40'
_cell_volume   636.27762188
_cell_formula_units_Z   2
loop_
 _symmetry_equiv_pos_site_id
 _symmetry_equiv_pos_as_xyz
  1  'x, y, z'
loop_
 _atom_site_type_symbol
 _atom_site_label
 _atom_site_symmetry_multiplicity
 _atom_site_fract_x
 _atom_site_fract_y
 _atom_site_fract_z
 _atom_site_occupancy
  Ni  Ni0  1  0.40000000  0.00000200  0.20000000  1
  Ni  Ni1  1  0.39999600  0.50000000  0.20000000  1
  Ni  Ni2  1  0.00169500  0.99999900  0.99650000  1
  Ni  Ni3  1  0.00169400  0.50000500  0.99650300  1
  Ni  Ni4  1  0.79830300  0.00001100  0.40350900  1
  Ni  Ni5  1  0.79830500  0.49999800  0.40350800  1
  Cu  Cu6  1  0.19680900  0.49998500  0.60638800  1
  Cu  Cu7  1  0.19684300  0.99999700  0.60638500  1
  Cu  Cu8  1  0.60316200  0.99999300  0.79362200  1
  Cu  Cu9  1  0.60314900  0.50001000  0.79361900  1
  C  C10  1  0.89999400  0.25000300  0.20000100  1
  C  C11  1  0.89999500  0.75000400  0.20000300  1
  C  C12  1  0.50252100  0.25000100  0.99486100  1
  C  C13  1  0.50252000  0.75000000  0.99486300  1
  C  C14  1  0.29748500  0.25000100  0.40514400  1
  C  C15  1  0.29748800  0.75000000  0.40514100  1
  C  C16  1  0.69906400  0.74999500  0.60190300  1
  C  C17  1  0.10095300  0.24999800  0.79808300  1
  C  C18  1  0.69905500  0.25000300  0.60192600  1
  C  C19  1  0.10094900  0.75000100  0.79807900  1
  C  C20  1  0.89998300  0.49999900  0.20000100  1
  C  C21  1  0.89998100  0.99999900  0.20000100  1
  C  C22  1  0.10574400  0.99999800  0.78853800  1
  C  C23  1  0.10574900  0.50000000  0.78853800  1
  C  C24  1  0.69426800  0.00000000  0.61148200  1
  C  C25  1  0.69427400  0.49999800  0.61148300  1
  C  C26  1  0.90000400  0.25000200  0.69999800  1
  C  C27  1  0.89999200  0.75000000  0.69999700  1
  C  C28  1  0.39998700  0.24999500  0.69999400  1
  C  C29  1  0.39999400  0.74999600  0.69999200  1
  C  C30  1  0.50406700  0.99999900  0.99195600  1
  C  C31  1  0.50406300  0.50000100  0.99195500  1
  C  C32  1  0.29594500  0.00000300  0.40807900  1
  C  C33  1  0.29594200  0.49999900  0.40808000  1
  C  C34  1  0.70186300  0.25000100  0.09797200  1
  C  C35  1  0.70186100  0.74999900  0.09797000  1
  C  C36  1  0.09813100  0.24999900  0.30201900  1
  C  C37  1  0.09813100  0.75000000  0.30201600  1
  C  C38  1  0.59972600  0.25000200  0.30200700  1
  C  C39  1  0.59972900  0.75000000  0.30200500  1
  C  C40  1  0.20026300  0.25000000  0.09798100  1
  C  C41  1  0.20026400  0.75000100  0.09798000  1
  C  C42  1  0.48230900  0.25000400  0.50617700  1
  C  C43  1  0.48231100  0.75000000  0.50617000  1
  C  C44  1  0.31772900  0.24999600  0.89380500  1
  C  C45  1  0.31772700  0.74999900  0.89380300  1
  C  C46  1  0.01149900  0.25000200  0.50617000  1
  C  C47  1  0.01150500  0.75000300  0.50616400  1
  C  C48  1  0.78848800  0.25000000  0.89381800  1
  C  C49  1  0.78849100  0.75000000  0.89381700  1
