# generated using pymatgen
data_Cu3NiC
_symmetry_space_group_name_H-M   'P 1'
_cell_length_a   6.14232390
_cell_length_b   5.11757162
_cell_length_c   5.11757150
_cell_angle_alpha   60.39162784
_cell_angle_beta   60.10378540
_cell_angle_gamma   60.10378108
_symmetry_Int_Tables_number   1
_chemical_formula_structural   Cu3NiC
_chemical_formula_sum   'Cu6 Ni2 C2'
_cell_volume   114.26100286
_cell_formula_units_Z   2
loop_
 _symmetry_equiv_pos_site_id
 _symmetry_equiv_pos_as_xyz
  1  'x, y, z'
loop_
 _atom_site_type_symbol
 _atom_site_label
 _atom_site_symmetry_multiplicity
 _atom_site_fract_x
 _atom_site_fract_y
 _atom_site_fract_z
 _atom_site_occupancy
  C  C0  1  0.87565400  0.20882400  0.95669500  1
  C  C1  1  0.37565400  0.45669500  0.70882400  1
  Ni  Ni2  1  0.30608300  0.14574700  0.14737100  1
  Ni  Ni3  1  0.80608300  0.64737100  0.64574700  1
  Cu  Cu4  1  0.75288500  0.12076800  0.67668800  1
  Cu  Cu5  1  0.24806400  0.85321300  0.83324100  1
  Cu  Cu6  1  0.82031400  0.77970200  0.37775100  1
  Cu  Cu7  1  0.25288500  0.17668800  0.62076800  1
  Cu  Cu8  1  0.74806400  0.33324100  0.35321300  1
  Cu  Cu9  1  0.32031400  0.87775100  0.27970200  1
