# generated using pymatgen
data_Cu2Ni8C5
_symmetry_space_group_name_H-M   'P 1'
_cell_length_a   5.77036400
_cell_length_b   5.88588700
_cell_length_c   13.84430012
_cell_angle_alpha   88.69114219
_cell_angle_beta   90.00000000
_cell_angle_gamma   90.00000000
_symmetry_Int_Tables_number   1
_chemical_formula_structural   Cu2Ni8C5
_chemical_formula_sum   'Cu8 Ni32 C20'
_cell_volume   470.08111970
_cell_formula_units_Z   4
loop_
 _symmetry_equiv_pos_site_id
 _symmetry_equiv_pos_as_xyz
  1  'x, y, z'
loop_
 _atom_site_type_symbol
 _atom_site_label
 _atom_site_symmetry_multiplicity
 _atom_site_fract_x
 _atom_site_fract_y
 _atom_site_fract_z
 _atom_site_occupancy
  C  C0  1  0.50000000  0.00000000  0.50000000  1
  C  C1  1  0.00000000  0.00000000  0.00000000  1
  C  C2  1  0.00000000  0.50000000  0.50000000  1
  C  C3  1  0.50000000  0.50000000  0.00000000  1
  Ni  Ni4  1  0.56368400  0.35357200  0.62961000  1
  Ni  Ni5  1  0.06368400  0.64642800  0.87039000  1
  Ni  Ni6  1  0.43631600  0.64642800  0.37039000  1
  Ni  Ni7  1  0.93631600  0.35357200  0.12961000  1
  Ni  Ni8  1  0.31439900  0.49548000  0.64308300  1
  Ni  Ni9  1  0.81439900  0.50452000  0.85691700  1
  Ni  Ni10  1  0.68560100  0.50452000  0.35691700  1
  Ni  Ni11  1  0.18560100  0.49548000  0.14308300  1
  Ni  Ni12  1  0.51008300  0.49901500  0.73442600  1
  Ni  Ni13  1  0.01008300  0.50098500  0.76557400  1
  Ni  Ni14  1  0.48991700  0.50098500  0.26557400  1
  Ni  Ni15  1  0.98991700  0.49901500  0.23442600  1
  Ni  Ni16  1  0.56762700  0.63537100  0.62549500  1
  Ni  Ni17  1  0.06762700  0.36462900  0.87450500  1
  Ni  Ni18  1  0.43237300  0.36462900  0.37450500  1
  Ni  Ni19  1  0.93237300  0.63537100  0.12549500  1
  Ni  Ni20  1  0.98607300  0.98921100  0.73482800  1
  Ni  Ni21  1  0.48607300  0.01078900  0.76517200  1
  Ni  Ni22  1  0.01392700  0.01078900  0.26517200  1
  Ni  Ni23  1  0.51392700  0.98921100  0.23482800  1
  Ni  Ni24  1  0.96368600  0.82225200  0.63590700  1
  Ni  Ni25  1  0.46368600  0.17774800  0.86409300  1
  Ni  Ni26  1  0.03631400  0.17774800  0.36409300  1
  Ni  Ni27  1  0.53631400  0.82225200  0.13590700  1
  Ni  Ni28  1  0.19150300  0.99669100  0.64654700  1
  Ni  Ni29  1  0.69150300  0.00330900  0.85345300  1
  Ni  Ni30  1  0.80849700  0.00330900  0.35345300  1
  Ni  Ni31  1  0.30849700  0.99669100  0.14654700  1
  Ni  Ni32  1  0.92390200  0.10133500  0.62090500  1
  Ni  Ni33  1  0.42390200  0.89866500  0.87909500  1
  Ni  Ni34  1  0.07609800  0.89866500  0.37909500  1
  Ni  Ni35  1  0.57609800  0.10133500  0.12090500  1
  Cu  Cu36  1  0.49111100  0.49580500  0.65909700  1
  Cu  Cu37  1  0.99111100  0.50419500  0.84090300  1
  Cu  Cu38  1  0.50888900  0.50419500  0.34090300  1
  Cu  Cu39  1  0.00888900  0.49580500  0.15909700  1
  Cu  Cu40  1  0.01344100  0.97906000  0.66022800  1
  Cu  Cu41  1  0.51344100  0.02094000  0.83977200  1
  Cu  Cu42  1  0.98655900  0.02094000  0.33977200  1
  Cu  Cu43  1  0.48655900  0.97906000  0.16022800  1
  C  C44  1  0.47680600  0.00000000  0.64330800  1
  C  C45  1  0.97680600  0.00000000  0.85669200  1
  C  C46  1  0.52319400  0.00000000  0.35669200  1
  C  C47  1  0.02319400  0.00000000  0.14330800  1
  C  C48  1  0.02050600  0.49430200  0.64560500  1
  C  C49  1  0.52050600  0.50569800  0.85439500  1
  C  C50  1  0.97949400  0.50569800  0.35439500  1
  C  C51  1  0.47949400  0.49430200  0.14560500  1
  C  C52  1  0.24240000  0.75630300  0.48629800  1
  C  C53  1  0.74240000  0.24369700  0.01370200  1
  C  C54  1  0.75760000  0.24369700  0.51370200  1
  C  C55  1  0.25760000  0.75630300  0.98629800  1
  C  C56  1  0.25724000  0.25855200  0.48936900  1
  C  C57  1  0.75724000  0.74144800  0.01063100  1
  C  C58  1  0.74276000  0.74144800  0.51063100  1
  C  C59  1  0.24276000  0.25855200  0.98936900  1
