# generated using pymatgen
data_Cu4Ni2C5
_symmetry_space_group_name_H-M   'P 1'
_cell_length_a   8.63284961
_cell_length_b   8.63284961
_cell_length_c   6.29218400
_cell_angle_alpha   90.00000000
_cell_angle_beta   90.00000000
_cell_angle_gamma   136.89794695
_symmetry_Int_Tables_number   1
_chemical_formula_structural   Cu4Ni2C5
_chemical_formula_sum   'Cu8 Ni4 C10'
_cell_volume   320.42112810
_cell_formula_units_Z   2
loop_
 _symmetry_equiv_pos_site_id
 _symmetry_equiv_pos_as_xyz
  1  'x, y, z'
loop_
 _atom_site_type_symbol
 _atom_site_label
 _atom_site_symmetry_multiplicity
 _atom_site_fract_x
 _atom_site_fract_y
 _atom_site_fract_z
 _atom_site_occupancy
  C  C0  1  0.00000000  0.00000000  0.00000000  1
  C  C1  1  0.50000000  0.50000000  0.50000000  1
  Ni  Ni2  1  0.64005200  0.35994800  0.00000000  1
  Ni  Ni3  1  0.14005200  0.85994800  0.50000000  1
  Ni  Ni4  1  0.85994800  0.14005200  0.50000000  1
  Ni  Ni5  1  0.35994800  0.64005200  0.00000000  1
  Cu  Cu6  1  0.81782400  0.42811200  0.87372600  1
  Cu  Cu7  1  0.07188800  0.68217600  0.37372600  1
  Cu  Cu8  1  0.92811200  0.31782400  0.37372600  1
  Cu  Cu9  1  0.18217600  0.57188800  0.87372600  1
  Cu  Cu10  1  0.68217600  0.07188800  0.62627400  1
  Cu  Cu11  1  0.42811200  0.81782400  0.12627400  1
  Cu  Cu12  1  0.57188800  0.18217600  0.12627400  1
  Cu  Cu13  1  0.31782400  0.92811200  0.62627400  1
  C  C14  1  0.73790800  0.55606500  0.14590400  1
  C  C15  1  0.94393500  0.76209200  0.64590400  1
  C  C16  1  0.05606500  0.23790800  0.64590400  1
  C  C17  1  0.26209200  0.44393500  0.14590400  1
  C  C18  1  0.76209200  0.94393500  0.35409600  1
  C  C19  1  0.55606500  0.73790800  0.85409600  1
  C  C20  1  0.44393500  0.26209200  0.85409600  1
  C  C21  1  0.23790800  0.05606500  0.35409600  1
