# generated using pymatgen
data_CuNi6C7
_symmetry_space_group_name_H-M   'P 1'
_cell_length_a   8.24235690
_cell_length_b   8.24235690
_cell_length_c   8.24235690
_cell_angle_alpha   130.03116193
_cell_angle_beta   130.03116193
_cell_angle_gamma   73.35695221
_symmetry_Int_Tables_number   1
_chemical_formula_structural   CuNi6C7
_chemical_formula_sum   'Cu2 Ni12 C14'
_cell_volume   320.46341506
_cell_formula_units_Z   2
loop_
 _symmetry_equiv_pos_site_id
 _symmetry_equiv_pos_as_xyz
  1  'x, y, z'
loop_
 _atom_site_type_symbol
 _atom_site_label
 _atom_site_symmetry_multiplicity
 _atom_site_fract_x
 _atom_site_fract_y
 _atom_site_fract_z
 _atom_site_occupancy
  C  C0  1  0.30236800  0.30236800  0.00000000  1
  C  C1  1  0.69763200  0.69763200  0.00000000  1
  C  C2  1  0.00000000  0.00000000  0.00000000  1
  C  C3  1  0.03578000  0.60090700  0.75943800  1
  C  C4  1  0.84146900  0.27634100  0.24056200  1
  C  C5  1  0.27634100  0.03578000  0.43487200  1
  C  C6  1  0.60090700  0.84146900  0.56512800  1
  C  C7  1  0.96422000  0.39909300  0.24056200  1
  C  C8  1  0.15853100  0.72365900  0.75943800  1
  C  C9  1  0.72365900  0.96422000  0.56512800  1
  C  C10  1  0.39909300  0.15853100  0.43487200  1
  C  C11  1  0.75000000  0.25000000  0.50000000  1
  C  C12  1  0.25000000  0.75000000  0.50000000  1
  C  C13  1  0.50000000  0.50000000  0.00000000  1
  Ni  Ni14  1  0.65444100  0.25269100  0.27497700  1
  Ni  Ni15  1  0.97771400  0.37946400  0.72502300  1
  Ni  Ni16  1  0.37946400  0.65444100  0.40175000  1
  Ni  Ni17  1  0.25269100  0.97771400  0.59825000  1
  Ni  Ni18  1  0.34555900  0.74730900  0.72502300  1
  Ni  Ni19  1  0.02228600  0.62053600  0.27497700  1
  Ni  Ni20  1  0.62053600  0.34555900  0.59825000  1
  Ni  Ni21  1  0.74730900  0.02228600  0.40175000  1
  Ni  Ni22  1  0.04379600  0.72497900  0.76877600  1
  Ni  Ni23  1  0.95620400  0.27502100  0.23122400  1
  Ni  Ni24  1  0.27502100  0.04379600  0.31881700  1
  Ni  Ni25  1  0.72497900  0.95620400  0.68118300  1
  Cu  Cu26  1  0.13421900  0.13421900  0.00000000  1
  Cu  Cu27  1  0.86578100  0.86578100  0.00000000  1
