# generated using pymatgen
data_CuNiC6
_symmetry_space_group_name_H-M   'P 1'
_cell_length_a   8.43051685
_cell_length_b   8.43051685
_cell_length_c   14.07560884
_cell_angle_alpha   85.88649037
_cell_angle_beta   85.88649037
_cell_angle_gamma   34.38217601
_symmetry_Int_Tables_number   1
_chemical_formula_structural   CuNiC6
_chemical_formula_sum   'Cu4 Ni4 C24'
_cell_volume   563.34382220
_cell_formula_units_Z   4
loop_
 _symmetry_equiv_pos_site_id
 _symmetry_equiv_pos_as_xyz
  1  'x, y, z'
loop_
 _atom_site_type_symbol
 _atom_site_label
 _atom_site_symmetry_multiplicity
 _atom_site_fract_x
 _atom_site_fract_y
 _atom_site_fract_z
 _atom_site_occupancy
  C  C0  1  0.16810600  0.35955500  0.48697000  1
  C  C1  1  0.35955500  0.16810600  0.98697000  1
  C  C2  1  0.47550900  0.64019500  0.25046700  1
  C  C3  1  0.64019500  0.47550900  0.75046700  1
  Ni  Ni4  1  0.98066600  0.02267700  0.50342300  1
  Ni  Ni5  1  0.02267700  0.98066600  0.00342300  1
  Ni  Ni6  1  0.80227100  0.83623900  0.24557000  1
  Ni  Ni7  1  0.83623900  0.80227100  0.74557000  1
  Cu  Cu8  1  0.10513100  0.35003900  0.24568400  1
  Cu  Cu9  1  0.35003900  0.10513100  0.74568400  1
  Cu  Cu10  1  0.72149100  0.46540700  0.99350900  1
  Cu  Cu11  1  0.46540700  0.72149100  0.49350900  1
  C  C12  1  0.91171900  0.52740700  0.27251200  1
  C  C13  1  0.52740700  0.91171900  0.77251200  1
  C  C14  1  0.28415200  0.91843600  0.46962100  1
  C  C15  1  0.91843600  0.28415200  0.96962100  1
  C  C16  1  0.42479500  0.03461800  0.21586900  1
  C  C17  1  0.03461800  0.42479500  0.71586900  1
  C  C18  1  0.69114800  0.91349200  0.38625500  1
  C  C19  1  0.91349200  0.69114800  0.88625500  1
  C  C20  1  0.93903200  0.69200100  0.10918500  1
  C  C21  1  0.69200100  0.93903200  0.60918500  1
  C  C22  1  0.20033300  0.56045500  0.27740100  1
  C  C23  1  0.56045500  0.20033300  0.77740100  1
  C  C24  1  0.91949000  0.10339100  0.14208100  1
  C  C25  1  0.10339100  0.91949000  0.64208100  1
  C  C26  1  0.27216700  0.61171900  0.48895900  1
  C  C27  1  0.61171900  0.27216700  0.98895900  1
  C  C28  1  0.91181700  0.10833800  0.36073000  1
  C  C29  1  0.10833800  0.91181700  0.86073000  1
  C  C30  1  0.40561700  0.77458700  0.03276400  1
  C  C31  1  0.77458700  0.40561700  0.53276400  1
