# generated using pymatgen
data_Cu3Ni3C2
_symmetry_space_group_name_H-M   'P 1'
_cell_length_a   8.34906400
_cell_length_b   10.36524700
_cell_length_c   26.71204400
_cell_angle_alpha   90.00000000
_cell_angle_beta   90.00000000
_cell_angle_gamma   90.00000000
_symmetry_Int_Tables_number   1
_chemical_formula_structural   Cu3Ni3C2
_chemical_formula_sum   'Cu48 Ni48 C32'
_cell_volume   2311.66324155
_cell_formula_units_Z   16
loop_
 _symmetry_equiv_pos_site_id
 _symmetry_equiv_pos_as_xyz
  1  'x, y, z'
loop_
 _atom_site_type_symbol
 _atom_site_label
 _atom_site_symmetry_multiplicity
 _atom_site_fract_x
 _atom_site_fract_y
 _atom_site_fract_z
 _atom_site_occupancy
  C  C0  1  0.25367500  0.24381700  0.62838200  1
  C  C1  1  0.74846800  0.49915100  0.24951400  1
  C  C2  1  0.25367500  0.75618300  0.37161800  1
  C  C3  1  0.00982200  0.50000000  0.00000000  1
  C  C4  1  0.24846800  0.99915100  0.75048600  1
  C  C5  1  0.99270900  0.73561800  0.62853000  1
  C  C6  1  0.99482100  0.29114500  0.87278300  1
  C  C7  1  0.49270900  0.23561800  0.37147000  1
  C  C8  1  0.49482100  0.20885500  0.87278300  1
  C  C9  1  0.49270900  0.76438200  0.62853000  1
  C  C10  1  0.75367500  0.25618300  0.62838200  1
  C  C11  1  0.99270900  0.26438200  0.37147000  1
  C  C12  1  0.24846800  0.00084900  0.24951400  1
  C  C13  1  0.50345000  0.00000000  0.50000000  1
  C  C14  1  0.74846800  0.50084900  0.75048600  1
  C  C15  1  0.50982200  0.00000000  0.00000000  1
  C  C16  1  0.25607700  0.22641800  0.12515700  1
  C  C17  1  0.25607700  0.77358200  0.87484300  1
  C  C18  1  0.75607700  0.27358200  0.12515700  1
  C  C19  1  0.75607700  0.72641800  0.87484300  1
  C  C20  1  0.99482100  0.70885500  0.12721700  1
  C  C21  1  0.75367500  0.74381700  0.37161800  1
  C  C22  1  0.00345000  0.50000000  0.50000000  1
  C  C23  1  0.49482100  0.79114500  0.12721700  1
  C  C24  1  0.75028100  0.00061300  0.24950500  1
  C  C25  1  0.75028100  0.99938700  0.75049500  1
  C  C26  1  0.49985200  0.50000000  0.00000000  1
  C  C27  1  0.25028100  0.50061300  0.75049500  1
  C  C28  1  0.49641800  0.50000000  0.50000000  1
  C  C29  1  0.25028100  0.49938700  0.24950500  1
  C  C30  1  0.99641800  0.00000000  0.50000000  1
  C  C31  1  0.99985200  0.00000000  0.00000000  1
  Ni  Ni32  1  0.24417400  0.66564000  0.72214100  1
  Ni  Ni33  1  0.59779800  0.94826800  0.29629100  1
  Ni  Ni34  1  0.09779800  0.55173200  0.29629100  1
  Ni  Ni35  1  0.40788400  0.54862100  0.29747600  1
  Ni  Ni36  1  0.49874600  0.33236400  0.02876300  1
  Ni  Ni37  1  0.84405600  0.94980400  0.04701900  1
  Ni  Ni38  1  0.90788400  0.04862100  0.70252400  1
  Ni  Ni39  1  0.90493100  0.94839500  0.79738600  1
  Ni  Ni40  1  0.34271700  0.44769700  0.45204300  1
  Ni  Ni41  1  0.15482800  0.94874700  0.04732500  1
  Ni  Ni42  1  0.59071700  0.95170400  0.79774800  1
  Ni  Ni43  1  0.09071700  0.54829600  0.79774800  1
  Ni  Ni44  1  0.75536100  0.16520200  0.77774500  1
  Ni  Ni45  1  0.25536100  0.66520200  0.22225500  1
  Ni  Ni46  1  0.09071700  0.45170400  0.20225200  1
  Ni  Ni47  1  0.34271700  0.55230300  0.54795700  1
  Ni  Ni48  1  0.09779800  0.44826800  0.70370900  1
  Ni  Ni49  1  0.75536100  0.83479800  0.22225500  1
  Ni  Ni50  1  0.40788400  0.45137900  0.70252400  1
  Ni  Ni51  1  0.34405600  0.55019600  0.04701900  1
  Ni  Ni52  1  0.40493100  0.44839500  0.20261400  1
  Ni  Ni53  1  0.65350800  0.44948200  0.45376200  1
  Ni  Ni54  1  0.49874600  0.66763600  0.97123700  1
  Ni  Ni55  1  0.34405600  0.44980400  0.95298100  1
  Ni  Ni56  1  0.15350800  0.94948200  0.54623800  1
  Ni  Ni57  1  0.84271700  0.94769700  0.54795700  1
  Ni  Ni58  1  0.84271700  0.05230300  0.45204300  1
  Ni  Ni59  1  0.65482800  0.55125300  0.04732500  1
  Ni  Ni60  1  0.99874600  0.83236400  0.97123700  1
  Ni  Ni61  1  0.25536100  0.33479800  0.77774500  1
  Ni  Ni62  1  0.15350800  0.05051800  0.45376200  1
  Ni  Ni63  1  0.84405600  0.05019600  0.95298100  1
  Ni  Ni64  1  0.74417400  0.16564000  0.27785900  1
  Ni  Ni65  1  0.49987200  0.33301900  0.52904700  1
  Ni  Ni66  1  0.59779800  0.05173200  0.70370900  1
  Ni  Ni67  1  0.59071700  0.04829600  0.20225200  1
  Ni  Ni68  1  0.24417400  0.33436000  0.27785900  1
  Ni  Ni69  1  0.65350800  0.55051800  0.54623800  1
  Ni  Ni70  1  0.90493100  0.05160500  0.20261400  1
  Ni  Ni71  1  0.15482800  0.05125300  0.95267500  1
  Ni  Ni72  1  0.74417400  0.83436000  0.72214100  1
  Ni  Ni73  1  0.99987200  0.83301900  0.47095300  1
  Ni  Ni74  1  0.99987200  0.16698100  0.52904700  1
  Ni  Ni75  1  0.65482800  0.44874700  0.95267500  1
  Ni  Ni76  1  0.49987200  0.66698100  0.47095300  1
  Ni  Ni77  1  0.40493100  0.55160500  0.79738600  1
  Ni  Ni78  1  0.99874600  0.16763600  0.02876300  1
  Ni  Ni79  1  0.90788400  0.95137900  0.29747600  1
  Cu  Cu80  1  0.49792100  0.77008100  0.95223400  1
  Cu  Cu81  1  0.75118800  0.58271900  0.57523900  1
  Cu  Cu82  1  0.74879400  0.91918000  0.07714200  1
  Cu  Cu83  1  0.49837000  0.08357500  0.67524100  1
  Cu  Cu84  1  0.50096600  0.23021000  0.54771900  1
  Cu  Cu85  1  0.00364200  0.92194100  0.32769300  1
  Cu  Cu86  1  0.75829200  0.26803100  0.79608900  1
  Cu  Cu87  1  0.75118800  0.41728100  0.42476100  1
  Cu  Cu88  1  0.99792100  0.27008100  0.04776600  1
  Cu  Cu89  1  0.24879400  0.58082000  0.07714200  1
  Cu  Cu90  1  0.49837000  0.91642500  0.32475900  1
  Cu  Cu91  1  0.25829200  0.76803100  0.20391100  1
  Cu  Cu92  1  0.99332700  0.42153400  0.17264300  1
  Cu  Cu93  1  0.50096600  0.76979000  0.45228100  1
  Cu  Cu94  1  0.99837000  0.58357500  0.32475900  1
  Cu  Cu95  1  0.00676000  0.08206300  0.17480900  1
  Cu  Cu96  1  0.50364200  0.57805900  0.32769300  1
  Cu  Cu97  1  0.00096600  0.73021000  0.45228100  1
  Cu  Cu98  1  0.25107700  0.08382100  0.92316100  1
  Cu  Cu99  1  0.24879400  0.41918000  0.92285800  1
  Cu  Cu100  1  0.24026300  0.76896800  0.70431300  1
  Cu  Cu101  1  0.74695500  0.91416000  0.57752400  1
  Cu  Cu102  1  0.50676000  0.41793700  0.17480900  1
  Cu  Cu103  1  0.75107700  0.58382100  0.07683900  1
  Cu  Cu104  1  0.74026300  0.73103200  0.70431300  1
  Cu  Cu105  1  0.99332700  0.57846600  0.82735700  1
  Cu  Cu106  1  0.25107700  0.91617900  0.07683900  1
  Cu  Cu107  1  0.50364200  0.42194100  0.67230700  1
  Cu  Cu108  1  0.25118800  0.91728100  0.57523900  1
  Cu  Cu109  1  0.24026300  0.23103200  0.29568700  1
  Cu  Cu110  1  0.00096600  0.26979000  0.54771900  1
  Cu  Cu111  1  0.49332700  0.92153400  0.82735700  1
  Cu  Cu112  1  0.99837000  0.41642500  0.67524100  1
  Cu  Cu113  1  0.74879400  0.08082000  0.92285800  1
  Cu  Cu114  1  0.49792100  0.22991900  0.04776600  1
  Cu  Cu115  1  0.00364200  0.07805900  0.67230700  1
  Cu  Cu116  1  0.25829200  0.23196900  0.79608900  1
  Cu  Cu117  1  0.99792100  0.72991900  0.95223400  1
  Cu  Cu118  1  0.25118800  0.08271900  0.42476100  1
  Cu  Cu119  1  0.24695500  0.41416000  0.42247600  1
  Cu  Cu120  1  0.74026300  0.26896800  0.29568700  1
  Cu  Cu121  1  0.00676000  0.91793700  0.82519100  1
  Cu  Cu122  1  0.50676000  0.58206300  0.82519100  1
  Cu  Cu123  1  0.75107700  0.41617900  0.92316100  1
  Cu  Cu124  1  0.74695500  0.08584000  0.42247600  1
  Cu  Cu125  1  0.49332700  0.07846600  0.17264300  1
  Cu  Cu126  1  0.24695500  0.58584000  0.57752400  1
  Cu  Cu127  1  0.75829200  0.73196900  0.20391100  1
