# generated using pymatgen
data_Cu2Ni2C
_symmetry_space_group_name_H-M   'P 1'
_cell_length_a   6.40443900
_cell_length_b   7.52036900
_cell_length_c   14.89529900
_cell_angle_alpha   90.00000000
_cell_angle_beta   90.00000000
_cell_angle_gamma   90.00000000
_symmetry_Int_Tables_number   1
_chemical_formula_structural   Cu2Ni2C
_chemical_formula_sum   'Cu16 Ni16 C8'
_cell_volume   717.41337556
_cell_formula_units_Z   8
loop_
 _symmetry_equiv_pos_site_id
 _symmetry_equiv_pos_as_xyz
  1  'x, y, z'
loop_
 _atom_site_type_symbol
 _atom_site_label
 _atom_site_symmetry_multiplicity
 _atom_site_fract_x
 _atom_site_fract_y
 _atom_site_fract_z
 _atom_site_occupancy
  C  C0  1  0.46135800  0.61253900  0.65443700  1
  C  C1  1  0.90600900  0.40005100  0.45991600  1
  C  C2  1  0.59399100  0.59994900  0.95991600  1
  C  C3  1  0.96135800  0.88746100  0.34556300  1
  C  C4  1  0.03864200  0.38746100  0.15443700  1
  C  C5  1  0.09399100  0.90005100  0.04008400  1
  C  C6  1  0.40600900  0.09994900  0.54008400  1
  C  C7  1  0.53864200  0.11253900  0.84556300  1
  Ni  Ni8  1  0.96137900  0.36922800  0.67315400  1
  Ni  Ni9  1  0.59400400  0.10738500  0.05617600  1
  Ni  Ni10  1  0.53862100  0.63077200  0.17315400  1
  Ni  Ni11  1  0.90599600  0.89261500  0.55617600  1
  Ni  Ni12  1  0.09400400  0.39261500  0.94382400  1
  Ni  Ni13  1  0.00126100  0.87535000  0.73087100  1
  Ni  Ni14  1  0.53882800  0.11528500  0.15071400  1
  Ni  Ni15  1  0.40599600  0.60738500  0.44382400  1
  Ni  Ni16  1  0.49873900  0.12465000  0.23087100  1
  Ni  Ni17  1  0.46137900  0.13077200  0.32684600  1
  Ni  Ni18  1  0.46117200  0.61528500  0.34928600  1
  Ni  Ni19  1  0.50126100  0.62465000  0.26912900  1
  Ni  Ni20  1  0.03862100  0.86922800  0.82684600  1
  Ni  Ni21  1  0.96117200  0.88471500  0.65071400  1
  Ni  Ni22  1  0.03882800  0.38471500  0.84928600  1
  Ni  Ni23  1  0.99873900  0.37535000  0.76912900  1
  Cu  Cu24  1  0.48096700  0.47775900  0.48904900  1
  Cu  Cu25  1  0.71052200  0.22944600  0.02549000  1
  Cu  Cu26  1  0.51903300  0.97775900  0.01095100  1
  Cu  Cu27  1  0.37845300  0.61128900  0.12310200  1
  Cu  Cu28  1  0.77538200  0.34694100  0.64576800  1
  Cu  Cu29  1  0.87845300  0.88871100  0.87689800  1
  Cu  Cu30  1  0.28947800  0.72944600  0.47451000  1
  Cu  Cu31  1  0.62154700  0.11128900  0.37689800  1
  Cu  Cu32  1  0.01903300  0.52224100  0.98904900  1
  Cu  Cu33  1  0.27538200  0.15305900  0.35423200  1
  Cu  Cu34  1  0.78947800  0.77055400  0.52549000  1
  Cu  Cu35  1  0.98096700  0.02224100  0.51095100  1
  Cu  Cu36  1  0.12154700  0.38871100  0.62310200  1
  Cu  Cu37  1  0.21052200  0.27055400  0.97451000  1
  Cu  Cu38  1  0.22461800  0.84694100  0.85423200  1
  Cu  Cu39  1  0.72461800  0.65305900  0.14576800  1
