# generated using pymatgen
data_Cu2NiC6
_symmetry_space_group_name_H-M   'P 1'
_cell_length_a   5.85958500
_cell_length_b   7.29040800
_cell_length_c   12.67919200
_cell_angle_alpha   90.00000000
_cell_angle_beta   90.00000000
_cell_angle_gamma   90.00000000
_symmetry_Int_Tables_number   1
_chemical_formula_structural   Cu2NiC6
_chemical_formula_sum   'Cu8 Ni4 C24'
_cell_volume   541.63942801
_cell_formula_units_Z   4
loop_
 _symmetry_equiv_pos_site_id
 _symmetry_equiv_pos_as_xyz
  1  'x, y, z'
loop_
 _atom_site_type_symbol
 _atom_site_label
 _atom_site_symmetry_multiplicity
 _atom_site_fract_x
 _atom_site_fract_y
 _atom_site_fract_z
 _atom_site_occupancy
  Ni  Ni0  1  0.75000000  0.07660300  0.09993800  1
  Ni  Ni1  1  0.75000000  0.42339700  0.59993800  1
  Ni  Ni2  1  0.25000000  0.57660300  0.40006200  1
  Ni  Ni3  1  0.25000000  0.92339700  0.90006200  1
  Cu  Cu4  1  0.25000000  0.39846400  0.07468200  1
  Cu  Cu5  1  0.75000000  0.61716800  0.20778500  1
  Cu  Cu6  1  0.75000000  0.88283200  0.70778500  1
  Cu  Cu7  1  0.25000000  0.11716800  0.29221500  1
  Cu  Cu8  1  0.75000000  0.60153600  0.92531800  1
  Cu  Cu9  1  0.75000000  0.89846400  0.42531800  1
  Cu  Cu10  1  0.25000000  0.10153600  0.57468200  1
  Cu  Cu11  1  0.25000000  0.38283200  0.79221500  1
  C  C12  1  0.25000000  0.80822300  0.14968500  1
  C  C13  1  0.75000000  0.19177700  0.85031500  1
  C  C14  1  0.75000000  0.30822300  0.35031500  1
  C  C15  1  0.25000000  0.69177700  0.64968500  1
  C  C16  1  0.25000000  0.43138800  0.59855200  1
  C  C17  1  0.75000000  0.56861200  0.40144800  1
  C  C18  1  0.75000000  0.93138800  0.90144800  1
  C  C19  1  0.25000000  0.06861200  0.09855200  1
  C  C20  1  0.00347600  0.85307200  0.27548500  1
  C  C21  1  0.50347600  0.14692800  0.72451500  1
  C  C22  1  0.99652400  0.35307200  0.22451500  1
  C  C23  1  0.49652400  0.64692800  0.77548500  1
  C  C24  1  0.99652400  0.14692800  0.72451500  1
  C  C25  1  0.49652400  0.85307200  0.27548500  1
  C  C26  1  0.00347600  0.64692800  0.77548500  1
  C  C27  1  0.50347600  0.35307200  0.22451500  1
  C  C28  1  0.49497000  0.66602300  0.06586300  1
  C  C29  1  0.99497000  0.33397700  0.93413700  1
  C  C30  1  0.50503000  0.16602300  0.43413700  1
  C  C31  1  0.00503000  0.83397700  0.56586300  1
  C  C32  1  0.99497000  0.16602300  0.43413700  1
  C  C33  1  0.49497000  0.83397700  0.56586300  1
  C  C34  1  0.00503000  0.66602300  0.06586300  1
  C  C35  1  0.50503000  0.33397700  0.93413700  1
