# generated using pymatgen
data_CuNiC8
_symmetry_space_group_name_H-M   'P 1'
_cell_length_a   5.55398900
_cell_length_b   7.33280300
_cell_length_c   8.47014100
_cell_angle_alpha   90.00000000
_cell_angle_beta   90.00000000
_cell_angle_gamma   90.00000000
_symmetry_Int_Tables_number   1
_chemical_formula_structural   CuNiC8
_chemical_formula_sum   'Cu4 Ni4 C32'
_cell_volume   344.95756440
_cell_formula_units_Z   4
loop_
 _symmetry_equiv_pos_site_id
 _symmetry_equiv_pos_as_xyz
  1  'x, y, z'
loop_
 _atom_site_type_symbol
 _atom_site_label
 _atom_site_symmetry_multiplicity
 _atom_site_fract_x
 _atom_site_fract_y
 _atom_site_fract_z
 _atom_site_occupancy
  C  C0  1  0.54222200  0.00000000  0.74798000  1
  C  C1  1  0.77328800  0.12225500  0.64327100  1
  C  C2  1  0.77056200  0.66182900  0.89446500  1
  C  C3  1  0.45769000  0.28812000  0.50000000  1
  C  C4  1  0.45769000  0.71188000  0.50000000  1
  C  C5  1  0.22671200  0.62225500  0.14327100  1
  C  C6  1  0.77056200  0.66182900  0.10553500  1
  C  C7  1  0.22671200  0.37774500  0.14327100  1
  C  C8  1  0.45777800  0.50000000  0.75202000  1
  C  C9  1  0.22671200  0.62225500  0.85672900  1
  C  C10  1  0.22943800  0.83817100  0.39446500  1
  C  C11  1  0.22943800  0.83817100  0.60553500  1
  C  C12  1  0.77056200  0.33817100  0.89446500  1
  C  C13  1  0.77328800  0.87774500  0.64327100  1
  C  C14  1  0.22943800  0.16182900  0.60553500  1
  C  C15  1  0.22671200  0.37774500  0.85672900  1
  C  C16  1  0.77056200  0.33817100  0.10553500  1
  C  C17  1  0.54231000  0.21188000  0.00000000  1
  C  C18  1  0.77328800  0.12225500  0.35672900  1
  C  C19  1  0.54222200  0.00000000  0.25202000  1
  C  C20  1  0.77328800  0.87774500  0.35672900  1
  C  C21  1  0.22943800  0.16182900  0.39446500  1
  C  C22  1  0.45777800  0.50000000  0.24798000  1
  C  C23  1  0.54231000  0.78812000  0.00000000  1
  C  C24  1  0.34327500  0.16625200  0.50000000  1
  C  C25  1  0.34038000  0.50000000  0.85558400  1
  C  C26  1  0.65962000  0.00000000  0.35558400  1
  C  C27  1  0.34038000  0.50000000  0.14441600  1
  C  C28  1  0.65672500  0.66625200  0.00000000  1
  C  C29  1  0.65672500  0.33374800  0.00000000  1
  C  C30  1  0.65962000  0.00000000  0.64441600  1
  C  C31  1  0.34327500  0.83374800  0.50000000  1
  Ni  Ni32  1  0.96064900  0.50000000  0.50000000  1
  Ni  Ni33  1  0.49741100  0.50000000  0.00000000  1
  Ni  Ni34  1  0.50258900  0.00000000  0.50000000  1
  Ni  Ni35  1  0.03935100  0.00000000  0.00000000  1
  Cu  Cu36  1  0.83960600  0.50000000  0.37274700  1
  Cu  Cu37  1  0.16039400  0.00000000  0.87274700  1
  Cu  Cu38  1  0.16039400  0.00000000  0.12725300  1
  Cu  Cu39  1  0.83960600  0.50000000  0.62725300  1
