# generated using pymatgen
data_CuNiC5
_symmetry_space_group_name_H-M   'P 1'
_cell_length_a   10.10035833
_cell_length_b   10.10035833
_cell_length_c   25.07005500
_cell_angle_alpha   90.00000000
_cell_angle_beta   90.00000000
_cell_angle_gamma   120.00000218
_symmetry_Int_Tables_number   1
_chemical_formula_structural   CuNiC5
_chemical_formula_sum   'Cu24 Ni24 C120'
_cell_volume   2214.92728014
_cell_formula_units_Z   24
loop_
 _symmetry_equiv_pos_site_id
 _symmetry_equiv_pos_as_xyz
  1  'x, y, z'
loop_
 _atom_site_type_symbol
 _atom_site_label
 _atom_site_symmetry_multiplicity
 _atom_site_fract_x
 _atom_site_fract_y
 _atom_site_fract_z
 _atom_site_occupancy
  C  C0  1  0.02073600  0.56469300  0.03573500  1
  C  C1  1  0.52651300  0.55799100  0.53027000  1
  C  C2  1  0.44247100  0.96046300  0.51964400  1
  C  C3  1  0.00444400  0.01498400  0.02801800  1
  C  C4  1  0.43530700  0.45604300  0.36906900  1
  C  C5  1  0.51799200  0.55752900  0.18631100  1
  C  C6  1  0.44200900  0.96852200  0.86360300  1
  C  C7  1  0.97926400  0.43530700  0.53573500  1
  C  C8  1  0.03147800  0.47348700  0.19693600  1
  C  C9  1  0.03953700  0.48200800  0.85297800  1
  C  C10  1  0.55799100  0.03147800  0.36360300  1
  C  C11  1  0.96852200  0.52651300  0.69693600  1
  C  C12  1  0.54395700  0.97926400  0.70240200  1
  C  C13  1  0.45604300  0.02073600  0.20240200  1
  C  C14  1  0.99555600  0.98501600  0.52801800  1
  C  C15  1  0.55752900  0.03953700  0.01964400  1
  C  C16  1  0.48200800  0.44247100  0.68631100  1
  C  C17  1  0.96046300  0.51799200  0.35297800  1
  C  C18  1  0.98946000  0.00444400  0.19468400  1
  C  C19  1  0.01054000  0.99555600  0.69468400  1
  C  C20  1  0.01498400  0.01054000  0.86135100  1
  C  C21  1  0.56469300  0.54395700  0.86906900  1
  C  C22  1  0.98501600  0.98946000  0.36135100  1
  C  C23  1  0.47348700  0.44200900  0.03027000  1
  Ni  Ni24  1  0.63530100  0.88084900  0.25850400  1
  Ni  Ni25  1  0.70793600  0.89685100  0.92875600  1
  Ni  Ni26  1  0.77130800  0.67322800  0.75323700  1
  Ni  Ni27  1  0.90192000  0.22869200  0.41990400  1
  Ni  Ni28  1  0.88084900  0.24554800  0.09183700  1
  Ni  Ni29  1  0.64474800  0.31426600  0.92391800  1
  Ni  Ni30  1  0.67322800  0.90192000  0.58657100  1
  Ni  Ni31  1  0.66951700  0.35525200  0.59058400  1
  Ni  Ni32  1  0.09808000  0.77130800  0.91990400  1
  Ni  Ni33  1  0.35525200  0.68573400  0.42391800  1
  Ni  Ni34  1  0.18891500  0.29206400  0.59542300  1
  Ni  Ni35  1  0.29206400  0.10314900  0.42875600  1
  Ni  Ni36  1  0.11915100  0.75445200  0.59183700  1
  Ni  Ni37  1  0.10314900  0.81108500  0.26209000  1
  Ni  Ni38  1  0.68573400  0.33048300  0.25725100  1
  Ni  Ni39  1  0.89685100  0.18891500  0.76209000  1
  Ni  Ni40  1  0.81108500  0.70793600  0.09542300  1
  Ni  Ni41  1  0.22869200  0.32677200  0.25323700  1
  Ni  Ni42  1  0.33048300  0.64474800  0.09058400  1
  Ni  Ni43  1  0.32677200  0.09808000  0.08657100  1
  Ni  Ni44  1  0.24554800  0.36469900  0.92517000  1
  Ni  Ni45  1  0.31426600  0.66951700  0.75725100  1
  Ni  Ni46  1  0.75445200  0.63530100  0.42517000  1
  Ni  Ni47  1  0.36469900  0.11915100  0.75850400  1
  Cu  Cu48  1  0.77822000  0.64453200  0.96919200  1
  Cu  Cu49  1  0.33844200  0.63629600  0.62939000  1
  Cu  Cu50  1  0.29785400  0.66155800  0.29605600  1
  Cu  Cu51  1  0.67610000  0.91254900  0.13180900  1
  Cu  Cu52  1  0.91254900  0.23644900  0.96514200  1
  Cu  Cu53  1  0.69643100  0.89846700  0.46129600  1
  Cu  Cu54  1  0.10153300  0.79796400  0.79462900  1
  Cu  Cu55  1  0.32390000  0.08745100  0.63180900  1
  Cu  Cu56  1  0.30356900  0.10153300  0.96129600  1
  Cu  Cu57  1  0.23644900  0.32390000  0.79847500  1
  Cu  Cu58  1  0.35546800  0.13368700  0.30252500  1
  Cu  Cu59  1  0.36370400  0.70214600  0.96272300  1
  Cu  Cu60  1  0.63629600  0.29785400  0.46272300  1
  Cu  Cu61  1  0.89846700  0.20203600  0.29462900  1
  Cu  Cu62  1  0.66155800  0.36370400  0.12939000  1
  Cu  Cu63  1  0.22178000  0.35546800  0.46919200  1
  Cu  Cu64  1  0.76355100  0.67610000  0.29847500  1
  Cu  Cu65  1  0.13368700  0.77822000  0.13585900  1
  Cu  Cu66  1  0.20203600  0.30356900  0.12796300  1
  Cu  Cu67  1  0.79796400  0.69643100  0.62796300  1
  Cu  Cu68  1  0.64453200  0.86631300  0.80252500  1
  Cu  Cu69  1  0.86631300  0.22178000  0.63585900  1
  Cu  Cu70  1  0.70214600  0.33844200  0.79605600  1
  Cu  Cu71  1  0.08745100  0.76355100  0.46514200  1
  C  C72  1  0.24508100  0.97230100  0.80320800  1
  C  C73  1  0.37599400  0.69863600  0.69074500  1
  C  C74  1  0.17812900  0.62250200  0.60842800  1
  C  C75  1  0.31275700  0.03547600  0.02012900  1
  C  C76  1  0.24632100  0.30353100  0.52841700  1
  C  C77  1  0.05316000  0.34163700  0.46374600  1
  C  C78  1  0.62400600  0.30136400  0.19074500  1
  C  C79  1  0.65836300  0.71152300  0.79707900  1
  C  C80  1  0.80931800  0.84258100  0.59529700  1
  C  C81  1  0.35506600  0.53453900  0.45967600  1
  C  C82  1  0.67735800  0.37599400  0.85741200  1
  C  C83  1  0.44437300  0.82187100  0.27509500  1
  C  C84  1  0.46491000  0.14564500  0.45987000  1
  C  C85  1  0.94575100  0.80849300  0.29407900  1
  C  C86  1  0.27728100  0.31275700  0.18679600  1
  C  C87  1  0.85435500  0.31926500  0.79320400  1
  C  C88  1  0.28847700  0.94684000  0.13041300  1
  C  C89  1  0.53509000  0.85435500  0.95987000  1
  C  C90  1  0.85147700  0.31435400  0.26307300  1
  C  C91  1  0.96673600  0.80931800  0.76196400  1
  C  C92  1  0.00482000  0.75637500  0.09157600  1
  C  C93  1  0.62250200  0.44437300  0.44176200  1
  C  C94  1  0.66981400  0.96096600  0.19385100  1
  C  C95  1  0.82052700  0.35506600  0.62634300  1
  C  C96  1  0.31926500  0.46491000  0.62653700  1
  C  C97  1  0.94279000  0.24632100  0.69508300  1
  C  C98  1  0.80849300  0.86274200  0.12741200  1
  C  C99  1  0.72271900  0.68724300  0.68679600  1
  C  C100  1  0.51688800  0.24879900  0.09137700  1
  C  C101  1  0.23098100  0.74169200  0.44936700  1
  C  C102  1  0.24879900  0.73191100  0.92471000  1
  C  C103  1  0.48311200  0.75120100  0.59137700  1
  C  C104  1  0.69863600  0.32264200  0.52407900  1
  C  C105  1  0.73191100  0.48311200  0.75804400  1
  C  C106  1  0.55562700  0.17812900  0.77509500  1
  C  C107  1  0.72160700  0.05835800  0.09215700  1
  C  C108  1  0.53712400  0.85147700  0.42973900  1
  C  C109  1  0.68724300  0.96452400  0.52012900  1
  C  C110  1  0.86274200  0.05424900  0.96074500  1
  C  C111  1  0.68564600  0.53712400  0.59640600  1
  C  C112  1  0.29115200  0.33018600  0.86051800  1
  C  C113  1  0.26808900  0.51688800  0.25804400  1
  C  C114  1  0.97230100  0.72722100  0.63654200  1
  C  C115  1  0.64493400  0.46546100  0.95967600  1
  C  C116  1  0.32264200  0.62400600  0.35741200  1
  C  C117  1  0.14852300  0.68564600  0.76307300  1
  C  C118  1  0.75491900  0.02769900  0.30320800  1
  C  C119  1  0.05424900  0.19150700  0.79407900  1
  C  C120  1  0.31435400  0.46287600  0.09640600  1
  C  C121  1  0.66324900  0.72160700  0.25882300  1
  C  C122  1  0.75637500  0.75155500  0.92491000  1
  C  C123  1  0.69646900  0.94279000  0.86175000  1
  C  C124  1  0.70884800  0.66981400  0.36051800  1
  C  C125  1  0.99518000  0.24362500  0.59157600  1
  C  C126  1  0.82187100  0.37749800  0.10842800  1
  C  C127  1  0.94164200  0.66324900  0.42549000  1
  C  C128  1  0.53453900  0.17947300  0.29301000  1
  C  C129  1  0.51071100  0.76901900  0.11603400  1
  C  C130  1  0.14564500  0.68073500  0.29320400  1
  C  C131  1  0.02769900  0.27277900  0.13654200  1
  C  C132  1  0.84258100  0.03326400  0.42863000  1
  C  C133  1  0.33018600  0.03903400  0.69385100  1
  C  C134  1  0.74169200  0.51071100  0.28270100  1
  C  C135  1  0.46546100  0.82052700  0.79301000  1
  C  C136  1  0.34163700  0.28847700  0.29707900  1
  C  C137  1  0.19068200  0.15741900  0.09529700  1
  C  C138  1  0.46287600  0.14852300  0.92973900  1
  C  C139  1  0.68073500  0.53509000  0.12653700  1
  C  C140  1  0.05835800  0.33675100  0.92549000  1
  C  C141  1  0.48928900  0.23098100  0.61603400  1
  C  C142  1  0.76901900  0.25830800  0.94936700  1
  C  C143  1  0.03326400  0.19068200  0.26196400  1
  C  C144  1  0.05721000  0.75367900  0.19508300  1
  C  C145  1  0.96452400  0.27728100  0.35346300  1
  C  C146  1  0.33675100  0.27839300  0.75882300  1
  C  C147  1  0.75155500  0.99518000  0.75824300  1
  C  C148  1  0.30353100  0.05721000  0.36175000  1
  C  C149  1  0.15741900  0.96673600  0.92863000  1
  C  C150  1  0.27277900  0.24508100  0.96987500  1
  C  C151  1  0.25830800  0.48928900  0.78270100  1
  C  C152  1  0.13725800  0.94575100  0.46074500  1
  C  C153  1  0.17947300  0.64493400  0.12634300  1
  C  C154  1  0.24844500  0.00482000  0.25824300  1
  C  C155  1  0.71152300  0.05316000  0.63041300  1
  C  C156  1  0.37749800  0.55562700  0.94176200  1
  C  C157  1  0.03547600  0.72271900  0.85346300  1
  C  C158  1  0.03903400  0.70884800  0.52718500  1
  C  C159  1  0.30136400  0.67735800  0.02407900  1
  C  C160  1  0.24362500  0.24844500  0.42491000  1
  C  C161  1  0.96096600  0.29115200  0.02718500  1
  C  C162  1  0.72722100  0.75491900  0.46987500  1
  C  C163  1  0.19150700  0.13725800  0.62741200  1
  C  C164  1  0.94684000  0.65836300  0.96374600  1
  C  C165  1  0.27839300  0.94164200  0.59215700  1
  C  C166  1  0.75367900  0.69646900  0.02841700  1
  C  C167  1  0.75120100  0.26808900  0.42471000  1
