# generated using pymatgen
data_Cu8Ni3C
_symmetry_space_group_name_H-M   'P 1'
_cell_length_a   7.94106000
_cell_length_b   7.74510900
_cell_length_c   13.75134125
_cell_angle_alpha   57.83100790
_cell_angle_beta   90.00000000
_cell_angle_gamma   90.00000000
_symmetry_Int_Tables_number   1
_chemical_formula_structural   Cu8Ni3C
_chemical_formula_sum   'Cu32 Ni12 C4'
_cell_volume   715.92661182
_cell_formula_units_Z   4
loop_
 _symmetry_equiv_pos_site_id
 _symmetry_equiv_pos_as_xyz
  1  'x, y, z'
loop_
 _atom_site_type_symbol
 _atom_site_label
 _atom_site_symmetry_multiplicity
 _atom_site_fract_x
 _atom_site_fract_y
 _atom_site_fract_z
 _atom_site_occupancy
  C  C0  1  0.58756300  0.11339100  0.88523300  1
  C  C1  1  0.91243700  0.11339100  0.38523300  1
  C  C2  1  0.41243700  0.88660900  0.11476700  1
  C  C3  1  0.08756300  0.88660900  0.61476700  1
  Ni  Ni4  1  0.79931600  0.32662500  0.91161000  1
  Ni  Ni5  1  0.70068400  0.32662500  0.41161000  1
  Ni  Ni6  1  0.20068400  0.67337500  0.08839000  1
  Ni  Ni7  1  0.29931600  0.67337500  0.58839000  1
  Ni  Ni8  1  0.25949600  0.45097500  0.89020300  1
  Ni  Ni9  1  0.24050400  0.45097500  0.39020300  1
  Ni  Ni10  1  0.74050400  0.54902500  0.10979700  1
  Ni  Ni11  1  0.75949600  0.54902500  0.60979700  1
  Ni  Ni12  1  0.95065800  0.94858200  0.80694700  1
  Ni  Ni13  1  0.54934200  0.94858200  0.30694700  1
  Ni  Ni14  1  0.04934200  0.05141800  0.19305300  1
  Ni  Ni15  1  0.45065800  0.05141800  0.69305300  1
  Cu  Cu16  1  0.69901000  0.48394200  0.95582500  1
  Cu  Cu17  1  0.80099000  0.48394200  0.45582500  1
  Cu  Cu18  1  0.30099000  0.51605800  0.04417500  1
  Cu  Cu19  1  0.19901000  0.51605800  0.54417500  1
  Cu  Cu20  1  0.58714600  0.20214200  0.91953900  1
  Cu  Cu21  1  0.91285400  0.20214200  0.41953900  1
  Cu  Cu22  1  0.41285400  0.79785800  0.08046100  1
  Cu  Cu23  1  0.08714600  0.79785800  0.58046100  1
  Cu  Cu24  1  0.19336800  0.19032000  0.98291300  1
  Cu  Cu25  1  0.30663200  0.19032000  0.48291300  1
  Cu  Cu26  1  0.80663200  0.80968000  0.01708700  1
  Cu  Cu27  1  0.69336800  0.80968000  0.51708700  1
  Cu  Cu28  1  0.04853100  0.56346800  0.86739400  1
  Cu  Cu29  1  0.45146900  0.56346800  0.36739400  1
  Cu  Cu30  1  0.95146900  0.43653200  0.13260600  1
  Cu  Cu31  1  0.54853100  0.43653200  0.63260600  1
  Cu  Cu32  1  0.25296600  0.43966700  0.75084900  1
  Cu  Cu33  1  0.24703400  0.43966700  0.25084900  1
  Cu  Cu34  1  0.74703400  0.56033300  0.24915100  1
  Cu  Cu35  1  0.75296600  0.56033300  0.74915100  1
  Cu  Cu36  1  0.55382800  0.96642300  0.82851400  1
  Cu  Cu37  1  0.94617200  0.96642300  0.32851400  1
  Cu  Cu38  1  0.44617200  0.03357700  0.17148600  1
  Cu  Cu39  1  0.05382800  0.03357700  0.67148600  1
  Cu  Cu40  1  0.14489700  0.90700400  0.89401500  1
  Cu  Cu41  1  0.35510300  0.90700400  0.39401500  1
  Cu  Cu42  1  0.85510300  0.09299600  0.10598500  1
  Cu  Cu43  1  0.64489700  0.09299600  0.60598500  1
  Cu  Cu44  1  0.88758700  0.19971700  0.78177900  1
  Cu  Cu45  1  0.61241300  0.19971700  0.28177900  1
  Cu  Cu46  1  0.11241300  0.80028300  0.21822100  1
  Cu  Cu47  1  0.38758700  0.80028300  0.71822100  1
