# generated using pymatgen
data_Cu4NiC2
_symmetry_space_group_name_H-M   'P 1'
_cell_length_a   5.80815700
_cell_length_b   7.02692700
_cell_length_c   12.16652700
_cell_angle_alpha   90.00000000
_cell_angle_beta   90.00000000
_cell_angle_gamma   90.00000000
_symmetry_Int_Tables_number   1
_chemical_formula_structural   Cu4NiC2
_chemical_formula_sum   'Cu16 Ni4 C8'
_cell_volume   496.55849184
_cell_formula_units_Z   4
loop_
 _symmetry_equiv_pos_site_id
 _symmetry_equiv_pos_as_xyz
  1  'x, y, z'
loop_
 _atom_site_type_symbol
 _atom_site_label
 _atom_site_symmetry_multiplicity
 _atom_site_fract_x
 _atom_site_fract_y
 _atom_site_fract_z
 _atom_site_occupancy
  C  C0  1  0.50717400  0.75000000  0.73790400  1
  C  C1  1  0.00717400  0.25000000  0.76209600  1
  C  C2  1  0.00000000  0.00000000  0.50000000  1
  C  C3  1  0.49282600  0.25000000  0.26209600  1
  C  C4  1  0.99282600  0.75000000  0.23790400  1
  C  C5  1  0.50000000  0.00000000  0.00000000  1
  C  C6  1  0.50000000  0.50000000  0.00000000  1
  C  C7  1  0.00000000  0.50000000  0.50000000  1
  Ni  Ni8  1  0.90770200  0.25000000  0.08795900  1
  Ni  Ni9  1  0.09229800  0.75000000  0.91204100  1
  Ni  Ni10  1  0.59229800  0.25000000  0.58795900  1
  Ni  Ni11  1  0.40770200  0.75000000  0.41204100  1
  Cu  Cu12  1  0.25918200  0.75000000  0.57458400  1
  Cu  Cu13  1  0.22298300  0.25000000  0.59153300  1
  Cu  Cu14  1  0.25077400  0.50923600  0.83213600  1
  Cu  Cu15  1  0.74081800  0.25000000  0.42541600  1
  Cu  Cu16  1  0.75077400  0.00923600  0.66786400  1
  Cu  Cu17  1  0.75077400  0.49076400  0.66786400  1
  Cu  Cu18  1  0.24922600  0.50923600  0.33213600  1
  Cu  Cu19  1  0.27701700  0.25000000  0.09153300  1
  Cu  Cu20  1  0.24081800  0.75000000  0.07458400  1
  Cu  Cu21  1  0.72298300  0.75000000  0.90846700  1
  Cu  Cu22  1  0.25077400  0.99076400  0.83213600  1
  Cu  Cu23  1  0.77701700  0.75000000  0.40846700  1
  Cu  Cu24  1  0.74922600  0.00923600  0.16786400  1
  Cu  Cu25  1  0.75918200  0.25000000  0.92541600  1
  Cu  Cu26  1  0.24922600  0.99076400  0.33213600  1
  Cu  Cu27  1  0.74922600  0.49076400  0.16786400  1
