# generated using pymatgen
data_CuNiC9
_symmetry_space_group_name_H-M   'P 1'
_cell_length_a   6.77185082
_cell_length_b   6.77185082
_cell_length_c   6.77185079
_cell_angle_alpha   91.47306086
_cell_angle_beta   91.47306086
_cell_angle_gamma   91.47306337
_symmetry_Int_Tables_number   1
_chemical_formula_structural   CuNiC9
_chemical_formula_sum   'Cu2 Ni2 C18'
_cell_volume   310.23002027
_cell_formula_units_Z   2
loop_
 _symmetry_equiv_pos_site_id
 _symmetry_equiv_pos_as_xyz
  1  'x, y, z'
loop_
 _atom_site_type_symbol
 _atom_site_label
 _atom_site_symmetry_multiplicity
 _atom_site_fract_x
 _atom_site_fract_y
 _atom_site_fract_z
 _atom_site_occupancy
  C  C0  1  0.11339700  0.75000000  0.38660300  1
  C  C1  1  0.38660300  0.11339700  0.75000000  1
  C  C2  1  0.25000000  0.61339700  0.88660300  1
  C  C3  1  0.88660300  0.25000000  0.61339700  1
  C  C4  1  0.61339700  0.88660300  0.25000000  1
  C  C5  1  0.75000000  0.38660300  0.11339700  1
  Ni  Ni6  1  0.75000000  0.75000000  0.75000000  1
  Ni  Ni7  1  0.25000000  0.25000000  0.25000000  1
  Cu  Cu8  1  0.50000000  0.50000000  0.50000000  1
  Cu  Cu9  1  0.00000000  0.00000000  0.00000000  1
  C  C10  1  0.96037300  0.09320100  0.28683700  1
  C  C11  1  0.28683700  0.96037300  0.09320100  1
  C  C12  1  0.09320100  0.28683700  0.96037300  1
  C  C13  1  0.53962700  0.21316300  0.40679900  1
  C  C14  1  0.40679900  0.53962700  0.21316300  1
  C  C15  1  0.21316300  0.40679900  0.53962700  1
  C  C16  1  0.03962700  0.90679900  0.71316300  1
  C  C17  1  0.71316300  0.03962700  0.90679900  1
  C  C18  1  0.90679900  0.71316300  0.03962700  1
  C  C19  1  0.46037300  0.78683700  0.59320100  1
  C  C20  1  0.78683700  0.59320100  0.46037300  1
  C  C21  1  0.59320100  0.46037300  0.78683700  1
