# generated using pymatgen
data_CuNiC8
_symmetry_space_group_name_H-M   'P 1'
_cell_length_a   6.51416600
_cell_length_b   6.44655400
_cell_length_c   11.17568149
_cell_angle_alpha   54.91142626
_cell_angle_beta   90.00000000
_cell_angle_gamma   90.00000000
_symmetry_Int_Tables_number   1
_chemical_formula_structural   CuNiC8
_chemical_formula_sum   'Cu2 Ni2 C16'
_cell_volume   384.02023083
_cell_formula_units_Z   2
loop_
 _symmetry_equiv_pos_site_id
 _symmetry_equiv_pos_as_xyz
  1  'x, y, z'
loop_
 _atom_site_type_symbol
 _atom_site_label
 _atom_site_symmetry_multiplicity
 _atom_site_fract_x
 _atom_site_fract_y
 _atom_site_fract_z
 _atom_site_occupancy
  Ni  Ni0  1  0.00000000  0.50000000  0.50000000  1
  Ni  Ni1  1  0.50000000  0.50000000  0.00000000  1
  C  C2  1  0.46701500  0.24372500  0.74995900  1
  C  C3  1  0.96701500  0.75627500  0.75004100  1
  C  C4  1  0.53298500  0.75627500  0.25004100  1
  C  C5  1  0.03298500  0.24372500  0.24995900  1
  Cu  Cu6  1  0.00000000  0.00000000  0.00000000  1
  Cu  Cu7  1  0.50000000  0.00000000  0.50000000  1
  C  C8  1  0.75444800  0.86134400  0.46046100  1
  C  C9  1  0.25444800  0.13865600  0.03953900  1
  C  C10  1  0.24555200  0.13865600  0.53953900  1
  C  C11  1  0.74555200  0.86134400  0.96046100  1
  C  C12  1  0.68235100  0.22175900  0.53245100  1
  C  C13  1  0.18235100  0.77824100  0.96754900  1
  C  C14  1  0.31764900  0.77824100  0.46754900  1
  C  C15  1  0.81764900  0.22175900  0.03245100  1
  C  C16  1  0.97737200  0.71420500  0.21767000  1
  C  C17  1  0.47737200  0.28579500  0.28233000  1
  C  C18  1  0.02262800  0.28579500  0.78233000  1
  C  C19  1  0.52262800  0.71420500  0.71767000  1
