# generated using pymatgen
data_CuNiC3
_symmetry_space_group_name_H-M   'P 1'
_cell_length_a   8.16873500
_cell_length_b   8.92133800
_cell_length_c   9.30402277
_cell_angle_alpha   76.99717318
_cell_angle_beta   90.00000000
_cell_angle_gamma   90.00000000
_symmetry_Int_Tables_number   1
_chemical_formula_structural   CuNiC3
_chemical_formula_sum   'Cu8 Ni8 C24'
_cell_volume   660.65473392
_cell_formula_units_Z   8
loop_
 _symmetry_equiv_pos_site_id
 _symmetry_equiv_pos_as_xyz
  1  'x, y, z'
loop_
 _atom_site_type_symbol
 _atom_site_label
 _atom_site_symmetry_multiplicity
 _atom_site_fract_x
 _atom_site_fract_y
 _atom_site_fract_z
 _atom_site_occupancy
  Ni  Ni0  1  0.82427000  0.27209000  0.60414500  1
  Ni  Ni1  1  0.83476100  0.82481700  0.00592200  1
  Ni  Ni2  1  0.33476100  0.67518300  0.99407800  1
  Ni  Ni3  1  0.16523900  0.17518300  0.99407800  1
  Ni  Ni4  1  0.32427000  0.22791000  0.39585500  1
  Ni  Ni5  1  0.67573000  0.77209000  0.60414500  1
  Ni  Ni6  1  0.66523900  0.32481700  0.00592200  1
  Ni  Ni7  1  0.17573000  0.72791000  0.39585500  1
  Cu  Cu8  1  0.89950400  0.04959100  0.31995300  1
  Cu  Cu9  1  0.50555500  0.05226200  0.79592400  1
  Cu  Cu10  1  0.99444500  0.55226200  0.79592400  1
  Cu  Cu11  1  0.00555500  0.44773800  0.20407600  1
  Cu  Cu12  1  0.10049600  0.95040900  0.68004700  1
  Cu  Cu13  1  0.60049600  0.54959100  0.31995300  1
  Cu  Cu14  1  0.49444500  0.94773800  0.20407600  1
  Cu  Cu15  1  0.39950400  0.45040900  0.68004700  1
  C  C16  1  0.35135300  0.64115800  0.66102800  1
  C  C17  1  0.17738200  0.37459100  0.13208200  1
  C  C18  1  0.55041200  0.09906500  0.61179800  1
  C  C19  1  0.88890600  0.96140800  0.66379700  1
  C  C20  1  0.94958800  0.59906500  0.61179800  1
  C  C21  1  0.94868300  0.35577900  0.84377100  1
  C  C22  1  0.11109400  0.03859200  0.33620300  1
  C  C23  1  0.37910200  0.37629700  0.86986200  1
  C  C24  1  0.05041200  0.40093500  0.38820200  1
  C  C25  1  0.87910200  0.12370300  0.13013800  1
  C  C26  1  0.38890600  0.53859200  0.33620300  1
  C  C27  1  0.05131700  0.64422100  0.15622900  1
  C  C28  1  0.14864700  0.14115800  0.66102800  1
  C  C29  1  0.64864700  0.35884200  0.33897200  1
  C  C30  1  0.44868300  0.14422100  0.15622900  1
  C  C31  1  0.61109400  0.46140800  0.66379700  1
  C  C32  1  0.55131700  0.85577900  0.84377100  1
  C  C33  1  0.12089800  0.87629700  0.86986200  1
  C  C34  1  0.67738200  0.12540900  0.86791800  1
  C  C35  1  0.82261800  0.62540900  0.86791800  1
  C  C36  1  0.32261800  0.87459100  0.13208200  1
  C  C37  1  0.44958800  0.90093500  0.38820200  1
  C  C38  1  0.85135300  0.85884200  0.33897200  1
  C  C39  1  0.62089800  0.62370300  0.13013800  1
