# generated using pymatgen
data_Cu10Ni19C5
_symmetry_space_group_name_H-M   'P 1'
_cell_length_a   39.65402459
_cell_length_b   23.06241037
_cell_length_c   30.61521616
_cell_angle_alpha   13.67561821
_cell_angle_beta   15.14812226
_cell_angle_gamma   9.99525927
_symmetry_Int_Tables_number   1
_chemical_formula_structural   Cu10Ni19C5
_chemical_formula_sum   'Cu20 Ni38 C10'
_cell_volume   1124.87227575
_cell_formula_units_Z   2
loop_
 _symmetry_equiv_pos_site_id
 _symmetry_equiv_pos_as_xyz
  1  'x, y, z'
loop_
 _atom_site_type_symbol
 _atom_site_label
 _atom_site_symmetry_multiplicity
 _atom_site_fract_x
 _atom_site_fract_y
 _atom_site_fract_z
 _atom_site_occupancy
  C  C0  1  0.99811117  0.00188042  0.00171394  1
  C  C1  1  0.20137077  0.99644745  0.00032194  1
  C  C2  1  0.40011185  0.99713469  0.00215268  1
  C  C3  1  0.60024809  0.00159631  0.99794656  1
  C  C4  1  0.79997642  0.99696856  0.00158944  1
  C  C5  1  0.99988430  0.00287000  0.49784969  1
  C  C6  1  0.19862794  0.00355935  0.49967648  1
  C  C7  1  0.40188682  0.99812910  0.49828341  1
  C  C8  1  0.60001803  0.00303819  0.49841458  1
  C  C9  1  0.79975139  0.99840733  0.50205225  1
  Ni  Ni10  1  0.14273037  0.14374311  0.07112100  1
  Ni  Ni11  1  0.02657162  0.43448735  0.21858403  1
  Ni  Ni12  1  0.35523528  0.11292992  0.07732492  1
  Ni  Ni13  1  0.22334918  0.44017678  0.21821183  1
  Ni  Ni14  1  0.14162355  0.14735462  0.56961977  1
  Ni  Ni15  1  0.54199275  0.14398284  0.07170834  1
  Ni  Ni16  1  0.17665474  0.55982239  0.28178341  1
  Ni  Ni17  1  0.02384178  0.43735588  0.71969842  1
  Ni  Ni18  1  0.42441758  0.43804926  0.21835617  1
  Ni  Ni19  1  0.34062862  0.14682307  0.57211023  1
  Ni  Ni20  1  0.04478495  0.88699631  0.42270264  1
  Ni  Ni21  1  0.74223374  0.14433275  0.07168439  1
  Ni  Ni22  1  0.37342285  0.56552285  0.28141708  1
  Ni  Ni23  1  0.22573902  0.43679862  0.71769083  1
  Ni  Ni24  1  0.54630858  0.15382372  0.55784839  1
  Ni  Ni25  1  0.25726465  0.85626039  0.42888529  1
  Ni  Ni26  1  0.92952391  0.15583546  0.07730879  1
  Ni  Ni27  1  0.17426043  0.56321893  0.78230258  1
  Ni  Ni28  1  0.57498231  0.56481284  0.28050598  1
  Ni  Ni29  1  0.42484260  0.43647619  0.71910237  1
  Ni  Ni30  1  0.82504609  0.43518784  0.21945153  1
  Ni  Ni31  1  0.05937468  0.85316918  0.92789455  1
  Ni  Ni32  1  0.74206136  0.13887633  0.57485493  1
  Ni  Ni33  1  0.47050338  0.84415394  0.42266876  1
  Ni  Ni34  1  0.37614396  0.56265647  0.78030038  1
  Ni  Ni35  1  0.62574968  0.43615888  0.71812319  1
  Ni  Ni36  1  0.25835736  0.85267136  0.93038509  1
  Ni  Ni37  1  0.94580491  0.13848630  0.57100229  1
  Ni  Ni38  1  0.65778755  0.85562441  0.42832516  1
  Ni  Ni39  1  0.57539468  0.56081731  0.78280630  1
  Ni  Ni40  1  0.97558690  0.56195117  0.28164360  1
  Ni  Ni41  1  0.82459774  0.43914244  0.71722672  1
  Ni  Ni42  1  0.45417089  0.86157316  0.92898449  1
  Ni  Ni43  1  0.85800894  0.85601106  0.42829544  1
  Ni  Ni44  1  0.77424990  0.56381000  0.78186883  1
  Ni  Ni45  1  0.65793894  0.86113055  0.92514106  1
  Ni  Ni46  1  0.97514587  0.56354348  0.78089592  1
  Ni  Ni47  1  0.85369248  0.84616800  0.94216148  1
  Cu  Cu48  1  0.08890719  0.26138639  0.13035171  1
  Cu  Cu49  1  0.29937917  0.25158544  0.12574580  1
  Cu  Cu50  1  0.09857569  0.25226442  0.62688610  1
  Cu  Cu51  1  0.50993694  0.22506514  0.13119175  1
  Cu  Cu52  1  0.10062309  0.74841749  0.37425143  1
  Cu  Cu53  1  0.30004955  0.25171425  0.62562607  1
  Cu  Cu54  1  0.69991207  0.25059774  0.12639886  1
  Cu  Cu55  1  0.31109188  0.73861728  0.36964816  1
  Cu  Cu56  1  0.50000702  0.25322459  0.62383080  1
  Cu  Cu57  1  0.89965133  0.24989528  0.12653954  1
  Cu  Cu58  1  0.09994606  0.74828392  0.87438224  1
  Cu  Cu59  1  0.50035116  0.75010738  0.37345657  1
  Cu  Cu60  1  0.70376625  0.25967537  0.61281330  1
  Cu  Cu61  1  0.30142615  0.74773819  0.87311017  1
  Cu  Cu62  1  0.70008627  0.74940427  0.37360413  1
  Cu  Cu63  1  0.89910627  0.25349943  0.62542535  1
  Cu  Cu64  1  0.50088811  0.74651305  0.87457378  1
  Cu  Cu65  1  0.89006054  0.77494293  0.36880656  1
  Cu  Cu66  1  0.69623124  0.74032440  0.88719162  1
  Cu  Cu67  1  0.89999344  0.74677653  0.87616892  1
