# generated using pymatgen
data_Cu3(NiC7)2
_symmetry_space_group_name_H-M   'P 1'
_cell_length_a   10.29542600
_cell_length_b   10.29542600
_cell_length_c   10.29542600
_cell_angle_alpha   90.00000000
_cell_angle_beta   90.00000000
_cell_angle_gamma   90.00000000
_symmetry_Int_Tables_number   1
_chemical_formula_structural   Cu3(NiC7)2
_chemical_formula_sum   'Cu12 Ni8 C56'
_cell_volume   1091.27187940
_cell_formula_units_Z   4
loop_
 _symmetry_equiv_pos_site_id
 _symmetry_equiv_pos_as_xyz
  1  'x, y, z'
loop_
 _atom_site_type_symbol
 _atom_site_label
 _atom_site_symmetry_multiplicity
 _atom_site_fract_x
 _atom_site_fract_y
 _atom_site_fract_z
 _atom_site_occupancy
  C  C0  1  0.19417100  0.30582900  0.69417100  1
  C  C1  1  0.30582900  0.69417100  0.19417100  1
  C  C2  1  0.69417100  0.19417100  0.30582900  1
  C  C3  1  0.80582900  0.80582900  0.80582900  1
  C  C4  1  0.07441100  0.07441100  0.07441100  1
  C  C5  1  0.42558900  0.92558900  0.57441100  1
  C  C6  1  0.57441100  0.42558900  0.92558900  1
  C  C7  1  0.92558900  0.57441100  0.42558900  1
  Ni  Ni8  1  0.08985000  0.91015000  0.41015000  1
  Ni  Ni9  1  0.16920100  0.66920100  0.83079900  1
  Ni  Ni10  1  0.33079900  0.33079900  0.33079900  1
  Ni  Ni11  1  0.41015000  0.08985000  0.91015000  1
  Ni  Ni12  1  0.58985000  0.58985000  0.58985000  1
  Ni  Ni13  1  0.66920100  0.83079900  0.16920100  1
  Ni  Ni14  1  0.83079900  0.16920100  0.66920100  1
  Ni  Ni15  1  0.91015000  0.41015000  0.08985000  1
  Cu  Cu16  1  0.01356700  0.22406900  0.37306800  1
  Cu  Cu17  1  0.12693200  0.98643300  0.72406900  1
  Cu  Cu18  1  0.22406900  0.37306800  0.01356700  1
  Cu  Cu19  1  0.27593100  0.62693200  0.51356700  1
  Cu  Cu20  1  0.37306800  0.01356700  0.22406900  1
  Cu  Cu21  1  0.48643300  0.77593100  0.87306800  1
  Cu  Cu22  1  0.51356700  0.27593100  0.62693200  1
  Cu  Cu23  1  0.62693200  0.51356700  0.27593100  1
  Cu  Cu24  1  0.72406900  0.12693200  0.98643300  1
  Cu  Cu25  1  0.77593100  0.87306800  0.48643300  1
  Cu  Cu26  1  0.87306800  0.48643300  0.77593100  1
  Cu  Cu27  1  0.98643300  0.72406900  0.12693200  1
  C  C28  1  0.02588100  0.08607100  0.31062900  1
  C  C29  1  0.01477600  0.08544300  0.71975800  1
  C  C30  1  0.04710100  0.81804300  0.22565300  1
  C  C31  1  0.07719600  0.85165300  0.77126300  1
  C  C32  1  0.08607100  0.31062900  0.02588100  1
  C  C33  1  0.08544300  0.71975800  0.01477600  1
  C  C34  1  0.14834700  0.27126300  0.42280400  1
  C  C35  1  0.18195700  0.72565300  0.45289900  1
  C  C36  1  0.21975800  0.48522400  0.91455700  1
  C  C37  1  0.18937100  0.97411900  0.58607100  1
  C  C38  1  0.22565300  0.04710100  0.81804300  1
  C  C39  1  0.22873700  0.57719600  0.64834700  1
  C  C40  1  0.27126300  0.42280400  0.14834700  1
  C  C41  1  0.27434700  0.95289900  0.31804300  1
  C  C42  1  0.31062900  0.02588100  0.08607100  1
  C  C43  1  0.28024200  0.51477600  0.41455700  1
  C  C44  1  0.31804300  0.27434700  0.95289900  1
  C  C45  1  0.35165300  0.72873700  0.92280400  1
  C  C46  1  0.41455700  0.28024200  0.51477600  1
  C  C47  1  0.41392900  0.68937100  0.52588100  1
  C  C48  1  0.42280400  0.14834700  0.27126300  1
  C  C49  1  0.45289900  0.18195700  0.72565300  1
  C  C50  1  0.48522400  0.91455700  0.21975800  1
  C  C51  1  0.47411900  0.91392900  0.81062900  1
  C  C52  1  0.52588100  0.41392900  0.68937100  1
  C  C53  1  0.51477600  0.41455700  0.28024200  1
  C  C54  1  0.54710100  0.68195700  0.77434700  1
  C  C55  1  0.57719600  0.64834700  0.22873700  1
  C  C56  1  0.58607100  0.18937100  0.97411900  1
  C  C57  1  0.58544300  0.78024200  0.98522400  1
  C  C58  1  0.64834700  0.22873700  0.57719600  1
  C  C59  1  0.68195700  0.77434700  0.54710100  1
  C  C60  1  0.71975800  0.01477600  0.08544300  1
  C  C61  1  0.68937100  0.52588100  0.41392900  1
  C  C62  1  0.72565300  0.45289900  0.18195700  1
  C  C63  1  0.72873700  0.92280400  0.35165300  1
  C  C64  1  0.77126300  0.07719600  0.85165300  1
  C  C65  1  0.77434700  0.54710100  0.68195700  1
  C  C66  1  0.81062900  0.47411900  0.91392900  1
  C  C67  1  0.78024200  0.98522400  0.58544300  1
  C  C68  1  0.81804300  0.22565300  0.04710100  1
  C  C69  1  0.85165300  0.77126300  0.07719600  1
  C  C70  1  0.91455700  0.21975800  0.48522400  1
  C  C71  1  0.91392900  0.81062900  0.47411900  1
  C  C72  1  0.92280400  0.35165300  0.72873700  1
  C  C73  1  0.95289900  0.31804300  0.27434700  1
  C  C74  1  0.98522400  0.58544300  0.78024200  1
  C  C75  1  0.97411900  0.58607100  0.18937100  1
