# generated using pymatgen
data_Cu2Ni2C
_symmetry_space_group_name_H-M   'P 1'
_cell_length_a   8.67996500
_cell_length_b   9.20605932
_cell_length_c   11.96733213
_cell_angle_alpha   91.53441991
_cell_angle_beta   98.86325161
_cell_angle_gamma   117.32578398
_symmetry_Int_Tables_number   1
_chemical_formula_structural   Cu2Ni2C
_chemical_formula_sum   'Cu20 Ni20 C10'
_cell_volume   834.23752505
_cell_formula_units_Z   10
loop_
 _symmetry_equiv_pos_site_id
 _symmetry_equiv_pos_as_xyz
  1  'x, y, z'
loop_
 _atom_site_type_symbol
 _atom_site_label
 _atom_site_symmetry_multiplicity
 _atom_site_fract_x
 _atom_site_fract_y
 _atom_site_fract_z
 _atom_site_occupancy
  C  C0  1  0.97576200  0.44007000  0.88033000  1
  C  C1  1  0.99428100  0.36977500  0.69105200  1
  C  C2  1  0.00571900  0.63022500  0.30894800  1
  C  C3  1  0.02423800  0.55993000  0.11967000  1
  C  C4  1  0.97647400  0.54894900  0.75128900  1
  C  C5  1  0.88554000  0.23478300  0.79744400  1
  C  C6  1  0.60812600  0.31375600  0.71131500  1
  C  C7  1  0.39187400  0.68624400  0.28868500  1
  C  C8  1  0.11446000  0.76521700  0.20255600  1
  C  C9  1  0.02352600  0.45105100  0.24871100  1
  Ni  Ni10  1  0.35385400  0.74862600  0.43526000  1
  Ni  Ni11  1  0.39009500  0.11593500  0.70381800  1
  Ni  Ni12  1  0.76927900  0.33244000  0.21556600  1
  Ni  Ni13  1  0.93685100  0.71338400  0.82080500  1
  Ni  Ni14  1  0.20835900  0.96097000  0.30394400  1
  Ni  Ni15  1  0.37089200  0.61976100  0.12840800  1
  Ni  Ni16  1  0.64614600  0.25137400  0.56474000  1
  Ni  Ni17  1  0.62910800  0.38023900  0.87159200  1
  Ni  Ni18  1  0.79164100  0.03903000  0.69605600  1
  Ni  Ni19  1  0.94742000  0.63174500  0.61004100  1
  Ni  Ni20  1  0.89807000  0.76835900  0.14257600  1
  Ni  Ni21  1  0.10193000  0.23164100  0.85742400  1
  Ni  Ni22  1  0.24171900  0.88813100  0.09199000  1
  Ni  Ni23  1  0.05258000  0.36825500  0.38995900  1
  Ni  Ni24  1  0.51470800  0.45577500  0.65523800  1
  Ni  Ni25  1  0.48529200  0.54422500  0.34476200  1
  Ni  Ni26  1  0.75828100  0.11186900  0.90801000  1
  Ni  Ni27  1  0.60990500  0.88406500  0.29618200  1
  Ni  Ni28  1  0.06314900  0.28661600  0.17919500  1
  Ni  Ni29  1  0.23072100  0.66756000  0.78443400  1
  Cu  Cu30  1  0.91064700  0.81177800  0.86501000  1
  Cu  Cu31  1  0.61660900  0.25660100  0.19831400  1
  Cu  Cu32  1  0.68445900  0.04239600  0.97835900  1
  Cu  Cu33  1  0.64296600  0.42082900  0.96687400  1
  Cu  Cu34  1  0.25287700  0.00110200  0.69816500  1
  Cu  Cu35  1  0.31554100  0.95760400  0.02164100  1
  Cu  Cu36  1  0.45631300  0.54086800  0.62149700  1
  Cu  Cu37  1  0.08935300  0.18822200  0.13499000  1
  Cu  Cu38  1  0.25987500  0.07677100  0.36877200  1
  Cu  Cu39  1  0.33231400  0.78819100  0.52202400  1
  Cu  Cu40  1  0.22887300  0.22373300  0.89541200  1
  Cu  Cu41  1  0.38339100  0.74339900  0.80168600  1
  Cu  Cu42  1  0.07263700  0.32019200  0.47690500  1
  Cu  Cu43  1  0.35703400  0.57917100  0.03312600  1
  Cu  Cu44  1  0.74712300  0.99889800  0.30183500  1
  Cu  Cu45  1  0.74012500  0.92322900  0.63122800  1
  Cu  Cu46  1  0.54368700  0.45913200  0.37850300  1
  Cu  Cu47  1  0.77112700  0.77626700  0.10458800  1
  Cu  Cu48  1  0.92736300  0.67980800  0.52309500  1
  Cu  Cu49  1  0.66768600  0.21180900  0.47797600  1
