# generated using pymatgen
data_CuNiC16
_symmetry_space_group_name_H-M   'P 1'
_cell_length_a   8.96468069
_cell_length_b   8.96468069
_cell_length_c   9.70779369
_cell_angle_alpha   57.31668253
_cell_angle_beta   57.31668253
_cell_angle_gamma   46.87924832
_symmetry_Int_Tables_number   1
_chemical_formula_structural   CuNiC16
_chemical_formula_sum   'Cu2 Ni2 C32'
_cell_volume   460.37947318
_cell_formula_units_Z   2
loop_
 _symmetry_equiv_pos_site_id
 _symmetry_equiv_pos_as_xyz
  1  'x, y, z'
loop_
 _atom_site_type_symbol
 _atom_site_label
 _atom_site_symmetry_multiplicity
 _atom_site_fract_x
 _atom_site_fract_y
 _atom_site_fract_z
 _atom_site_occupancy
  Ni  Ni0  1  0.79318500  0.20681500  0.25000000  1
  Ni  Ni1  1  0.20681500  0.79318500  0.75000000  1
  Cu  Cu2  1  0.29605800  0.70394200  0.25000000  1
  Cu  Cu3  1  0.70394200  0.29605800  0.75000000  1
  C  C4  1  0.79515300  0.49540400  0.30660600  1
  C  C5  1  0.50459600  0.20484700  0.19339400  1
  C  C6  1  0.20484700  0.50459600  0.69339400  1
  C  C7  1  0.49540400  0.79515300  0.80660600  1
  C  C8  1  0.18813700  0.08586300  0.38366200  1
  C  C9  1  0.91413700  0.81186300  0.11633800  1
  C  C10  1  0.81186300  0.91413700  0.61633800  1
  C  C11  1  0.08586300  0.18813700  0.88366200  1
  C  C12  1  0.74126100  0.50803600  0.47684400  1
  C  C13  1  0.49196400  0.25873900  0.02315600  1
  C  C14  1  0.25873900  0.49196400  0.52315600  1
  C  C15  1  0.50803600  0.74126100  0.97684400  1
  C  C16  1  0.65423500  0.48966700  0.27298400  1
  C  C17  1  0.51033300  0.34576500  0.22701600  1
  C  C18  1  0.34576500  0.51033300  0.72701600  1
  C  C19  1  0.48966700  0.65423500  0.77298400  1
  C  C20  1  0.89976300  0.32306100  0.81572400  1
  C  C21  1  0.67693900  0.10023700  0.68427600  1
  C  C22  1  0.10023700  0.67693900  0.18427600  1
  C  C23  1  0.32306100  0.89976300  0.31572400  1
  C  C24  1  0.06220600  0.07116400  0.07105000  1
  C  C25  1  0.92883600  0.93779400  0.42895000  1
  C  C26  1  0.93779400  0.92883600  0.92895000  1
  C  C27  1  0.07116400  0.06220600  0.57105000  1
  C  C28  1  0.16623800  0.32446300  0.84688400  1
  C  C29  1  0.67553700  0.83376200  0.65311600  1
  C  C30  1  0.83376200  0.67553700  0.15311600  1
  C  C31  1  0.32446300  0.16623800  0.34688400  1
  C  C32  1  0.28263300  0.02809700  0.76761200  1
  C  C33  1  0.97190300  0.71736700  0.73238800  1
  C  C34  1  0.71736700  0.97190300  0.23238800  1
  C  C35  1  0.02809700  0.28263300  0.26761200  1
