# generated using pymatgen
data_Cu2Ni4C5
_symmetry_space_group_name_H-M   'P 1'
_cell_length_a   6.73238600
_cell_length_b   6.82820400
_cell_length_c   19.39860100
_cell_angle_alpha   90.00000000
_cell_angle_beta   90.00000000
_cell_angle_gamma   90.00000000
_symmetry_Int_Tables_number   1
_chemical_formula_structural   Cu2Ni4C5
_chemical_formula_sum   'Cu8 Ni16 C20'
_cell_volume   891.75572511
_cell_formula_units_Z   4
loop_
 _symmetry_equiv_pos_site_id
 _symmetry_equiv_pos_as_xyz
  1  'x, y, z'
loop_
 _atom_site_type_symbol
 _atom_site_label
 _atom_site_symmetry_multiplicity
 _atom_site_fract_x
 _atom_site_fract_y
 _atom_site_fract_z
 _atom_site_occupancy
  C  C0  1  0.50000000  0.50000000  0.50000000  1
  C  C1  1  0.50000000  0.00000000  0.00000000  1
  C  C2  1  0.00000000  0.50000000  0.50000000  1
  C  C3  1  0.00000000  0.00000000  0.00000000  1
  Ni  Ni4  1  0.04881800  0.38264500  0.87052700  1
  Ni  Ni5  1  0.04881800  0.11735500  0.37052700  1
  Ni  Ni6  1  0.54881800  0.61735500  0.12947300  1
  Ni  Ni7  1  0.45118200  0.11735500  0.37052700  1
  Ni  Ni8  1  0.25000000  0.44474700  0.32987300  1
  Ni  Ni9  1  0.54881800  0.88264500  0.62947300  1
  Ni  Ni10  1  0.25000000  0.36797900  0.74836600  1
  Ni  Ni11  1  0.75000000  0.63202100  0.25163400  1
  Ni  Ni12  1  0.75000000  0.94474700  0.17012700  1
  Ni  Ni13  1  0.95118200  0.88264500  0.62947300  1
  Ni  Ni14  1  0.95118200  0.61735500  0.12947300  1
  Ni  Ni15  1  0.25000000  0.05525300  0.82987300  1
  Ni  Ni16  1  0.75000000  0.86797900  0.75163400  1
  Ni  Ni17  1  0.75000000  0.55525300  0.67012700  1
  Ni  Ni18  1  0.25000000  0.13202100  0.24836600  1
  Ni  Ni19  1  0.45118200  0.38264500  0.87052700  1
  C  C20  1  0.05693500  0.05235400  0.29030000  1
  C  C21  1  0.44306500  0.44764600  0.79030000  1
  C  C22  1  0.55693500  0.55235400  0.20970000  1
  C  C23  1  0.05803200  0.14509900  0.87100900  1
  C  C24  1  0.55803200  0.64509900  0.62899100  1
  C  C25  1  0.55693500  0.94764600  0.70970000  1
  C  C26  1  0.05693500  0.44764600  0.79030000  1
  C  C27  1  0.44306500  0.05235400  0.29030000  1
  C  C28  1  0.94196800  0.64509900  0.62899100  1
  C  C29  1  0.05803200  0.35490100  0.37100900  1
  C  C30  1  0.94196800  0.85490100  0.12899100  1
  C  C31  1  0.55803200  0.85490100  0.12899100  1
  C  C32  1  0.94306500  0.55235400  0.20970000  1
  C  C33  1  0.44196800  0.14509900  0.87100900  1
  C  C34  1  0.94306500  0.94764600  0.70970000  1
  C  C35  1  0.44196800  0.35490100  0.37100900  1
  Cu  Cu36  1  0.25000000  0.72514800  0.48181100  1
  Cu  Cu37  1  0.75000000  0.27485200  0.51818900  1
  Cu  Cu38  1  0.75000000  0.79595000  0.96056400  1
  Cu  Cu39  1  0.25000000  0.29595000  0.53943600  1
  Cu  Cu40  1  0.25000000  0.77485200  0.98181100  1
  Cu  Cu41  1  0.25000000  0.20405000  0.03943600  1
  Cu  Cu42  1  0.75000000  0.22514800  0.01818900  1
  Cu  Cu43  1  0.75000000  0.70405000  0.46056400  1
