# generated using pymatgen
data_Cu12Ni3C4
_symmetry_space_group_name_H-M   'P 1'
_cell_length_a   10.90333900
_cell_length_b   12.32467400
_cell_length_c   12.33065900
_cell_angle_alpha   90.00000000
_cell_angle_beta   90.00000000
_cell_angle_gamma   90.00000000
_symmetry_Int_Tables_number   1
_chemical_formula_structural   Cu12Ni3C4
_chemical_formula_sum   'Cu48 Ni12 C16'
_cell_volume   1656.99517329
_cell_formula_units_Z   4
loop_
 _symmetry_equiv_pos_site_id
 _symmetry_equiv_pos_as_xyz
  1  'x, y, z'
loop_
 _atom_site_type_symbol
 _atom_site_label
 _atom_site_symmetry_multiplicity
 _atom_site_fract_x
 _atom_site_fract_y
 _atom_site_fract_z
 _atom_site_occupancy
  C  C0  1  0.86430000  0.95661600  0.82611200  1
  C  C1  1  0.63570000  0.04338400  0.32611200  1
  C  C2  1  0.07973200  0.81529100  0.29148900  1
  C  C3  1  0.57973200  0.68470900  0.70851100  1
  C  C4  1  0.36430000  0.54338400  0.17388800  1
  C  C5  1  0.42026800  0.18470900  0.79148900  1
  C  C6  1  0.13570000  0.45661600  0.67388800  1
  C  C7  1  0.92026800  0.31529100  0.20851100  1
  C  C8  1  0.78043800  0.74155300  0.03991900  1
  C  C9  1  0.71956200  0.25844700  0.53991900  1
  C  C10  1  0.95046700  0.12556200  0.40737800  1
  C  C11  1  0.28043800  0.75844700  0.96008100  1
  C  C12  1  0.54953300  0.87443800  0.90737800  1
  C  C13  1  0.45046700  0.37443800  0.59262200  1
  C  C14  1  0.04953300  0.62556200  0.09262200  1
  C  C15  1  0.21956200  0.24155300  0.46008100  1
  Ni  Ni16  1  0.10942200  0.67772500  0.85366400  1
  Ni  Ni17  1  0.39057800  0.32227500  0.35366400  1
  Ni  Ni18  1  0.46271300  0.74712000  0.38126500  1
  Ni  Ni19  1  0.03728700  0.25288000  0.88126500  1
  Ni  Ni20  1  0.69288000  0.52873400  0.12095700  1
  Ni  Ni21  1  0.89057800  0.17772500  0.64633600  1
  Ni  Ni22  1  0.80712000  0.47126600  0.62095700  1
  Ni  Ni23  1  0.53728700  0.24712000  0.11873500  1
  Ni  Ni24  1  0.30712000  0.02873400  0.37904300  1
  Ni  Ni25  1  0.19288000  0.97126600  0.87904300  1
  Ni  Ni26  1  0.96271300  0.75288000  0.61873500  1
  Ni  Ni27  1  0.60942200  0.82227500  0.14633600  1
  Cu  Cu28  1  0.31109500  0.67475200  0.63908600  1
  Cu  Cu29  1  0.29279600  0.33934900  0.56643400  1
  Cu  Cu30  1  0.52989200  0.73020900  0.19154200  1
  Cu  Cu31  1  0.93473500  0.26539800  0.95583100  1
  Cu  Cu32  1  0.97010800  0.26979100  0.69154200  1
  Cu  Cu33  1  0.79709500  0.41406400  0.51218300  1
  Cu  Cu34  1  0.24698300  0.09312200  0.29308600  1
  Cu  Cu35  1  0.83457300  0.73244600  0.39294100  1
  Cu  Cu36  1  0.04494200  0.24084800  0.42773600  1
  Cu  Cu37  1  0.38240300  0.65349100  0.36682700  1
  Cu  Cu38  1  0.33457300  0.76755400  0.60705900  1
  Cu  Cu39  1  0.77071200  0.58726000  0.61519200  1
  Cu  Cu40  1  0.72928800  0.41274000  0.11519200  1
  Cu  Cu41  1  0.88240300  0.84650900  0.63317300  1
  Cu  Cu42  1  0.02989200  0.76979100  0.80845800  1
  Cu  Cu43  1  0.70720400  0.83934900  0.93356600  1
  Cu  Cu44  1  0.44972700  0.40474200  0.72398400  1
  Cu  Cu45  1  0.54494200  0.25915200  0.57226400  1
  Cu  Cu46  1  0.11759700  0.34650900  0.86682700  1
  Cu  Cu47  1  0.70290500  0.58593600  0.01218300  1
  Cu  Cu48  1  0.66542700  0.26755400  0.89294100  1
  Cu  Cu49  1  0.16542700  0.23244600  0.10705900  1
  Cu  Cu50  1  0.20720400  0.66065100  0.06643400  1
  Cu  Cu51  1  0.05027300  0.59525800  0.22398400  1
  Cu  Cu52  1  0.99546600  0.02447100  0.48456700  1
  Cu  Cu53  1  0.79279600  0.16065100  0.43356600  1
  Cu  Cu54  1  0.94972700  0.09525800  0.27601600  1
  Cu  Cu55  1  0.75301700  0.59312200  0.20691400  1
  Cu  Cu56  1  0.25301700  0.90687800  0.79308600  1
  Cu  Cu57  1  0.47010800  0.23020900  0.30845800  1
  Cu  Cu58  1  0.68890500  0.17475200  0.86091400  1
  Cu  Cu59  1  0.29709500  0.08593600  0.48781700  1
  Cu  Cu60  1  0.50453400  0.97552900  0.98456700  1
  Cu  Cu61  1  0.27071200  0.91274000  0.38480800  1
  Cu  Cu62  1  0.22928800  0.08726000  0.88480800  1
  Cu  Cu63  1  0.61759700  0.15349100  0.13317300  1
  Cu  Cu64  1  0.74698300  0.40687800  0.70691400  1
  Cu  Cu65  1  0.81109500  0.82524800  0.36091400  1
  Cu  Cu66  1  0.49546600  0.47552900  0.51543300  1
  Cu  Cu67  1  0.56526500  0.73460200  0.45583100  1
  Cu  Cu68  1  0.20290500  0.91406400  0.98781700  1
  Cu  Cu69  1  0.45505800  0.75915200  0.92773600  1
  Cu  Cu70  1  0.00453400  0.52447100  0.01543300  1
  Cu  Cu71  1  0.06526500  0.76539800  0.54416900  1
  Cu  Cu72  1  0.55027300  0.90474200  0.77601600  1
  Cu  Cu73  1  0.43473500  0.23460200  0.04416900  1
  Cu  Cu74  1  0.18890500  0.32524800  0.13908600  1
  Cu  Cu75  1  0.95505800  0.74084800  0.07226400  1
