# generated using pymatgen
data_CuNi4C17
_symmetry_space_group_name_H-M   'P 1'
_cell_length_a   8.61498200
_cell_length_b   11.41719600
_cell_length_c   15.09296200
_cell_angle_alpha   90.00000000
_cell_angle_beta   90.00000000
_cell_angle_gamma   90.00000000
_symmetry_Int_Tables_number   1
_chemical_formula_structural   CuNi4C17
_chemical_formula_sum   'Cu8 Ni32 C136'
_cell_volume   1484.52771405
_cell_formula_units_Z   8
loop_
 _symmetry_equiv_pos_site_id
 _symmetry_equiv_pos_as_xyz
  1  'x, y, z'
loop_
 _atom_site_type_symbol
 _atom_site_label
 _atom_site_symmetry_multiplicity
 _atom_site_fract_x
 _atom_site_fract_y
 _atom_site_fract_z
 _atom_site_occupancy
  C  C0  1  0.26614000  0.61883500  0.03954400  1
  C  C1  1  0.67279800  0.47411800  0.13939600  1
  C  C2  1  0.04194600  0.86066400  0.42877900  1
  C  C3  1  0.53113200  0.85604200  0.19014300  1
  C  C4  1  0.95805400  0.36066400  0.07122100  1
  C  C5  1  0.45805400  0.13933600  0.92877900  1
  C  C6  1  0.36003100  0.22059600  0.61865200  1
  C  C7  1  0.87539000  0.26185800  0.62992700  1
  C  C8  1  0.76382400  0.61774700  0.93799900  1
  C  C9  1  0.37539000  0.26185800  0.87007300  1
  C  C10  1  0.03113200  0.85604200  0.30985700  1
  C  C11  1  0.87539000  0.23814200  0.12992700  1
  C  C12  1  0.61272600  0.22409400  0.51633000  1
  C  C13  1  0.67279800  0.02588200  0.63939600  1
  C  C14  1  0.25718500  0.61958800  0.68175200  1
  C  C15  1  0.13996900  0.72059600  0.61865200  1
  C  C16  1  0.36648600  0.71843900  0.26269900  1
  C  C17  1  0.04616900  0.40186200  0.70400800  1
  C  C18  1  0.09888100  0.42252900  0.90287100  1
  C  C19  1  0.24281500  0.11958800  0.68175200  1
  C  C20  1  0.36003100  0.27940400  0.11865200  1
  C  C21  1  0.02513300  0.10593100  0.04400300  1
  C  C22  1  0.25282800  0.37996900  0.69854700  1
  C  C23  1  0.45383100  0.59813800  0.20400800  1
  C  C24  1  0.76614000  0.88116500  0.96045600  1
  C  C25  1  0.09888100  0.07747100  0.40287100  1
  C  C26  1  0.24717200  0.62003100  0.19854700  1
  C  C27  1  0.88727400  0.77590600  0.01633000  1
  C  C28  1  0.53113200  0.64395800  0.69014300  1
  C  C29  1  0.97486700  0.60593100  0.45599700  1
  C  C30  1  0.11272600  0.27590600  0.48367000  1
  C  C31  1  0.47486700  0.89406900  0.54400300  1
  C  C32  1  0.97486700  0.89406900  0.95599700  1
  C  C33  1  0.12461000  0.73814200  0.37007300  1
  C  C34  1  0.76614000  0.61883500  0.46045600  1
  C  C35  1  0.24717200  0.87996900  0.69854700  1
  C  C36  1  0.59888100  0.42252900  0.59712900  1
  C  C37  1  0.63351400  0.28156100  0.73730100  1
  C  C38  1  0.90111900  0.57747100  0.09712900  1
  C  C39  1  0.82720200  0.97411800  0.13939600  1
  C  C40  1  0.63996900  0.77940400  0.38134800  1
  C  C41  1  0.23386000  0.11883500  0.03954400  1
  C  C42  1  0.13351400  0.28156100  0.76269900  1
  C  C43  1  0.63996900  0.72059600  0.88134800  1
  C  C44  1  0.86003100  0.22059600  0.88134800  1
  C  C45  1  0.73617600  0.38225300  0.43799900  1
  C  C46  1  0.13996900  0.77940400  0.11865200  1
  C  C47  1  0.26614000  0.88116500  0.53954400  1
  C  C48  1  0.04616900  0.09813800  0.20400800  1
  C  C49  1  0.95383100  0.90186200  0.79599200  1
  C  C50  1  0.17279800  0.02588200  0.86060400  1
  C  C51  1  0.46886800  0.14395800  0.80985700  1
  C  C52  1  0.24281500  0.38041200  0.18175200  1
  C  C53  1  0.40111900  0.92252900  0.90287100  1
  C  C54  1  0.38727400  0.72409400  0.98367000  1
  C  C55  1  0.74281500  0.11958800  0.81824800  1
  C  C56  1  0.54616900  0.09813800  0.29599200  1
  C  C57  1  0.54616900  0.40186200  0.79599200  1
  C  C58  1  0.45383100  0.90186200  0.70400800  1
  C  C59  1  0.75282800  0.37996900  0.80145300  1
  C  C60  1  0.26382400  0.61774700  0.56200100  1
  C  C61  1  0.52513300  0.39406900  0.95599700  1
  C  C62  1  0.76382400  0.88225300  0.43799900  1
  C  C63  1  0.38727400  0.77590600  0.48367000  1
  C  C64  1  0.73386000  0.11883500  0.46045600  1
  C  C65  1  0.25282800  0.12003100  0.19854700  1
  C  C66  1  0.95805400  0.13933600  0.57122100  1
  C  C67  1  0.96886800  0.14395800  0.69014300  1
  C  C68  1  0.13351400  0.21843900  0.26269900  1
  C  C69  1  0.36648600  0.78156100  0.76269900  1
  C  C70  1  0.61272600  0.27590600  0.01633000  1
  C  C71  1  0.25718500  0.88041200  0.18175200  1
  C  C72  1  0.74717200  0.62003100  0.30145300  1
  C  C73  1  0.03113200  0.64395800  0.80985700  1
  C  C74  1  0.75718500  0.88041200  0.31824800  1
  C  C75  1  0.95383100  0.59813800  0.29599200  1
  C  C76  1  0.40111900  0.57747100  0.40287100  1
  C  C77  1  0.75718500  0.61958800  0.81824800  1
  C  C78  1  0.32720200  0.52588200  0.86060400  1
  C  C79  1  0.32720200  0.97411800  0.36060400  1
  C  C80  1  0.23617600  0.38225300  0.06200100  1
  C  C81  1  0.45805400  0.36066400  0.42877900  1
  C  C82  1  0.54194600  0.86066400  0.07122100  1
  C  C83  1  0.59888100  0.07747100  0.09712900  1
  C  C84  1  0.47486700  0.60593100  0.04400300  1
  C  C85  1  0.11272600  0.22409400  0.98367000  1
  C  C86  1  0.54194600  0.63933600  0.57122100  1
  C  C87  1  0.86648600  0.78156100  0.73730100  1
  C  C88  1  0.73617600  0.11774700  0.93799900  1
  C  C89  1  0.62461000  0.76185800  0.62992700  1
  C  C90  1  0.73386000  0.38116500  0.96045600  1
  C  C91  1  0.63351400  0.21843900  0.23730100  1
  C  C92  1  0.86648600  0.71843900  0.23730100  1
  C  C93  1  0.52513300  0.10593100  0.45599700  1
  C  C94  1  0.88727400  0.72409400  0.51633000  1
  C  C95  1  0.12461000  0.76185800  0.87007300  1
  C  C96  1  0.75282800  0.12003100  0.30145300  1
  C  C97  1  0.02513300  0.39406900  0.54400300  1
  C  C98  1  0.04194600  0.63933600  0.92877900  1
  C  C99  1  0.37539000  0.23814200  0.37007300  1
  C  C100  1  0.74281500  0.38041200  0.31824800  1
  C  C101  1  0.23386000  0.38116500  0.53954400  1
  C  C102  1  0.23617600  0.11774700  0.56200100  1
  C  C103  1  0.62461000  0.73814200  0.12992700  1
  C  C104  1  0.82720200  0.52588200  0.63939600  1
  C  C105  1  0.74717200  0.87996900  0.80145300  1
  C  C106  1  0.46886800  0.35604200  0.30985700  1
  C  C107  1  0.26382400  0.88225300  0.06200100  1
  C  C108  1  0.86003100  0.27940400  0.38134800  1
  C  C109  1  0.96886800  0.35604200  0.19014300  1
  C  C110  1  0.90111900  0.92252900  0.59712900  1
  C  C111  1  0.17279800  0.47411800  0.36060400  1
  Ni  Ni112  1  0.12376600  0.33342100  0.54132400  1
  Ni  Ni113  1  0.37623400  0.66657900  0.04132400  1
  Ni  Ni114  1  0.87623400  0.83342100  0.95867600  1
  Ni  Ni115  1  0.63952800  0.33680800  0.79659300  1
  Ni  Ni116  1  0.36047200  0.66319200  0.20340700  1
  Ni  Ni117  1  0.74956500  0.82758200  0.37876500  1
  Ni  Ni118  1  0.12376600  0.16657900  0.04132400  1
  Ni  Ni119  1  0.46820200  0.30354400  0.37073900  1
  Ni  Ni120  1  0.24956500  0.82758200  0.12123500  1
  Ni  Ni121  1  0.53179800  0.69645600  0.62926100  1
  Ni  Ni122  1  0.62376600  0.16657900  0.45867600  1
  Ni  Ni123  1  0.96820200  0.30354400  0.12926100  1
  Ni  Ni124  1  0.75043500  0.32758200  0.37876500  1
  Ni  Ni125  1  0.86047200  0.66319200  0.29659300  1
  Ni  Ni126  1  0.03179800  0.69645600  0.87073900  1
  Ni  Ni127  1  0.87623400  0.66657900  0.45867600  1
  Ni  Ni128  1  0.53179800  0.80354400  0.12926100  1
  Ni  Ni129  1  0.13952800  0.33680800  0.70340700  1
  Ni  Ni130  1  0.86047200  0.83680800  0.79659300  1
  Ni  Ni131  1  0.74956500  0.67241800  0.87876500  1
  Ni  Ni132  1  0.13952800  0.16319200  0.20340700  1
  Ni  Ni133  1  0.37623400  0.83342100  0.54132400  1
  Ni  Ni134  1  0.75043500  0.17241800  0.87876500  1
  Ni  Ni135  1  0.36047200  0.83680800  0.70340700  1
  Ni  Ni136  1  0.25043500  0.32758200  0.12123500  1
  Ni  Ni137  1  0.24956500  0.67241800  0.62123500  1
  Ni  Ni138  1  0.62376600  0.33342100  0.95867600  1
  Ni  Ni139  1  0.03179800  0.80354400  0.37073900  1
  Ni  Ni140  1  0.46820200  0.19645600  0.87073900  1
  Ni  Ni141  1  0.25043500  0.17241800  0.62123500  1
  Ni  Ni142  1  0.96820200  0.19645600  0.62926100  1
  Ni  Ni143  1  0.63952800  0.16319200  0.29659300  1
  Cu  Cu144  1  0.12037300  0.24025600  0.12364600  1
  Cu  Cu145  1  0.87962700  0.75974400  0.87635400  1
  Cu  Cu146  1  0.87962700  0.74025600  0.37635400  1
  Cu  Cu147  1  0.37962700  0.74025600  0.12364600  1
  Cu  Cu148  1  0.62037300  0.25974400  0.87635400  1
  Cu  Cu149  1  0.62037300  0.24025600  0.37635400  1
  Cu  Cu150  1  0.12037300  0.25974400  0.62364600  1
  Cu  Cu151  1  0.37962700  0.75974400  0.62364600  1
  C  C152  1  0.38926900  0.58791500  0.82597800  1
  C  C153  1  0.51760900  0.59641700  0.40247200  1
  C  C154  1  0.01760900  0.90358300  0.59752800  1
  C  C155  1  0.11073100  0.08791500  0.82597800  1
  C  C156  1  0.25150700  0.05654600  0.40511500  1
  C  C157  1  0.24849300  0.94345400  0.90511500  1
  C  C158  1  0.38926900  0.91208500  0.32597800  1
  C  C159  1  0.51760900  0.90358300  0.90247200  1
  C  C160  1  0.98239100  0.40358300  0.90247200  1
  C  C161  1  0.24849300  0.55654600  0.40511500  1
  C  C162  1  0.48239100  0.09641700  0.09752800  1
  C  C163  1  0.74849300  0.55654600  0.09488500  1
  C  C164  1  0.48239100  0.40358300  0.59752800  1
  C  C165  1  0.88926900  0.58791500  0.67402200  1
  C  C166  1  0.01760900  0.59641700  0.09752800  1
  C  C167  1  0.11073100  0.41208500  0.32597800  1
  C  C168  1  0.74849300  0.94345400  0.59488500  1
  C  C169  1  0.75150700  0.44345400  0.59488500  1
  C  C170  1  0.25150700  0.44345400  0.90511500  1
  C  C171  1  0.98239100  0.09641700  0.40247200  1
  C  C172  1  0.75150700  0.05654600  0.09488500  1
  C  C173  1  0.61073100  0.08791500  0.67402200  1
  C  C174  1  0.61073100  0.41208500  0.17402200  1
  C  C175  1  0.88926900  0.91208500  0.17402200  1
