# generated using pymatgen
data_Cu(NiC5)3
_symmetry_space_group_name_H-M   'P 1'
_cell_length_a   7.34576800
_cell_length_b   7.69531351
_cell_length_c   9.82860198
_cell_angle_alpha   81.55611841
_cell_angle_beta   109.02998004
_cell_angle_gamma   117.97314671
_symmetry_Int_Tables_number   1
_chemical_formula_structural   Cu(NiC5)3
_chemical_formula_sum   'Cu2 Ni6 C30'
_cell_volume   463.85102441
_cell_formula_units_Z   2
loop_
 _symmetry_equiv_pos_site_id
 _symmetry_equiv_pos_as_xyz
  1  'x, y, z'
loop_
 _atom_site_type_symbol
 _atom_site_label
 _atom_site_symmetry_multiplicity
 _atom_site_fract_x
 _atom_site_fract_y
 _atom_site_fract_z
 _atom_site_occupancy
  Ni  Ni0  1  0.79233800  0.28086200  0.45215400  1
  Ni  Ni1  1  0.20766200  0.71913800  0.54784600  1
  Ni  Ni2  1  0.15644000  0.50128900  0.16507300  1
  Ni  Ni3  1  0.84356000  0.49871100  0.83492700  1
  Ni  Ni4  1  0.72101000  0.01381900  0.11498700  1
  Ni  Ni5  1  0.27899000  0.98618100  0.88501300  1
  Cu  Cu6  1  0.78401300  0.94757800  0.77642200  1
  Cu  Cu7  1  0.21598700  0.05242200  0.22357800  1
  C  C8  1  0.83828700  0.74998000  0.54768400  1
  C  C9  1  0.16171300  0.25002000  0.45231600  1
  C  C10  1  0.86270100  0.67776400  0.08282000  1
  C  C11  1  0.13729900  0.32223600  0.91718000  1
  C  C12  1  0.51209700  0.77329900  0.37786500  1
  C  C13  1  0.48790300  0.22670100  0.62213500  1
  C  C14  1  0.61813100  0.33960800  0.13767100  1
  C  C15  1  0.38186900  0.66039200  0.86232900  1
  C  C16  1  0.70192200  0.62690500  0.29009800  1
  C  C17  1  0.29807800  0.37309500  0.70990200  1
  C  C18  1  0.83455700  0.75070300  0.19259600  1
  C  C19  1  0.34198400  0.80686700  0.35557300  1
  C  C20  1  0.01561100  0.20450100  0.00032800  1
  C  C21  1  0.98438900  0.79549900  0.99967200  1
  C  C22  1  0.65801600  0.19313300  0.64442700  1
  C  C23  1  0.84439800  0.65302000  0.44045600  1
  C  C24  1  0.40042500  0.58485200  0.74842900  1
  C  C25  1  0.59957500  0.41514800  0.25157100  1
  C  C26  1  0.46687500  0.31333400  0.72761800  1
  C  C27  1  0.53312500  0.68666600  0.27238200  1
  C  C28  1  0.32044200  0.17971500  0.48858600  1
  C  C29  1  0.67955800  0.82028500  0.51141400  1
  C  C30  1  0.50035000  0.85034400  0.89615700  1
  C  C31  1  0.49965000  0.14965600  0.10384300  1
  C  C32  1  0.23161100  0.52871200  0.93497500  1
  C  C33  1  0.76838900  0.47128800  0.06502500  1
  C  C34  1  0.02741900  0.22278200  0.31839800  1
  C  C35  1  0.97258100  0.77721800  0.68160200  1
  C  C36  1  0.15560200  0.34698000  0.55954400  1
  C  C37  1  0.16544300  0.24929700  0.80740400  1
