# generated using pymatgen
data_CuNiC2
_symmetry_space_group_name_H-M   'P 1'
_cell_length_a   4.67930200
_cell_length_b   4.67930200
_cell_length_c   39.89633979
_cell_angle_alpha   89.45558449
_cell_angle_beta   89.45558449
_cell_angle_gamma   56.30644017
_symmetry_Int_Tables_number   1
_chemical_formula_structural   CuNiC2
_chemical_formula_sum   'Cu6 Ni6 C12'
_cell_volume   726.77823657
_cell_formula_units_Z   6
loop_
 _symmetry_equiv_pos_site_id
 _symmetry_equiv_pos_as_xyz
  1  'x, y, z'
loop_
 _atom_site_type_symbol
 _atom_site_label
 _atom_site_symmetry_multiplicity
 _atom_site_fract_x
 _atom_site_fract_y
 _atom_site_fract_z
 _atom_site_occupancy
  Ni  Ni0  1  0.33928800  0.33928800  0.41200000  1
  Ni  Ni1  1  0.00681200  0.00681200  0.48769100  1
  Ni  Ni2  1  0.00616100  0.00616100  0.24657500  1
  Ni  Ni3  1  0.67245500  0.67245500  0.32901000  1
  Ni  Ni4  1  0.33822700  0.33822700  0.16465400  1
  Ni  Ni5  1  0.67008300  0.67008300  0.08339400  1
  Cu  Cu6  1  0.00144000  0.00144000  0.00442000  1
  Cu  Cu7  1  0.33912800  0.33912800  0.91216900  1
  Cu  Cu8  1  0.67135300  0.67135300  0.83034600  1
  Cu  Cu9  1  0.00388900  0.00388900  0.74710300  1
  Cu  Cu10  1  0.33808100  0.33808100  0.66474400  1
  Cu  Cu11  1  0.67083700  0.67083700  0.58208600  1
  C  C12  1  0.33079800  0.33079800  0.98039900  1
  C  C13  1  0.66112400  0.66112400  0.89848300  1
  C  C14  1  0.99429300  0.99429300  0.81553200  1
  C  C15  1  0.32711300  0.32711300  0.73308300  1
  C  C16  1  0.66092600  0.66092600  0.65089600  1
  C  C17  1  0.99857900  0.99857900  0.55937700  1
  C  C18  1  0.32796600  0.32796600  0.48073800  1
  C  C19  1  0.66199900  0.66199900  0.39720400  1
  C  C20  1  0.99501200  0.99501200  0.31514900  1
  C  C21  1  0.32881500  0.32881500  0.23366400  1
  C  C22  1  0.66098100  0.66098100  0.15142000  1
  C  C23  1  0.99448700  0.99448700  0.06986000  1
