# generated using pymatgen
data_Cu16Ni4C35
_symmetry_space_group_name_H-M   'P 1'
_cell_length_a   8.75520400
_cell_length_b   8.81535520
_cell_length_c   9.50450890
_cell_angle_alpha   72.04437383
_cell_angle_beta   69.93843131
_cell_angle_gamma   63.76268795
_symmetry_Int_Tables_number   1
_chemical_formula_structural   Cu16Ni4C35
_chemical_formula_sum   'Cu16 Ni4 C35'
_cell_volume   607.28492866
_cell_formula_units_Z   1
loop_
 _symmetry_equiv_pos_site_id
 _symmetry_equiv_pos_as_xyz
  1  'x, y, z'
loop_
 _atom_site_type_symbol
 _atom_site_label
 _atom_site_symmetry_multiplicity
 _atom_site_fract_x
 _atom_site_fract_y
 _atom_site_fract_z
 _atom_site_occupancy
  C  C0  1  0.24291400  0.71376900  0.83967700  1
  C  C1  1  0.69222500  0.91471700  0.29358600  1
  C  C2  1  0.83756800  0.59613600  0.45131900  1
  C  C3  1  0.16243200  0.40386400  0.54868100  1
  C  C4  1  0.30777500  0.08528300  0.70641400  1
  C  C5  1  0.75708600  0.28623100  0.16032300  1
  C  C6  1  0.00000000  0.00000000  0.00000000  1
  Ni  Ni7  1  0.59689800  0.19494300  0.64868200  1
  Ni  Ni8  1  0.47620300  0.61300500  0.17838500  1
  Ni  Ni9  1  0.52379700  0.38699500  0.82161500  1
  Ni  Ni10  1  0.40310200  0.80505700  0.35131800  1
  Cu  Cu11  1  0.86423000  0.50987600  0.72630000  1
  Cu  Cu12  1  0.21341300  0.63632300  0.60684200  1
  Cu  Cu13  1  0.33012500  0.13418800  0.41567100  1
  Cu  Cu14  1  0.96317500  0.32111700  0.26941200  1
  Cu  Cu15  1  0.73228300  0.46467100  0.50360700  1
  Cu  Cu16  1  0.81602400  0.73761600  0.09875400  1
  Cu  Cu17  1  0.88481000  0.94324800  0.82237100  1
  Cu  Cu18  1  0.87786900  0.14145000  0.62041200  1
  Cu  Cu19  1  0.12213100  0.85855000  0.37958800  1
  Cu  Cu20  1  0.11519000  0.05675200  0.17762900  1
  Cu  Cu21  1  0.18397600  0.26238400  0.90124600  1
  Cu  Cu22  1  0.26771700  0.53532900  0.49639300  1
  Cu  Cu23  1  0.03682500  0.67888300  0.73058800  1
  Cu  Cu24  1  0.66987500  0.86581200  0.58432900  1
  Cu  Cu25  1  0.78658700  0.36367700  0.39315800  1
  Cu  Cu26  1  0.13577000  0.49012400  0.27370000  1
  C  C27  1  0.19895500  0.92114200  0.32341300  1
  C  C28  1  0.25459500  0.78336500  0.01010500  1
  C  C29  1  0.29118200  0.64502700  0.14961700  1
  C  C30  1  0.13730000  0.71493000  0.68512900  1
  C  C31  1  0.20907900  0.51474500  0.96323800  1
  C  C32  1  0.47667400  0.95381600  0.27406500  1
  C  C33  1  0.46141800  0.57650400  0.73802100  1
  C  C34  1  0.77798400  0.81530600  0.99813700  1
  C  C35  1  0.06863900  0.13872600  0.08646300  1
  C  C36  1  0.81801000  0.70524800  0.26001200  1
  C  C37  1  0.38405700  0.38510200  0.98825400  1
  C  C38  1  0.68934500  0.82294100  0.49367400  1
  C  C39  1  0.92534600  0.53944900  0.62132400  1
  C  C40  1  0.20251600  0.93970200  0.77826000  1
  C  C41  1  0.79748400  0.06029800  0.22174000  1
  C  C42  1  0.07465400  0.46055100  0.37867600  1
  C  C43  1  0.31065500  0.17705900  0.50632600  1
  C  C44  1  0.61594300  0.61489800  0.01174600  1
  C  C45  1  0.18199000  0.29475200  0.73998800  1
  C  C46  1  0.93136100  0.86127400  0.91353700  1
  C  C47  1  0.22201600  0.18469400  0.00186300  1
  C  C48  1  0.53858200  0.42349600  0.26197900  1
  C  C49  1  0.52332600  0.04618400  0.72593500  1
  C  C50  1  0.79092100  0.48525500  0.03676200  1
  C  C51  1  0.86270000  0.28507000  0.31487100  1
  C  C52  1  0.70881800  0.35497300  0.85038300  1
  C  C53  1  0.74540500  0.21663500  0.98989500  1
  C  C54  1  0.80104500  0.07885800  0.67658700  1
