# generated using pymatgen
data_Cu2NiC
_symmetry_space_group_name_H-M   'P 1'
_cell_length_a   6.98735260
_cell_length_b   6.98735260
_cell_length_c   6.98735260
_cell_angle_alpha   131.64143631
_cell_angle_beta   131.64143631
_cell_angle_gamma   70.79593220
_symmetry_Int_Tables_number   1
_chemical_formula_structural   Cu2NiC
_chemical_formula_sum   'Cu4 Ni2 C2'
_cell_volume   186.61221596
_cell_formula_units_Z   2
loop_
 _symmetry_equiv_pos_site_id
 _symmetry_equiv_pos_as_xyz
  1  'x, y, z'
loop_
 _atom_site_type_symbol
 _atom_site_label
 _atom_site_symmetry_multiplicity
 _atom_site_fract_x
 _atom_site_fract_y
 _atom_site_fract_z
 _atom_site_occupancy
  Ni  Ni0  1  0.00000000  0.00000000  0.00000000  1
  Ni  Ni1  1  0.75000000  0.25000000  0.50000000  1
  C  C2  1  0.50000000  0.50000000  0.00000000  1
  C  C3  1  0.25000000  0.75000000  0.50000000  1
  Cu  Cu4  1  0.00649400  0.50649400  0.50000000  1
  Cu  Cu5  1  0.74350600  0.74350600  0.00000000  1
  Cu  Cu6  1  0.49350600  0.99350600  0.50000000  1
  Cu  Cu7  1  0.25649400  0.25649400  0.00000000  1
