# generated using pymatgen
data_Cu(NiC2)2
_symmetry_space_group_name_H-M   'P 1'
_cell_length_a   3.64891604
_cell_length_b   3.64891604
_cell_length_c   12.52685600
_cell_angle_alpha   90.00000000
_cell_angle_beta   90.00000000
_cell_angle_gamma   120.00000075
_symmetry_Int_Tables_number   1
_chemical_formula_structural   Cu(NiC2)2
_chemical_formula_sum   'Cu1 Ni2 C4'
_cell_volume   144.44431542
_cell_formula_units_Z   1
loop_
 _symmetry_equiv_pos_site_id
 _symmetry_equiv_pos_as_xyz
  1  'x, y, z'
loop_
 _atom_site_type_symbol
 _atom_site_label
 _atom_site_symmetry_multiplicity
 _atom_site_fract_x
 _atom_site_fract_y
 _atom_site_fract_z
 _atom_site_occupancy
  Ni  Ni0  1  0.33333300  0.66666700  0.77039500  1
  Ni  Ni1  1  0.66666700  0.33333300  0.22960500  1
  Cu  Cu2  1  0.00000000  0.00000000  0.50000000  1
  C  C3  1  0.66666700  0.33333300  0.40723100  1
  C  C4  1  0.33333300  0.66666700  0.59276900  1
  C  C5  1  0.66666700  0.33333300  0.85398200  1
  C  C6  1  0.33333300  0.66666700  0.14601800  1
