# generated using pymatgen
data_Cu3NiC13
_symmetry_space_group_name_H-M   'P 1'
_cell_length_a   9.07660100
_cell_length_b   7.80070400
_cell_length_c   11.67315545
_cell_angle_alpha   88.10389224
_cell_angle_beta   90.00000000
_cell_angle_gamma   90.00000000
_symmetry_Int_Tables_number   1
_chemical_formula_structural   Cu3NiC13
_chemical_formula_sum   'Cu12 Ni4 C52'
_cell_volume   826.05213173
_cell_formula_units_Z   4
loop_
 _symmetry_equiv_pos_site_id
 _symmetry_equiv_pos_as_xyz
  1  'x, y, z'
loop_
 _atom_site_type_symbol
 _atom_site_label
 _atom_site_symmetry_multiplicity
 _atom_site_fract_x
 _atom_site_fract_y
 _atom_site_fract_z
 _atom_site_occupancy
  C  C0  1  0.49965600  0.96028300  0.75038300  1
  C  C1  1  0.99965600  0.03971700  0.74961700  1
  C  C2  1  0.50034400  0.03971700  0.24961700  1
  C  C3  1  0.00034400  0.96028300  0.25038300  1
  C  C4  1  0.62599700  0.53900000  0.74232700  1
  C  C5  1  0.12599700  0.46100000  0.75767300  1
  C  C6  1  0.37400300  0.46100000  0.25767300  1
  C  C7  1  0.87400300  0.53900000  0.24232700  1
  C  C8  1  0.56866900  0.40158400  0.84937800  1
  C  C9  1  0.06866900  0.59841600  0.65062200  1
  C  C10  1  0.43133100  0.59841600  0.15062200  1
  C  C11  1  0.93133100  0.40158400  0.34937800  1
  C  C12  1  0.69853100  0.34030500  0.76163900  1
  C  C13  1  0.19853100  0.65969500  0.73836100  1
  C  C14  1  0.30146900  0.65969500  0.23836100  1
  C  C15  1  0.80146900  0.34030500  0.26163900  1
  C  C16  1  0.32122400  0.19338300  0.86882000  1
  C  C17  1  0.82122400  0.80661700  0.63118000  1
  C  C18  1  0.67877600  0.80661700  0.13118000  1
  C  C19  1  0.17877600  0.19338300  0.36882000  1
  C  C20  1  0.46252000  0.16546500  0.94567400  1
  C  C21  1  0.96252000  0.83453500  0.55432600  1
  C  C22  1  0.53748000  0.83453500  0.05432600  1
  C  C23  1  0.03748000  0.16546500  0.44567400  1
  C  C24  1  0.50503100  0.19441800  0.55746800  1
  C  C25  1  0.00503100  0.80558200  0.94253200  1
  C  C26  1  0.49496900  0.80558200  0.44253200  1
  C  C27  1  0.99496900  0.19441800  0.05746800  1
  C  C28  1  0.66977900  0.17549100  0.59964500  1
  C  C29  1  0.16977900  0.82450900  0.90035500  1
  C  C30  1  0.33022100  0.82450900  0.40035500  1
  C  C31  1  0.83022100  0.17549100  0.09964500  1
  C  C32  1  0.85129200  0.60329200  0.83723300  1
  C  C33  1  0.35129200  0.39670800  0.66276700  1
  C  C34  1  0.14870800  0.39670800  0.16276700  1
  C  C35  1  0.64870800  0.60329200  0.33723300  1
  C  C36  1  0.79335700  0.44794800  0.95861400  1
  C  C37  1  0.29335700  0.55205200  0.54138600  1
  C  C38  1  0.20664300  0.55205200  0.04138600  1
  C  C39  1  0.70664300  0.44794800  0.45861400  1
  C  C40  1  0.77242700  0.51608600  0.87791000  1
  C  C41  1  0.27242700  0.48391400  0.62209000  1
  C  C42  1  0.22757300  0.48391400  0.12209000  1
  C  C43  1  0.72757300  0.51608600  0.37791000  1
  Ni  Ni44  1  0.66032900  0.44647500  0.80453400  1
  Ni  Ni45  1  0.16032900  0.55352500  0.69546600  1
  Ni  Ni46  1  0.33967100  0.55352500  0.19546600  1
  Ni  Ni47  1  0.83967100  0.44647500  0.30453400  1
  Cu  Cu48  1  0.41157400  0.73666200  0.89152400  1
  Cu  Cu49  1  0.91157400  0.26333800  0.60847600  1
  Cu  Cu50  1  0.58842600  0.26333800  0.10847600  1
  Cu  Cu51  1  0.08842600  0.73666200  0.39152400  1
  Cu  Cu52  1  0.59679700  0.73814900  0.61609500  1
  Cu  Cu53  1  0.09679700  0.26185100  0.88390500  1
  Cu  Cu54  1  0.40320300  0.26185100  0.38390500  1
  Cu  Cu55  1  0.90320300  0.73814900  0.11609500  1
  Cu  Cu56  1  0.74912000  0.01455200  0.84446900  1
  Cu  Cu57  1  0.24912000  0.98544800  0.65553100  1
  Cu  Cu58  1  0.25088000  0.98544800  0.15553100  1
  Cu  Cu59  1  0.75088000  0.01455200  0.34446900  1
  C  C60  1  0.42922400  0.17610600  0.86473800  1
  C  C61  1  0.92922400  0.82389400  0.63526200  1
  C  C62  1  0.57077600  0.82389400  0.13526200  1
  C  C63  1  0.07077600  0.17610600  0.36473800  1
  C  C64  1  0.56649000  0.17660000  0.62659200  1
  C  C65  1  0.06649000  0.82340000  0.87340800  1
  C  C66  1  0.43351000  0.82340000  0.37340800  1
  C  C67  1  0.93351000  0.17660000  0.12659200  1
