# generated using pymatgen
data_Cu3Ni5C16
_symmetry_space_group_name_H-M   'P 1'
_cell_length_a   12.57646076
_cell_length_b   12.57646076
_cell_length_c   7.76491100
_cell_angle_alpha   90.00000000
_cell_angle_beta   90.00000000
_cell_angle_gamma   93.59387289
_symmetry_Int_Tables_number   1
_chemical_formula_structural   Cu3Ni5C16
_chemical_formula_sum   'Cu12 Ni20 C64'
_cell_volume   1225.74026958
_cell_formula_units_Z   4
loop_
 _symmetry_equiv_pos_site_id
 _symmetry_equiv_pos_as_xyz
  1  'x, y, z'
loop_
 _atom_site_type_symbol
 _atom_site_label
 _atom_site_symmetry_multiplicity
 _atom_site_fract_x
 _atom_site_fract_y
 _atom_site_fract_z
 _atom_site_occupancy
  C  C0  1  0.44350900  0.94350900  0.25000000  1
  C  C1  1  0.05649100  0.55649100  0.75000000  1
  C  C2  1  0.94350900  0.44350900  0.25000000  1
  C  C3  1  0.55649100  0.05649100  0.75000000  1
  Ni  Ni4  1  0.20769100  0.54015500  0.35041700  1
  Ni  Ni5  1  0.04015500  0.70769100  0.14958300  1
  Ni  Ni6  1  0.63734500  0.45057600  0.29728100  1
  Ni  Ni7  1  0.86265500  0.04942400  0.79728100  1
  Ni  Ni8  1  0.36265500  0.54942400  0.70271900  1
  Ni  Ni9  1  0.95984500  0.29230900  0.85041700  1
  Ni  Ni10  1  0.79230900  0.45984500  0.64958300  1
  Ni  Ni11  1  0.29230900  0.95984500  0.85041700  1
  Ni  Ni12  1  0.13734500  0.95057600  0.20271900  1
  Ni  Ni13  1  0.45984500  0.79230900  0.64958300  1
  Ni  Ni14  1  0.39348200  0.39348200  0.31268900  1
  Ni  Ni15  1  0.70769100  0.04015500  0.14958300  1
  Ni  Ni16  1  0.89348200  0.89348200  0.18731100  1
  Ni  Ni17  1  0.04942400  0.86265500  0.79728100  1
  Ni  Ni18  1  0.95057600  0.13734500  0.20271900  1
  Ni  Ni19  1  0.54942400  0.36265500  0.70271900  1
  Ni  Ni20  1  0.54015500  0.20769100  0.35041700  1
  Ni  Ni21  1  0.45057600  0.63734500  0.29728100  1
  Ni  Ni22  1  0.60651800  0.60651800  0.68731100  1
  Ni  Ni23  1  0.10651800  0.10651800  0.81268900  1
  Cu  Cu24  1  0.88274000  0.70741300  0.51477400  1
  Cu  Cu25  1  0.78160700  0.21839300  0.50000000  1
  Cu  Cu26  1  0.28160700  0.71839300  0.00000000  1
  Cu  Cu27  1  0.20741300  0.38274000  0.98522600  1
  Cu  Cu28  1  0.21839300  0.78160700  0.50000000  1
  Cu  Cu29  1  0.71839300  0.28160700  0.00000000  1
  Cu  Cu30  1  0.11726000  0.29258700  0.48522600  1
  Cu  Cu31  1  0.38274100  0.20741300  0.98522600  1
  Cu  Cu32  1  0.61726000  0.79258700  0.01477400  1
  Cu  Cu33  1  0.79258700  0.61725900  0.01477400  1
  Cu  Cu34  1  0.70741300  0.88274000  0.51477400  1
  Cu  Cu35  1  0.29258700  0.11726000  0.48522600  1
  C  C36  1  0.84194500  0.00280200  0.03320300  1
  C  C37  1  0.42175200  0.92175200  0.75000000  1
  C  C38  1  0.52298700  0.75602900  0.17824400  1
  C  C39  1  0.89230800  0.56765900  0.51454400  1
  C  C40  1  0.91988300  0.75772300  0.31001300  1
  C  C41  1  0.49616500  0.49616500  0.77858400  1
  C  C42  1  0.50383500  0.50383500  0.22141600  1
  C  C43  1  0.43234100  0.10769200  0.48545600  1
  C  C44  1  0.24227700  0.08011700  0.68998700  1
  C  C45  1  0.00383500  0.00383500  0.27858400  1
  C  C46  1  0.35860300  0.68946300  0.81283600  1
  C  C47  1  0.68946300  0.35860300  0.81283600  1
  C  C48  1  0.57824800  0.07824800  0.25000000  1
  C  C49  1  0.75118700  0.75118700  0.55805200  1
  C  C50  1  0.99719800  0.15805500  0.96679700  1
  C  C51  1  0.47701300  0.24397100  0.82175600  1
  C  C52  1  0.34194500  0.50280200  0.46679700  1
  C  C53  1  0.58011700  0.74227700  0.81001300  1
  C  C54  1  0.31053700  0.64139700  0.18716400  1
  C  C55  1  0.50280200  0.34194500  0.46679700  1
  C  C56  1  0.18946300  0.85860300  0.68716400  1
  C  C57  1  0.14423300  0.69274100  0.95156000  1
  C  C58  1  0.41988300  0.25772300  0.18998700  1
  C  C59  1  0.25602900  0.02298700  0.32175600  1
  C  C60  1  0.14139700  0.81053700  0.31283600  1
  C  C61  1  0.56765900  0.89230800  0.51454400  1
  C  C62  1  0.24397100  0.47701300  0.82175600  1
  C  C63  1  0.02298700  0.25602900  0.32175600  1
  C  C64  1  0.92175200  0.42175200  0.75000000  1
  C  C65  1  0.74397100  0.97701300  0.67824400  1
  C  C66  1  0.75772300  0.91988300  0.31001300  1
  C  C67  1  0.93234100  0.60769200  0.01454400  1
  C  C68  1  0.25118700  0.25118700  0.94194800  1
  C  C69  1  0.65805500  0.49719800  0.53320300  1
  C  C70  1  0.24881300  0.24881300  0.44194800  1
  C  C71  1  0.30725900  0.85576700  0.04844000  1
  C  C72  1  0.80725900  0.35576700  0.45156000  1
  C  C73  1  0.35576700  0.80725900  0.45156000  1
  C  C74  1  0.15805500  0.99719800  0.96679700  1
  C  C75  1  0.81053700  0.14139700  0.31283600  1
  C  C76  1  0.00280200  0.84194500  0.03320300  1
  C  C77  1  0.25772300  0.41988300  0.18998700  1
  C  C78  1  0.10769200  0.43234100  0.48545600  1
  C  C79  1  0.08011700  0.24227700  0.68998700  1
  C  C80  1  0.75602900  0.52298700  0.17824400  1
  C  C81  1  0.07824800  0.57824800  0.25000000  1
  C  C82  1  0.64139700  0.31053700  0.18716400  1
  C  C83  1  0.85860300  0.18946300  0.68716400  1
  C  C84  1  0.49719800  0.65805500  0.53320300  1
  C  C85  1  0.39230800  0.06765900  0.98545600  1
  C  C86  1  0.99616500  0.99616500  0.72141600  1
  C  C87  1  0.74227700  0.58011700  0.81001300  1
  C  C88  1  0.64423300  0.19274100  0.54844000  1
  C  C89  1  0.69274100  0.14423300  0.95156000  1
  C  C90  1  0.06765900  0.39230800  0.98545600  1
  C  C91  1  0.85576700  0.30725900  0.04844000  1
  C  C92  1  0.74881300  0.74881300  0.05805200  1
  C  C93  1  0.19274100  0.64423300  0.54844000  1
  C  C94  1  0.60769200  0.93234100  0.01454400  1
  C  C95  1  0.97701300  0.74397100  0.67824400  1
