# generated using pymatgen
data_Cu6Ni5C4
_symmetry_space_group_name_H-M   'P 1'
_cell_length_a   9.27097477
_cell_length_b   9.27097477
_cell_length_c   6.85984320
_cell_angle_alpha   73.15396208
_cell_angle_beta   73.15396208
_cell_angle_gamma   86.77616942
_symmetry_Int_Tables_number   1
_chemical_formula_structural   Cu6Ni5C4
_chemical_formula_sum   'Cu12 Ni10 C8'
_cell_volume   539.84418700
_cell_formula_units_Z   2
loop_
 _symmetry_equiv_pos_site_id
 _symmetry_equiv_pos_as_xyz
  1  'x, y, z'
loop_
 _atom_site_type_symbol
 _atom_site_label
 _atom_site_symmetry_multiplicity
 _atom_site_fract_x
 _atom_site_fract_y
 _atom_site_fract_z
 _atom_site_occupancy
  C  C0  1  0.03132300  0.96691100  0.99894000  1
  C  C1  1  0.96691100  0.03132300  0.49894000  1
  C  C2  1  0.74978700  0.52032800  0.46967700  1
  C  C3  1  0.52032800  0.74978700  0.96967700  1
  C  C4  1  0.55234600  0.13946000  0.20658800  1
  C  C5  1  0.13946000  0.55234600  0.70658800  1
  Ni  Ni6  1  0.61733800  0.93850500  0.32870900  1
  Ni  Ni7  1  0.74400200  0.21359500  0.20112000  1
  Ni  Ni8  1  0.37524100  0.07097100  0.16056300  1
  Ni  Ni9  1  0.21359500  0.74400200  0.70112000  1
  Ni  Ni10  1  0.07097100  0.37524100  0.66056300  1
  Ni  Ni11  1  0.52954400  0.33590400  0.02350700  1
  Ni  Ni12  1  0.65161300  0.10259100  0.93863200  1
  Ni  Ni13  1  0.93850500  0.61733800  0.82870900  1
  Ni  Ni14  1  0.33590400  0.52954400  0.52350700  1
  Ni  Ni15  1  0.10259100  0.65161300  0.43863200  1
  Cu  Cu16  1  0.03742100  0.26692300  0.62611200  1
  Cu  Cu17  1  0.26692300  0.03742100  0.12611200  1
  Cu  Cu18  1  0.70547000  0.07789600  0.77466900  1
  Cu  Cu19  1  0.25582100  0.85958100  0.70656000  1
  Cu  Cu20  1  0.16299900  0.45951900  0.94349800  1
  Cu  Cu21  1  0.66692600  0.82341500  0.40390100  1
  Cu  Cu22  1  0.85958100  0.25582100  0.20656000  1
  Cu  Cu23  1  0.52301300  0.45280000  0.90092100  1
  Cu  Cu24  1  0.45280000  0.52301300  0.40092100  1
  Cu  Cu25  1  0.07789600  0.70547000  0.27466900  1
  Cu  Cu26  1  0.45951900  0.16299900  0.44349800  1
  Cu  Cu27  1  0.82341500  0.66692600  0.90390100  1
  C  C28  1  0.39656000  0.17379600  0.60940200  1
  C  C29  1  0.17379600  0.39656000  0.10940200  1
