# generated using pymatgen
data_Cu5(Ni7C)2
_symmetry_space_group_name_H-M   'P 1'
_cell_length_a   7.36659502
_cell_length_b   13.94803208
_cell_length_c   23.17039565
_cell_angle_alpha   90.00000000
_cell_angle_beta   90.00000000
_cell_angle_gamma   90.00000000
_symmetry_Int_Tables_number   1
_chemical_formula_structural   Cu5(Ni7C)2
_chemical_formula_sum   'Cu40 Ni112 C16'
_cell_volume   2380.74665263
_cell_formula_units_Z   8
loop_
 _symmetry_equiv_pos_site_id
 _symmetry_equiv_pos_as_xyz
  1  'x, y, z'
loop_
 _atom_site_type_symbol
 _atom_site_label
 _atom_site_symmetry_multiplicity
 _atom_site_fract_x
 _atom_site_fract_y
 _atom_site_fract_z
 _atom_site_occupancy
  Ni  Ni0  1  0.49106116  0.34554229  0.84024653  1
  Ni  Ni1  1  0.03133819  0.03800778  0.65961921  1
  Ni  Ni2  1  0.27321315  0.93337826  0.58148197  1
  Ni  Ni3  1  0.29327471  0.39257851  0.08306395  1
  Ni  Ni4  1  0.96866181  0.96199222  0.15961921  1
  Ni  Ni5  1  0.90397450  0.76325520  0.07923261  1
  Ni  Ni6  1  0.99106116  0.15445771  0.15975347  1
  Ni  Ni7  1  0.77321315  0.56662174  0.08148197  1
  Ni  Ni8  1  0.18787962  0.55886010  0.15162115  1
  Ni  Ni9  1  0.22678685  0.43337826  0.58148197  1
  Ni  Ni10  1  0.68787962  0.94113990  0.84837885  1
  Ni  Ni11  1  0.50893884  0.65445771  0.34024653  1
  Ni  Ni12  1  0.77321315  0.56662174  0.41851803  1
  Ni  Ni13  1  0.99106116  0.15445771  0.34024653  1
  Ni  Ni14  1  0.81212038  0.44113990  0.65162115  1
  Ni  Ni15  1  0.23403408  0.69468471  0.25000000  1
  Ni  Ni16  1  0.91080950  0.20339440  0.47555167  1
  Ni  Ni17  1  0.25520691  0.71135659  0.07205876  1
  Ni  Ni18  1  0.58919050  0.70339440  0.47555167  1
  Ni  Ni19  1  0.62606816  0.96428332  0.52998172  1
  Ni  Ni20  1  0.74479209  0.28864341  0.92794124  1
  Ni  Ni21  1  0.10096224  0.61833856  0.91894236  1
  Ni  Ni22  1  0.20672529  0.89257851  0.41693605  1
  Ni  Ni23  1  0.96866181  0.96199222  0.34038079  1
  Ni  Ni24  1  0.26102603  0.67693090  0.68847818  1
  Ni  Ni25  1  0.73897397  0.32306910  0.18847818  1
  Ni  Ni26  1  0.18787962  0.55886010  0.34837885  1
  Ni  Ni27  1  0.73897397  0.32306910  0.31152182  1
  Ni  Ni28  1  0.12606816  0.53571668  0.47001828  1
  Ni  Ni29  1  0.26596592  0.19468471  0.25000000  1
  Ni  Ni30  1  0.26102603  0.67693090  0.81152182  1
  Ni  Ni31  1  0.25520691  0.71135659  0.42794124  1
  Ni  Ni32  1  0.10096224  0.61833856  0.58105764  1
  Ni  Ni33  1  0.74479209  0.28864341  0.57205876  1
  Ni  Ni34  1  0.70672529  0.60742149  0.91693605  1
  Ni  Ni35  1  0.62606816  0.96428332  0.97001828  1
  Ni  Ni36  1  0.60724541  0.15371313  0.18636373  1
  Ni  Ni37  1  0.29327471  0.39257851  0.41693605  1
  Ni  Ni38  1  0.81212038  0.44113990  0.84837885  1
  Ni  Ni39  1  0.50893884  0.65445771  0.15975347  1
  Ni  Ni40  1  0.08919050  0.79660560  0.97555167  1
  Ni  Ni41  1  0.72678685  0.06662174  0.08148197  1
  Ni  Ni42  1  0.20672529  0.89257851  0.08306395  1
  Ni  Ni43  1  0.68787962  0.94113990  0.65162115  1
  Ni  Ni44  1  0.60096224  0.88166144  0.41894236  1
  Ni  Ni45  1  0.22678685  0.43337826  0.91851803  1
  Ni  Ni46  1  0.53133819  0.46199222  0.34038079  1
  Ni  Ni47  1  0.24479209  0.21135659  0.07205876  1
  Ni  Ni48  1  0.10724541  0.34628687  0.68636373  1
  Ni  Ni49  1  0.79327471  0.10742149  0.58306395  1
  Ni  Ni50  1  0.09304467  0.33926464  0.18581652  1
  Ni  Ni51  1  0.91960346  0.50541529  0.75000000  1
  Ni  Ni52  1  0.24479209  0.21135659  0.42794124  1
  Ni  Ni53  1  0.37393184  0.03571668  0.47001828  1
  Ni  Ni54  1  0.08039654  0.49458471  0.25000000  1
  Ni  Ni55  1  0.27321315  0.93337826  0.91851803  1
  Ni  Ni56  1  0.59304467  0.16073536  0.81418348  1
  Ni  Ni57  1  0.90397450  0.76325520  0.42076739  1
  Ni  Ni58  1  0.89275459  0.65371313  0.18636373  1
  Ni  Ni59  1  0.12606816  0.53571668  0.02998172  1
  Ni  Ni60  1  0.46866181  0.53800778  0.65961921  1
  Ni  Ni61  1  0.41080950  0.29660560  0.97555167  1
  Ni  Ni62  1  0.31212038  0.05886010  0.34837885  1
  Ni  Ni63  1  0.87393184  0.46428332  0.97001828  1
  Ni  Ni64  1  0.53133819  0.46199222  0.15961921  1
  Ni  Ni65  1  0.10724541  0.34628687  0.81363627  1
  Ni  Ni66  1  0.41960346  0.99458471  0.25000000  1
  Ni  Ni67  1  0.09304467  0.33926464  0.31418348  1
  Ni  Ni68  1  0.76102603  0.82306910  0.18847818  1
  Ni  Ni69  1  0.40397450  0.73674480  0.57923261  1
  Ni  Ni70  1  0.58039654  0.00541529  0.75000000  1
  Ni  Ni71  1  0.70672529  0.60742149  0.58306395  1
  Ni  Ni72  1  0.58919050  0.70339440  0.02444833  1
  Ni  Ni73  1  0.59602550  0.26325520  0.07923261  1
  Ni  Ni74  1  0.75520791  0.78864341  0.57205876  1
  Ni  Ni75  1  0.09602550  0.23674480  0.92076739  1
  Ni  Ni76  1  0.39903776  0.11833856  0.91894236  1
  Ni  Ni77  1  0.39275459  0.84628687  0.81363627  1
  Ni  Ni78  1  0.60096224  0.88166144  0.08105764  1
  Ni  Ni79  1  0.23897397  0.17693090  0.81152182  1
  Ni  Ni80  1  0.23897397  0.17693090  0.68847818  1
  Ni  Ni81  1  0.59602550  0.26325520  0.42076739  1
  Ni  Ni82  1  0.60724541  0.15371313  0.31363627  1
  Ni  Ni83  1  0.00893884  0.84554229  0.84024653  1
  Ni  Ni84  1  0.40695533  0.83926464  0.18581652  1
  Ni  Ni85  1  0.89903776  0.38166144  0.08105764  1
  Ni  Ni86  1  0.39903776  0.11833856  0.58105764  1
  Ni  Ni87  1  0.09602550  0.23674480  0.57923261  1
  Ni  Ni88  1  0.76596592  0.30531529  0.75000000  1
  Ni  Ni89  1  0.76102603  0.82306910  0.31152182  1
  Ni  Ni90  1  0.08919050  0.79660560  0.52444833  1
  Ni  Ni91  1  0.79327471  0.10742149  0.91693605  1
  Ni  Ni92  1  0.75520791  0.78864341  0.92794124  1
  Ni  Ni93  1  0.40397450  0.73674480  0.92076739  1
  Ni  Ni94  1  0.72678685  0.06662174  0.41851803  1
  Ni  Ni95  1  0.00893884  0.84554229  0.65975347  1
  Ni  Ni96  1  0.39275459  0.84628687  0.68636373  1
  Ni  Ni97  1  0.89903776  0.38166144  0.41894236  1
  Ni  Ni98  1  0.40695533  0.83926464  0.31418348  1
  Ni  Ni99  1  0.91080950  0.20339440  0.02444833  1
  Ni  Ni100  1  0.03133819  0.03800778  0.84038079  1
  Ni  Ni101  1  0.31212038  0.05886010  0.15162115  1
  Ni  Ni102  1  0.49106116  0.34554229  0.65975347  1
  Ni  Ni103  1  0.87393184  0.46428332  0.52998172  1
  Ni  Ni104  1  0.41080950  0.29660560  0.52444833  1
  Ni  Ni105  1  0.46866181  0.53800778  0.84038079  1
  Ni  Ni106  1  0.73403408  0.80531529  0.75000000  1
  Ni  Ni107  1  0.89275459  0.65371313  0.31363627  1
  Ni  Ni108  1  0.90695533  0.66073536  0.68581652  1
  Ni  Ni109  1  0.37393184  0.03571668  0.02998172  1
  Ni  Ni110  1  0.90695533  0.66073536  0.81418348  1
  Ni  Ni111  1  0.59304467  0.16073536  0.68581652  1
  Cu  Cu112  1  0.91966794  0.93964743  0.92409077  1
  Cu  Cu113  1  0.90174556  0.65433304  0.50274271  1
  Cu  Cu114  1  0.90033768  0.21245129  0.66267703  1
  Cu  Cu115  1  0.59825444  0.15433304  0.50274271  1
  Cu  Cu116  1  0.40174556  0.84566696  0.49725729  1
  Cu  Cu117  1  0.38349973  0.01896151  0.83291552  1
  Cu  Cu118  1  0.40033768  0.28754871  0.16267703  1
  Cu  Cu119  1  0.58033206  0.43964743  0.57590923  1
  Cu  Cu120  1  0.40174556  0.84566696  0.00274271  1
  Cu  Cu121  1  0.58033206  0.43964743  0.92409077  1
  Cu  Cu122  1  0.90415357  0.95393517  0.75000000  1
  Cu  Cu123  1  0.38349973  0.01896151  0.66708448  1
  Cu  Cu124  1  0.61806347  0.70548380  0.25000000  1
  Cu  Cu125  1  0.90174556  0.65433304  0.99725729  1
  Cu  Cu126  1  0.59825444  0.15433304  0.99725729  1
  Cu  Cu127  1  0.90033768  0.21245129  0.83732297  1
  Cu  Cu128  1  0.09825444  0.34566696  0.49725729  1
  Cu  Cu129  1  0.88193653  0.20548380  0.25000000  1
  Cu  Cu130  1  0.08033206  0.06035257  0.42409077  1
  Cu  Cu131  1  0.38193653  0.29451620  0.75000000  1
  Cu  Cu132  1  0.41966794  0.56035257  0.07590923  1
  Cu  Cu133  1  0.08033206  0.06035257  0.07590923  1
  Cu  Cu134  1  0.59584643  0.45393517  0.75000000  1
  Cu  Cu135  1  0.61650027  0.98103849  0.33291552  1
  Cu  Cu136  1  0.59966232  0.71245129  0.66267703  1
  Cu  Cu137  1  0.09584643  0.04606483  0.25000000  1
  Cu  Cu138  1  0.40033768  0.28754871  0.33732297  1
  Cu  Cu139  1  0.91966794  0.93964743  0.57590923  1
  Cu  Cu140  1  0.11650027  0.51896151  0.66708448  1
  Cu  Cu141  1  0.88349973  0.48103849  0.16708448  1
  Cu  Cu142  1  0.09825444  0.34566696  0.00274271  1
  Cu  Cu143  1  0.11650027  0.51896151  0.83291552  1
  Cu  Cu144  1  0.88349973  0.48103849  0.33291552  1
  Cu  Cu145  1  0.59966232  0.71245129  0.83732297  1
  Cu  Cu146  1  0.61650027  0.98103849  0.16708448  1
  Cu  Cu147  1  0.41966794  0.56035257  0.42409077  1
  Cu  Cu148  1  0.09966232  0.78754871  0.16267703  1
  Cu  Cu149  1  0.40415357  0.54606483  0.25000000  1
  Cu  Cu150  1  0.09966232  0.78754871  0.33732297  1
  Cu  Cu151  1  0.11806347  0.79451620  0.75000000  1
  C  C152  1  0.41427936  0.56298789  0.97209931  1
  C  C153  1  0.41427936  0.56298789  0.52790069  1
  C  C154  1  0.38253756  0.37596160  0.25000000  1
  C  C155  1  0.78676490  0.03132078  0.25000000  1
  C  C156  1  0.11746244  0.87596160  0.25000000  1
  C  C157  1  0.28676490  0.46867922  0.75000000  1
  C  C158  1  0.71323510  0.53132078  0.25000000  1
  C  C159  1  0.08572064  0.06298789  0.97209931  1
  C  C160  1  0.58572064  0.43701211  0.47209931  1
  C  C161  1  0.61746244  0.62403840  0.75000000  1
  C  C162  1  0.91427936  0.93701211  0.02790069  1
  C  C163  1  0.58572064  0.43701211  0.02790069  1
  C  C164  1  0.88253756  0.12403840  0.75000000  1
  C  C165  1  0.21323510  0.96867922  0.75000000  1
  C  C166  1  0.91427936  0.93701211  0.47209931  1
  C  C167  1  0.08572064  0.06298789  0.52790069  1
