# generated using pymatgen
data_Cu8(NiC5)5
_symmetry_space_group_name_H-M   'P 1'
_cell_length_a   10.20909234
_cell_length_b   10.20909234
_cell_length_c   10.20909234
_cell_angle_alpha   94.53245429
_cell_angle_beta   94.53245429
_cell_angle_gamma   147.34687226
_symmetry_Int_Tables_number   1
_chemical_formula_structural   Cu8(NiC5)5
_chemical_formula_sum   'Cu8 Ni5 C25'
_cell_volume   550.95824666
_cell_formula_units_Z   1
loop_
 _symmetry_equiv_pos_site_id
 _symmetry_equiv_pos_as_xyz
  1  'x, y, z'
loop_
 _atom_site_type_symbol
 _atom_site_label
 _atom_site_symmetry_multiplicity
 _atom_site_fract_x
 _atom_site_fract_y
 _atom_site_fract_z
 _atom_site_occupancy
  Ni  Ni0  1  0.53535800  0.86044600  0.39580400  1
  Ni  Ni1  1  0.86044600  0.46464200  0.32508800  1
  Ni  Ni2  1  0.13955400  0.53535800  0.67491200  1
  Ni  Ni3  1  0.46464200  0.13955400  0.60419600  1
  Ni  Ni4  1  0.00000000  0.00000000  0.00000000  1
  Cu  Cu5  1  0.41131400  0.64192600  0.05324000  1
  Cu  Cu6  1  0.64192600  0.58868600  0.23061200  1
  Cu  Cu7  1  0.35807400  0.41131400  0.76938800  1
  Cu  Cu8  1  0.58868600  0.35807400  0.94676000  1
  Cu  Cu9  1  0.24740700  0.83191800  0.07932400  1
  Cu  Cu10  1  0.83191800  0.75259300  0.58451100  1
  Cu  Cu11  1  0.16808200  0.24740700  0.41548900  1
  Cu  Cu12  1  0.75259300  0.16808200  0.92067600  1
  C  C13  1  0.04051600  0.74966600  0.79018200  1
  C  C14  1  0.74966600  0.95948400  0.70915000  1
  C  C15  1  0.25033400  0.04051600  0.29085000  1
  C  C16  1  0.95948400  0.25033400  0.20981800  1
  C  C17  1  0.89999600  0.49448100  0.89149200  1
  C  C18  1  0.49448100  0.60298900  0.59448500  1
  C  C19  1  0.00850500  0.89999600  0.40551500  1
  C  C20  1  0.60298900  0.00850500  0.10850800  1
  C  C21  1  0.10000400  0.50551900  0.10850800  1
  C  C22  1  0.50551900  0.39701100  0.40551500  1
  C  C23  1  0.99149500  0.10000400  0.59448500  1
  C  C24  1  0.39701100  0.99149500  0.89149200  1
  C  C25  1  0.07286100  0.29860900  0.87050600  1
  C  C26  1  0.29860900  0.42810300  0.22574800  1
  C  C27  1  0.20235500  0.07286100  0.77425200  1
  C  C28  1  0.42810300  0.20235500  0.12949400  1
  C  C29  1  0.92713900  0.70139100  0.12949400  1
  C  C30  1  0.70139100  0.57189700  0.77425200  1
  C  C31  1  0.79764500  0.92713900  0.22574800  1
  C  C32  1  0.57189700  0.79764500  0.87050600  1
  C  C33  1  0.62848700  0.03807700  0.66656400  1
  C  C34  1  0.50000000  0.50000000  0.00000000  1
  C  C35  1  0.37151300  0.96192300  0.33343600  1
  C  C36  1  0.96192300  0.62848700  0.59041000  1
  C  C37  1  0.03807700  0.37151300  0.40959000  1
