# generated using pymatgen
data_Cu2Ni4C7
_symmetry_space_group_name_H-M   'P 1'
_cell_length_a   8.28832056
_cell_length_b   8.28832056
_cell_length_c   9.99078595
_cell_angle_alpha   66.42605218
_cell_angle_beta   66.42605218
_cell_angle_gamma   60.15638159
_symmetry_Int_Tables_number   1
_chemical_formula_structural   Cu2Ni4C7
_chemical_formula_sum   'Cu6 Ni12 C21'
_cell_volume   527.91971073
_cell_formula_units_Z   3
loop_
 _symmetry_equiv_pos_site_id
 _symmetry_equiv_pos_as_xyz
  1  'x, y, z'
loop_
 _atom_site_type_symbol
 _atom_site_label
 _atom_site_symmetry_multiplicity
 _atom_site_fract_x
 _atom_site_fract_y
 _atom_site_fract_z
 _atom_site_occupancy
  Ni  Ni0  1  0.42917900  0.35964200  0.66196300  1
  Ni  Ni1  1  0.84966000  0.31057700  0.64105500  1
  Ni  Ni2  1  0.81170800  0.92790900  0.66461300  1
  Ni  Ni3  1  0.30205100  0.43702900  0.19640900  1
  Ni  Ni4  1  0.30760600  0.85634800  0.16254900  1
  Ni  Ni5  1  0.07209100  0.18829200  0.33538700  1
  Ni  Ni6  1  0.92995800  0.78198900  0.17140500  1
  Ni  Ni7  1  0.68942300  0.15034000  0.35894500  1
  Ni  Ni8  1  0.64035800  0.57082100  0.33803700  1
  Ni  Ni9  1  0.21801100  0.07004200  0.82859500  1
  Ni  Ni10  1  0.14365200  0.69239400  0.83745100  1
  Ni  Ni11  1  0.56297100  0.69794900  0.80359100  1
  Cu  Cu12  1  0.25250900  0.26993500  0.99932800  1
  Cu  Cu13  1  0.83324500  0.16675500  0.00000000  1
  Cu  Cu14  1  0.73006500  0.74749100  0.00067200  1
  Cu  Cu15  1  0.27081400  0.25010400  0.50077000  1
  Cu  Cu16  1  0.22990100  0.77009900  0.50000000  1
  Cu  Cu17  1  0.74989600  0.72918600  0.49923000  1
  C  C18  1  0.81045900  0.31063000  0.32375300  1
  C  C19  1  0.68937000  0.18954100  0.67624700  1
  C  C20  1  0.27546600  0.40850000  0.86712200  1
  C  C21  1  0.90286900  0.22735900  0.86090200  1
  C  C22  1  0.24244400  0.10623600  0.00106900  1
  C  C23  1  0.71294100  0.76130400  0.86355100  1
  C  C24  1  0.23869600  0.28705900  0.13644900  1
  C  C25  1  0.77264100  0.09713100  0.13909800  1
  C  C26  1  0.89376400  0.75755600  0.99893100  1
  C  C27  1  0.41172100  0.27123000  0.36772100  1
  C  C28  1  0.59150000  0.72453400  0.13287800  1
  C  C29  1  0.10447500  0.25580000  0.49456800  1
  C  C30  1  0.20288200  0.90804600  0.36558800  1
  C  C31  1  0.77211800  0.69980800  0.36544700  1
  C  C32  1  0.30019200  0.22788200  0.63455300  1
  C  C33  1  0.74420000  0.89552500  0.50543200  1
  C  C34  1  0.39685700  0.60314300  0.50000000  1
  C  C35  1  0.09195300  0.79711800  0.63441200  1
  C  C36  1  0.72877000  0.58827900  0.63227900  1
  C  C37  1  0.29856700  0.80898500  0.83307000  1
  C  C38  1  0.19101500  0.70143300  0.16693000  1
