# generated using pymatgen
data_Cu14Ni2C13
_symmetry_space_group_name_H-M   'P 1'
_cell_length_a   7.91242520
_cell_length_b   7.91242520
_cell_length_c   5.68832600
_cell_angle_alpha   90.00000000
_cell_angle_beta   90.00000000
_cell_angle_gamma   119.99999333
_symmetry_Int_Tables_number   1
_chemical_formula_structural   Cu14Ni2C13
_chemical_formula_sum   'Cu14 Ni2 C13'
_cell_volume   308.41420596
_cell_formula_units_Z   1
loop_
 _symmetry_equiv_pos_site_id
 _symmetry_equiv_pos_as_xyz
  1  'x, y, z'
loop_
 _atom_site_type_symbol
 _atom_site_label
 _atom_site_symmetry_multiplicity
 _atom_site_fract_x
 _atom_site_fract_y
 _atom_site_fract_z
 _atom_site_occupancy
  C  C0  1  0.00000000  0.00000000  0.00000000  1
  C  C1  1  0.34778200  0.27352600  0.26945300  1
  C  C2  1  0.92574400  0.65221800  0.26945300  1
  C  C3  1  0.72647400  0.07425600  0.26945300  1
  C  C4  1  0.34778200  0.07425600  0.26945300  1
  C  C5  1  0.72647400  0.65221800  0.26945300  1
  C  C6  1  0.92574400  0.27352600  0.26945300  1
  C  C7  1  0.65221800  0.72647400  0.73054700  1
  C  C8  1  0.07425600  0.34778200  0.73054700  1
  C  C9  1  0.27352600  0.92574400  0.73054700  1
  C  C10  1  0.65221800  0.92574400  0.73054700  1
  C  C11  1  0.27352600  0.34778200  0.73054700  1
  C  C12  1  0.07425600  0.72647400  0.73054700  1
  Ni  Ni13  1  0.66666700  0.33333300  0.80438300  1
  Ni  Ni14  1  0.33333300  0.66666700  0.19561700  1
  Cu  Cu15  1  0.26333400  0.13166700  0.27743500  1
  Cu  Cu16  1  0.86833300  0.73666600  0.27743500  1
  Cu  Cu17  1  0.86833300  0.13166700  0.27743500  1
  Cu  Cu18  1  0.73666600  0.86833300  0.72256500  1
  Cu  Cu19  1  0.13166700  0.26333400  0.72256500  1
  Cu  Cu20  1  0.13166700  0.86833300  0.72256500  1
  Cu  Cu21  1  0.86770200  0.43385100  0.71522500  1
  Cu  Cu22  1  0.56614900  0.13229800  0.71522500  1
  Cu  Cu23  1  0.56614900  0.43385100  0.71522500  1
  Cu  Cu24  1  0.13229800  0.56614900  0.28477500  1
  Cu  Cu25  1  0.43385100  0.86770200  0.28477500  1
  Cu  Cu26  1  0.43385100  0.56614900  0.28477500  1
  Cu  Cu27  1  0.66666700  0.33333300  0.05975700  1
  Cu  Cu28  1  0.33333300  0.66666700  0.94024300  1
