# generated using pymatgen
data_CuNiC8
_symmetry_space_group_name_H-M   'P 1'
_cell_length_a   5.42341900
_cell_length_b   8.30770598
_cell_length_c   8.63617764
_cell_angle_alpha   109.39107986
_cell_angle_beta   107.53372264
_cell_angle_gamma   91.85868395
_symmetry_Int_Tables_number   1
_chemical_formula_structural   CuNiC8
_chemical_formula_sum   'Cu2 Ni2 C16'
_cell_volume   346.17162703
_cell_formula_units_Z   2
loop_
 _symmetry_equiv_pos_site_id
 _symmetry_equiv_pos_as_xyz
  1  'x, y, z'
loop_
 _atom_site_type_symbol
 _atom_site_label
 _atom_site_symmetry_multiplicity
 _atom_site_fract_x
 _atom_site_fract_y
 _atom_site_fract_z
 _atom_site_occupancy
  C  C0  1  0.84652100  0.16724000  0.77044200  1
  C  C1  1  0.15347900  0.83276000  0.22955800  1
  Ni  Ni2  1  0.81746800  0.77849900  0.44288000  1
  Ni  Ni3  1  0.18253200  0.22150100  0.55712000  1
  Cu  Cu4  1  0.69367400  0.34913300  0.26131700  1
  Cu  Cu5  1  0.30632600  0.65086700  0.73868300  1
  C  C6  1  0.72951000  0.87637100  0.41324600  1
  C  C7  1  0.27049000  0.12362900  0.58675400  1
  C  C8  1  0.94716800  0.64750600  0.46980700  1
  C  C9  1  0.05283200  0.35249400  0.53019300  1
  C  C10  1  0.52531100  0.19055200  0.33549600  1
  C  C11  1  0.47468900  0.80944800  0.66450400  1
  C  C12  1  0.88572600  0.16639500  0.16395700  1
  C  C13  1  0.11427400  0.83360500  0.83604300  1
  C  C14  1  0.77605800  0.46090600  0.11022200  1
  C  C15  1  0.22394200  0.53909400  0.88977800  1
  C  C16  1  0.40925100  0.48566500  0.28232200  1
  C  C17  1  0.59074900  0.51433500  0.71767800  1
  C  C18  1  0.43197000  0.21983200  0.04548700  1
  C  C19  1  0.56803000  0.78016800  0.95451300  1
