# generated using pymatgen
data_Cu(NiC2)2
_symmetry_space_group_name_H-M   'P 1'
_cell_length_a   7.35723900
_cell_length_b   7.54788969
_cell_length_c   7.99945475
_cell_angle_alpha   97.89028014
_cell_angle_beta   102.87218087
_cell_angle_gamma   94.61653622
_symmetry_Int_Tables_number   1
_chemical_formula_structural   Cu(NiC2)2
_chemical_formula_sum   'Cu4 Ni8 C16'
_cell_volume   426.11236144
_cell_formula_units_Z   4
loop_
 _symmetry_equiv_pos_site_id
 _symmetry_equiv_pos_as_xyz
  1  'x, y, z'
loop_
 _atom_site_type_symbol
 _atom_site_label
 _atom_site_symmetry_multiplicity
 _atom_site_fract_x
 _atom_site_fract_y
 _atom_site_fract_z
 _atom_site_occupancy
  Ni  Ni0  1  0.27774300  0.04737100  0.54157300  1
  Ni  Ni1  1  0.63962300  0.14867500  0.70476100  1
  Ni  Ni2  1  0.36037700  0.85132500  0.29523900  1
  Ni  Ni3  1  0.48734400  0.82341600  0.63868600  1
  Ni  Ni4  1  0.72225700  0.95262900  0.45842700  1
  Ni  Ni5  1  0.37958500  0.59963900  0.87276000  1
  Ni  Ni6  1  0.51265600  0.17658400  0.36131400  1
  Ni  Ni7  1  0.62041500  0.40036100  0.12724000  1
  Cu  Cu8  1  0.99164600  0.24363300  0.26764300  1
  Cu  Cu9  1  0.00835400  0.75636700  0.73235700  1
  Cu  Cu10  1  0.24091500  0.15672000  0.00824600  1
  Cu  Cu11  1  0.75908500  0.84328000  0.99175400  1
  C  C12  1  0.61290400  0.98835000  0.86203300  1
  C  C13  1  0.68263000  0.28763400  0.55205400  1
  C  C14  1  0.86216800  0.43618600  0.27296400  1
  C  C15  1  0.38709600  0.01165000  0.13796700  1
  C  C16  1  0.31737000  0.71236600  0.44794600  1
  C  C17  1  0.23807800  0.31260000  0.23522900  1
  C  C18  1  0.82470900  0.01248600  0.20869500  1
  C  C19  1  0.39299200  0.32833900  0.94609200  1
  C  C20  1  0.98056700  0.17681000  0.99869800  1
  C  C21  1  0.13783200  0.56381400  0.72703600  1
  C  C22  1  0.91092100  0.79481500  0.51444700  1
  C  C23  1  0.76192200  0.68740000  0.76477100  1
  C  C24  1  0.17529100  0.98751400  0.79130500  1
  C  C25  1  0.60700800  0.67166100  0.05390800  1
  C  C26  1  0.01943300  0.82319000  0.00130200  1
  C  C27  1  0.08907900  0.20518500  0.48555300  1
