# generated using pymatgen
data_CuNiC8
_symmetry_space_group_name_H-M   'P 1'
_cell_length_a   8.45458657
_cell_length_b   8.45458657
_cell_length_c   5.47397212
_cell_angle_alpha   85.97637128
_cell_angle_beta   85.97637128
_cell_angle_gamma   144.42206990
_symmetry_Int_Tables_number   1
_chemical_formula_structural   CuNiC8
_chemical_formula_sum   'Cu2 Ni2 C16'
_cell_volume   221.56475709
_cell_formula_units_Z   2
loop_
 _symmetry_equiv_pos_site_id
 _symmetry_equiv_pos_as_xyz
  1  'x, y, z'
loop_
 _atom_site_type_symbol
 _atom_site_label
 _atom_site_symmetry_multiplicity
 _atom_site_fract_x
 _atom_site_fract_y
 _atom_site_fract_z
 _atom_site_occupancy
  C  C0  1  0.22005400  0.07648700  0.14441900  1
  C  C1  1  0.07648700  0.22005400  0.64441900  1
  Ni  Ni2  1  0.24148900  0.74218100  0.50316400  1
  Ni  Ni3  1  0.74218100  0.24148900  0.00316400  1
  Cu  Cu4  1  0.34557500  0.62117100  0.02339800  1
  Cu  Cu5  1  0.62117100  0.34557500  0.52339800  1
  C  C6  1  0.76195000  0.92770900  0.22682200  1
  C  C7  1  0.92770900  0.76195000  0.72682200  1
  C  C8  1  0.66388200  0.68778400  0.40144800  1
  C  C9  1  0.68778400  0.66388200  0.90144800  1
  C  C10  1  0.81317300  0.89611700  0.36057600  1
  C  C11  1  0.89611700  0.81317300  0.86057600  1
  C  C12  1  0.95489700  0.66828300  0.45686700  1
  C  C13  1  0.66828300  0.95489700  0.95686700  1
  C  C14  1  0.15051100  0.56374200  0.85137500  1
  C  C15  1  0.56374200  0.15051100  0.35137500  1
  C  C16  1  0.20750200  0.52481800  0.32196600  1
  C  C17  1  0.52481800  0.20750200  0.82196600  1
  C  C18  1  0.43894200  0.34853300  0.44996400  1
  C  C19  1  0.34853300  0.43894200  0.94996400  1
