# generated using pymatgen
data_Cu5(NiC6)3
_symmetry_space_group_name_H-M   'P 1'
_cell_length_a   7.30802900
_cell_length_b   7.89114761
_cell_length_c   7.93030168
_cell_angle_alpha   113.21308385
_cell_angle_beta   103.79190370
_cell_angle_gamma   103.73054746
_symmetry_Int_Tables_number   1
_chemical_formula_structural   Cu5(NiC6)3
_chemical_formula_sum   'Cu5 Ni3 C18'
_cell_volume   379.02397510
_cell_formula_units_Z   1
loop_
 _symmetry_equiv_pos_site_id
 _symmetry_equiv_pos_as_xyz
  1  'x, y, z'
loop_
 _atom_site_type_symbol
 _atom_site_label
 _atom_site_symmetry_multiplicity
 _atom_site_fract_x
 _atom_site_fract_y
 _atom_site_fract_z
 _atom_site_occupancy
  C  C0  1  0.87440900  0.71390100  0.72170700  1
  C  C1  1  0.14066200  0.27376000  0.28872200  1
  Ni  Ni2  1  0.64986300  0.17722100  0.41213100  1
  Ni  Ni3  1  0.22341000  0.82415500  0.19345000  1
  Ni  Ni4  1  0.22141500  0.19399500  0.82392100  1
  Cu  Cu5  1  0.77460000  0.17691000  0.80921300  1
  Cu  Cu6  1  0.77026000  0.80270600  0.16529300  1
  Cu  Cu7  1  0.65306100  0.41024600  0.17529900  1
  Cu  Cu8  1  0.34569600  0.58944600  0.82426300  1
  Cu  Cu9  1  0.34797700  0.82816700  0.59080600  1
  C  C10  1  0.99170800  0.14821600  0.86794200  1
  C  C11  1  0.98419400  0.84712400  0.13301000  1
  C  C12  1  0.76437800  0.30889700  0.02574300  1
  C  C13  1  0.76879400  0.01646800  0.30453800  1
  C  C14  1  0.72996500  0.38100200  0.36814300  1
  C  C15  1  0.75169700  0.28197600  0.67194500  1
  C  C16  1  0.74019600  0.65261600  0.26109000  1
  C  C17  1  0.38670200  0.07238700  0.31340300  1
  C  C18  1  0.40734000  0.31649500  0.06672300  1
  C  C19  1  0.59292800  0.68876200  0.94220800  1
  C  C20  1  0.59564300  0.95232800  0.69711500  1
  C  C21  1  0.25939900  0.34753400  0.71319200  1
  C  C22  1  0.26640600  0.71726800  0.35065800  1
  C  C23  1  0.30522600  0.63541400  0.63435700  1
  C  C24  1  0.22520700  0.96136300  0.68278200  1
  C  C25  1  0.22886200  0.68164000  0.96234900  1
