# generated using pymatgen
data_Cu7(NiC2)3
_symmetry_space_group_name_H-M   'P 1'
_cell_length_a   10.67867378
_cell_length_b   10.67867378
_cell_length_c   10.67867378
_cell_angle_alpha   113.78751902
_cell_angle_beta   113.78751902
_cell_angle_gamma   101.14590124
_symmetry_Int_Tables_number   1
_chemical_formula_structural   Cu7(NiC2)3
_chemical_formula_sum   'Cu28 Ni12 C24'
_cell_volume   922.87608572
_cell_formula_units_Z   4
loop_
 _symmetry_equiv_pos_site_id
 _symmetry_equiv_pos_as_xyz
  1  'x, y, z'
loop_
 _atom_site_type_symbol
 _atom_site_label
 _atom_site_symmetry_multiplicity
 _atom_site_fract_x
 _atom_site_fract_y
 _atom_site_fract_z
 _atom_site_occupancy
  C  C0  1  0.92241100  0.42241100  0.84482300  1
  C  C1  1  0.17241100  0.82758900  0.00000000  1
  C  C2  1  0.82758900  0.17241100  0.00000000  1
  C  C3  1  0.57758900  0.07758900  0.15517700  1
  C  C4  1  0.82758900  0.82758900  0.65517700  1
  C  C5  1  0.57758900  0.42241100  0.50000000  1
  C  C6  1  0.92241100  0.07758900  0.50000000  1
  C  C7  1  0.17241100  0.17241100  0.34482300  1
  C  C8  1  0.53382400  0.29836600  0.76454200  1
  C  C9  1  0.53382400  0.76928300  0.23545800  1
  C  C10  1  0.70163400  0.46617600  0.23545800  1
  C  C11  1  0.51928300  0.78382400  0.73545800  1
  C  C12  1  0.04836600  0.78382400  0.26454200  1
  C  C13  1  0.21617600  0.48071700  0.26454200  1
  C  C14  1  0.21617600  0.95163400  0.73545800  1
  C  C15  1  0.23071700  0.46617600  0.76454200  1
  C  C16  1  0.77944500  0.90464600  0.12520100  1
  C  C17  1  0.77944500  0.65424400  0.87479900  1
  C  C18  1  0.09535400  0.22055500  0.87479900  1
  C  C19  1  0.40424400  0.02944500  0.37479900  1
  C  C20  1  0.65464600  0.02944500  0.62520100  1
  C  C21  1  0.97055500  0.59575600  0.62520100  1
  C  C22  1  0.97055500  0.34535400  0.37479900  1
  C  C23  1  0.34575600  0.22055500  0.12520100  1
  Ni  Ni24  1  0.00000000  0.00000000  0.00000000  1
  Ni  Ni25  1  0.75000000  0.25000000  0.50000000  1
  Ni  Ni26  1  0.25000000  0.75000000  0.50000000  1
  Ni  Ni27  1  0.50000000  0.50000000  0.00000000  1
  Ni  Ni28  1  0.37500000  0.47933700  0.60433700  1
  Ni  Ni29  1  0.22933700  0.12500000  0.60433700  1
  Ni  Ni30  1  0.52066300  0.62500000  0.39566300  1
  Ni  Ni31  1  0.87500000  0.77066300  0.39566300  1
  Ni  Ni32  1  0.37500000  0.77066300  0.89566300  1
  Ni  Ni33  1  0.52066300  0.12500000  0.89566300  1
  Ni  Ni34  1  0.22933700  0.62500000  0.10433700  1
  Ni  Ni35  1  0.87500000  0.47933700  0.10433700  1
  Cu  Cu36  1  0.27488800  0.27488800  0.00000000  1
  Cu  Cu37  1  0.02488800  0.52488800  0.50000000  1
  Cu  Cu38  1  0.47511200  0.97511200  0.50000000  1
  Cu  Cu39  1  0.72511200  0.72511200  0.00000000  1
  Cu  Cu40  1  0.70103300  0.46731100  0.76627800  1
  Cu  Cu41  1  0.70103300  0.93475400  0.23372200  1
  Cu  Cu42  1  0.53268900  0.29896700  0.23372200  1
  Cu  Cu43  1  0.68475400  0.95103300  0.73372200  1
  Cu  Cu44  1  0.21731100  0.95103300  0.26627800  1
  Cu  Cu45  1  0.04896700  0.31524600  0.26627800  1
  Cu  Cu46  1  0.04896700  0.78268900  0.73372200  1
  Cu  Cu47  1  0.06524600  0.29896700  0.76627800  1
  Cu  Cu48  1  0.79175300  0.55756100  0.51702400  1
  Cu  Cu49  1  0.04053700  0.27473000  0.48297600  1
  Cu  Cu50  1  0.44243900  0.20824700  0.48297600  1
  Cu  Cu51  1  0.02473000  0.04175300  0.73419200  1
  Cu  Cu52  1  0.30756100  0.29053700  0.26580800  1
  Cu  Cu53  1  0.95824700  0.97527000  0.26580800  1
  Cu  Cu54  1  0.70946300  0.69243900  0.73419200  1
  Cu  Cu55  1  0.72527000  0.95946300  0.51702400  1
  Cu  Cu56  1  0.95824700  0.69243900  0.98297600  1
  Cu  Cu57  1  0.70946300  0.97527000  0.01702400  1
  Cu  Cu58  1  0.30756100  0.04175300  0.01702400  1
  Cu  Cu59  1  0.72527000  0.20824700  0.76580800  1
  Cu  Cu60  1  0.44243900  0.95946300  0.23419200  1
  Cu  Cu61  1  0.79175300  0.27473000  0.23419200  1
  Cu  Cu62  1  0.04053700  0.55756100  0.76580800  1
  Cu  Cu63  1  0.02473000  0.29053700  0.98297600  1
