# generated using pymatgen
data_CuNiC6
_symmetry_space_group_name_H-M   'P 1'
_cell_length_a   4.58214750
_cell_length_b   4.58214750
_cell_length_c   6.01697029
_cell_angle_alpha   76.94930241
_cell_angle_beta   76.94930241
_cell_angle_gamma   88.14926909
_symmetry_Int_Tables_number   1
_chemical_formula_structural   CuNiC6
_chemical_formula_sum   'Cu1 Ni1 C6'
_cell_volume   119.86759044
_cell_formula_units_Z   1
loop_
 _symmetry_equiv_pos_site_id
 _symmetry_equiv_pos_as_xyz
  1  'x, y, z'
loop_
 _atom_site_type_symbol
 _atom_site_label
 _atom_site_symmetry_multiplicity
 _atom_site_fract_x
 _atom_site_fract_y
 _atom_site_fract_z
 _atom_site_occupancy
  C  C0  1  0.84725700  0.84725700  0.38809300  1
  Ni  Ni1  1  0.34486100  0.34486100  0.88879200  1
  C  C2  1  0.82968800  0.20698000  0.81108000  1
  C  C3  1  0.20698000  0.82968800  0.81108000  1
  Cu  Cu4  1  0.38480600  0.38480600  0.20200600  1
  C  C5  1  0.10708400  0.10708400  0.89604000  1
  C  C6  1  0.65117300  0.26232100  0.73045900  1
  C  C7  1  0.26232100  0.65117300  0.73045900  1
