# generated using pymatgen
data_Cu4NiC
_symmetry_space_group_name_H-M   'P 1'
_cell_length_a   5.42838100
_cell_length_b   6.97525300
_cell_length_c   8.44249300
_cell_angle_alpha   90.00000000
_cell_angle_beta   90.00000000
_cell_angle_gamma   90.00000000
_symmetry_Int_Tables_number   1
_chemical_formula_structural   Cu4NiC
_chemical_formula_sum   'Cu16 Ni4 C4'
_cell_volume   319.66934820
_cell_formula_units_Z   4
loop_
 _symmetry_equiv_pos_site_id
 _symmetry_equiv_pos_as_xyz
  1  'x, y, z'
loop_
 _atom_site_type_symbol
 _atom_site_label
 _atom_site_symmetry_multiplicity
 _atom_site_fract_x
 _atom_site_fract_y
 _atom_site_fract_z
 _atom_site_occupancy
  C  C0  1  0.25000000  0.34095900  0.68884900  1
  C  C1  1  0.75000000  0.84095900  0.81115100  1
  C  C2  1  0.75000000  0.65904100  0.31115100  1
  C  C3  1  0.25000000  0.15904100  0.18884900  1
  Ni  Ni4  1  0.75000000  0.18654500  0.44265800  1
  Ni  Ni5  1  0.25000000  0.68654500  0.05734200  1
  Ni  Ni6  1  0.25000000  0.81345500  0.55734200  1
  Ni  Ni7  1  0.75000000  0.31345500  0.94265800  1
  Cu  Cu8  1  0.52527900  0.31130500  0.42476400  1
  Cu  Cu9  1  0.25000000  0.89921600  0.39790000  1
  Cu  Cu10  1  0.97472100  0.18869500  0.92476400  1
  Cu  Cu11  1  0.02527900  0.81130500  0.07523600  1
  Cu  Cu12  1  0.47472100  0.81130500  0.07523600  1
  Cu  Cu13  1  0.97472100  0.31130500  0.42476400  1
  Cu  Cu14  1  0.25000000  0.60078400  0.89790000  1
  Cu  Cu15  1  0.75000000  0.39921600  0.10210000  1
  Cu  Cu16  1  0.25000000  0.95879500  0.68629900  1
  Cu  Cu17  1  0.75000000  0.04120500  0.31370100  1
  Cu  Cu18  1  0.02527900  0.68869500  0.57523600  1
  Cu  Cu19  1  0.25000000  0.54120500  0.18629900  1
  Cu  Cu20  1  0.47472100  0.68869500  0.57523600  1
  Cu  Cu21  1  0.75000000  0.45879500  0.81370100  1
  Cu  Cu22  1  0.75000000  0.10078400  0.60210000  1
  Cu  Cu23  1  0.52527900  0.18869500  0.92476400  1
