# generated using pymatgen
data_Cu10Ni4C13
_symmetry_space_group_name_H-M   'P 1'
_cell_length_a   15.93978700
_cell_length_b   7.54806300
_cell_length_c   11.75747730
_cell_angle_alpha   52.75939256
_cell_angle_beta   90.00000000
_cell_angle_gamma   90.00000000
_symmetry_Int_Tables_number   1
_chemical_formula_structural   Cu10Ni4C13
_chemical_formula_sum   'Cu40 Ni16 C52'
_cell_volume   1126.16095894
_cell_formula_units_Z   4
loop_
 _symmetry_equiv_pos_site_id
 _symmetry_equiv_pos_as_xyz
  1  'x, y, z'
loop_
 _atom_site_type_symbol
 _atom_site_label
 _atom_site_symmetry_multiplicity
 _atom_site_fract_x
 _atom_site_fract_y
 _atom_site_fract_z
 _atom_site_occupancy
  C  C0  1  0.00000000  0.50000000  0.00000000  1
  C  C1  1  0.00000000  0.00000000  0.00000000  1
  C  C2  1  0.50000000  0.50000000  0.50000000  1
  C  C3  1  0.50000000  0.00000000  0.50000000  1
  C  C4  1  0.58974900  0.28566400  0.87180900  1
  C  C5  1  0.70062900  0.53510000  0.01393000  1
  C  C6  1  0.23208500  0.85168100  0.05618400  1
  C  C7  1  0.29904600  0.62507100  0.55210600  1
  C  C8  1  0.62934200  0.58465400  0.87884100  1
  C  C9  1  0.22692800  0.57518500  0.68663400  1
  C  C10  1  0.85651300  0.05484200  0.73980800  1
  C  C11  1  0.12934200  0.41534600  0.62115900  1
  C  C12  1  0.20095400  0.62507100  0.05210600  1
  C  C13  1  0.63004900  0.00982500  0.00281600  1
  C  C14  1  0.20062900  0.46490000  0.48607000  1
  C  C15  1  0.40581500  0.56752500  0.93902000  1
  C  C16  1  0.77307200  0.42481500  0.31336600  1
  C  C17  1  0.91025100  0.28566400  0.37180900  1
  C  C18  1  0.87065800  0.58465400  0.37884100  1
  C  C19  1  0.64348700  0.05484200  0.23980800  1
  C  C20  1  0.74962300  0.15882400  0.19907600  1
  C  C21  1  0.41025100  0.71433600  0.12819100  1
  C  C22  1  0.22034400  0.06438500  0.30836700  1
  C  C23  1  0.29937100  0.46490000  0.98607000  1
  C  C24  1  0.59418500  0.43247500  0.06098000  1
  C  C25  1  0.09418500  0.56752500  0.43902000  1
  C  C26  1  0.26791500  0.85168100  0.55618400  1
  C  C27  1  0.27965600  0.06438500  0.80836700  1
  C  C28  1  0.75037700  0.15882400  0.69907600  1
  C  C29  1  0.27307200  0.57518500  0.18663400  1
  C  C30  1  0.14348700  0.94515800  0.26019200  1
  C  C31  1  0.94726100  0.12450300  0.55407400  1
  C  C32  1  0.25037700  0.84117600  0.80092400  1
  C  C33  1  0.05273900  0.87549700  0.44592600  1
  C  C34  1  0.13004900  0.99017500  0.49718400  1
  C  C35  1  0.08974900  0.71433600  0.62819100  1
  C  C36  1  0.76791500  0.14831900  0.94381600  1
  C  C37  1  0.90581500  0.43247500  0.56098000  1
  C  C38  1  0.70095400  0.37492900  0.44789400  1
  C  C39  1  0.37065800  0.41534600  0.12115900  1
  C  C40  1  0.72034400  0.93561500  0.19163300  1
  C  C41  1  0.36995100  0.99017500  0.99718400  1
  C  C42  1  0.72692800  0.42481500  0.81336600  1
  C  C43  1  0.79937100  0.53510000  0.51393000  1
  C  C44  1  0.24962300  0.84117600  0.30092400  1
  C  C45  1  0.73208500  0.14831900  0.44381600  1
  C  C46  1  0.55273900  0.12450300  0.05407400  1
  C  C47  1  0.86995100  0.00982500  0.50281600  1
  C  C48  1  0.35651300  0.94515800  0.76019200  1
  C  C49  1  0.77965600  0.93561500  0.69163300  1
  C  C50  1  0.44726100  0.87549700  0.94592600  1
  C  C51  1  0.79904600  0.37492900  0.94789400  1
  Ni  Ni52  1  0.74837300  0.30407000  0.92392100  1
  Ni  Ni53  1  0.80090900  0.08832100  0.67445700  1
  Ni  Ni54  1  0.89369500  0.16138700  0.48452900  1
  Ni  Ni55  1  0.69909100  0.08832100  0.17445700  1
  Ni  Ni56  1  0.60630500  0.16138700  0.98452900  1
  Ni  Ni57  1  0.30090900  0.91167900  0.82554300  1
  Ni  Ni58  1  0.75162700  0.30407000  0.42392100  1
  Ni  Ni59  1  0.10630500  0.83861300  0.51547100  1
  Ni  Ni60  1  0.85237100  0.46800600  0.49136800  1
  Ni  Ni61  1  0.14762900  0.53199400  0.50863200  1
  Ni  Ni62  1  0.19909100  0.91167900  0.32554300  1
  Ni  Ni63  1  0.25162700  0.69593000  0.07607900  1
  Ni  Ni64  1  0.39369500  0.83861300  0.01547100  1
  Ni  Ni65  1  0.64762900  0.46800600  0.99136800  1
  Ni  Ni66  1  0.35237100  0.53199400  0.00863200  1
  Ni  Ni67  1  0.24837300  0.69593000  0.57607900  1
  Cu  Cu68  1  0.57621600  0.60537300  0.25089200  1
  Cu  Cu69  1  0.36245900  0.33901600  0.43508800  1
  Cu  Cu70  1  0.42378400  0.39462700  0.74910800  1
  Cu  Cu71  1  0.46980800  0.73754600  0.69490900  1
  Cu  Cu72  1  0.96980800  0.26245400  0.80509100  1
  Cu  Cu73  1  0.94633300  0.43460000  0.77965100  1
  Cu  Cu74  1  0.32449400  0.74506700  0.98035500  1
  Cu  Cu75  1  0.02185300  0.82497100  0.92007100  1
  Cu  Cu76  1  0.38970400  0.50004800  0.42007300  1
  Cu  Cu77  1  0.67550600  0.25493300  0.01964500  1
  Cu  Cu78  1  0.55366700  0.43460000  0.27965100  1
  Cu  Cu79  1  0.52185300  0.17502900  0.57992900  1
  Cu  Cu80  1  0.63754100  0.66098400  0.56491200  1
  Cu  Cu81  1  0.33420200  0.18510900  0.44629100  1
  Cu  Cu82  1  0.44480200  0.93493600  0.30361200  1
  Cu  Cu83  1  0.58712900  0.95950400  0.80806300  1
  Cu  Cu84  1  0.97814700  0.17502900  0.07992900  1
  Cu  Cu85  1  0.17550600  0.74506700  0.48035500  1
  Cu  Cu86  1  0.05366700  0.56540000  0.22034900  1
  Cu  Cu87  1  0.44633300  0.56540000  0.72034900  1
  Cu  Cu88  1  0.16579800  0.18510900  0.94629100  1
  Cu  Cu89  1  0.86245900  0.66098400  0.06491200  1
  Cu  Cu90  1  0.91287100  0.95950400  0.30806300  1
  Cu  Cu91  1  0.11029600  0.50004800  0.92007300  1
  Cu  Cu92  1  0.53019200  0.26245400  0.30509100  1
  Cu  Cu93  1  0.61029600  0.49995200  0.57992700  1
  Cu  Cu94  1  0.94480200  0.06506400  0.19638800  1
  Cu  Cu95  1  0.83420200  0.81489100  0.05370900  1
  Cu  Cu96  1  0.92378400  0.60537300  0.75089200  1
  Cu  Cu97  1  0.07621600  0.39462700  0.24910800  1
  Cu  Cu98  1  0.47814700  0.82497100  0.42007100  1
  Cu  Cu99  1  0.13754100  0.33901600  0.93508800  1
  Cu  Cu100  1  0.66579800  0.81489100  0.55370900  1
  Cu  Cu101  1  0.03019200  0.73754600  0.19490900  1
  Cu  Cu102  1  0.41287100  0.04049600  0.19193700  1
  Cu  Cu103  1  0.55519800  0.06506400  0.69638800  1
  Cu  Cu104  1  0.08712900  0.04049600  0.69193700  1
  Cu  Cu105  1  0.05519800  0.93493600  0.80361200  1
  Cu  Cu106  1  0.88970400  0.49995200  0.07992700  1
  Cu  Cu107  1  0.82449400  0.25493300  0.51964500  1
