# generated using pymatgen
data_CuNiC5
_symmetry_space_group_name_H-M   'P 1'
_cell_length_a   6.93935300
_cell_length_b   7.04538200
_cell_length_c   17.60990600
_cell_angle_alpha   90.00000000
_cell_angle_beta   90.00000000
_cell_angle_gamma   90.00000000
_symmetry_Int_Tables_number   1
_chemical_formula_structural   CuNiC5
_chemical_formula_sum   'Cu4 Ni4 C20'
_cell_volume   860.95522006
_cell_formula_units_Z   4
loop_
 _symmetry_equiv_pos_site_id
 _symmetry_equiv_pos_as_xyz
  1  'x, y, z'
loop_
 _atom_site_type_symbol
 _atom_site_label
 _atom_site_symmetry_multiplicity
 _atom_site_fract_x
 _atom_site_fract_y
 _atom_site_fract_z
 _atom_site_occupancy
  Ni  Ni0  1  0.02351300  0.25000000  0.28647000  1
  Ni  Ni1  1  0.47648700  0.25000000  0.78647000  1
  Ni  Ni2  1  0.52351300  0.75000000  0.21353000  1
  Ni  Ni3  1  0.97648700  0.75000000  0.71353000  1
  Cu  Cu4  1  0.28936900  0.25000000  0.52462400  1
  Cu  Cu5  1  0.71063100  0.75000000  0.47537600  1
  Cu  Cu6  1  0.78936900  0.75000000  0.97537600  1
  Cu  Cu7  1  0.21063100  0.25000000  0.02462400  1
  C  C8  1  0.22091600  0.75000000  0.40335500  1
  C  C9  1  0.27908400  0.75000000  0.90335500  1
  C  C10  1  0.77908400  0.25000000  0.59664500  1
  C  C11  1  0.72091600  0.25000000  0.09664500  1
  C  C12  1  0.46369400  0.25000000  0.17213200  1
  C  C13  1  0.53630600  0.75000000  0.82786800  1
  C  C14  1  0.40689600  0.49559700  0.38022000  1
  C  C15  1  0.90689600  0.50440300  0.11978000  1
  C  C16  1  0.96369400  0.75000000  0.32786800  1
  C  C17  1  0.59310400  0.50440300  0.61978000  1
  C  C18  1  0.09310400  0.00440300  0.88022000  1
  C  C19  1  0.03630600  0.25000000  0.67213200  1
  C  C20  1  0.40689600  0.00440300  0.38022000  1
  C  C21  1  0.90689600  0.99559700  0.11978000  1
  C  C22  1  0.35251900  0.75000000  0.02765700  1
  C  C23  1  0.14748100  0.75000000  0.52765700  1
  C  C24  1  0.64748100  0.25000000  0.97234300  1
  C  C25  1  0.59310400  0.99559700  0.61978000  1
  C  C26  1  0.85251900  0.25000000  0.47234300  1
  C  C27  1  0.09310400  0.49559700  0.88022000  1
