# generated using pymatgen
data_Cu8Ni2C11
_symmetry_space_group_name_H-M   'P 1'
_cell_length_a   11.37332698
_cell_length_b   11.37332698
_cell_length_c   10.67926155
_cell_angle_alpha   73.76047118
_cell_angle_beta   73.76047118
_cell_angle_gamma   42.18134535
_symmetry_Int_Tables_number   1
_chemical_formula_structural   Cu8Ni2C11
_chemical_formula_sum   'Cu32 Ni8 C44'
_cell_volume   884.92811376
_cell_formula_units_Z   4
loop_
 _symmetry_equiv_pos_site_id
 _symmetry_equiv_pos_as_xyz
  1  'x, y, z'
loop_
 _atom_site_type_symbol
 _atom_site_label
 _atom_site_symmetry_multiplicity
 _atom_site_fract_x
 _atom_site_fract_y
 _atom_site_fract_z
 _atom_site_occupancy
  C  C0  1  0.10343700  0.45079700  0.18590400  1
  C  C1  1  0.54920300  0.89656300  0.31409600  1
  C  C2  1  0.89656300  0.54920300  0.81409600  1
  C  C3  1  0.45079700  0.10343700  0.68590400  1
  C  C4  1  0.74032400  0.61272400  0.14216700  1
  C  C5  1  0.38727600  0.25967600  0.35783300  1
  C  C6  1  0.25967600  0.38727600  0.85783300  1
  C  C7  1  0.61272400  0.74032400  0.64216700  1
  C  C8  1  0.78655500  0.49436300  0.27859600  1
  C  C9  1  0.50563700  0.21344500  0.22140400  1
  C  C10  1  0.21344500  0.50563700  0.72140400  1
  C  C11  1  0.49436300  0.78655500  0.77859600  1
  C  C12  1  0.45501500  0.20121400  0.00916400  1
  C  C13  1  0.79878600  0.54498500  0.49083600  1
  C  C14  1  0.54498500  0.79878600  0.99083600  1
  C  C15  1  0.20121400  0.45501500  0.50916400  1
  C  C16  1  0.40971500  0.37682700  0.95700700  1
  C  C17  1  0.62317300  0.59028500  0.54299300  1
  C  C18  1  0.59028500  0.62317300  0.04299300  1
  C  C19  1  0.37682700  0.40971500  0.45700700  1
  C  C20  1  0.88980200  0.24665700  0.42010500  1
  C  C21  1  0.75334300  0.11019800  0.07989500  1
  C  C22  1  0.11019800  0.75334300  0.57989500  1
  C  C23  1  0.24665700  0.88980200  0.92010500  1
  C  C24  1  0.90652600  0.22389400  0.27499600  1
  C  C25  1  0.77610600  0.09347400  0.22500400  1
  C  C26  1  0.09347400  0.77610600  0.72500400  1
  C  C27  1  0.22389400  0.90652600  0.77499600  1
  C  C28  1  0.10445200  0.73061000  0.05125500  1
  C  C29  1  0.26939000  0.89554800  0.44874500  1
  C  C30  1  0.89554800  0.26939000  0.94874500  1
  C  C31  1  0.73061000  0.10445200  0.55125500  1
  C  C32  1  0.11684500  0.71621000  0.19823300  1
  C  C33  1  0.28379000  0.88315500  0.30176700  1
  C  C34  1  0.88315500  0.28379000  0.80176700  1
  C  C35  1  0.71621000  0.11684500  0.69823300  1
  C  C36  1  0.59327900  0.40094000  0.37055800  1
  C  C37  1  0.59906000  0.40672100  0.12944200  1
  C  C38  1  0.40672100  0.59906000  0.62944200  1
  C  C39  1  0.40094000  0.59327900  0.87055800  1
  C  C40  1  0.42423600  0.58957000  0.40426400  1
  C  C41  1  0.41043000  0.57576400  0.09573600  1
  C  C42  1  0.57576400  0.41043000  0.59573600  1
  C  C43  1  0.58957000  0.42423600  0.90426400  1
  Ni  Ni44  1  0.96408600  0.88686500  0.38501300  1
  Ni  Ni45  1  0.11313500  0.03591400  0.11498700  1
  Ni  Ni46  1  0.03591400  0.11313500  0.61498700  1
  Ni  Ni47  1  0.88686500  0.96408600  0.88501300  1
  Ni  Ni48  1  0.86070600  0.79040000  0.44685700  1
  Ni  Ni49  1  0.20960000  0.13929400  0.05314300  1
  Ni  Ni50  1  0.13929400  0.20960000  0.55314300  1
  Ni  Ni51  1  0.79040000  0.86070600  0.94685700  1
  Cu  Cu52  1  0.95145000  0.65299300  0.55996700  1
  Cu  Cu53  1  0.34700700  0.04855000  0.94003300  1
  Cu  Cu54  1  0.04855000  0.34700700  0.44003300  1
  Cu  Cu55  1  0.65299300  0.95145000  0.05996700  1
  Cu  Cu56  1  0.66784600  0.93731500  0.48494900  1
  Cu  Cu57  1  0.06268500  0.33215400  0.01505100  1
  Cu  Cu58  1  0.33215400  0.06268500  0.51505100  1
  Cu  Cu59  1  0.93731500  0.66784600  0.98494900  1
  Cu  Cu60  1  0.88396700  0.71603400  0.33632300  1
  Cu  Cu61  1  0.28396600  0.11603300  0.16367700  1
  Cu  Cu62  1  0.11603300  0.28396600  0.66367700  1
  Cu  Cu63  1  0.71603400  0.88396700  0.83632300  1
  Cu  Cu64  1  0.78143900  0.58583900  0.22763100  1
  Cu  Cu65  1  0.41416100  0.21856100  0.27236900  1
  Cu  Cu66  1  0.21856100  0.41416100  0.77236900  1
  Cu  Cu67  1  0.58583900  0.78143900  0.72763100  1
  Cu  Cu68  1  0.35792200  0.32855900  0.98428200  1
  Cu  Cu69  1  0.67144100  0.64207800  0.51571800  1
  Cu  Cu70  1  0.64207800  0.67144100  0.01571800  1
  Cu  Cu71  1  0.32855900  0.35792200  0.48428200  1
  Cu  Cu72  1  0.82409100  0.30752800  0.34274900  1
  Cu  Cu73  1  0.69247200  0.17590900  0.15725100  1
  Cu  Cu74  1  0.17590900  0.69247200  0.65725100  1
  Cu  Cu75  1  0.30752800  0.82409100  0.84274900  1
  Cu  Cu76  1  0.17064500  0.64426500  0.12666400  1
  Cu  Cu77  1  0.35573500  0.82935500  0.37333600  1
  Cu  Cu78  1  0.82935500  0.35573500  0.87333600  1
  Cu  Cu79  1  0.64426500  0.17064500  0.62666400  1
  Cu  Cu80  1  0.46642300  0.47834100  0.39798400  1
  Cu  Cu81  1  0.52165900  0.53357700  0.10201600  1
  Cu  Cu82  1  0.53357700  0.52165900  0.60201600  1
  Cu  Cu83  1  0.47834100  0.46642300  0.89798400  1
