# generated using pymatgen
data_Cu3Ni18C19
_symmetry_space_group_name_H-M   'P 1'
_cell_length_a   10.52193500
_cell_length_b   10.99437967
_cell_length_c   12.64212913
_cell_angle_alpha   110.83879044
_cell_angle_beta   107.56859224
_cell_angle_gamma   100.81006272
_symmetry_Int_Tables_number   1
_chemical_formula_structural   Cu3Ni18C19
_chemical_formula_sum   'Cu6 Ni36 C38'
_cell_volume   1229.58937178
_cell_formula_units_Z   2
loop_
 _symmetry_equiv_pos_site_id
 _symmetry_equiv_pos_as_xyz
  1  'x, y, z'
loop_
 _atom_site_type_symbol
 _atom_site_label
 _atom_site_symmetry_multiplicity
 _atom_site_fract_x
 _atom_site_fract_y
 _atom_site_fract_z
 _atom_site_occupancy
  C  C0  1  0.21233100  0.73403200  0.90790000  1
  C  C1  1  0.78766900  0.26596800  0.09210000  1
  Ni  Ni2  1  0.80731800  0.10230100  0.52259700  1
  Ni  Ni3  1  0.19268200  0.89769900  0.47740300  1
  Ni  Ni4  1  0.15554500  0.52868500  0.25725600  1
  Ni  Ni5  1  0.84445500  0.47131500  0.74274400  1
  Ni  Ni6  1  0.01479900  0.86092100  0.74703400  1
  Ni  Ni7  1  0.98520100  0.13907900  0.25296600  1
  Ni  Ni8  1  0.59144100  0.69225400  0.28040300  1
  Ni  Ni9  1  0.40855900  0.30774600  0.71959700  1
  Ni  Ni10  1  0.33997200  0.23135400  0.25157500  1
  Ni  Ni11  1  0.66002800  0.76864600  0.74842500  1
  Ni  Ni12  1  0.48010900  0.92575900  0.76301700  1
  Ni  Ni13  1  0.51989100  0.07424100  0.23698300  1
  Ni  Ni14  1  0.41934100  0.13358500  0.89797000  1
  Ni  Ni15  1  0.58065900  0.86641500  0.10203000  1
  Ni  Ni16  1  0.55370800  0.55150200  0.17259500  1
  Ni  Ni17  1  0.44629200  0.44849800  0.82740500  1
  Ni  Ni18  1  0.32031600  0.62558300  0.76308900  1
  Ni  Ni19  1  0.67968400  0.37441700  0.23691100  1
  Ni  Ni20  1  0.23682300  0.49541900  0.92440500  1
  Ni  Ni21  1  0.76317700  0.50458100  0.07559500  1
  Ni  Ni22  1  0.13454500  0.27985700  0.61257000  1
  Ni  Ni23  1  0.86545500  0.72014300  0.38743000  1
  Ni  Ni24  1  0.38359300  0.63112000  0.99840300  1
  Ni  Ni25  1  0.61640700  0.36888000  0.00159700  1
  Ni  Ni26  1  0.60187600  0.72544600  0.75553200  1
  Ni  Ni27  1  0.39812400  0.27455400  0.24446800  1
  Ni  Ni28  1  0.30557100  0.04321500  0.55482600  1
  Ni  Ni29  1  0.69442900  0.95678500  0.44517400  1
  Ni  Ni30  1  0.34475300  0.78069800  0.77357000  1
  Ni  Ni31  1  0.65524700  0.21930200  0.22643000  1
  Ni  Ni32  1  0.73253300  0.21766100  0.70265700  1
  Ni  Ni33  1  0.26746700  0.78233900  0.29734300  1
  Ni  Ni34  1  0.32961400  0.89932900  0.65967800  1
  Ni  Ni35  1  0.67038600  0.10067100  0.34032200  1
  Ni  Ni36  1  0.62250800  0.75206300  0.13708700  1
  Ni  Ni37  1  0.37749200  0.24793700  0.86291300  1
  Cu  Cu38  1  0.39277900  0.56733100  0.33248400  1
  Cu  Cu39  1  0.60722100  0.43266900  0.66751600  1
  Cu  Cu40  1  0.02776300  0.49613500  0.36879200  1
  Cu  Cu41  1  0.97223700  0.50386500  0.63120800  1
  Cu  Cu42  1  0.31895600  0.97949600  0.03037100  1
  Cu  Cu43  1  0.68104400  0.02050400  0.96962900  1
  C  C44  1  0.62080000  0.12395500  0.27278200  1
  C  C45  1  0.37920000  0.87604500  0.72721800  1
  C  C46  1  0.71870300  0.41042100  0.05917700  1
  C  C47  1  0.28129700  0.58957900  0.94082300  1
  C  C48  1  0.34535400  0.48061200  0.58616800  1
  C  C49  1  0.65464600  0.51938800  0.41383200  1
  C  C50  1  0.83029900  0.23133800  0.70665100  1
  C  C51  1  0.16970100  0.76866200  0.29334900  1
  C  C52  1  0.94567500  0.30719600  0.21500700  1
  C  C53  1  0.05432500  0.69280400  0.78499300  1
  C  C54  1  0.06840100  0.05025400  0.35590000  1
  C  C55  1  0.93159900  0.94974600  0.64410000  1
  C  C56  1  0.21705200  0.50449400  0.21179600  1
  C  C57  1  0.78294800  0.49550600  0.78820400  1
  C  C58  1  0.47943600  0.73113900  0.36113800  1
  C  C59  1  0.52056400  0.26886100  0.63886200  1
  C  C60  1  0.63164500  0.63823800  0.22474100  1
  C  C61  1  0.36835500  0.36176200  0.77525900  1
  C  C62  1  0.28966800  0.41955900  0.47095200  1
  C  C63  1  0.71033200  0.58044100  0.52904800  1
  C  C64  1  0.94517500  0.05556400  0.26193400  1
  C  C65  1  0.05482500  0.94443600  0.73806600  1
  C  C66  1  0.90047400  0.34545500  0.48979900  1
  C  C67  1  0.09952600  0.65454500  0.51020100  1
  C  C68  1  0.55619200  0.76653700  0.07253000  1
  C  C69  1  0.44380800  0.23346300  0.92747000  1
  C  C70  1  0.33078200  0.71814700  0.81852900  1
  C  C71  1  0.66921800  0.28185300  0.18147100  1
  C  C72  1  0.15330700  0.77678700  0.03204900  1
  C  C73  1  0.84669300  0.22321300  0.96795100  1
  C  C74  1  0.13874900  0.17046800  0.45317800  1
  C  C75  1  0.86125100  0.82953200  0.54682200  1
  C  C76  1  0.06351200  0.19133300  0.54723700  1
  C  C77  1  0.93648800  0.80866700  0.45276300  1
  C  C78  1  0.26349200  0.96088200  0.56103700  1
  C  C79  1  0.73650800  0.03911800  0.43896300  1
