# generated using pymatgen
data_Cu4Ni4C27
_symmetry_space_group_name_H-M   'P 1'
_cell_length_a   8.21268178
_cell_length_b   8.21268178
_cell_length_c   8.21268178
_cell_angle_alpha   107.62749700
_cell_angle_beta   107.62749700
_cell_angle_gamma   113.22515400
_symmetry_Int_Tables_number   1
_chemical_formula_structural   Cu4Ni4C27
_chemical_formula_sum   'Cu4 Ni4 C27'
_cell_volume   425.03321209
_cell_formula_units_Z   1
loop_
 _symmetry_equiv_pos_site_id
 _symmetry_equiv_pos_as_xyz
  1  'x, y, z'
loop_
 _atom_site_type_symbol
 _atom_site_label
 _atom_site_symmetry_multiplicity
 _atom_site_fract_x
 _atom_site_fract_y
 _atom_site_fract_z
 _atom_site_occupancy
  C  C0  1  0.00043200  0.00043200  0.00000000  1
  C  C1  1  0.54563500  0.88622800  0.35164400  1
  C  C2  1  0.53458400  0.19399100  0.64835600  1
  C  C3  1  0.88622800  0.53458400  0.34059300  1
  C  C4  1  0.19399100  0.54563500  0.65940700  1
  C  C5  1  0.39356500  0.62117300  0.21623600  1
  C  C6  1  0.40493700  0.17732900  0.78376400  1
  C  C7  1  0.62117300  0.40493700  0.22760800  1
  C  C8  1  0.17732900  0.39356500  0.77239200  1
  C  C9  1  0.03954300  0.45935800  0.01992100  1
  C  C10  1  0.43943800  0.01962200  0.98007900  1
  C  C11  1  0.45935800  0.43943800  0.41981500  1
  C  C12  1  0.01962200  0.03954300  0.58018500  1
  C  C13  1  0.94474300  0.61354100  0.99312600  1
  C  C14  1  0.62041500  0.95161700  0.00687400  1
  C  C15  1  0.61354100  0.62041500  0.66879900  1
  C  C16  1  0.95161700  0.94474300  0.33120100  1
  Ni  Ni17  1  0.24671600  0.76944600  0.17515200  1
  Ni  Ni18  1  0.59429400  0.07156400  0.82484800  1
  Ni  Ni19  1  0.76944600  0.59429400  0.52273000  1
  Ni  Ni20  1  0.07156400  0.24671600  0.47727000  1
  Cu  Cu21  1  0.28040700  0.00199800  0.22039200  1
  Cu  Cu22  1  0.78160600  0.06001500  0.77960800  1
  Cu  Cu23  1  0.00199800  0.78160600  0.72159100  1
  Cu  Cu24  1  0.06001500  0.28040700  0.27840900  1
  C  C25  1  0.40571800  0.75783100  0.26128000  1
  C  C26  1  0.49655100  0.14443800  0.73872000  1
  C  C27  1  0.75783100  0.49655100  0.35211200  1
  C  C28  1  0.14443800  0.40571800  0.64788800  1
  C  C29  1  0.06478700  0.60040900  0.05415600  1
  C  C30  1  0.54625300  0.01063100  0.94584400  1
  C  C31  1  0.60040900  0.54625300  0.53562200  1
  C  C32  1  0.01063100  0.06478700  0.46437800  1
  C  C33  1  0.73350000  0.73350000  0.00000000  1
  C  C34  1  0.28128100  0.28128100  0.00000000  1
