# generated using pymatgen
data_CuNiC8
_symmetry_space_group_name_H-M   'P 1'
_cell_length_a   7.59886800
_cell_length_b   5.48995100
_cell_length_c   12.56985040
_cell_angle_alpha   71.93511984
_cell_angle_beta   90.00000000
_cell_angle_gamma   90.00000000
_symmetry_Int_Tables_number   1
_chemical_formula_structural   CuNiC8
_chemical_formula_sum   'Cu4 Ni4 C32'
_cell_volume   498.53276350
_cell_formula_units_Z   4
loop_
 _symmetry_equiv_pos_site_id
 _symmetry_equiv_pos_as_xyz
  1  'x, y, z'
loop_
 _atom_site_type_symbol
 _atom_site_label
 _atom_site_symmetry_multiplicity
 _atom_site_fract_x
 _atom_site_fract_y
 _atom_site_fract_z
 _atom_site_occupancy
  Ni  Ni0  1  0.72542300  0.67635900  0.65347100  1
  Ni  Ni1  1  0.22542300  0.32364100  0.84652900  1
  Ni  Ni2  1  0.27457700  0.32364100  0.34652900  1
  Ni  Ni3  1  0.77457700  0.67635900  0.15347100  1
  Cu  Cu4  1  0.54143100  0.81859500  0.36359400  1
  Cu  Cu5  1  0.04143100  0.18140500  0.13640600  1
  Cu  Cu6  1  0.45856900  0.18140500  0.63640600  1
  Cu  Cu7  1  0.95856900  0.81859500  0.86359400  1
  C  C8  1  0.77391400  0.26216200  0.94718500  1
  C  C9  1  0.27391400  0.73783800  0.55281500  1
  C  C10  1  0.22608600  0.73783800  0.05281500  1
  C  C11  1  0.72608600  0.26216200  0.44718500  1
  C  C12  1  0.58304300  0.15306300  0.16178600  1
  C  C13  1  0.08304300  0.84693700  0.33821400  1
  C  C14  1  0.41695700  0.84693700  0.83821400  1
  C  C15  1  0.91695700  0.15306300  0.66178600  1
  C  C16  1  0.39216300  0.04051800  0.15836200  1
  C  C17  1  0.89216300  0.95948200  0.34163800  1
  C  C18  1  0.60783700  0.95948200  0.84163800  1
  C  C19  1  0.10783700  0.04051800  0.65836200  1
  C  C20  1  0.78214600  0.00394700  0.92455800  1
  C  C21  1  0.28214600  0.99605300  0.57544200  1
  C  C22  1  0.21785400  0.99605300  0.07544200  1
  C  C23  1  0.71785400  0.00394700  0.42455800  1
  C  C24  1  0.87608000  0.47619800  0.86417500  1
  C  C25  1  0.37608000  0.52380200  0.63582500  1
  C  C26  1  0.12392000  0.52380200  0.13582500  1
  C  C27  1  0.62392000  0.47619800  0.36417500  1
  C  C28  1  0.79917900  0.23915100  0.07078500  1
  C  C29  1  0.29917900  0.76084900  0.42921500  1
  C  C30  1  0.20082100  0.76084900  0.92921500  1
  C  C31  1  0.70082100  0.23915100  0.57078500  1
  C  C32  1  0.48633200  0.06147300  0.21023300  1
  C  C33  1  0.98633200  0.93852700  0.28976700  1
  C  C34  1  0.51366800  0.93852700  0.78976700  1
  C  C35  1  0.01366800  0.06147300  0.71023300  1
  C  C36  1  0.56869700  0.34531300  0.92300300  1
  C  C37  1  0.06869700  0.65468700  0.57699700  1
  C  C38  1  0.43130300  0.65468700  0.07699700  1
  C  C39  1  0.93130300  0.34531300  0.42300300  1
