# generated using pymatgen
data_CuNiC11
_symmetry_space_group_name_H-M   'P 1'
_cell_length_a   8.02848400
_cell_length_b   8.73765484
_cell_length_c   9.25983928
_cell_angle_alpha   87.04530143
_cell_angle_beta   87.34764146
_cell_angle_gamma   68.96625670
_symmetry_Int_Tables_number   1
_chemical_formula_structural   CuNiC11
_chemical_formula_sum   'Cu4 Ni4 C44'
_cell_volume   605.22203219
_cell_formula_units_Z   4
loop_
 _symmetry_equiv_pos_site_id
 _symmetry_equiv_pos_as_xyz
  1  'x, y, z'
loop_
 _atom_site_type_symbol
 _atom_site_label
 _atom_site_symmetry_multiplicity
 _atom_site_fract_x
 _atom_site_fract_y
 _atom_site_fract_z
 _atom_site_occupancy
  C  C0  1  0.72729000  0.77488700  0.86635500  1
  C  C1  1  0.34185800  0.85708500  0.20820700  1
  C  C2  1  0.45436500  0.83611500  0.57133100  1
  C  C3  1  0.73440100  0.25718000  0.07690900  1
  Ni  Ni4  1  0.14931900  0.43236900  0.00796100  1
  Ni  Ni5  1  0.51452600  0.13854800  0.40596400  1
  Ni  Ni6  1  0.36758700  0.06409000  0.88702300  1
  Ni  Ni7  1  0.99707900  0.60046800  0.45487600  1
  Cu  Cu8  1  0.11153800  0.18965400  0.61665500  1
  Cu  Cu9  1  0.30893500  0.46716500  0.19188900  1
  Cu  Cu10  1  0.72942700  0.43224100  0.71698000  1
  Cu  Cu11  1  0.91260400  0.94082100  0.27296600  1
  C  C12  1  0.90091400  0.91986500  0.57333100  1
  C  C13  1  0.58196500  0.56365800  0.10499800  1
  C  C14  1  0.36067200  0.61309100  0.43597900  1
  C  C15  1  0.62741300  0.28853500  0.58259800  1
  C  C16  1  0.73392700  0.54209400  0.41144300  1
  C  C17  1  0.76493600  0.53630100  0.18831500  1
  C  C18  1  0.91759100  0.07833300  0.86029900  1
  C  C19  1  0.42089200  0.36642700  0.85154800  1
  C  C20  1  0.04142500  0.08520800  0.40265500  1
  C  C21  1  0.02392300  0.88484400  0.70113700  1
  C  C22  1  0.72601700  0.06683600  0.85698700  1
  C  C23  1  0.01685500  0.71577900  0.03261800  1
  C  C24  1  0.91150900  0.96245100  0.66684500  1
  C  C25  1  0.46895900  0.88245700  0.99897000  1
  C  C26  1  0.20991200  0.13548600  0.05185300  1
  C  C27  1  0.66249700  0.38537200  0.57206600  1
  C  C28  1  0.05285600  0.84981100  0.16117300  1
  C  C29  1  0.23854700  0.27574200  0.56627900  1
  C  C30  1  0.56348600  0.03028600  0.77393000  1
  C  C31  1  0.18764600  0.51832300  0.32733900  1
  C  C32  1  0.31548200  0.32997300  0.87059100  1
  C  C33  1  0.46291500  0.30276400  0.22261700  1
  C  C34  1  0.37703900  0.59386300  0.11949800  1
  C  C35  1  0.05900500  0.60000800  0.62301600  1
  C  C36  1  0.04312400  0.28056100  0.02567000  1
  C  C37  1  0.91032300  0.82722000  0.40966400  1
  C  C38  1  0.20171300  0.06198100  0.75633600  1
  C  C39  1  0.20769300  0.70922500  0.78895700  1
  C  C40  1  0.84518700  0.53735900  0.35829100  1
  C  C41  1  0.62500500  0.39272200  0.84646600  1
  C  C42  1  0.36182900  0.71576600  0.78016500  1
  C  C43  1  0.71666500  0.51739100  0.09689800  1
  C  C44  1  0.72150200  0.02177600  0.22012200  1
  C  C45  1  0.39783900  0.00458100  0.37847300  1
  C  C46  1  0.69848200  0.61744700  0.69022400  1
  C  C47  1  0.82620400  0.05758800  0.92413300  1
  C  C48  1  0.43098600  0.68093700  0.40567400  1
  C  C49  1  0.98687000  0.63712700  0.97307500  1
  C  C50  1  0.93511700  0.33310100  0.72844900  1
  C  C51  1  0.95314900  0.09449000  0.32720400  1
