# generated using pymatgen
data_Cu3NiC5
_symmetry_space_group_name_H-M   'P 1'
_cell_length_a   7.05521003
_cell_length_b   7.05521003
_cell_length_c   8.61638904
_cell_angle_alpha   72.40031517
_cell_angle_beta   72.40031517
_cell_angle_gamma   49.60777360
_symmetry_Int_Tables_number   1
_chemical_formula_structural   Cu3NiC5
_chemical_formula_sum   'Cu6 Ni2 C10'
_cell_volume   307.99948154
_cell_formula_units_Z   2
loop_
 _symmetry_equiv_pos_site_id
 _symmetry_equiv_pos_as_xyz
  1  'x, y, z'
loop_
 _atom_site_type_symbol
 _atom_site_label
 _atom_site_symmetry_multiplicity
 _atom_site_fract_x
 _atom_site_fract_y
 _atom_site_fract_z
 _atom_site_occupancy
  C  C0  1  0.39737500  0.91451700  0.42104600  1
  C  C1  1  0.78537000  0.21746800  0.27224700  1
  C  C2  1  0.08548700  0.56587800  0.07832100  1
  C  C3  1  0.44105900  0.91207200  0.90839400  1
  C  C4  1  0.91451700  0.39737500  0.92104600  1
  C  C5  1  0.08455400  0.59490600  0.58202600  1
  C  C6  1  0.21746800  0.78537000  0.77224700  1
  C  C7  1  0.56587800  0.08548700  0.57832100  1
  C  C8  1  0.91207200  0.44105900  0.40839400  1
  C  C9  1  0.59490600  0.08455400  0.08202600  1
  Ni  Ni10  1  0.67754800  0.32313700  0.69563800  1
  Ni  Ni11  1  0.32313700  0.67754800  0.19563800  1
  Cu  Cu12  1  0.03567300  0.96402300  0.03854000  1
  Cu  Cu13  1  0.67187300  0.64403000  0.67217300  1
  Cu  Cu14  1  0.96402300  0.03567300  0.53854000  1
  Cu  Cu15  1  0.33217300  0.35470100  0.32562500  1
  Cu  Cu16  1  0.64403000  0.67187300  0.17217300  1
  Cu  Cu17  1  0.35470100  0.33217300  0.82562500  1
