# generated using pymatgen
data_Cu2NiC2
_symmetry_space_group_name_H-M   'P 1'
_cell_length_a   6.82403200
_cell_length_b   8.32596198
_cell_length_c   11.71362456
_cell_angle_alpha   105.32427167
_cell_angle_beta   92.91343088
_cell_angle_gamma   112.47358462
_symmetry_Int_Tables_number   1
_chemical_formula_structural   Cu2NiC2
_chemical_formula_sum   'Cu8 Ni4 C8'
_cell_volume   584.44696677
_cell_formula_units_Z   4
loop_
 _symmetry_equiv_pos_site_id
 _symmetry_equiv_pos_as_xyz
  1  'x, y, z'
loop_
 _atom_site_type_symbol
 _atom_site_label
 _atom_site_symmetry_multiplicity
 _atom_site_fract_x
 _atom_site_fract_y
 _atom_site_fract_z
 _atom_site_occupancy
  Ni  Ni0  1  0.76241300  0.51404800  0.38550400  1
  Ni  Ni1  1  0.23758700  0.48595200  0.61449600  1
  Ni  Ni2  1  0.99175500  0.74357700  0.11347200  1
  Ni  Ni3  1  0.00824500  0.25642300  0.88652800  1
  Cu  Cu4  1  0.62777500  0.73943400  0.94812300  1
  Cu  Cu5  1  0.80542600  0.18331200  0.21464300  1
  Cu  Cu6  1  0.37222500  0.26056600  0.05187700  1
  Cu  Cu7  1  0.20623600  0.04719000  0.36924500  1
  Cu  Cu8  1  0.19457400  0.81668800  0.78535700  1
  Cu  Cu9  1  0.79376400  0.95281000  0.63075500  1
  Cu  Cu10  1  0.43689200  0.68784700  0.32121300  1
  Cu  Cu11  1  0.56310800  0.31215300  0.67878700  1
  C  C12  1  0.14013800  0.14026000  0.89325700  1
  C  C13  1  0.31635700  0.61359700  0.74818700  1
  C  C14  1  0.68364300  0.38640300  0.25181300  1
  C  C15  1  0.84100300  0.18635400  0.76946400  1
  C  C16  1  0.66494400  0.65619900  0.42677900  1
  C  C17  1  0.33505600  0.34380100  0.57322100  1
  C  C18  1  0.85986200  0.85974000  0.10674300  1
  C  C19  1  0.15899700  0.81364600  0.23053600  1
