# generated using pymatgen
data_Cu10Ni9C25
_symmetry_space_group_name_H-M   'P 1'
_cell_length_a   26.34184330
_cell_length_b   12.43048988
_cell_length_c   11.90052127
_cell_angle_alpha   43.64111692
_cell_angle_beta   32.97099744
_cell_angle_gamma   25.82524808
_symmetry_Int_Tables_number   1
_chemical_formula_structural   Cu10Ni9C25
_chemical_formula_sum   'Cu10 Ni9 C25'
_cell_volume   915.63601511
_cell_formula_units_Z   1
loop_
 _symmetry_equiv_pos_site_id
 _symmetry_equiv_pos_as_xyz
  1  'x, y, z'
loop_
 _atom_site_type_symbol
 _atom_site_label
 _atom_site_symmetry_multiplicity
 _atom_site_fract_x
 _atom_site_fract_y
 _atom_site_fract_z
 _atom_site_occupancy
  C  C0  1  0.47086000  0.41494800  0.11710100  1
  C  C1  1  0.64288300  0.33119500  0.14450700  1
  C  C2  1  0.82352200  0.46478600  0.76600800  1
  C  C3  1  0.70784200  0.62700600  0.17257600  1
  C  C4  1  0.00396500  0.48758000  0.82608400  1
  C  C5  1  0.18402400  0.11969700  0.16737200  1
  C  C6  1  0.12235500  0.72004800  0.89205200  1
  C  C7  1  0.42785100  0.08830900  0.08694400  1
  C  C8  1  0.35187400  0.60825500  0.90328600  1
  C  C9  1  0.46069100  0.81753500  0.70723200  1
  C  C10  1  0.01649900  0.01781600  0.12151000  1
  C  C11  1  0.06888300  0.12678400  0.15777600  1
  C  C12  1  0.56385000  0.74366100  0.83598600  1
  C  C13  1  0.67995700  0.98790900  0.83580300  1
  C  C14  1  0.97712500  0.66908000  0.00422100  1
  Ni  Ni15  1  0.07622300  0.38411300  0.45528600  1
  Ni  Ni16  1  0.32416100  0.29020400  0.39625500  1
  Ni  Ni17  1  0.98871100  0.93687500  0.66582600  1
  Ni  Ni18  1  0.48605800  0.12730900  0.58354400  1
  Ni  Ni19  1  0.36256400  0.77612300  0.51413200  1
  Ni  Ni20  1  0.71291600  0.08231000  0.48123800  1
  Ni  Ni21  1  0.83684200  0.19820900  0.51306700  1
  Ni  Ni22  1  0.75595800  0.75833000  0.43340200  1
  Ni  Ni23  1  0.00483800  0.72124000  0.41867600  1
  Cu  Cu24  1  0.83789500  0.36542100  0.55181800  1
  Cu  Cu25  1  0.02502000  0.17905700  0.81922600  1
  Cu  Cu26  1  0.27655800  0.38420500  0.63442800  1
  Cu  Cu27  1  0.21288600  0.95554700  0.48264000  1
  Cu  Cu28  1  0.47537500  0.35632100  0.62301100  1
  Cu  Cu29  1  0.37036300  0.95028800  0.52292000  1
  Cu  Cu30  1  0.71814400  0.23584900  0.54078300  1
  Cu  Cu31  1  0.71793400  0.92824800  0.18882000  1
  Cu  Cu32  1  0.92949900  0.65946400  0.32785400  1
  Cu  Cu33  1  0.08735800  0.75355700  0.42856500  1
  C  C34  1  0.93266600  0.29645500  0.15009600  1
  C  C35  1  0.27668700  0.84173200  0.04345100  1
  C  C36  1  0.13521500  0.69745100  0.09835200  1
  C  C37  1  0.57716300  0.69665700  0.00420700  1
  C  C38  1  0.45652300  0.26992700  0.07904100  1
  C  C39  1  0.75256200  0.84689700  0.94515500  1
  C  C40  1  0.46198900  0.71023400  0.97875700  1
  C  C41  1  0.92146600  0.96221800  0.92240600  1
  C  C42  1  0.67738800  0.79129500  0.92489600  1
  C  C43  1  0.05685500  0.36985400  0.03369300  1
