# generated using pymatgen
data_Cu(NiC5)2
_symmetry_space_group_name_H-M   'P 1'
_cell_length_a   10.19036190
_cell_length_b   10.19036190
_cell_length_c   10.19036190
_cell_angle_alpha   60.00000000
_cell_angle_beta   60.00000000
_cell_angle_gamma   60.00000000
_symmetry_Int_Tables_number   1
_chemical_formula_structural   Cu(NiC5)2
_chemical_formula_sum   'Cu4 Ni8 C40'
_cell_volume   748.26223212
_cell_formula_units_Z   4
loop_
 _symmetry_equiv_pos_site_id
 _symmetry_equiv_pos_as_xyz
  1  'x, y, z'
loop_
 _atom_site_type_symbol
 _atom_site_label
 _atom_site_symmetry_multiplicity
 _atom_site_fract_x
 _atom_site_fract_y
 _atom_site_fract_z
 _atom_site_occupancy
  C  C0  1  0.99008500  0.50991500  0.50991500  1
  C  C1  1  0.25991500  0.74008500  0.25991500  1
  C  C2  1  0.74008500  0.25991500  0.74008500  1
  C  C3  1  0.99008500  0.99008500  0.50991500  1
  C  C4  1  0.99008500  0.50991500  0.99008500  1
  C  C5  1  0.25991500  0.74008500  0.74008500  1
  C  C6  1  0.50991500  0.99008500  0.99008500  1
  C  C7  1  0.74008500  0.25991500  0.25991500  1
  C  C8  1  0.50991500  0.99008500  0.50991500  1
  C  C9  1  0.25991500  0.25991500  0.74008500  1
  C  C10  1  0.74008500  0.74008500  0.25991500  1
  C  C11  1  0.50991500  0.50991500  0.99008500  1
  C  C12  1  0.12500000  0.12500000  0.62500000  1
  C  C13  1  0.12500000  0.12500000  0.12500000  1
  C  C14  1  0.62500000  0.12500000  0.12500000  1
  C  C15  1  0.12500000  0.62500000  0.12500000  1
  Ni  Ni16  1  0.90890000  0.90890000  0.90890000  1
  Ni  Ni17  1  0.27330000  0.90890000  0.90890000  1
  Ni  Ni18  1  0.90890000  0.27330000  0.90890000  1
  Ni  Ni19  1  0.34110000  0.34110000  0.34110000  1
  Ni  Ni20  1  0.34110000  0.34110000  0.97670000  1
  Ni  Ni21  1  0.34110000  0.97670000  0.34110000  1
  Ni  Ni22  1  0.90890000  0.90890000  0.27330000  1
  Ni  Ni23  1  0.97670000  0.34110000  0.34110000  1
  Cu  Cu24  1  0.62500000  0.62500000  0.12500000  1
  Cu  Cu25  1  0.12500000  0.62500000  0.62500000  1
  Cu  Cu26  1  0.62500000  0.62500000  0.62500000  1
  Cu  Cu27  1  0.62500000  0.12500000  0.62500000  1
  C  C28  1  0.76131700  0.27515300  0.98176500  1
  C  C29  1  0.48868300  0.97484700  0.26823500  1
  C  C30  1  0.98176500  0.76131700  0.98176500  1
  C  C31  1  0.48868300  0.26823500  0.26823500  1
  C  C32  1  0.76131700  0.98176500  0.98176500  1
  C  C33  1  0.26823500  0.97484700  0.26823500  1
  C  C34  1  0.26823500  0.26823500  0.48868300  1
  C  C35  1  0.26823500  0.48868300  0.26823500  1
  C  C36  1  0.98176500  0.98176500  0.76131700  1
  C  C37  1  0.26823500  0.97484700  0.48868300  1
  C  C38  1  0.97484700  0.26823500  0.48868300  1
  C  C39  1  0.97484700  0.48868300  0.26823500  1
  C  C40  1  0.26823500  0.48868300  0.97484700  1
  C  C41  1  0.98176500  0.27515300  0.76131700  1
  C  C42  1  0.98176500  0.98176500  0.27515300  1
  C  C43  1  0.26823500  0.26823500  0.97484700  1
  C  C44  1  0.76131700  0.98176500  0.27515300  1
  C  C45  1  0.27515300  0.76131700  0.98176500  1
  C  C46  1  0.27515300  0.98176500  0.98176500  1
  C  C47  1  0.48868300  0.26823500  0.97484700  1
  C  C48  1  0.27515300  0.98176500  0.76131700  1
  C  C49  1  0.98176500  0.76131700  0.27515300  1
  C  C50  1  0.98176500  0.27515300  0.98176500  1
  C  C51  1  0.97484700  0.26823500  0.26823500  1
