# generated using pymatgen
data_Cu(Ni3C2)4
_symmetry_space_group_name_H-M   'P 1'
_cell_length_a   9.50088768
_cell_length_b   9.50088768
_cell_length_c   6.91984800
_cell_angle_alpha   90.00000000
_cell_angle_beta   90.00000000
_cell_angle_gamma   119.99999779
_symmetry_Int_Tables_number   1
_chemical_formula_structural   Cu(Ni3C2)4
_chemical_formula_sum   'Cu2 Ni24 C16'
_cell_volume   540.94805584
_cell_formula_units_Z   2
loop_
 _symmetry_equiv_pos_site_id
 _symmetry_equiv_pos_as_xyz
  1  'x, y, z'
loop_
 _atom_site_type_symbol
 _atom_site_label
 _atom_site_symmetry_multiplicity
 _atom_site_fract_x
 _atom_site_fract_y
 _atom_site_fract_z
 _atom_site_occupancy
  C  C0  1  0.75404800  0.75540300  0.25000000  1
  C  C1  1  0.00135500  0.24595200  0.25000000  1
  C  C2  1  0.75540300  0.00135500  0.75000000  1
  C  C3  1  0.99864500  0.75404800  0.75000000  1
  C  C4  1  0.24595200  0.24459700  0.75000000  1
  C  C5  1  0.24459700  0.99864500  0.25000000  1
  C  C6  1  0.33333300  0.66666700  0.49891500  1
  C  C7  1  0.66666700  0.33333300  0.99891500  1
  C  C8  1  0.66666700  0.33333300  0.50108500  1
  C  C9  1  0.33333300  0.66666700  0.00108500  1
  C  C10  1  0.63072700  0.02900400  0.25000000  1
  C  C11  1  0.97099600  0.60172300  0.25000000  1
  C  C12  1  0.60172300  0.63072700  0.75000000  1
  C  C13  1  0.36927300  0.97099600  0.75000000  1
  C  C14  1  0.02900400  0.39827700  0.75000000  1
  C  C15  1  0.39827700  0.36927300  0.25000000  1
  Ni  Ni16  1  0.67121100  0.51391400  0.75000000  1
  Ni  Ni17  1  0.46558600  0.87750500  0.75000000  1
  Ni  Ni18  1  0.34075600  0.25696600  0.43043600  1
  Ni  Ni19  1  0.08379000  0.34075600  0.93043600  1
  Ni  Ni20  1  0.25696600  0.91621000  0.93043600  1
  Ni  Ni21  1  0.74303400  0.08379000  0.43043600  1
  Ni  Ni22  1  0.91621000  0.65924400  0.43043600  1
  Ni  Ni23  1  0.65924400  0.74303400  0.93043600  1
  Ni  Ni24  1  0.65924400  0.74303400  0.56956400  1
  Ni  Ni25  1  0.91621000  0.65924400  0.06956400  1
  Ni  Ni26  1  0.74303400  0.08379000  0.06956400  1
  Ni  Ni27  1  0.25696600  0.91621000  0.56956400  1
  Ni  Ni28  1  0.12249500  0.58808200  0.75000000  1
  Ni  Ni29  1  0.34075600  0.25696600  0.06956400  1
  Ni  Ni30  1  0.41191800  0.53441400  0.75000000  1
  Ni  Ni31  1  0.87750500  0.41191800  0.25000000  1
  Ni  Ni32  1  0.32878900  0.48608600  0.25000000  1
  Ni  Ni33  1  0.84270300  0.32878900  0.75000000  1
  Ni  Ni34  1  0.48608600  0.15729700  0.75000000  1
  Ni  Ni35  1  0.51391400  0.84270300  0.25000000  1
  Ni  Ni36  1  0.15729700  0.67121100  0.25000000  1
  Ni  Ni37  1  0.08379000  0.34075600  0.56956400  1
  Ni  Ni38  1  0.58808200  0.46558600  0.25000000  1
  Ni  Ni39  1  0.53441400  0.12249500  0.25000000  1
  Cu  Cu40  1  0.00000000  0.00000000  0.25000000  1
  Cu  Cu41  1  0.00000000  0.00000000  0.75000000  1
