# generated using pymatgen
data_CuNiC3
_symmetry_space_group_name_H-M   'P 1'
_cell_length_a   5.05743800
_cell_length_b   5.49684722
_cell_length_c   12.59469475
_cell_angle_alpha   93.21074530
_cell_angle_beta   90.15717959
_cell_angle_gamma   117.15883200
_symmetry_Int_Tables_number   1
_chemical_formula_structural   CuNiC3
_chemical_formula_sum   'Cu6 Ni6 C18'
_cell_volume   310.88111828
_cell_formula_units_Z   6
loop_
 _symmetry_equiv_pos_site_id
 _symmetry_equiv_pos_as_xyz
  1  'x, y, z'
loop_
 _atom_site_type_symbol
 _atom_site_label
 _atom_site_symmetry_multiplicity
 _atom_site_fract_x
 _atom_site_fract_y
 _atom_site_fract_z
 _atom_site_occupancy
  Ni  Ni0  1  0.47705700  0.93708800  0.89197100  1
  Ni  Ni1  1  0.52500500  0.04582900  0.61736200  1
  Ni  Ni2  1  0.85406000  0.71265000  0.28448500  1
  Ni  Ni3  1  0.13934900  0.28248700  0.71808900  1
  Ni  Ni4  1  0.47303800  0.94869800  0.38051800  1
  Ni  Ni5  1  0.82397900  0.60324000  0.04932800  1
  Cu  Cu6  1  0.19086300  0.38733800  0.95121000  1
  Cu  Cu7  1  0.79718800  0.59780500  0.55025700  1
  Cu  Cu8  1  0.86140800  0.72702200  0.78193900  1
  Cu  Cu9  1  0.13134100  0.26730100  0.21538800  1
  Cu  Cu10  1  0.19944400  0.39751200  0.45087100  1
  Cu  Cu11  1  0.53508300  0.06177300  0.11759200  1
  C  C12  1  0.87189500  0.08962900  0.84964400  1
  C  C13  1  0.31775800  0.00010700  0.75070400  1
  C  C14  1  0.46326100  0.21514600  0.97550500  1
  C  C15  1  0.87922900  0.42296800  0.68466700  1
  C  C16  1  0.02605600  0.67291900  0.92071200  1
  C  C17  1  0.24804700  0.77888700  0.52294500  1
  C  C18  1  0.41499600  0.55159000  0.81025200  1
  C  C19  1  0.64129400  0.66806000  0.41059900  1
  C  C20  1  0.78847400  0.90612500  0.64732600  1
  C  C21  1  0.21015600  0.08962100  0.35120400  1
  C  C22  1  0.35265000  0.32385400  0.59276000  1
  C  C23  1  0.57672500  0.44946700  0.18764700  1
  C  C24  1  0.74763800  0.21590500  0.48075800  1
  C  C25  1  0.96203200  0.33862300  0.08397100  1
  C  C26  1  0.12221300  0.57666400  0.31742200  1
  C  C27  1  0.54862700  0.75854400  0.01397400  1
  C  C28  1  0.69003300  0.99597000  0.25783200  1
  C  C29  1  0.08269900  0.88037700  0.14516900  1
