# generated using pymatgen
data_Cu26(Ni4C3)3
_symmetry_space_group_name_H-M   'P 1'
_cell_length_a   7.67797271
_cell_length_b   7.67797271
_cell_length_c   14.78118600
_cell_angle_alpha   90.00000000
_cell_angle_beta   90.00000000
_cell_angle_gamma   104.76326092
_symmetry_Int_Tables_number   1
_chemical_formula_structural   Cu26(Ni4C3)3
_chemical_formula_sum   'Cu52 Ni24 C18'
_cell_volume   842.60307558
_cell_formula_units_Z   2
loop_
 _symmetry_equiv_pos_site_id
 _symmetry_equiv_pos_as_xyz
  1  'x, y, z'
loop_
 _atom_site_type_symbol
 _atom_site_label
 _atom_site_symmetry_multiplicity
 _atom_site_fract_x
 _atom_site_fract_y
 _atom_site_fract_z
 _atom_site_occupancy
  C  C0  1  0.81486900  0.09095700  0.25000000  1
  C  C1  1  0.90904300  0.18513100  0.75000000  1
  C  C2  1  0.18513100  0.90904300  0.75000000  1
  C  C3  1  0.09095700  0.81486900  0.25000000  1
  Ni  Ni4  1  0.32039100  0.32039100  0.98474600  1
  Ni  Ni5  1  0.67960900  0.67960900  0.01525400  1
  Ni  Ni6  1  0.32039100  0.32039100  0.51525400  1
  Ni  Ni7  1  0.67960900  0.67960900  0.48474600  1
  Ni  Ni8  1  0.39866900  0.39866900  0.09447900  1
  Ni  Ni9  1  0.60133100  0.60133100  0.90552100  1
  Ni  Ni10  1  0.39866900  0.39866900  0.40552100  1
  Ni  Ni11  1  0.60133100  0.60133100  0.59447900  1
  Ni  Ni12  1  0.48974300  0.63635900  0.08909000  1
  Ni  Ni13  1  0.36364100  0.51025700  0.91091000  1
  Ni  Ni14  1  0.48974300  0.63635900  0.41091000  1
  Ni  Ni15  1  0.36364100  0.51025700  0.58909000  1
  Ni  Ni16  1  0.51025700  0.36364100  0.91091000  1
  Ni  Ni17  1  0.63635900  0.48974300  0.08909000  1
  Ni  Ni18  1  0.51025700  0.36364100  0.58909000  1
  Ni  Ni19  1  0.63635900  0.48974300  0.41091000  1
  Ni  Ni20  1  0.53173100  0.29514800  0.02437700  1
  Ni  Ni21  1  0.70485200  0.46826900  0.97562300  1
  Ni  Ni22  1  0.53173100  0.29514800  0.47562300  1
  Ni  Ni23  1  0.70485200  0.46826900  0.52437700  1
  Ni  Ni24  1  0.46826900  0.70485200  0.97562300  1
  Ni  Ni25  1  0.29514800  0.53173100  0.02437700  1
  Ni  Ni26  1  0.46826900  0.70485200  0.52437700  1
  Ni  Ni27  1  0.29514800  0.53173100  0.47562300  1
  Cu  Cu28  1  0.76237200  0.76237200  0.19765600  1
  Cu  Cu29  1  0.23762800  0.23762800  0.80234400  1
  Cu  Cu30  1  0.76237200  0.76237200  0.30234400  1
  Cu  Cu31  1  0.23762800  0.23762800  0.69765600  1
  Cu  Cu32  1  0.16221800  0.52144900  0.19756900  1
  Cu  Cu33  1  0.47855100  0.83778200  0.80243100  1
  Cu  Cu34  1  0.16221800  0.52144900  0.30243100  1
  Cu  Cu35  1  0.47855100  0.83778200  0.69756900  1
  Cu  Cu36  1  0.83778200  0.47855100  0.80243100  1
  Cu  Cu37  1  0.52144900  0.16221800  0.19756900  1
  Cu  Cu38  1  0.83778200  0.47855100  0.69756900  1
  Cu  Cu39  1  0.52144900  0.16221800  0.30243100  1
  Cu  Cu40  1  0.21364000  0.03625000  0.39350100  1
  Cu  Cu41  1  0.96375000  0.78636000  0.60649900  1
  Cu  Cu42  1  0.21364000  0.03625000  0.10649900  1
  Cu  Cu43  1  0.96375000  0.78636000  0.89350100  1
  Cu  Cu44  1  0.78636000  0.96375000  0.60649900  1
  Cu  Cu45  1  0.03625000  0.21364000  0.39350100  1
  Cu  Cu46  1  0.78636000  0.96375000  0.89350100  1
  Cu  Cu47  1  0.03625000  0.21364000  0.10649900  1
  Cu  Cu48  1  0.24414100  0.84646600  0.40640200  1
  Cu  Cu49  1  0.15353400  0.75585900  0.59359800  1
  Cu  Cu50  1  0.24414100  0.84646600  0.09359800  1
  Cu  Cu51  1  0.15353400  0.75585900  0.90640200  1
  Cu  Cu52  1  0.75585900  0.15353400  0.59359800  1
  Cu  Cu53  1  0.84646600  0.24414100  0.40640200  1
  Cu  Cu54  1  0.75585900  0.15353400  0.90640200  1
  Cu  Cu55  1  0.84646600  0.24414100  0.09359800  1
  Cu  Cu56  1  0.19304700  0.19304700  0.97391500  1
  Cu  Cu57  1  0.80695300  0.80695300  0.02608500  1
  Cu  Cu58  1  0.19304700  0.19304700  0.52608500  1
  Cu  Cu59  1  0.80695300  0.80695300  0.47391500  1
  Cu  Cu60  1  0.32524400  0.32524400  0.16189200  1
  Cu  Cu61  1  0.67475600  0.67475600  0.83810800  1
  Cu  Cu62  1  0.32524400  0.32524400  0.33810800  1
  Cu  Cu63  1  0.67475600  0.67475600  0.66189200  1
  Cu  Cu64  1  0.48010000  0.73297900  0.15173000  1
  Cu  Cu65  1  0.26702100  0.51990000  0.84827000  1
  Cu  Cu66  1  0.48010000  0.73297900  0.34827000  1
  Cu  Cu67  1  0.26702100  0.51990000  0.65173000  1
  Cu  Cu68  1  0.51990000  0.26702100  0.84827000  1
  Cu  Cu69  1  0.73297900  0.48010000  0.15173000  1
  Cu  Cu70  1  0.51990000  0.26702100  0.65173000  1
  Cu  Cu71  1  0.73297900  0.48010000  0.34827000  1
  Cu  Cu72  1  0.55660000  0.14984400  0.04135200  1
  Cu  Cu73  1  0.85015600  0.44340000  0.95864800  1
  Cu  Cu74  1  0.55660000  0.14984400  0.45864800  1
  Cu  Cu75  1  0.85015600  0.44340000  0.54135200  1
  Cu  Cu76  1  0.44340000  0.85015600  0.95864800  1
  Cu  Cu77  1  0.14984400  0.55660000  0.04135200  1
  Cu  Cu78  1  0.44340000  0.85015600  0.54135200  1
  Cu  Cu79  1  0.14984400  0.55660000  0.45864800  1
  C  C80  1  0.82680000  0.82680000  0.25000000  1
  C  C81  1  0.17320000  0.17320000  0.75000000  1
  C  C82  1  0.11259700  0.56911600  0.25000000  1
  C  C83  1  0.43088400  0.88740300  0.75000000  1
  C  C84  1  0.88740300  0.43088400  0.75000000  1
  C  C85  1  0.56911600  0.11259700  0.25000000  1
  C  C86  1  0.17995000  0.91425900  0.36892600  1
  C  C87  1  0.08574100  0.82005000  0.63107400  1
  C  C88  1  0.17995000  0.91425900  0.13107400  1
  C  C89  1  0.08574100  0.82005000  0.86892600  1
  C  C90  1  0.82005000  0.08574100  0.63107400  1
  C  C91  1  0.91425900  0.17995000  0.36892600  1
  C  C92  1  0.82005000  0.08574100  0.86892600  1
  C  C93  1  0.91425900  0.17995000  0.13107400  1
