# generated using pymatgen
data_Cu3NiC7
_symmetry_space_group_name_H-M   'P 1'
_cell_length_a   6.56245651
_cell_length_b   6.56245651
_cell_length_c   6.56245678
_cell_angle_alpha   90.44821899
_cell_angle_beta   90.44821899
_cell_angle_gamma   90.44823199
_symmetry_Int_Tables_number   1
_chemical_formula_structural   Cu3NiC7
_chemical_formula_sum   'Cu6 Ni2 C14'
_cell_volume   282.59160391
_cell_formula_units_Z   2
loop_
 _symmetry_equiv_pos_site_id
 _symmetry_equiv_pos_as_xyz
  1  'x, y, z'
loop_
 _atom_site_type_symbol
 _atom_site_label
 _atom_site_symmetry_multiplicity
 _atom_site_fract_x
 _atom_site_fract_y
 _atom_site_fract_z
 _atom_site_occupancy
  Ni  Ni0  1  0.25000000  0.25000000  0.25000000  1
  Ni  Ni1  1  0.75000000  0.75000000  0.75000000  1
  Cu  Cu2  1  0.75000000  0.10491500  0.39508500  1
  Cu  Cu3  1  0.39508500  0.75000000  0.10491500  1
  Cu  Cu4  1  0.10491500  0.39508500  0.75000000  1
  Cu  Cu5  1  0.25000000  0.89508500  0.60491500  1
  Cu  Cu6  1  0.60491500  0.25000000  0.89508500  1
  Cu  Cu7  1  0.89508500  0.60491500  0.25000000  1
  C  C8  1  0.50000000  0.50000000  0.50000000  1
  C  C9  1  0.00000000  0.00000000  0.00000000  1
  C  C10  1  0.43252100  0.20979200  0.55759300  1
  C  C11  1  0.55759300  0.43252100  0.20979200  1
  C  C12  1  0.20979200  0.55759300  0.43252100  1
  C  C13  1  0.06747900  0.94240700  0.29020800  1
  C  C14  1  0.29020800  0.06747900  0.94240700  1
  C  C15  1  0.94240700  0.29020800  0.06747900  1
  C  C16  1  0.56747900  0.79020800  0.44240700  1
  C  C17  1  0.44240700  0.56747900  0.79020800  1
  C  C18  1  0.79020800  0.44240700  0.56747900  1
  C  C19  1  0.93252100  0.05759300  0.70979200  1
  C  C20  1  0.05759300  0.70979200  0.93252100  1
  C  C21  1  0.70979200  0.93252100  0.05759300  1
