# generated using pymatgen
data_CuNi5C17
_symmetry_space_group_name_H-M   'P 1'
_cell_length_a   8.35378386
_cell_length_b   8.35378386
_cell_length_c   5.21875200
_cell_angle_alpha   90.00000000
_cell_angle_beta   90.00000000
_cell_angle_gamma   119.99999889
_symmetry_Int_Tables_number   1
_chemical_formula_structural   CuNi5C17
_chemical_formula_sum   'Cu1 Ni5 C17'
_cell_volume   315.40150745
_cell_formula_units_Z   1
loop_
 _symmetry_equiv_pos_site_id
 _symmetry_equiv_pos_as_xyz
  1  'x, y, z'
loop_
 _atom_site_type_symbol
 _atom_site_label
 _atom_site_symmetry_multiplicity
 _atom_site_fract_x
 _atom_site_fract_y
 _atom_site_fract_z
 _atom_site_occupancy
  C  C0  1  0.57254000  0.57254000  0.00000000  1
  C  C1  1  0.00000000  0.42746000  0.00000000  1
  C  C2  1  0.42746000  0.00000000  0.00000000  1
  Ni  Ni3  1  0.66666700  0.33333300  0.53028800  1
  Ni  Ni4  1  0.33333300  0.66666700  0.46971200  1
  Ni  Ni5  1  0.24514900  0.24514900  0.50000000  1
  Ni  Ni6  1  0.00000000  0.75485100  0.50000000  1
  Ni  Ni7  1  0.75485100  0.00000000  0.50000000  1
  Cu  Cu8  1  0.00000000  0.00000000  0.00000000  1
  C  C9  1  0.08223600  0.22791600  0.75810500  1
  C  C10  1  0.77208400  0.85432000  0.75810500  1
  C  C11  1  0.14568000  0.91776400  0.75810500  1
  C  C12  1  0.85432000  0.77208400  0.24189500  1
  C  C13  1  0.91776400  0.14568000  0.24189500  1
  C  C14  1  0.22791600  0.08223600  0.24189500  1
  C  C15  1  0.31568400  0.46009100  0.30244600  1
  C  C16  1  0.53990900  0.85559300  0.30244600  1
  C  C17  1  0.14440700  0.68431600  0.30244600  1
  C  C18  1  0.33333300  0.66666700  0.81908500  1
  C  C19  1  0.66666700  0.33333300  0.18091500  1
  C  C20  1  0.46009100  0.31568400  0.69755400  1
  C  C21  1  0.68431600  0.14440700  0.69755400  1
  C  C22  1  0.85559300  0.53990900  0.69755400  1
