# generated using pymatgen
data_CuNiC5
_symmetry_space_group_name_H-M   'P 1'
_cell_length_a   7.29206600
_cell_length_b   9.35608400
_cell_length_c   13.63076520
_cell_angle_alpha   75.29043483
_cell_angle_beta   90.00000000
_cell_angle_gamma   90.00000000
_symmetry_Int_Tables_number   1
_chemical_formula_structural   CuNiC5
_chemical_formula_sum   'Cu8 Ni8 C40'
_cell_volume   899.48230083
_cell_formula_units_Z   8
loop_
 _symmetry_equiv_pos_site_id
 _symmetry_equiv_pos_as_xyz
  1  'x, y, z'
loop_
 _atom_site_type_symbol
 _atom_site_label
 _atom_site_symmetry_multiplicity
 _atom_site_fract_x
 _atom_site_fract_y
 _atom_site_fract_z
 _atom_site_occupancy
  C  C0  1  0.75469700  0.95569300  0.32825700  1
  C  C1  1  0.25469700  0.04430700  0.17174300  1
  C  C2  1  0.24530300  0.04430700  0.67174300  1
  C  C3  1  0.74530300  0.95569300  0.82825700  1
  Ni  Ni4  1  0.74266200  0.03235400  0.08145100  1
  Ni  Ni5  1  0.24266200  0.96764600  0.41854900  1
  Ni  Ni6  1  0.25733800  0.96764600  0.91854900  1
  Ni  Ni7  1  0.75733800  0.03235400  0.58145100  1
  Ni  Ni8  1  0.54460300  0.31821900  0.25647400  1
  Ni  Ni9  1  0.04460300  0.68178100  0.24352600  1
  Ni  Ni10  1  0.45539700  0.68178100  0.74352600  1
  Ni  Ni11  1  0.95539700  0.31821900  0.75647400  1
  Cu  Cu12  1  0.70926000  0.17926400  0.02585900  1
  Cu  Cu13  1  0.20926000  0.82073600  0.47414100  1
  Cu  Cu14  1  0.29074000  0.82073600  0.97414100  1
  Cu  Cu15  1  0.79074000  0.17926400  0.52585900  1
  Cu  Cu16  1  0.46314600  0.36388200  0.33702400  1
  Cu  Cu17  1  0.96314600  0.63611800  0.16297600  1
  Cu  Cu18  1  0.53685400  0.63611800  0.66297600  1
  Cu  Cu19  1  0.03685400  0.36388200  0.83702400  1
  C  C20  1  0.58267500  0.98574300  0.15875500  1
  C  C21  1  0.08267500  0.01425700  0.34124500  1
  C  C22  1  0.41732500  0.01425700  0.84124500  1
  C  C23  1  0.91732500  0.98574300  0.65875500  1
  C  C24  1  0.91634800  0.03286900  0.14715200  1
  C  C25  1  0.41634800  0.96713100  0.35284800  1
  C  C26  1  0.08365200  0.96713100  0.85284800  1
  C  C27  1  0.58365200  0.03286900  0.64715200  1
  C  C28  1  0.75601700  0.93888500  0.00502500  1
  C  C29  1  0.25601700  0.06111500  0.49497500  1
  C  C30  1  0.24398300  0.06111500  0.99497500  1
  C  C31  1  0.74398300  0.93888500  0.50502500  1
  C  C32  1  0.70922000  0.22065700  0.29039500  1
  C  C33  1  0.20922000  0.77934300  0.20960500  1
  C  C34  1  0.29078000  0.77934300  0.70960500  1
  C  C35  1  0.79078000  0.22065700  0.79039500  1
  C  C36  1  0.64352500  0.48090500  0.18965300  1
  C  C37  1  0.14352500  0.51909500  0.31034700  1
  C  C38  1  0.35647500  0.51909500  0.81034700  1
  C  C39  1  0.85647500  0.48090500  0.68965300  1
  C  C40  1  0.40040300  0.27188100  0.19172700  1
  C  C41  1  0.90040300  0.72811900  0.30827300  1
  C  C42  1  0.59959700  0.72811900  0.80827300  1
  C  C43  1  0.09959700  0.27188100  0.69172700  1
  C  C44  1  0.63650800  0.60967100  0.45925300  1
  C  C45  1  0.13650800  0.39032900  0.04074700  1
  C  C46  1  0.36349200  0.39032900  0.54074700  1
  C  C47  1  0.86349200  0.60967100  0.95925300  1
  C  C48  1  0.48532700  0.41559500  0.84752700  1
  C  C49  1  0.98532700  0.58440500  0.65247300  1
  C  C50  1  0.51467300  0.58440500  0.15247300  1
  C  C51  1  0.01467300  0.41559500  0.34752700  1
  C  C52  1  0.76622500  0.49872600  0.97438300  1
  C  C53  1  0.26622500  0.50127400  0.52561700  1
  C  C54  1  0.23377500  0.50127400  0.02561700  1
  C  C55  1  0.73377500  0.49872600  0.47438300  1
