# generated using pymatgen
data_Cu(Ni4C43)3
_symmetry_space_group_name_H-M   'P 1'
_cell_length_a   9.82178600
_cell_length_b   9.82178600
_cell_length_c   14.84188800
_cell_angle_alpha   90.00000000
_cell_angle_beta   90.00000000
_cell_angle_gamma   90.00000000
_symmetry_Int_Tables_number   1
_chemical_formula_structural   Cu(Ni4C43)3
_chemical_formula_sum   'Cu1 Ni12 C129'
_cell_volume   1431.75953721
_cell_formula_units_Z   1
loop_
 _symmetry_equiv_pos_site_id
 _symmetry_equiv_pos_as_xyz
  1  'x, y, z'
loop_
 _atom_site_type_symbol
 _atom_site_label
 _atom_site_symmetry_multiplicity
 _atom_site_fract_x
 _atom_site_fract_y
 _atom_site_fract_z
 _atom_site_occupancy
  C  C0  1  0.14391000  0.37048600  0.83755300  1
  C  C1  1  0.64817400  0.12375000  0.80659200  1
  C  C2  1  0.62951400  0.14391000  0.16244700  1
  C  C3  1  0.35182600  0.87625000  0.80659200  1
  C  C4  1  0.85609000  0.62951400  0.83755300  1
  C  C5  1  0.37048600  0.85609000  0.16244700  1
  C  C6  1  0.12375000  0.35182600  0.19340800  1
  C  C7  1  0.87625000  0.64817400  0.19340800  1
  C  C8  1  0.64823800  0.82244100  0.69140400  1
  C  C9  1  0.64956800  0.85883700  0.30008600  1
  C  C10  1  0.35043200  0.14116300  0.30008600  1
  C  C11  1  0.82244100  0.35176200  0.30859600  1
  C  C12  1  0.14116300  0.64956800  0.69991400  1
  C  C13  1  0.35176200  0.17755900  0.69140400  1
  C  C14  1  0.50000000  0.50000000  0.50000000  1
  C  C15  1  0.85883700  0.35043200  0.69991400  1
  C  C16  1  0.17755900  0.64823800  0.30859600  1
  C  C17  1  0.58553200  0.51239200  0.20186800  1
  C  C18  1  0.08656400  0.99871500  0.70341500  1
  C  C19  1  0.68940700  0.04653800  0.58834800  1
  C  C20  1  0.32673800  0.66517700  0.41860800  1
  C  C21  1  0.63329800  0.89360900  0.05199400  1
  C  C22  1  0.48995600  0.58542500  0.28169600  1
  C  C23  1  0.00128500  0.08656400  0.29658500  1
  C  C24  1  0.51004400  0.41457500  0.28169600  1
  C  C25  1  0.48760800  0.58553200  0.79813200  1
  C  C26  1  0.31059300  0.95346200  0.58834800  1
  C  C27  1  0.24045600  0.12322500  0.97495400  1
  C  C28  1  0.36670200  0.10639100  0.05199400  1
  C  C29  1  0.10639100  0.63329800  0.94800600  1
  C  C30  1  0.11185900  0.22097900  0.49884600  1
  C  C31  1  0.33482300  0.32673800  0.58139200  1
  C  C32  1  0.68737300  0.73565100  0.02164100  1
  C  C33  1  0.00189700  0.08550800  0.78348300  1
  C  C34  1  0.51239200  0.41446800  0.79813200  1
  C  C35  1  0.04653800  0.31059300  0.41165200  1
  C  C36  1  0.67326200  0.33482300  0.41860800  1
  C  C37  1  0.64608300  0.01106600  0.47957800  1
  C  C38  1  0.01106600  0.35391700  0.52042200  1
  C  C39  1  0.87677500  0.24045600  0.02504600  1
  C  C40  1  0.31262700  0.26434900  0.02164100  1
  C  C41  1  0.75954400  0.87677500  0.97495400  1
  C  C42  1  0.99810300  0.91449200  0.78348300  1
  C  C43  1  0.98893400  0.64608300  0.52042200  1
  C  C44  1  0.95346200  0.68940700  0.41165200  1
  C  C45  1  0.41446800  0.48760800  0.20186800  1
  C  C46  1  0.40072900  0.16815100  0.94954000  1
  C  C47  1  0.89360900  0.36670200  0.94800600  1
  C  C48  1  0.88814100  0.77902100  0.49884600  1
  C  C49  1  0.77902100  0.11185900  0.50115400  1
  C  C50  1  0.56920700  0.75032000  0.42109200  1
  C  C51  1  0.26434900  0.68737300  0.97835900  1
  C  C52  1  0.83044400  0.61976200  0.47707900  1
  C  C53  1  0.75032000  0.43079300  0.57890800  1
  C  C54  1  0.61976200  0.16955600  0.52292100  1
  C  C55  1  0.91343600  0.00128500  0.70341500  1
  C  C56  1  0.38023800  0.83044400  0.52292100  1
  C  C57  1  0.83184900  0.40072900  0.05046000  1
  C  C58  1  0.16815100  0.59927100  0.05046000  1
  C  C59  1  0.35391700  0.98893400  0.47957800  1
  C  C60  1  0.08550800  0.99810300  0.21651700  1
  C  C61  1  0.43079300  0.24968000  0.42109200  1
  C  C62  1  0.66517700  0.67326200  0.58139200  1
  C  C63  1  0.99871500  0.91343600  0.29658500  1
  C  C64  1  0.22097900  0.88814100  0.50115400  1
  C  C65  1  0.16955600  0.38023800  0.47707900  1
  C  C66  1  0.24968000  0.56920700  0.57890800  1
  C  C67  1  0.59927100  0.83184900  0.94954000  1
  C  C68  1  0.91449200  0.00189700  0.21651700  1
  C  C69  1  0.12322500  0.75954400  0.02504600  1
  C  C70  1  0.58542500  0.51004400  0.71830400  1
  C  C71  1  0.41457500  0.48995600  0.71830400  1
  C  C72  1  0.73565100  0.31262700  0.97835900  1
  Ni  Ni73  1  0.16547800  0.67088800  0.00006000  1
  Ni  Ni74  1  0.91435000  0.68217600  0.47718600  1
  Ni  Ni75  1  0.00000000  0.00000000  0.25711400  1
  Ni  Ni76  1  0.50000000  0.50000000  0.24198700  1
  Ni  Ni77  1  0.08565000  0.31782400  0.47718600  1
  Ni  Ni78  1  0.50000000  0.50000000  0.75801300  1
  Ni  Ni79  1  0.31782400  0.91435000  0.52281400  1
  Ni  Ni80  1  0.67088800  0.83452200  0.99994000  1
  Ni  Ni81  1  0.83452200  0.32911200  0.00006000  1
  Ni  Ni82  1  0.00000000  0.00000000  0.74288600  1
  Ni  Ni83  1  0.32911200  0.16547800  0.99994000  1
  Ni  Ni84  1  0.68217600  0.08565000  0.52281400  1
  Cu  Cu85  1  0.00000000  0.00000000  0.50000000  1
  C  C86  1  0.01019500  0.33131000  0.71486000  1
  C  C87  1  0.59673500  0.26901800  0.86645800  1
  C  C88  1  0.79071200  0.46723800  0.75105500  1
  C  C89  1  0.78396200  0.78191300  0.27628400  1
  C  C90  1  0.49309900  0.81276700  0.69715500  1
  C  C91  1  0.74249300  0.58026800  0.92146200  1
  C  C92  1  0.78191300  0.21603800  0.72371600  1
  C  C93  1  0.37032200  0.47255200  0.55827600  1
  C  C94  1  0.94835500  0.76548600  0.11979400  1
  C  C95  1  0.00000000  0.50000000  0.87227100  1
  C  C96  1  0.69321900  0.77318900  0.59469900  1
  C  C97  1  0.25750700  0.41973200  0.92146200  1
  C  C98  1  0.26982600  0.71464900  0.23631700  1
  C  C99  1  0.20928800  0.53276200  0.75105500  1
  C  C100  1  0.22428500  0.92968300  0.11586900  1
  C  C101  1  0.58026800  0.25750700  0.07853800  1
  C  C102  1  0.62967800  0.52744800  0.55827600  1
  C  C103  1  0.66869000  0.01019500  0.28514000  1
  C  C104  1  0.07031700  0.22428500  0.88413100  1
  C  C105  1  0.77571500  0.07031700  0.11586900  1
  C  C106  1  0.76548600  0.05164500  0.88020600  1
  C  C107  1  0.37603000  0.16269900  0.40526100  1
  C  C108  1  0.33131000  0.98980500  0.28514000  1
  C  C109  1  0.03069600  0.70263600  0.30168000  1
  C  C110  1  0.21808700  0.78396200  0.72371600  1
  C  C111  1  0.21603800  0.21808700  0.27628400  1
  C  C112  1  0.62397000  0.83730100  0.40526100  1
  C  C113  1  0.96930400  0.29736400  0.30168000  1
  C  C114  1  0.23451400  0.94835500  0.88020600  1
  C  C115  1  0.52744800  0.37032200  0.44172400  1
  C  C116  1  0.05164500  0.23451400  0.11979400  1
  C  C117  1  0.47255200  0.62967800  0.44172400  1
  C  C118  1  0.28535100  0.26982600  0.76368300  1
  C  C119  1  0.83730100  0.37603000  0.59473900  1
  C  C120  1  0.22681100  0.69321900  0.40530100  1
  C  C121  1  0.50000000  0.00000000  0.83524200  1
  C  C122  1  0.41973200  0.74249300  0.07853800  1
  C  C123  1  0.00000000  0.50000000  0.16475800  1
  C  C124  1  0.73098200  0.59673500  0.13354200  1
  C  C125  1  0.98980500  0.66869000  0.71486000  1
  C  C126  1  0.81276700  0.50690100  0.30284500  1
  C  C127  1  0.50690100  0.18723300  0.69715500  1
  C  C128  1  0.30678100  0.22681100  0.59469900  1
  C  C129  1  0.92968300  0.77571500  0.88413100  1
  C  C130  1  0.26901800  0.40326500  0.13354200  1
  C  C131  1  0.73017400  0.28535100  0.23631700  1
  C  C132  1  0.50000000  0.00000000  0.12772900  1
  C  C133  1  0.16269900  0.62397000  0.59473900  1
  C  C134  1  0.18723300  0.49309900  0.30284500  1
  C  C135  1  0.53276200  0.79071200  0.24894500  1
  C  C136  1  0.29736400  0.03069600  0.69832000  1
  C  C137  1  0.77318900  0.30678100  0.40530100  1
  C  C138  1  0.71464900  0.73017400  0.76368300  1
  C  C139  1  0.70263600  0.96930400  0.69832000  1
  C  C140  1  0.46723800  0.20928800  0.24894500  1
  C  C141  1  0.40326500  0.73098200  0.86645800  1
