# generated using pymatgen
data_CuNi4C9
_symmetry_space_group_name_H-M   'P 1'
_cell_length_a   6.55527700
_cell_length_b   10.46506800
_cell_length_c   17.46720544
_cell_angle_alpha   62.70280536
_cell_angle_beta   90.00000000
_cell_angle_gamma   90.00000000
_symmetry_Int_Tables_number   1
_chemical_formula_structural   CuNi4C9
_chemical_formula_sum   'Cu4 Ni16 C36'
_cell_volume   1064.83480174
_cell_formula_units_Z   4
loop_
 _symmetry_equiv_pos_site_id
 _symmetry_equiv_pos_as_xyz
  1  'x, y, z'
loop_
 _atom_site_type_symbol
 _atom_site_label
 _atom_site_symmetry_multiplicity
 _atom_site_fract_x
 _atom_site_fract_y
 _atom_site_fract_z
 _atom_site_occupancy
  Ni  Ni0  1  0.85543900  0.30186800  0.62110000  1
  Ni  Ni1  1  0.85543900  0.69813200  0.87890000  1
  Ni  Ni2  1  0.14456100  0.69813200  0.37890000  1
  Ni  Ni3  1  0.14456100  0.30186800  0.12110000  1
  Ni  Ni4  1  0.28104500  0.26137700  0.48440500  1
  Ni  Ni5  1  0.28104500  0.73862300  0.01559500  1
  Ni  Ni6  1  0.71895500  0.73862300  0.51559500  1
  Ni  Ni7  1  0.71895500  0.26137700  0.98440500  1
  Ni  Ni8  1  0.77245100  0.15142700  0.42779200  1
  Ni  Ni9  1  0.77245100  0.84857300  0.07220800  1
  Ni  Ni10  1  0.22754900  0.84857300  0.57220800  1
  Ni  Ni11  1  0.22754900  0.15142700  0.92779200  1
  Ni  Ni12  1  0.97816500  0.50000000  0.25000000  1
  Ni  Ni13  1  0.02183500  0.50000000  0.75000000  1
  Ni  Ni14  1  0.68173400  0.00000000  0.25000000  1
  Ni  Ni15  1  0.31826600  0.00000000  0.75000000  1
  Cu  Cu16  1  0.53993800  0.36580400  0.75992800  1
  Cu  Cu17  1  0.46006200  0.36580400  0.25992800  1
  Cu  Cu18  1  0.46006200  0.63419600  0.24007200  1
  Cu  Cu19  1  0.53993800  0.63419600  0.74007200  1
  C  C20  1  0.77490100  0.95081700  0.65485400  1
  C  C21  1  0.77490100  0.04918300  0.84514600  1
  C  C22  1  0.22509900  0.04918300  0.34514600  1
  C  C23  1  0.22509900  0.95081700  0.15485400  1
  C  C24  1  0.67126200  0.51778000  0.40288700  1
  C  C25  1  0.67126200  0.48222000  0.09711300  1
  C  C26  1  0.32873800  0.48222000  0.59711300  1
  C  C27  1  0.32873800  0.51778000  0.90288700  1
  C  C28  1  0.18261800  0.75348400  0.19517000  1
  C  C29  1  0.18261800  0.24651600  0.30483000  1
  C  C30  1  0.81738200  0.24651600  0.80483000  1
  C  C31  1  0.81738200  0.75348400  0.69517000  1
  C  C32  1  0.53223000  0.43042200  0.34740900  1
  C  C33  1  0.53223000  0.56957800  0.15259100  1
  C  C34  1  0.46777000  0.56957800  0.65259100  1
  C  C35  1  0.46777000  0.43042200  0.84740900  1
  C  C36  1  0.46439900  0.01601500  0.09181700  1
  C  C37  1  0.46439900  0.98398500  0.40818300  1
  C  C38  1  0.53560100  0.98398500  0.90818300  1
  C  C39  1  0.53560100  0.01601500  0.59181700  1
  C  C40  1  0.72213600  0.29202500  0.17242200  1
  C  C41  1  0.27786400  0.29202500  0.67242200  1
  C  C42  1  0.27786400  0.70797500  0.82757800  1
  C  C43  1  0.72213600  0.70797500  0.32757800  1
  C  C44  1  0.92309700  0.57543500  0.06491700  1
  C  C45  1  0.92309700  0.42456500  0.43508300  1
  C  C46  1  0.07690300  0.42456500  0.93508300  1
  C  C47  1  0.07690300  0.57543500  0.56491700  1
  C  C48  1  0.98840100  0.05552000  0.58354000  1
  C  C49  1  0.98840100  0.94448000  0.91646000  1
  C  C50  1  0.01159900  0.94448000  0.41646000  1
  C  C51  1  0.01159900  0.05552000  0.08354000  1
  C  C52  1  0.50000000  0.50000000  0.00000000  1
  C  C53  1  0.50000000  0.50000000  0.50000000  1
  C  C54  1  0.75810500  0.00000000  0.75000000  1
  C  C55  1  0.24189500  0.00000000  0.25000000  1
