# generated using pymatgen
data_Cu(NiC3)2
_symmetry_space_group_name_H-M   'P 1'
_cell_length_a   6.09211600
_cell_length_b   5.95718200
_cell_length_c   6.47570665
_cell_angle_alpha   84.79266149
_cell_angle_beta   90.00000000
_cell_angle_gamma   90.00000000
_symmetry_Int_Tables_number   1
_chemical_formula_structural   Cu(NiC3)2
_chemical_formula_sum   'Cu2 Ni4 C12'
_cell_volume   234.04537468
_cell_formula_units_Z   2
loop_
 _symmetry_equiv_pos_site_id
 _symmetry_equiv_pos_as_xyz
  1  'x, y, z'
loop_
 _atom_site_type_symbol
 _atom_site_label
 _atom_site_symmetry_multiplicity
 _atom_site_fract_x
 _atom_site_fract_y
 _atom_site_fract_z
 _atom_site_occupancy
  Ni  Ni0  1  0.35333500  0.99798200  0.66061200  1
  Ni  Ni1  1  0.27832800  0.45934900  0.97128100  1
  Ni  Ni2  1  0.77832800  0.54065100  0.02871900  1
  Ni  Ni3  1  0.85333500  0.00201800  0.33938800  1
  Cu  Cu4  1  0.84832400  0.08817600  0.83350500  1
  Cu  Cu5  1  0.34832400  0.91182400  0.16649500  1
  C  C6  1  0.50053200  0.51884000  0.22258100  1
  C  C7  1  0.09004400  0.65001400  0.11028300  1
  C  C8  1  0.86835700  0.68270400  0.75455200  1
  C  C9  1  0.38908600  0.73930600  0.80682200  1
  C  C10  1  0.64268100  0.04150100  0.54273500  1
  C  C11  1  0.21525600  0.14559000  0.87109500  1
  C  C12  1  0.71525600  0.85441000  0.12890500  1
  C  C13  1  0.14268100  0.95849900  0.45726500  1
  C  C14  1  0.88908600  0.26069400  0.19317800  1
  C  C15  1  0.36835700  0.31729600  0.24544800  1
  C  C16  1  0.59004400  0.34998600  0.88971700  1
  C  C17  1  0.00053200  0.48116000  0.77741900  1
