# generated using pymatgen
data_Cu(NiC2)2
_symmetry_space_group_name_H-M   'P 1'
_cell_length_a   6.02870076
_cell_length_b   6.02870076
_cell_length_c   36.02235431
_cell_angle_alpha   60.29609853
_cell_angle_beta   60.29609854
_cell_angle_gamma   60.29211291
_symmetry_Int_Tables_number   1
_chemical_formula_structural   Cu(NiC2)2
_chemical_formula_sum   'Cu12 Ni24 C48'
_cell_volume   931.94858321
_cell_formula_units_Z   12
loop_
 _symmetry_equiv_pos_site_id
 _symmetry_equiv_pos_as_xyz
  1  'x, y, z'
loop_
 _atom_site_type_symbol
 _atom_site_label
 _atom_site_symmetry_multiplicity
 _atom_site_fract_x
 _atom_site_fract_y
 _atom_site_fract_z
 _atom_site_occupancy
  Ni  Ni0  1  0.12371954  0.12371954  0.01986730  1
  Ni  Ni1  1  0.00099757  0.50287023  0.08218263  1
  Ni  Ni2  1  0.50297826  0.50297826  -0.00097357  1
  Ni  Ni3  1  0.12286690  0.12286690  0.18804053  1
  Ni  Ni4  1  0.50287023  0.00099757  0.08218263  1
  Ni  Ni5  1  0.99403449  0.50114294  0.25053603  1
  Ni  Ni6  1  0.11924126  0.11924126  0.35544199  1
  Ni  Ni7  1  0.50265219  0.50265219  0.16501146  1
  Ni  Ni8  1  0.99859668  0.49873236  0.41739257  1
  Ni  Ni9  1  0.49873236  0.99859668  0.41739257  1
  Ni  Ni10  1  0.11846870  0.11846870  0.52216358  1
  Ni  Ni11  1  0.50114294  0.99403449  0.25053603  1
  Ni  Ni12  1  -0.00052171  0.49890581  0.58366235  1
  Ni  Ni13  1  0.87897048  0.87897048  0.31274195  1
  Ni  Ni14  1  0.11923542  0.11923542  0.68890040  1
  Ni  Ni15  1  -0.00012194  0.49973658  0.75020119  1
  Ni  Ni16  1  0.87981875  0.87981875  0.47842902  1
  Ni  Ni17  1  0.11941732  0.11941732  0.85495825  1
  Ni  Ni18  1  0.49890581  -0.00052171  0.58366235  1
  Ni  Ni19  1  0.00281789  0.49843692  0.91625480  1
  Ni  Ni20  1  0.49973658  -0.00012194  0.75020119  1
  Ni  Ni21  1  0.88076625  0.88076625  0.64495100  1
  Ni  Ni22  1  0.88071821  0.88071821  0.81150793  1
  Ni  Ni23  1  0.49843692  0.00281789  0.91625480  1
  Cu  Cu24  1  0.49767937  0.49767937  0.08439057  1
  Cu  Cu25  1  0.49979862  0.49979862  0.25000624  1
  Cu  Cu26  1  0.49896276  0.49896276  0.33369040  1
  Cu  Cu27  1  0.87874890  0.87874890  0.14472020  1
  Cu  Cu28  1  0.49961156  0.49961156  0.41653784  1
  Cu  Cu29  1  0.49940881  0.49940881  0.50037491  1
  Cu  Cu30  1  0.49985446  0.49985446  0.58332648  1
  Cu  Cu31  1  0.50056091  0.50056091  0.66673158  1
  Cu  Cu32  1  0.50036744  0.50036744  0.74991381  1
  Cu  Cu33  1  0.50003604  0.50003604  0.83340980  1
  Cu  Cu34  1  0.50241315  0.50241315  0.91624190  1
  Cu  Cu35  1  0.87767716  0.87767716  0.97805633  1
  C  C36  1  0.26050430  0.26050430  0.04471275  1
  C  C37  1  0.26563670  0.70700289  0.04688955  1
  C  C38  1  0.26209986  0.26209986  0.12254180  1
  C  C39  1  0.70700289  0.26563670  0.04688955  1
  C  C40  1  0.28545747  0.73353283  0.12214789  1
  C  C41  1  0.25725054  0.25725054  0.20984207  1
  C  C42  1  0.24998161  0.73071750  0.20820311  1
  C  C43  1  0.25338924  0.25338924  0.28842680  1
  C  C44  1  0.73353283  0.28545747  0.12214789  1
  C  C45  1  0.72973957  0.72973957  0.04798955  1
  C  C46  1  0.73071750  0.24998161  0.20820311  1
  C  C47  1  0.73833523  0.73833523  0.12348721  1
  C  C48  1  0.26638945  0.75546270  0.28955736  1
  C  C49  1  0.25322160  0.25322160  0.37708634  1
  C  C50  1  0.24615640  0.73133708  0.37710887  1
  C  C51  1  0.75546270  0.26638945  0.28955736  1
  C  C52  1  0.24986195  0.24986195  0.45552513  1
  C  C53  1  0.74354886  0.74354886  0.21315233  1
  C  C54  1  0.73133708  0.24615640  0.37710887  1
  C  C55  1  0.74838258  0.74838258  0.28969565  1
  C  C56  1  0.26884802  0.75332149  0.45605587  1
  C  C57  1  0.25078772  0.25078772  0.54405745  1
  C  C58  1  0.74820127  0.74820127  0.37845957  1
  C  C59  1  0.25331112  0.25331112  0.62180920  1
  C  C60  1  0.75332149  0.26884802  0.45605587  1
  C  C61  1  0.24578964  0.73069825  0.54316667  1
  C  C62  1  0.73069825  0.24578964  0.54316667  1
  C  C63  1  0.74924832  0.74924832  0.45573871  1
  C  C64  1  0.26965465  0.75449069  0.62302242  1
  C  C65  1  0.25173836  0.25173836  0.71069312  1
  C  C66  1  0.25412832  0.25412832  0.78815569  1
  C  C67  1  0.24694051  0.73167965  0.70972286  1
  C  C68  1  0.74713470  0.74713470  0.54462160  1
  C  C69  1  0.75449069  0.26965465  0.62302242  1
  C  C70  1  0.73167965  0.24694051  0.70972286  1
  C  C71  1  0.75089072  0.75089072  0.62197255  1
  C  C72  1  0.26989844  0.75503323  0.78957953  1
  C  C73  1  0.24957041  0.24957041  0.87725813  1
  C  C74  1  0.75503323  0.26989844  0.78957953  1
  C  C75  1  0.74782009  0.74782009  0.71114198  1
  C  C76  1  0.24648589  0.73327928  0.87630301  1
  C  C77  1  0.26070161  0.26070161  0.95212733  1
  C  C78  1  0.75083074  0.75083074  0.78856269  1
  C  C79  1  0.73327928  0.24648589  0.87630301  1
  C  C80  1  0.27757596  0.74641233  0.95838715  1
  C  C81  1  0.74641233  0.27757596  0.95838715  1
  C  C82  1  0.74843970  0.74843970  0.87732571  1
  C  C83  1  0.73948024  0.73948024  0.95642898  1
