# generated using pymatgen
data_Cu8NiC7
_symmetry_space_group_name_H-M   'P 1'
_cell_length_a   6.12655100
_cell_length_b   6.59646812
_cell_length_c   9.05207043
_cell_angle_alpha   72.97845695
_cell_angle_beta   70.62510209
_cell_angle_gamma   66.13829599
_symmetry_Int_Tables_number   1
_chemical_formula_structural   Cu8NiC7
_chemical_formula_sum   'Cu16 Ni2 C14'
_cell_volume   310.23686535
_cell_formula_units_Z   2
loop_
 _symmetry_equiv_pos_site_id
 _symmetry_equiv_pos_as_xyz
  1  'x, y, z'
loop_
 _atom_site_type_symbol
 _atom_site_label
 _atom_site_symmetry_multiplicity
 _atom_site_fract_x
 _atom_site_fract_y
 _atom_site_fract_z
 _atom_site_occupancy
  C  C0  1  0.35940900  0.78915600  0.14519200  1
  C  C1  1  0.64059100  0.21084400  0.85480800  1
  Ni  Ni2  1  0.74264100  0.78200500  0.36806100  1
  Ni  Ni3  1  0.25735900  0.21799500  0.63193900  1
  Cu  Cu4  1  0.11349900  0.29223400  0.08876800  1
  Cu  Cu5  1  0.88650100  0.70776600  0.91123200  1
  Cu  Cu6  1  0.43340000  0.30770600  0.29418600  1
  Cu  Cu7  1  0.56660000  0.69229400  0.70581400  1
  Cu  Cu8  1  0.08177200  0.28802500  0.46050700  1
  Cu  Cu9  1  0.91822800  0.71197500  0.53949300  1
  Cu  Cu10  1  0.21964300  0.93163200  0.83710400  1
  Cu  Cu11  1  0.78035700  0.06836800  0.16289600  1
  Cu  Cu12  1  0.13886400  0.22297000  0.92823800  1
  Cu  Cu13  1  0.86113600  0.77703000  0.07176200  1
  Cu  Cu14  1  0.92950300  0.38240800  0.28191600  1
  Cu  Cu15  1  0.07049700  0.61759200  0.71808400  1
  Cu  Cu16  1  0.37859200  0.90543200  0.43322900  1
  Cu  Cu17  1  0.62140800  0.09456800  0.56677100  1
  Cu  Cu18  1  0.17628200  0.63722900  0.73065400  1
  Cu  Cu19  1  0.82371800  0.36277100  0.26934600  1
  C  C20  1  0.93559600  0.77972300  0.24516400  1
  C  C21  1  0.06440400  0.22027700  0.75483600  1
  C  C22  1  0.24917400  0.23758500  0.47041000  1
  C  C23  1  0.75082600  0.76241500  0.52959000  1
  C  C24  1  0.66916500  0.19943700  0.10233900  1
  C  C25  1  0.33083500  0.80056300  0.89766100  1
  C  C26  1  0.50633400  0.81490700  0.35600500  1
  C  C27  1  0.49366600  0.18509300  0.64399500  1
  C  C28  1  0.22548300  0.19199400  0.01369300  1
  C  C29  1  0.77451700  0.80800600  0.98630700  1
  C  C30  1  0.54790200  0.37101400  0.20259400  1
  C  C31  1  0.45209800  0.62898600  0.79740600  1
