# generated using pymatgen
data_Cu(NiC4)2
_symmetry_space_group_name_H-M   'P 1'
_cell_length_a   6.19034700
_cell_length_b   13.78508300
_cell_length_c   15.71986900
_cell_angle_alpha   90.00000000
_cell_angle_beta   90.00000000
_cell_angle_gamma   90.00000000
_symmetry_Int_Tables_number   1
_chemical_formula_structural   Cu(NiC4)2
_chemical_formula_sum   'Cu4 Ni8 C32'
_cell_volume   1341.44633107
_cell_formula_units_Z   4
loop_
 _symmetry_equiv_pos_site_id
 _symmetry_equiv_pos_as_xyz
  1  'x, y, z'
loop_
 _atom_site_type_symbol
 _atom_site_label
 _atom_site_symmetry_multiplicity
 _atom_site_fract_x
 _atom_site_fract_y
 _atom_site_fract_z
 _atom_site_occupancy
  Ni  Ni0  1  0.88454800  0.09025400  0.74256800  1
  Ni  Ni1  1  0.60406200  0.90979400  0.00540600  1
  Ni  Ni2  1  0.39593800  0.40979400  0.99459400  1
  Ni  Ni3  1  0.88454800  0.59025400  0.75743200  1
  Ni  Ni4  1  0.60406200  0.40979400  0.49459400  1
  Ni  Ni5  1  0.11545200  0.09025400  0.24256800  1
  Ni  Ni6  1  0.11545200  0.59025400  0.25743200  1
  Ni  Ni7  1  0.39593800  0.90979400  0.50540600  1
  Cu  Cu8  1  0.24575700  0.00000500  0.87345000  1
  Cu  Cu9  1  0.75424300  0.50000500  0.12655000  1
  Cu  Cu10  1  0.75424300  0.00000500  0.37345000  1
  Cu  Cu11  1  0.24575700  0.50000500  0.62655000  1
  C  C12  1  0.00133400  0.66587500  0.36513500  1
  C  C13  1  0.94898000  0.41118700  0.49841900  1
  C  C14  1  0.46046700  0.08919400  0.24705200  1
  C  C15  1  0.53953300  0.58919400  0.75294800  1
  C  C16  1  0.46485200  0.55785700  0.51081000  1
  C  C17  1  0.05102000  0.41118700  0.99841900  1
  C  C18  1  0.53806100  0.85470100  0.38421600  1
  C  C19  1  0.02783600  0.64478900  0.63644100  1
  C  C20  1  0.99866600  0.66587500  0.86513500  1
  C  C21  1  0.46046700  0.58919400  0.25294800  1
  C  C22  1  0.02523000  0.94210100  0.75781200  1
  C  C23  1  0.46485200  0.05785700  0.98919000  1
  C  C24  1  0.05102000  0.91118700  0.50158100  1
  C  C25  1  0.48696600  0.83503300  0.11314800  1
  C  C26  1  0.53514800  0.55785700  0.01081000  1
  C  C27  1  0.51303400  0.33503300  0.88685200  1
  C  C28  1  0.97477000  0.94210100  0.25781200  1
  C  C29  1  0.51303400  0.83503300  0.61314800  1
  C  C30  1  0.46193900  0.85470100  0.88421600  1
  C  C31  1  0.46193900  0.35470100  0.61578400  1
  C  C32  1  0.00133400  0.16587500  0.13486500  1
  C  C33  1  0.02523000  0.44210100  0.74218800  1
  C  C34  1  0.02783600  0.14478900  0.86355900  1
  C  C35  1  0.53514800  0.05785700  0.48919000  1
  C  C36  1  0.97477000  0.44210100  0.24218800  1
  C  C37  1  0.97216400  0.64478900  0.13644100  1
  C  C38  1  0.53806100  0.35470100  0.11578400  1
  C  C39  1  0.99866600  0.16587500  0.63486500  1
  C  C40  1  0.48696600  0.33503300  0.38685200  1
  C  C41  1  0.53953300  0.08919400  0.74705200  1
  C  C42  1  0.94898000  0.91118700  0.00158100  1
  C  C43  1  0.97216400  0.14478900  0.36355900  1
