# generated using pymatgen
data_Cu11Ni3C5
_symmetry_space_group_name_H-M   'P 1'
_cell_length_a   7.02041559
_cell_length_b   7.02041559
_cell_length_c   12.45348210
_cell_angle_alpha   86.62786860
_cell_angle_beta   86.62786860
_cell_angle_gamma   83.54087492
_symmetry_Int_Tables_number   1
_chemical_formula_structural   Cu11Ni3C5
_chemical_formula_sum   'Cu22 Ni6 C10'
_cell_volume   607.98942814
_cell_formula_units_Z   2
loop_
 _symmetry_equiv_pos_site_id
 _symmetry_equiv_pos_as_xyz
  1  'x, y, z'
loop_
 _atom_site_type_symbol
 _atom_site_label
 _atom_site_symmetry_multiplicity
 _atom_site_fract_x
 _atom_site_fract_y
 _atom_site_fract_z
 _atom_site_occupancy
  C  C0  1  0.42540600  0.78748100  0.95709600  1
  C  C1  1  0.21251900  0.57459400  0.54290400  1
  C  C2  1  0.57459400  0.21251900  0.04290400  1
  C  C3  1  0.78748100  0.42540600  0.45709600  1
  C  C4  1  0.03337700  0.33391000  0.15656300  1
  C  C5  1  0.66609000  0.96662300  0.34343700  1
  C  C6  1  0.96662300  0.66609000  0.84343700  1
  C  C7  1  0.33391000  0.03337700  0.65656300  1
  C  C8  1  0.20007400  0.79992600  0.25000000  1
  C  C9  1  0.79992600  0.20007400  0.75000000  1
  Ni  Ni10  1  0.51006900  0.48993100  0.25000000  1
  Ni  Ni11  1  0.48993100  0.51006900  0.75000000  1
  Ni  Ni12  1  0.16822100  0.08098100  0.41363000  1
  Ni  Ni13  1  0.91901900  0.83177900  0.08637000  1
  Ni  Ni14  1  0.83177900  0.91901900  0.58637000  1
  Ni  Ni15  1  0.08098100  0.16822100  0.91363000  1
  Cu  Cu16  1  0.36395300  0.95933500  0.17911900  1
  Cu  Cu17  1  0.04066500  0.63604700  0.32088100  1
  Cu  Cu18  1  0.63604700  0.04066500  0.82088100  1
  Cu  Cu19  1  0.95933500  0.36395300  0.67911900  1
  Cu  Cu20  1  0.60850800  0.47611300  0.82889400  1
  Cu  Cu21  1  0.52388700  0.39149200  0.67110600  1
  Cu  Cu22  1  0.39149200  0.52388700  0.17110600  1
  Cu  Cu23  1  0.47611300  0.60850800  0.32889400  1
  Cu  Cu24  1  0.92086400  0.28727900  0.91995400  1
  Cu  Cu25  1  0.71272100  0.07913600  0.58004600  1
  Cu  Cu26  1  0.07913600  0.71272100  0.08004600  1
  Cu  Cu27  1  0.28727900  0.92086400  0.41995400  1
  Cu  Cu28  1  0.08434100  0.04497600  0.83746200  1
  Cu  Cu29  1  0.95502400  0.91565900  0.66253800  1
  Cu  Cu30  1  0.91565900  0.95502400  0.16253800  1
  Cu  Cu31  1  0.04497600  0.08434100  0.33746200  1
  Cu  Cu32  1  0.35439800  0.64560200  0.75000000  1
  Cu  Cu33  1  0.64560200  0.35439800  0.25000000  1
  Cu  Cu34  1  0.21784600  0.17370500  0.97390300  1
  Cu  Cu35  1  0.82629500  0.78215400  0.52609700  1
  Cu  Cu36  1  0.78215400  0.82629500  0.02609700  1
  Cu  Cu37  1  0.17370500  0.21784600  0.47390300  1
