# generated using pymatgen
data_Cu3Ni11C24
_symmetry_space_group_name_H-M   'P 1'
_cell_length_a   8.17444600
_cell_length_b   8.20422814
_cell_length_c   8.24287959
_cell_angle_alpha   71.45223953
_cell_angle_beta   71.94763212
_cell_angle_gamma   72.04582901
_symmetry_Int_Tables_number   1
_chemical_formula_structural   Cu3Ni11C24
_chemical_formula_sum   'Cu3 Ni11 C24'
_cell_volume   484.62642193
_cell_formula_units_Z   1
loop_
 _symmetry_equiv_pos_site_id
 _symmetry_equiv_pos_as_xyz
  1  'x, y, z'
loop_
 _atom_site_type_symbol
 _atom_site_label
 _atom_site_symmetry_multiplicity
 _atom_site_fract_x
 _atom_site_fract_y
 _atom_site_fract_z
 _atom_site_occupancy
  Ni  Ni0  1  0.39052900  0.91827200  0.22004500  1
  Ni  Ni1  1  0.71368900  0.89068400  0.42553500  1
  Ni  Ni2  1  0.42345100  0.71921100  0.89138000  1
  Ni  Ni3  1  0.07255600  0.78958800  0.60698000  1
  Ni  Ni4  1  0.88758200  0.42232700  0.71247000  1
  Ni  Ni5  1  0.78165200  0.61151000  0.07921600  1
  Ni  Ni6  1  0.10939700  0.57908300  0.28867900  1
  Ni  Ni7  1  0.92624300  0.21221700  0.39068000  1
  Ni  Ni8  1  0.58630200  0.28392700  0.10800000  1
  Ni  Ni9  1  0.28753400  0.10893200  0.56902300  1
  Ni  Ni10  1  0.60916500  0.07779100  0.78166900  1
  Cu  Cu11  1  0.00097900  0.99816300  0.00252700  1
  Cu  Cu12  1  0.50007200  0.49566300  0.49992300  1
  Cu  Cu13  1  0.21117500  0.39458900  0.92889500  1
  C  C14  1  0.12933900  0.92241800  0.77909400  1
  C  C15  1  0.58270000  0.71899700  0.37544600  1
  C  C16  1  0.50204900  0.91570000  0.67113800  1
  C  C17  1  0.22182400  0.86438900  0.08741800  1
  C  C18  1  0.82566200  0.99711100  0.58324100  1
  C  C19  1  0.91649000  0.67272400  0.50895200  1
  C  C20  1  0.58188800  0.83464400  0.99826200  1
  C  C21  1  0.67556200  0.50861800  0.91636500  1
  C  C22  1  0.27983500  0.63209900  0.41533900  1
  C  C23  1  0.01306100  0.57850400  0.83032100  1
  C  C24  1  0.63480100  0.41604100  0.27727000  1
  C  C25  1  0.91672600  0.77248800  0.13421600  1
  C  C26  1  0.08906300  0.23238800  0.87630500  1
  C  C27  1  0.36355500  0.56568200  0.73530700  1
  C  C28  1  0.01594800  0.40474300  0.15742200  1
  C  C29  1  0.72030900  0.36546400  0.58406400  1
  C  C30  1  0.31550800  0.49628900  0.07422800  1
  C  C31  1  0.40265000  0.18754600  0.99478700  1
  C  C32  1  0.08115700  0.32791900  0.49396600  1
  C  C33  1  0.17466700  0.00261900  0.41640400  1
  C  C34  1  0.78081400  0.13623500  0.91309200  1
  C  C35  1  0.49781500  0.08372700  0.31834800  1
  C  C36  1  0.40982400  0.27775200  0.63380100  1
  C  C37  1  0.86842600  0.08394600  0.22018800  1
