# generated using pymatgen
data_Cu8NiC7
_symmetry_space_group_name_H-M   'P 1'
_cell_length_a   4.90997823
_cell_length_b   11.23717492
_cell_length_c   13.20772953
_cell_angle_alpha   92.53625927
_cell_angle_beta   100.80284450
_cell_angle_gamma   77.38453354
_symmetry_Int_Tables_number   1
_chemical_formula_structural   Cu8NiC7
_chemical_formula_sum   'Cu32 Ni4 C28'
_cell_volume   698.52704650
_cell_formula_units_Z   4
loop_
 _symmetry_equiv_pos_site_id
 _symmetry_equiv_pos_as_xyz
  1  'x, y, z'
loop_
 _atom_site_type_symbol
 _atom_site_label
 _atom_site_symmetry_multiplicity
 _atom_site_fract_x
 _atom_site_fract_y
 _atom_site_fract_z
 _atom_site_occupancy
  C  C0  1  0.25040200  0.24824400  0.74887100  1
  C  C1  1  0.00019300  0.99820000  0.99849200  1
  C  C2  1  0.49998100  0.49820000  0.49858100  1
  C  C3  1  0.75025800  0.74822700  0.24887100  1
  C  C4  1  0.61474500  0.69801500  0.92732700  1
  C  C5  1  0.86456800  0.94798400  0.67732400  1
  C  C6  1  0.36457900  0.44796200  0.17731800  1
  C  C7  1  0.11473700  0.19803200  0.42730700  1
  C  C8  1  0.77264800  0.63198300  0.83087100  1
  C  C9  1  0.02247500  0.88214200  0.58078900  1
  C  C10  1  0.52248900  0.38211200  0.08078000  1
  C  C11  1  0.27268400  0.13195600  0.33086700  1
  C  C12  1  0.42589000  0.63223600  0.83054100  1
  C  C13  1  0.67569400  0.88232800  0.58047800  1
  C  C14  1  0.17570200  0.38229900  0.08047200  1
  C  C15  1  0.92590300  0.13220500  0.33053400  1
  C  C16  1  0.68551400  0.54552200  0.91734000  1
  C  C17  1  0.93545100  0.79555500  0.66718100  1
  C  C18  1  0.43545400  0.29553900  0.16717200  1
  C  C19  1  0.18551600  0.04553900  0.41735200  1
  C  C20  1  0.68308700  0.21334600  0.58093700  1
  C  C21  1  0.93290600  0.46317700  0.33060400  1
  C  C22  1  0.43294000  0.96316500  0.83059300  1
  C  C23  1  0.18285900  0.71333200  0.08093700  1
  C  C24  1  0.56784700  0.03354500  0.16703200  1
  C  C25  1  0.81747900  0.28400100  0.91712300  1
  C  C26  1  0.31741900  0.78402500  0.41712600  1
  C  C27  1  0.06750200  0.53384200  0.66699400  1
  Ni  Ni28  1  0.62473700  0.62643800  0.87616200  1
  Ni  Ni29  1  0.87459500  0.87649500  0.62606100  1
  Ni  Ni30  1  0.37460400  0.37647000  0.12605500  1
  Ni  Ni31  1  0.12474200  0.12644100  0.37615600  1
  Cu  Cu32  1  0.69680000  0.11176100  0.50869100  1
  Cu  Cu33  1  0.94871100  0.36154100  0.25838300  1
  Cu  Cu34  1  0.44870400  0.86154500  0.75837200  1
  Cu  Cu35  1  0.19671000  0.61174600  0.00869800  1
  Cu  Cu36  1  0.55267400  0.13690000  0.24071700  1
  Cu  Cu37  1  0.80203200  0.38766500  0.99052800  1
  Cu  Cu38  1  0.30201400  0.88768400  0.49053300  1
  Cu  Cu39  1  0.05247100  0.63732200  0.74056700  1
  Cu  Cu40  1  0.71488800  0.32557800  0.53056500  1
  Cu  Cu41  1  0.96471300  0.57537200  0.28027500  1
  Cu  Cu42  1  0.46472500  0.07537000  0.78026700  1
  Cu  Cu43  1  0.21485800  0.82554000  0.03056600  1
  Cu  Cu44  1  0.91610400  0.18340800  0.67333100  1
  Cu  Cu45  1  0.16535800  0.43348400  0.42316400  1
  Cu  Cu46  1  0.66534100  0.93347200  0.92315400  1
  Cu  Cu47  1  0.41559800  0.68340800  0.17336400  1
  Cu  Cu48  1  0.40299300  0.24014800  0.61665200  1
  Cu  Cu49  1  0.65206500  0.48970400  0.36598000  1
  Cu  Cu50  1  0.15205900  0.98970400  0.86596500  1
  Cu  Cu51  1  0.90284300  0.74017400  0.11669500  1
  Cu  Cu52  1  0.84651400  0.01052100  0.13207400  1
  Cu  Cu53  1  0.09673100  0.26072900  0.88251300  1
  Cu  Cu54  1  0.59671000  0.76071200  0.38254400  1
  Cu  Cu55  1  0.34614000  0.51084000  0.63204600  1
  Cu  Cu56  1  0.33222800  0.06469900  0.07686300  1
  Cu  Cu57  1  0.58223600  0.31529300  0.82672700  1
  Cu  Cu58  1  0.08220600  0.81531000  0.32672800  1
  Cu  Cu59  1  0.83202500  0.56483200  0.57678300  1
  Cu  Cu60  1  0.53986400  0.92306800  0.21938100  1
  Cu  Cu61  1  0.78887400  0.17372000  0.96963100  1
  Cu  Cu62  1  0.28874400  0.67377200  0.46962800  1
  Cu  Cu63  1  0.03946800  0.42341800  0.71936800  1
