# generated using pymatgen
data_Cu2NiC7
_symmetry_space_group_name_H-M   'P 1'
_cell_length_a   6.74657432
_cell_length_b   6.74657432
_cell_length_c   5.32473472
_cell_angle_alpha   78.02277596
_cell_angle_beta   78.02277596
_cell_angle_gamma   84.79787998
_symmetry_Int_Tables_number   1
_chemical_formula_structural   Cu2NiC7
_chemical_formula_sum   'Cu4 Ni2 C14'
_cell_volume   231.63739223
_cell_formula_units_Z   2
loop_
 _symmetry_equiv_pos_site_id
 _symmetry_equiv_pos_as_xyz
  1  'x, y, z'
loop_
 _atom_site_type_symbol
 _atom_site_label
 _atom_site_symmetry_multiplicity
 _atom_site_fract_x
 _atom_site_fract_y
 _atom_site_fract_z
 _atom_site_occupancy
  C  C0  1  0.70271800  0.29728200  0.25000000  1
  C  C1  1  0.29728200  0.70271800  0.75000000  1
  Ni  Ni2  1  0.09600300  0.90399700  0.25000000  1
  Ni  Ni3  1  0.90399700  0.09600300  0.75000000  1
  Cu  Cu4  1  0.80590400  0.62164200  0.73066200  1
  Cu  Cu5  1  0.37835800  0.19409600  0.76933800  1
  Cu  Cu6  1  0.19409600  0.37835800  0.26933800  1
  Cu  Cu7  1  0.62164200  0.80590400  0.23066200  1
  C  C8  1  0.66862900  0.63365500  0.49714300  1
  C  C9  1  0.36634500  0.33137100  0.00285700  1
  C  C10  1  0.33137100  0.36634500  0.50285700  1
  C  C11  1  0.63365500  0.66862900  0.99714300  1
  C  C12  1  0.88570200  0.39178200  0.82337300  1
  C  C13  1  0.60821800  0.11429800  0.67662700  1
  C  C14  1  0.11429800  0.60821800  0.17662700  1
  C  C15  1  0.39178200  0.88570200  0.32337300  1
  C  C16  1  0.79412500  0.97311400  0.14386800  1
  C  C17  1  0.02688600  0.20587500  0.35613200  1
  C  C18  1  0.20587500  0.02688600  0.85613200  1
  C  C19  1  0.97311400  0.79412500  0.64386800  1
