# generated using pymatgen
data_CuNi2C7
_symmetry_space_group_name_H-M   'P 1'
_cell_length_a   10.75842515
_cell_length_b   10.75842515
_cell_length_c   10.75842512
_cell_angle_alpha   33.92177672
_cell_angle_beta   33.92177672
_cell_angle_gamma   33.92177364
_symmetry_Int_Tables_number   1
_chemical_formula_structural   CuNi2C7
_chemical_formula_sum   'Cu2 Ni4 C14'
_cell_volume   345.63142968
_cell_formula_units_Z   2
loop_
 _symmetry_equiv_pos_site_id
 _symmetry_equiv_pos_as_xyz
  1  'x, y, z'
loop_
 _atom_site_type_symbol
 _atom_site_label
 _atom_site_symmetry_multiplicity
 _atom_site_fract_x
 _atom_site_fract_y
 _atom_site_fract_z
 _atom_site_occupancy
  Ni  Ni0  1  0.21946800  0.21946800  0.21946800  1
  Ni  Ni1  1  0.78053200  0.78053200  0.78053200  1
  Ni  Ni2  1  0.62814000  0.62814000  0.62814000  1
  Ni  Ni3  1  0.37186000  0.37186000  0.37186000  1
  Cu  Cu4  1  0.90210300  0.90210300  0.90210300  1
  Cu  Cu5  1  0.09789700  0.09789700  0.09789700  1
  C  C6  1  0.00000000  0.00000000  0.00000000  1
  C  C7  1  0.50000000  0.50000000  0.50000000  1
  C  C8  1  0.74620400  0.32470000  0.32470000  1
  C  C9  1  0.67530000  0.67530000  0.25379600  1
  C  C10  1  0.67530000  0.25379600  0.67530000  1
  C  C11  1  0.32470000  0.74620400  0.32470000  1
  C  C12  1  0.69113200  0.10017200  0.10017200  1
  C  C13  1  0.10017200  0.10017200  0.69113200  1
  C  C14  1  0.10017200  0.69113200  0.10017200  1
  C  C15  1  0.32470000  0.32470000  0.74620400  1
  C  C16  1  0.30886800  0.89982800  0.89982800  1
  C  C17  1  0.89982800  0.89982800  0.30886800  1
  C  C18  1  0.89982800  0.30886800  0.89982800  1
  C  C19  1  0.25379600  0.67530000  0.67530000  1
