# generated using pymatgen
data_Cu2NiC9
_symmetry_space_group_name_H-M   'P 1'
_cell_length_a   10.62278500
_cell_length_b   4.15925100
_cell_length_c   7.95907151
_cell_angle_alpha   83.16250003
_cell_angle_beta   90.00000000
_cell_angle_gamma   90.00000000
_symmetry_Int_Tables_number   1
_chemical_formula_structural   Cu2NiC9
_chemical_formula_sum   'Cu4 Ni2 C18'
_cell_volume   349.15326083
_cell_formula_units_Z   2
loop_
 _symmetry_equiv_pos_site_id
 _symmetry_equiv_pos_as_xyz
  1  'x, y, z'
loop_
 _atom_site_type_symbol
 _atom_site_label
 _atom_site_symmetry_multiplicity
 _atom_site_fract_x
 _atom_site_fract_y
 _atom_site_fract_z
 _atom_site_occupancy
  C  C0  1  0.25000000  0.89987700  0.55287700  1
  C  C1  1  0.75000000  0.10012300  0.44712300  1
  C  C2  1  0.75000000  0.94954400  0.94257100  1
  C  C3  1  0.25000000  0.05045600  0.05742900  1
  Ni  Ni4  1  0.00000000  0.50000000  0.50000000  1
  Ni  Ni5  1  0.50000000  0.50000000  0.50000000  1
  Cu  Cu6  1  0.98873500  0.70950500  0.18952300  1
  Cu  Cu7  1  0.48873500  0.29049500  0.81047700  1
  Cu  Cu8  1  0.01126500  0.29049500  0.81047700  1
  Cu  Cu9  1  0.51126500  0.70950500  0.18952300  1
  C  C10  1  0.75000000  0.54744700  0.95209400  1
  C  C11  1  0.25000000  0.45255300  0.04790600  1
  C  C12  1  0.88292300  0.01589200  0.11949800  1
  C  C13  1  0.38292300  0.98410800  0.88050200  1
  C  C14  1  0.11707700  0.98410800  0.88050200  1
  C  C15  1  0.61707700  0.01589200  0.11949800  1
  C  C16  1  0.12078900  0.92713100  0.23946400  1
  C  C17  1  0.62078900  0.07286900  0.76053600  1
  C  C18  1  0.87921100  0.07286900  0.76053600  1
  C  C19  1  0.37921100  0.92713100  0.23946400  1
  C  C20  1  0.92647600  0.61525200  0.39211300  1
  C  C21  1  0.42647600  0.38474800  0.60788700  1
  C  C22  1  0.07352400  0.38474800  0.60788700  1
  C  C23  1  0.57352400  0.61525200  0.39211300  1
