# generated using pymatgen
data_Cu16Ni16C49
_symmetry_space_group_name_H-M   'P 1'
_cell_length_a   7.52212600
_cell_length_b   7.58869525
_cell_length_c   25.24998321
_cell_angle_alpha   81.50146259
_cell_angle_beta   81.59013451
_cell_angle_gamma   60.44838341
_symmetry_Int_Tables_number   1
_chemical_formula_structural   Cu16Ni16C49
_chemical_formula_sum   'Cu16 Ni16 C49'
_cell_volume   1235.56094958
_cell_formula_units_Z   1
loop_
 _symmetry_equiv_pos_site_id
 _symmetry_equiv_pos_as_xyz
  1  'x, y, z'
loop_
 _atom_site_type_symbol
 _atom_site_label
 _atom_site_symmetry_multiplicity
 _atom_site_fract_x
 _atom_site_fract_y
 _atom_site_fract_z
 _atom_site_occupancy
  Ni  Ni0  1  0.00524200  0.99862800  0.00202400  1
  Ni  Ni1  1  0.13545600  0.62231400  0.12429500  1
  Ni  Ni2  1  0.49669800  0.50741500  0.99564100  1
  Ni  Ni3  1  0.99905200  0.49378300  0.00031800  1
  Ni  Ni4  1  0.24323500  0.25153900  0.25217500  1
  Ni  Ni5  1  0.38009000  0.88350000  0.37407300  1
  Ni  Ni6  1  0.75206200  0.74130500  0.25410000  1
  Ni  Ni7  1  0.24991800  0.74979300  0.24765100  1
  Ni  Ni8  1  0.49879000  0.50202400  0.50174100  1
  Ni  Ni9  1  0.61497300  0.14275300  0.62545900  1
  Ni  Ni10  1  0.00305400  0.99449600  0.50511400  1
  Ni  Ni11  1  0.75830600  0.75008900  0.75339300  1
  Ni  Ni12  1  0.50387600  0.99971500  0.49785100  1
  Ni  Ni13  1  0.86828200  0.38741100  0.87420500  1
  Ni  Ni14  1  0.24681800  0.26362800  0.74774200  1
  Ni  Ni15  1  0.75422900  0.24277700  0.75116600  1
  Cu  Cu16  1  0.15160200  0.11925100  0.12327600  1
  Cu  Cu17  1  0.61653200  0.64140600  0.12166900  1
  Cu  Cu18  1  0.75295600  0.25289600  0.25171400  1
  Cu  Cu19  1  0.38907200  0.36995300  0.37453400  1
  Cu  Cu20  1  0.61575800  0.12881200  0.12609600  1
  Cu  Cu21  1  0.87123400  0.88993300  0.37449300  1
  Cu  Cu22  1  0.99880900  0.50350200  0.50297500  1
  Cu  Cu23  1  0.63067700  0.62275500  0.62435400  1
  Cu  Cu24  1  0.87418900  0.37415300  0.37397500  1
  Cu  Cu25  1  0.11900100  0.14020100  0.62623200  1
  Cu  Cu26  1  0.25007400  0.75215200  0.75346400  1
  Cu  Cu27  1  0.89052500  0.87416200  0.87482300  1
  Cu  Cu28  1  0.12416900  0.62043300  0.62368100  1
  Cu  Cu29  1  0.37426400  0.38339200  0.87530100  1
  Cu  Cu30  1  0.49491200  0.99630400  0.00546200  1
  Cu  Cu31  1  0.37387000  0.87213200  0.87539500  1
  C  C32  1  0.15579900  0.65341800  0.03082300  1
  C  C33  1  0.49314500  0.97492700  0.09539700  1
  C  C34  1  0.40413200  0.90587900  0.28054400  1
  C  C35  1  0.17834700  0.14598000  0.03747800  1
  C  C36  1  0.29496000  0.79874600  0.14983100  1
  C  C37  1  0.64145700  0.67846300  0.03420700  1
  C  C38  1  0.88461500  0.38683900  0.28780000  1
  C  C39  1  0.93551200  0.44073000  0.10820100  1
  C  C40  1  0.63003100  0.54787000  0.20576800  1
  C  C41  1  0.04640000  0.12937300  0.20630300  1
  C  C42  1  0.51651600  0.43290500  0.10287800  1
  C  C43  1  0.44524500  0.38133600  0.28891600  1
  C  C44  1  0.65454600  0.15682200  0.53204800  1
  C  C45  1  0.55299500  0.05164700  0.39887800  1
  C  C46  1  0.62034700  0.11889900  0.20617800  1
  C  C47  1  0.88020300  0.94603900  0.28921900  1
  C  C48  1  0.92332300  0.01418400  0.10121900  1
  C  C49  1  0.18763500  0.68558900  0.35974000  1
  C  C50  1  0.88192600  0.80333000  0.45762800  1
  C  C51  1  0.13857800  0.63169300  0.53852000  1
  C  C52  1  0.30088600  0.38037600  0.45701100  1
  C  C53  1  0.24772500  0.30356700  0.64885000  1
  C  C54  1  0.90655700  0.40553200  0.78082200  1
  C  C55  1  0.69355100  0.63485900  0.53688700  1
  C  C56  1  0.75107000  0.68634200  0.35522800  1
  C  C57  1  0.08981600  0.59135000  0.21763800  1
  C  C58  1  0.87141400  0.36623000  0.45634400  1
  C  C59  1  0.80399800  0.30132300  0.65168200  1
  C  C60  1  0.13359200  0.19736800  0.54065200  1
  C  C61  1  0.18748400  0.24960200  0.35538100  1
  C  C62  1  0.45050900  0.93276700  0.60735900  1
  C  C63  1  0.13817600  0.04031800  0.71189100  1
  C  C64  1  0.94399600  0.88334000  0.78904800  1
  C  C65  1  0.54147600  0.64681300  0.70773800  1
  C  C66  1  0.49568400  0.55234800  0.89971200  1
  C  C67  1  0.00881800  0.93423500  0.60695400  1
  C  C68  1  0.33953900  0.84333000  0.46741800  1
  C  C69  1  0.10634200  0.62996300  0.70740000  1
  C  C70  1  0.05366200  0.55539900  0.89826800  1
  C  C71  1  0.44695800  0.50857200  0.60194600  1
  C  C72  1  0.38325000  0.44462600  0.78896200  1
  C  C73  1  0.70005700  0.18505700  0.85576200  1
  C  C74  1  0.38599800  0.28321500  0.95931600  1
  C  C75  1  0.59327900  0.08607800  0.71887600  1
  C  C76  1  0.78356200  0.89623100  0.95758300  1
  C  C77  1  0.26683800  0.17817900  0.85321800  1
  C  C78  1  0.35414700  0.88303100  0.95879300  1
  C  C79  1  0.68076600  0.76827900  0.84835700  1
  C  C80  1  0.84426100  0.33364100  0.96679100  1
