# generated using pymatgen
data_Cu14NiC12
_symmetry_space_group_name_H-M   'P 1'
_cell_length_a   6.95065144
_cell_length_b   6.95065144
_cell_length_c   16.77058424
_cell_angle_alpha   86.09051756
_cell_angle_beta   86.09051756
_cell_angle_gamma   82.05283918
_symmetry_Int_Tables_number   1
_chemical_formula_structural   Cu14NiC12
_chemical_formula_sum   'Cu28 Ni2 C24'
_cell_volume   799.14793088
_cell_formula_units_Z   2
loop_
 _symmetry_equiv_pos_site_id
 _symmetry_equiv_pos_as_xyz
  1  'x, y, z'
loop_
 _atom_site_type_symbol
 _atom_site_label
 _atom_site_symmetry_multiplicity
 _atom_site_fract_x
 _atom_site_fract_y
 _atom_site_fract_z
 _atom_site_occupancy
  C  C0  1  0.71342400  0.72346700  0.15901300  1
  C  C1  1  0.72346700  0.71342400  0.65901300  1
  C  C2  1  0.49506900  0.01597500  0.99081700  1
  C  C3  1  0.59566500  0.11596400  0.48364100  1
  C  C4  1  0.11702900  0.33186500  0.15693300  1
  C  C5  1  0.85375400  0.38582200  0.32183300  1
  C  C6  1  0.33186500  0.11702900  0.65693300  1
  C  C7  1  0.94246700  0.05707200  0.00001500  1
  C  C8  1  0.01597500  0.49506900  0.49081700  1
  C  C9  1  0.51455800  0.36784700  0.81473300  1
  C  C10  1  0.11596400  0.59566500  0.98364100  1
  C  C11  1  0.38582200  0.85375400  0.82183300  1
  C  C12  1  0.05707200  0.94246700  0.50001500  1
  C  C13  1  0.94879000  0.41666200  0.81980900  1
  C  C14  1  0.41666200  0.94879000  0.31980900  1
  C  C15  1  0.36784700  0.51455800  0.31473300  1
  C  C16  1  0.18868400  0.84015200  0.15707500  1
  C  C17  1  0.84015200  0.18868400  0.65707500  1
  C  C18  1  0.62287300  0.52392900  0.99698500  1
  C  C19  1  0.24724400  0.61307200  0.65522700  1
  C  C20  1  0.52392900  0.62287300  0.49698500  1
  C  C21  1  0.90016800  0.87162700  0.31546800  1
  C  C22  1  0.87162700  0.90016800  0.81546800  1
  C  C23  1  0.61307200  0.24724400  0.15522700  1
  Ni  Ni24  1  0.24212100  0.17587800  0.89177600  1
  Ni  Ni25  1  0.17587800  0.24212100  0.39177600  1
  Cu  Cu26  1  0.45291500  0.58179500  0.92733600  1
  Cu  Cu27  1  0.41765600  0.23981300  0.22159600  1
  Cu  Cu28  1  0.02597100  0.73086100  0.62887000  1
  Cu  Cu29  1  0.72489400  0.64399400  0.54906200  1
  Cu  Cu30  1  0.05347400  0.67603700  0.12362000  1
  Cu  Cu31  1  0.76843600  0.40950000  0.17493500  1
  Cu  Cu32  1  0.64399400  0.72489400  0.04906200  1
  Cu  Cu33  1  0.50479400  0.35396000  0.06317700  1
  Cu  Cu34  1  0.97289200  0.05351500  0.73768600  1
  Cu  Cu35  1  0.84617100  0.41386900  0.96393500  1
  Cu  Cu36  1  0.73086100  0.02597100  0.12887000  1
  Cu  Cu37  1  0.76966000  0.71486600  0.27202700  1
  Cu  Cu38  1  0.71486600  0.76966000  0.77202700  1
  Cu  Cu39  1  0.21340200  0.02726700  0.08716900  1
  Cu  Cu40  1  0.39564200  0.73718800  0.20231300  1
  Cu  Cu41  1  0.23981300  0.41765500  0.72159600  1
  Cu  Cu42  1  0.02726700  0.21340200  0.58716900  1
  Cu  Cu43  1  0.73718800  0.39564200  0.70231300  1
  Cu  Cu44  1  0.67603700  0.05347400  0.62362000  1
  Cu  Cu45  1  0.40950000  0.76843600  0.67493500  1
  Cu  Cu46  1  0.74792700  0.06755400  0.34875100  1
  Cu  Cu47  1  0.41386900  0.84617100  0.46393500  1
  Cu  Cu48  1  0.35396000  0.50479400  0.56317700  1
  Cu  Cu49  1  0.74864900  0.05125900  0.88316900  1
  Cu  Cu50  1  0.05351500  0.97289200  0.23768600  1
  Cu  Cu51  1  0.05125900  0.74864900  0.38316900  1
  Cu  Cu52  1  0.06755400  0.74792700  0.84875100  1
  Cu  Cu53  1  0.58179500  0.45291500  0.42733600  1
