# generated using pymatgen
data_Cu3Ni3C7
_symmetry_space_group_name_H-M   'P 1'
_cell_length_a   6.12864616
_cell_length_b   6.12864616
_cell_length_c   6.12864662
_cell_angle_alpha   115.54154151
_cell_angle_beta   115.54154151
_cell_angle_gamma   115.54154918
_symmetry_Int_Tables_number   1
_chemical_formula_structural   Cu3Ni3C7
_chemical_formula_sum   'Cu3 Ni3 C7'
_cell_volume   122.23675463
_cell_formula_units_Z   1
loop_
 _symmetry_equiv_pos_site_id
 _symmetry_equiv_pos_as_xyz
  1  'x, y, z'
loop_
 _atom_site_type_symbol
 _atom_site_label
 _atom_site_symmetry_multiplicity
 _atom_site_fract_x
 _atom_site_fract_y
 _atom_site_fract_z
 _atom_site_occupancy
  C  C0  1  0.99975300  0.99975300  0.99975300  1
  Ni  Ni1  1  0.35842800  0.84194700  0.35842800  1
  Ni  Ni2  1  0.35842800  0.35842800  0.84194700  1
  Ni  Ni3  1  0.84194700  0.35842800  0.35842800  1
  Cu  Cu4  1  0.60712000  0.14578400  0.60712000  1
  Cu  Cu5  1  0.60712000  0.60712000  0.14578400  1
  Cu  Cu6  1  0.14578400  0.60712000  0.60712000  1
  C  C7  1  0.88860900  0.28122000  0.88860900  1
  C  C8  1  0.88860900  0.88860900  0.28122000  1
  C  C9  1  0.28122000  0.88860900  0.88860900  1
  C  C10  1  0.58869800  0.33858700  0.58869800  1
  C  C11  1  0.58869800  0.58869800  0.33858700  1
  C  C12  1  0.33858700  0.58869800  0.58869800  1
