# generated using pymatgen
data_Cu24NiC16
_symmetry_space_group_name_H-M   'P 1'
_cell_length_a   7.63565300
_cell_length_b   9.39563096
_cell_length_c   9.43042160
_cell_angle_alpha   80.67422135
_cell_angle_beta   66.52070738
_cell_angle_gamma   66.77335133
_symmetry_Int_Tables_number   1
_chemical_formula_structural   Cu24NiC16
_chemical_formula_sum   'Cu24 Ni1 C16'
_cell_volume   570.23604497
_cell_formula_units_Z   1
loop_
 _symmetry_equiv_pos_site_id
 _symmetry_equiv_pos_as_xyz
  1  'x, y, z'
loop_
 _atom_site_type_symbol
 _atom_site_label
 _atom_site_symmetry_multiplicity
 _atom_site_fract_x
 _atom_site_fract_y
 _atom_site_fract_z
 _atom_site_occupancy
  C  C0  1  0.87039600  0.33703100  0.92420800  1
  C  C1  1  0.77397000  0.08760400  0.33896700  1
  C  C2  1  0.23530100  0.93261500  0.68508100  1
  C  C3  1  0.13107600  0.66437400  0.06347900  1
  C  C4  1  0.86542200  0.42159000  0.25335700  1
  C  C5  1  0.55233900  0.57428600  0.73851000  1
  C  C6  1  0.27957600  0.25680600  0.58058200  1
  C  C7  1  0.66145400  0.74800700  0.92752200  1
  C  C8  1  0.87453000  0.24680900  0.57829200  1
  C  C9  1  0.72457100  0.74610600  0.41298300  1
  C  C10  1  0.58172600  0.07379800  0.75356800  1
  C  C11  1  0.42503000  0.92238000  0.24938200  1
  C  C12  1  0.45058800  0.42336300  0.25497400  1
  C  C13  1  0.12271500  0.58200400  0.74608900  1
  C  C14  1  0.12827300  0.74388700  0.42046700  1
  C  C15  1  0.32966100  0.24836500  0.07624500  1
  Ni  Ni16  1  0.00025100  0.99821700  0.00916100  1
  Cu  Cu17  1  0.90690700  0.65267400  0.89461400  1
  Cu  Cu18  1  0.89645900  0.81307200  0.41531400  1
  Cu  Cu19  1  0.64337500  0.89584100  0.81200400  1
  Cu  Cu20  1  0.84900300  0.60464000  0.29172200  1
  Cu  Cu21  1  0.55983600  0.63911200  0.89974700  1
  Cu  Cu22  1  0.73770800  0.38922500  0.69966800  1
  Cu  Cu23  1  0.85774300  0.29160700  0.40907000  1
  Cu  Cu24  1  0.79468600  0.09986000  0.64217900  1
  Cu  Cu25  1  0.58543300  0.70568500  0.58245800  1
  Cu  Cu26  1  0.57076200  0.89838100  0.34793300  1
  Cu  Cu27  1  0.67631000  0.43287600  0.18559500  1
  Cu  Cu28  1  0.55323900  0.80354600  0.10632900  1
  Cu  Cu29  1  0.46665100  0.19038000  0.89993700  1
  Cu  Cu30  1  0.29739500  0.58640500  0.79901100  1
  Cu  Cu31  1  0.44038100  0.10051600  0.65447100  1
  Cu  Cu32  1  0.43194300  0.30488800  0.39972500  1
  Cu  Cu33  1  0.22136800  0.88165800  0.36126900  1
  Cu  Cu34  1  0.11879600  0.70105400  0.59637500  1
  Cu  Cu35  1  0.26645300  0.59659600  0.30326600  1
  Cu  Cu36  1  0.42071300  0.36463700  0.11386900  1
  Cu  Cu37  1  0.14312000  0.41401200  0.70794300  1
  Cu  Cu38  1  0.35199300  0.10078600  0.19561700  1
  Cu  Cu39  1  0.10842800  0.18005900  0.57367300  1
  Cu  Cu40  1  0.09441800  0.34524600  0.09534600  1
