# generated using pymatgen
data_Cu5(Ni3C5)8
_symmetry_space_group_name_H-M   'P 1'
_cell_length_a   13.27200969
_cell_length_b   13.27200969
_cell_length_c   29.08529500
_cell_angle_alpha   85.73359661
_cell_angle_beta   85.73359661
_cell_angle_gamma   14.53459824
_symmetry_Int_Tables_number   1
_chemical_formula_structural   Cu5(Ni3C5)8
_chemical_formula_sum   'Cu5 Ni24 C40'
_cell_volume   1282.13718122
_cell_formula_units_Z   1
loop_
 _symmetry_equiv_pos_site_id
 _symmetry_equiv_pos_as_xyz
  1  'x, y, z'
loop_
 _atom_site_type_symbol
 _atom_site_label
 _atom_site_symmetry_multiplicity
 _atom_site_fract_x
 _atom_site_fract_y
 _atom_site_fract_z
 _atom_site_occupancy
  Ni  Ni0  1  0.12164500  0.12164500  0.99164100  1
  Ni  Ni1  1  0.62210000  0.62210000  0.89371600  1
  Ni  Ni2  1  0.12201400  0.12201400  0.79097700  1
  Ni  Ni3  1  0.37794900  0.37794900  0.90721800  1
  Ni  Ni4  1  0.62186300  0.62186300  0.69146000  1
  Ni  Ni5  1  0.87813200  0.87813200  0.80841300  1
  Ni  Ni6  1  0.12249900  0.12249900  0.59157200  1
  Ni  Ni7  1  0.37805300  0.37805300  0.70914500  1
  Ni  Ni8  1  0.62243300  0.62243300  0.49352600  1
  Ni  Ni9  1  0.87790500  0.87790500  0.60623300  1
  Ni  Ni10  1  0.12411100  0.12411100  0.39059900  1
  Ni  Ni11  1  0.37813400  0.37813400  0.50769500  1
  Ni  Ni12  1  0.00037300  0.00037300  0.39565100  1
  Ni  Ni13  1  0.62527800  0.62527800  0.29157600  1
  Ni  Ni14  1  0.87589000  0.87589000  0.40935100  1
  Ni  Ni15  1  0.00041500  0.00041500  0.19503000  1
  Ni  Ni16  1  0.49976800  0.49976800  0.30524800  1
  Ni  Ni17  1  0.12496800  0.12496800  0.19197700  1
  Ni  Ni18  1  0.37515700  0.37515700  0.30804700  1
  Ni  Ni19  1  0.50049500  0.50049500  0.10430900  1
  Ni  Ni20  1  0.62428400  0.62428400  0.09113700  1
  Ni  Ni21  1  0.87505000  0.87505000  0.20839500  1
  Ni  Ni22  1  0.37696800  0.37696800  0.10955800  1
  Ni  Ni23  1  0.87803500  0.87803500  0.00700600  1
  Cu  Cu24  1  0.73220000  0.73220000  0.68348800  1
  Cu  Cu25  1  0.76775700  0.76775700  0.81638000  1
  Cu  Cu26  1  0.76752500  0.76752500  0.41662000  1
  Cu  Cu27  1  0.26733000  0.26733000  0.11678800  1
  Cu  Cu28  1  0.76743700  0.76743700  0.01456800  1
  C  C29  1  0.31598900  0.31598900  0.97721700  1
  C  C30  1  0.43711100  0.43711100  0.97004900  1
  C  C31  1  0.81705800  0.81705800  0.87951000  1
  C  C32  1  0.93755000  0.93755000  0.87047700  1
  C  C33  1  0.06218800  0.06218800  0.92927900  1
  C  C34  1  0.18235000  0.18235000  0.92182200  1
  C  C35  1  0.31635300  0.31635300  0.77790500  1
  C  C36  1  0.43734800  0.43734800  0.77110600  1
  C  C37  1  0.56395000  0.56395000  0.82964000  1
  C  C38  1  0.68251700  0.68251700  0.82174500  1
  C  C39  1  0.81755800  0.81755800  0.67834800  1
  C  C40  1  0.93609400  0.93609400  0.67033100  1
  C  C41  1  0.06269700  0.06269700  0.72893900  1
  C  C42  1  0.18357100  0.18357100  0.72216000  1
  C  C43  1  0.31775200  0.31775200  0.57813600  1
  C  C44  1  0.43761100  0.43761100  0.57036700  1
  C  C45  1  0.56300500  0.56300500  0.62932100  1
  C  C46  1  0.68290600  0.68290600  0.62015400  1
  C  C47  1  0.81627900  0.81627900  0.48068300  1
  C  C48  1  0.93907500  0.93907500  0.46994800  1
  C  C49  1  0.06238100  0.06238100  0.53007300  1
  C  C50  1  0.18306700  0.18306700  0.52104000  1
  C  C51  1  0.31457000  0.31457000  0.37753400  1
  C  C52  1  0.43617900  0.43617900  0.37218700  1
  C  C53  1  0.56126500  0.56126500  0.43065900  1
  C  C54  1  0.68275900  0.68275900  0.42121900  1
  C  C55  1  0.81568400  0.81568400  0.27882900  1
  C  C56  1  0.93823300  0.93823300  0.27058100  1
  C  C57  1  0.06364500  0.06364500  0.32851400  1
  C  C58  1  0.18457000  0.18457000  0.32103000  1
  C  C59  1  0.31504300  0.31504300  0.18049600  1
  C  C60  1  0.43677300  0.43677300  0.17135800  1
  C  C61  1  0.56178200  0.56178200  0.22966300  1
  C  C62  1  0.68449600  0.68449600  0.22096200  1
  C  C63  1  0.81631500  0.81631500  0.07913000  1
  C  C64  1  0.93919600  0.93919600  0.06926500  1
  C  C65  1  0.06413000  0.06413000  0.12837200  1
  C  C66  1  0.18366300  0.18366300  0.12104600  1
  C  C67  1  0.56116700  0.56116700  0.02996800  1
  C  C68  1  0.68284900  0.68284900  0.02011200  1
