# generated using pymatgen
data_CuNi2C19
_symmetry_space_group_name_H-M   'P 1'
_cell_length_a   5.71501700
_cell_length_b   9.00829100
_cell_length_c   10.25942920
_cell_angle_alpha   64.62798795
_cell_angle_beta   90.00000000
_cell_angle_gamma   90.00000000
_symmetry_Int_Tables_number   1
_chemical_formula_structural   CuNi2C19
_chemical_formula_sum   'Cu2 Ni4 C38'
_cell_volume   477.23554270
_cell_formula_units_Z   2
loop_
 _symmetry_equiv_pos_site_id
 _symmetry_equiv_pos_as_xyz
  1  'x, y, z'
loop_
 _atom_site_type_symbol
 _atom_site_label
 _atom_site_symmetry_multiplicity
 _atom_site_fract_x
 _atom_site_fract_y
 _atom_site_fract_z
 _atom_site_occupancy
  C  C0  1  0.25000000  0.24493400  0.15110800  1
  C  C1  1  0.75000000  0.75506600  0.84889200  1
  C  C2  1  0.25000000  0.39374400  0.42376300  1
  C  C3  1  0.75000000  0.60625600  0.57623700  1
  Ni  Ni4  1  0.50000000  0.00000000  0.00000000  1
  Ni  Ni5  1  0.00000000  0.00000000  0.00000000  1
  Ni  Ni6  1  0.50000000  0.00000000  0.50000000  1
  Ni  Ni7  1  0.00000000  0.00000000  0.50000000  1
  Cu  Cu8  1  0.75000000  0.70611000  0.22426300  1
  Cu  Cu9  1  0.25000000  0.29389000  0.77573700  1
  C  C10  1  0.25000000  0.66122400  0.04741500  1
  C  C11  1  0.75000000  0.33877600  0.95258500  1
  C  C12  1  0.75000000  0.31402800  0.27486500  1
  C  C13  1  0.25000000  0.68597200  0.72513500  1
  C  C14  1  0.25000000  0.81613700  0.31901000  1
  C  C15  1  0.75000000  0.18386300  0.68099000  1
  C  C16  1  0.75000000  0.94513700  0.32574500  1
  C  C17  1  0.25000000  0.05486300  0.67425500  1
  C  C18  1  0.49331000  0.76723900  0.03953000  1
  C  C19  1  0.99331000  0.23276100  0.96047000  1
  C  C20  1  0.50669000  0.23276100  0.96047000  1
  C  C21  1  0.00669000  0.76723900  0.03953000  1
  C  C22  1  0.48062800  0.69547900  0.35727100  1
  C  C23  1  0.98062800  0.30452100  0.64272900  1
  C  C24  1  0.51937200  0.30452100  0.64272900  1
  C  C25  1  0.01937200  0.69547900  0.35727100  1
  C  C26  1  0.51377500  0.20347800  0.33837600  1
  C  C27  1  0.01377500  0.79652200  0.66162400  1
  C  C28  1  0.48622500  0.79652200  0.66162400  1
  C  C29  1  0.98622500  0.20347800  0.33837600  1
  C  C30  1  0.75000000  0.94866600  0.12834800  1
  C  C31  1  0.25000000  0.05133400  0.87165200  1
  C  C32  1  0.25000000  0.95818400  0.14599200  1
  C  C33  1  0.75000000  0.04181600  0.85400800  1
  C  C34  1  0.25000000  0.93252700  0.40815500  1
  C  C35  1  0.75000000  0.06747300  0.59184500  1
  C  C36  1  0.25000000  0.48551600  0.18152200  1
  C  C37  1  0.75000000  0.51448400  0.81847800  1
  C  C38  1  0.75000000  0.47148900  0.31094300  1
  C  C39  1  0.25000000  0.52851100  0.68905700  1
  C  C40  1  0.75000000  0.37446700  0.09825100  1
  C  C41  1  0.25000000  0.62553300  0.90174900  1
  C  C42  1  0.75000000  0.91636600  0.42991100  1
  C  C43  1  0.25000000  0.08363400  0.57008900  1
