# generated using pymatgen
data_CuNi6C25
_symmetry_space_group_name_H-M   'P 1'
_cell_length_a   10.73084149
_cell_length_b   10.73084149
_cell_length_c   10.73084132
_cell_angle_alpha   58.35446728
_cell_angle_beta   58.35446728
_cell_angle_gamma   58.35446455
_symmetry_Int_Tables_number   1
_chemical_formula_structural   CuNi6C25
_chemical_formula_sum   'Cu2 Ni12 C50'
_cell_volume   840.83106049
_cell_formula_units_Z   2
loop_
 _symmetry_equiv_pos_site_id
 _symmetry_equiv_pos_as_xyz
  1  'x, y, z'
loop_
 _atom_site_type_symbol
 _atom_site_label
 _atom_site_symmetry_multiplicity
 _atom_site_fract_x
 _atom_site_fract_y
 _atom_site_fract_z
 _atom_site_occupancy
  Ni  Ni0  1  0.42745300  0.01758700  0.02818500  1
  Ni  Ni1  1  0.01758700  0.02818500  0.42745300  1
  Ni  Ni2  1  0.02818500  0.42745300  0.01758700  1
  Ni  Ni3  1  0.92745300  0.52818500  0.51758700  1
  Ni  Ni4  1  0.52818500  0.51758700  0.92745300  1
  Ni  Ni5  1  0.77524600  0.23993200  0.23295000  1
  Ni  Ni6  1  0.23993200  0.23295000  0.77524600  1
  Ni  Ni7  1  0.23295000  0.77524600  0.23993200  1
  Ni  Ni8  1  0.73993200  0.27524600  0.73295000  1
  Ni  Ni9  1  0.73295000  0.73993200  0.27524600  1
  Ni  Ni10  1  0.27524600  0.73295000  0.73993200  1
  Ni  Ni11  1  0.51758700  0.92745300  0.52818500  1
  Cu  Cu12  1  0.37697500  0.37697500  0.37697500  1
  Cu  Cu13  1  0.87697500  0.87697500  0.87697500  1
  C  C14  1  0.00439300  0.00439300  0.00439300  1
  C  C15  1  0.50439300  0.50439300  0.50439300  1
  C  C16  1  0.13346300  0.13249200  0.58874600  1
  C  C17  1  0.58874600  0.13346300  0.13249200  1
  C  C18  1  0.13249200  0.58874600  0.13346300  1
  C  C19  1  0.63346300  0.08874600  0.63249200  1
  C  C20  1  0.08874600  0.63249200  0.63346300  1
  C  C21  1  0.63249200  0.63346300  0.08874600  1
  C  C22  1  0.36879300  0.36459200  0.91709700  1
  C  C23  1  0.91709700  0.36879300  0.36459200  1
  C  C24  1  0.36459200  0.91709700  0.36879300  1
  C  C25  1  0.86879300  0.41709700  0.86459200  1
  C  C26  1  0.41709700  0.86459200  0.86879300  1
  C  C27  1  0.86459200  0.86879300  0.41709700  1
  C  C28  1  0.50077200  0.00107300  0.25151200  1
  C  C29  1  0.03684600  0.04715800  0.76955100  1
  C  C30  1  0.76955100  0.03684600  0.04715800  1
  C  C31  1  0.00107300  0.25151200  0.50077200  1
  C  C32  1  0.25151200  0.50077200  0.00107300  1
  C  C33  1  0.23027600  0.22222000  0.56455100  1
  C  C34  1  0.56455100  0.23027600  0.22222000  1
  C  C35  1  0.75248500  0.01321300  0.49000700  1
  C  C36  1  0.22222000  0.56455100  0.23027600  1
  C  C37  1  0.04715800  0.76955100  0.03684600  1
  C  C38  1  0.73027600  0.06455100  0.72222000  1
  C  C39  1  0.53684600  0.26955100  0.54715800  1
  C  C40  1  0.01321300  0.49000700  0.75248500  1
  C  C41  1  0.28039200  0.27041800  0.93869500  1
  C  C42  1  0.93869500  0.28039200  0.27041800  1
  C  C43  1  0.26955100  0.54715800  0.53684600  1
  C  C44  1  0.54715800  0.53684600  0.26955100  1
  C  C45  1  0.49000700  0.75248500  0.01321300  1
  C  C46  1  0.51321300  0.25248500  0.99000700  1
  C  C47  1  0.45332000  0.46017100  0.73613700  1
  C  C48  1  0.73613700  0.45332000  0.46017100  1
  C  C49  1  0.06455100  0.72222000  0.73027600  1
  C  C50  1  0.72222000  0.73027600  0.06455100  1
  C  C51  1  0.99000700  0.51321300  0.25248500  1
  C  C52  1  0.46017100  0.73613700  0.45332000  1
  C  C53  1  0.27041800  0.93869500  0.28039200  1
  C  C54  1  0.95332000  0.23613700  0.96017100  1
  C  C55  1  0.78039200  0.43869500  0.77041800  1
  C  C56  1  0.25248500  0.99000700  0.51321300  1
  C  C57  1  0.43869500  0.77041800  0.78039200  1
  C  C58  1  0.77041800  0.78039200  0.43869500  1
  C  C59  1  0.75151200  0.50107300  0.00077200  1
  C  C60  1  0.00077200  0.75151200  0.50107300  1
  C  C61  1  0.23613700  0.96017100  0.95332000  1
  C  C62  1  0.96017100  0.95332000  0.23613700  1
  C  C63  1  0.50107300  0.00077200  0.75151200  1
