# generated using pymatgen
data_Cu2NiC
_symmetry_space_group_name_H-M   'P 1'
_cell_length_a   46.21070100
_cell_length_b   9.48101500
_cell_length_c   9.53726760
_cell_angle_alpha   69.58788477
_cell_angle_beta   90.00000000
_cell_angle_gamma   90.00000000
_symmetry_Int_Tables_number   1
_chemical_formula_structural   Cu2NiC
_chemical_formula_sum   'Cu72 Ni36 C36'
_cell_volume   3916.13331290
_cell_formula_units_Z   36
loop_
 _symmetry_equiv_pos_site_id
 _symmetry_equiv_pos_as_xyz
  1  'x, y, z'
loop_
 _atom_site_type_symbol
 _atom_site_label
 _atom_site_symmetry_multiplicity
 _atom_site_fract_x
 _atom_site_fract_y
 _atom_site_fract_z
 _atom_site_occupancy
  C  C0  1  0.83261800  0.00477000  0.49162600  1
  C  C1  1  0.87464900  0.37871800  0.37722800  1
  C  C2  1  0.79258000  0.87856100  0.86733000  1
  C  C3  1  0.87493700  0.62266900  0.61964300  1
  C  C4  1  0.70740900  0.87771400  0.86791900  1
  C  C5  1  0.66594700  0.50401200  0.99200500  1
  C  C6  1  0.83353000  0.50839700  0.99084000  1
  C  C7  1  0.62598300  0.37773500  0.36780600  1
  C  C8  1  0.49930400  0.00399100  0.49209500  1
  C  C9  1  0.70844700  0.12009000  0.11968800  1
  C  C10  1  0.54071500  0.37773400  0.36784300  1
  C  C11  1  0.79165500  0.12024500  0.12003900  1
  C  C12  1  0.62490300  0.62012200  0.61980100  1
  C  C13  1  0.45928500  0.87773400  0.86784300  1
  C  C14  1  0.66738900  0.00404800  0.49202100  1
  C  C15  1  0.37401700  0.87773500  0.86780600  1
  C  C16  1  0.33261100  0.50404800  0.99202100  1
  C  C17  1  0.54177500  0.62012500  0.61973000  1
  C  C18  1  0.50069600  0.50399100  0.99209500  1
  C  C19  1  0.20742000  0.37856100  0.36733000  1
  C  C20  1  0.29259100  0.37771400  0.36791900  1
  C  C21  1  0.37509700  0.12012200  0.11980100  1
  C  C22  1  0.45822500  0.12012500  0.11973000  1
  C  C23  1  0.16647000  0.00839700  0.49084000  1
  C  C24  1  0.04138300  0.87945600  0.87676900  1
  C  C25  1  0.99982700  0.50915000  0.99057700  1
  C  C26  1  0.20834500  0.62024500  0.62003900  1
  C  C27  1  0.12535100  0.87871800  0.87722800  1
  C  C28  1  0.33405300  0.00401200  0.49200500  1
  C  C29  1  0.29155300  0.62009000  0.61968800  1
  C  C30  1  0.95861700  0.37945600  0.37676900  1
  C  C31  1  0.12506300  0.12266900  0.11964300  1
  C  C32  1  0.16738200  0.50477000  0.99162600  1
  C  C33  1  0.04150200  0.12289000  0.11996200  1
  C  C34  1  0.00017300  0.00915000  0.49057700  1
  C  C35  1  0.95849800  0.62289000  0.61996200  1
  Ni  Ni36  1  0.74986500  0.49779600  0.38690200  1
  Ni  Ni37  1  0.83242500  0.74824300  0.25074300  1
  Ni  Ni38  1  0.75000900  0.00709400  0.49584900  1
  Ni  Ni39  1  0.74993600  0.50138900  0.97916700  1
  Ni  Ni40  1  0.83427400  0.24659100  0.75187100  1
  Ni  Ni41  1  0.58333800  0.50702300  0.99575700  1
  Ni  Ni42  1  0.66558000  0.24656200  0.75057400  1
  Ni  Ni43  1  0.58332600  0.99746600  0.88694600  1
  Ni  Ni44  1  0.41667400  0.49746600  0.38694600  1
  Ni  Ni45  1  0.66778700  0.74657300  0.25063400  1
  Ni  Ni46  1  0.49891800  0.74653600  0.25059900  1
  Ni  Ni47  1  0.41666200  0.00702300  0.49575700  1
  Ni  Ni48  1  0.75004200  0.50012600  0.61055300  1
  Ni  Ni49  1  0.58334900  0.00130000  0.47909300  1
  Ni  Ni50  1  0.41665100  0.50130000  0.97909300  1
  Ni  Ni51  1  0.24999100  0.50709400  0.99584900  1
  Ni  Ni52  1  0.50108200  0.24653600  0.75059900  1
  Ni  Ni53  1  0.33221300  0.24657300  0.75063400  1
  Ni  Ni54  1  0.25013500  0.99779600  0.88690200  1
  Ni  Ni55  1  0.08335900  0.59854300  0.53157200  1
  Ni  Ni56  1  0.33442000  0.74656200  0.25057400  1
  Ni  Ni57  1  0.16572600  0.74659100  0.25187100  1
  Ni  Ni58  1  0.08334400  0.01629900  0.49787300  1
  Ni  Ni59  1  0.58333400  0.00019000  0.11053600  1
  Ni  Ni60  1  0.41666600  0.50019000  0.61053600  1
  Ni  Ni61  1  0.91664100  0.09854300  0.03157200  1
  Ni  Ni62  1  0.25006400  0.00138900  0.47916700  1
  Ni  Ni63  1  0.16757500  0.24824300  0.75074300  1
  Ni  Ni64  1  0.99924000  0.24828400  0.75202000  1
  Ni  Ni65  1  0.91665600  0.51629900  0.99787300  1
  Ni  Ni66  1  0.08340900  0.50299000  0.98326400  1
  Ni  Ni67  1  0.00076000  0.74828400  0.25202000  1
  Ni  Ni68  1  0.24995800  0.00012600  0.11055300  1
  Ni  Ni69  1  0.91659100  0.00299000  0.48326400  1
  Ni  Ni70  1  0.08345000  0.45133000  0.40540200  1
  Ni  Ni71  1  0.91655000  0.95133000  0.90540200  1
  Cu  Cu72  1  0.87932800  0.35457300  0.11282100  1
  Cu  Cu73  1  0.87835700  0.66529100  0.33461800  1
  Cu  Cu74  1  0.78710900  0.84330200  0.60804800  1
  Cu  Cu75  1  0.67446500  0.49510400  0.72205700  1
  Cu  Cu76  1  0.71297400  0.84308000  0.60809100  1
  Cu  Cu77  1  0.82515300  0.27514400  0.50536100  1
  Cu  Cu78  1  0.50779700  0.99507000  0.22209300  1
  Cu  Cu79  1  0.82549800  0.49594400  0.72229400  1
  Cu  Cu80  1  0.71147900  0.16213200  0.83366700  1
  Cu  Cu81  1  0.78829900  0.16279300  0.83430100  1
  Cu  Cu82  1  0.54628800  0.34305900  0.10802200  1
  Cu  Cu83  1  0.62038400  0.34304400  0.10799400  1
  Cu  Cu84  1  0.84181400  0.77903600  0.00341900  1
  Cu  Cu85  1  0.65839000  0.77499600  0.00391300  1
  Cu  Cu86  1  0.87928600  0.88918200  0.64362800  1
  Cu  Cu87  1  0.75006000  0.72340900  0.02986600  1
  Cu  Cu88  1  0.84119400  0.99653900  0.22274000  1
  Cu  Cu89  1  0.65889000  0.99506900  0.22211400  1
  Cu  Cu90  1  0.54481500  0.66209100  0.33366800  1
  Cu  Cu91  1  0.62187100  0.66209400  0.33370900  1
  Cu  Cu92  1  0.45371200  0.84305900  0.60802200  1
  Cu  Cu93  1  0.34111000  0.49506900  0.72211400  1
  Cu  Cu94  1  0.37961600  0.84304400  0.60799400  1
  Cu  Cu95  1  0.49170000  0.27496100  0.50389200  1
  Cu  Cu96  1  0.75004300  0.95011500  0.27929100  1
  Cu  Cu97  1  0.67499000  0.27498700  0.50385800  1
  Cu  Cu98  1  0.78721300  0.38741700  0.14125300  1
  Cu  Cu99  1  0.58334900  0.22314600  0.52990500  1
  Cu  Cu100  1  0.71267000  0.38686700  0.14143100  1
  Cu  Cu101  1  0.49220300  0.49507000  0.72209300  1
  Cu  Cu102  1  0.37812900  0.16209400  0.83370900  1
  Cu  Cu103  1  0.45518500  0.16209100  0.83366800  1
  Cu  Cu104  1  0.21289100  0.34330200  0.10804800  1
  Cu  Cu105  1  0.28702600  0.34308000  0.10809100  1
  Cu  Cu106  1  0.17450200  0.99594400  0.22229400  1
  Cu  Cu107  1  0.50830000  0.77496100  0.00389200  1
  Cu  Cu108  1  0.32501000  0.77498700  0.00385800  1
  Cu  Cu109  1  0.58333600  0.44984400  0.77923500  1
  Cu  Cu110  1  0.62063800  0.88687200  0.64135200  1
  Cu  Cu111  1  0.54605800  0.88683800  0.64132600  1
  Cu  Cu112  1  0.41665100  0.72314600  0.02990500  1
  Cu  Cu113  1  0.28852100  0.66213200  0.33366700  1
  Cu  Cu114  1  0.21170100  0.66279300  0.33430100  1
  Cu  Cu115  1  0.32553500  0.99510400  0.22205700  1
  Cu  Cu116  1  0.00790700  0.49740600  0.72301900  1
  Cu  Cu117  1  0.12067200  0.85457300  0.61282100  1
  Cu  Cu118  1  0.04593200  0.85471200  0.61289900  1
  Cu  Cu119  1  0.15818600  0.27903600  0.50341900  1
  Cu  Cu120  1  0.34161000  0.27499600  0.50391300  1
  Cu  Cu121  1  0.41666400  0.94984400  0.27923500  1
  Cu  Cu122  1  0.45394200  0.38683800  0.14132600  1
  Cu  Cu123  1  0.37936200  0.38687200  0.14135200  1
  Cu  Cu124  1  0.24994000  0.22340900  0.52986600  1
  Cu  Cu125  1  0.21278700  0.88741700  0.64125300  1
  Cu  Cu126  1  0.12164300  0.16529100  0.83461800  1
  Cu  Cu127  1  0.04522900  0.16592100  0.83525700  1
  Cu  Cu128  1  0.15880600  0.49653900  0.72274000  1
  Cu  Cu129  1  0.95406800  0.35471200  0.11289900  1
  Cu  Cu130  1  0.99164900  0.77918300  0.00477900  1
  Cu  Cu131  1  0.24995700  0.45011500  0.77929100  1
  Cu  Cu132  1  0.28733000  0.88686700  0.64143100  1
  Cu  Cu133  1  0.08331000  0.71950100  0.04185200  1
  Cu  Cu134  1  0.99209300  0.99740600  0.22301900  1
  Cu  Cu135  1  0.95477100  0.66592100  0.33525700  1
  Cu  Cu136  1  0.08329700  0.95607300  0.28311000  1
  Cu  Cu137  1  0.17484700  0.77514400  0.00536100  1
  Cu  Cu138  1  0.12071400  0.38918200  0.14362800  1
  Cu  Cu139  1  0.04609600  0.38967300  0.14339900  1
  Cu  Cu140  1  0.91669000  0.21950100  0.54185200  1
  Cu  Cu141  1  0.00835100  0.27918300  0.50477900  1
  Cu  Cu142  1  0.91670300  0.45607300  0.78311000  1
  Cu  Cu143  1  0.95390400  0.88967300  0.64339900  1
