# generated using pymatgen
data_Cu7NiC5
_symmetry_space_group_name_H-M   'P 1'
_cell_length_a   13.74180300
_cell_length_b   7.59129100
_cell_length_c   13.42666501
_cell_angle_alpha   63.58406567
_cell_angle_beta   90.00000000
_cell_angle_gamma   90.00000000
_symmetry_Int_Tables_number   1
_chemical_formula_structural   Cu7NiC5
_chemical_formula_sum   'Cu28 Ni4 C20'
_cell_volume   1254.39932388
_cell_formula_units_Z   4
loop_
 _symmetry_equiv_pos_site_id
 _symmetry_equiv_pos_as_xyz
  1  'x, y, z'
loop_
 _atom_site_type_symbol
 _atom_site_label
 _atom_site_symmetry_multiplicity
 _atom_site_fract_x
 _atom_site_fract_y
 _atom_site_fract_z
 _atom_site_occupancy
  C  C0  1  0.49462000  0.13103500  0.48621000  1
  C  C1  1  0.70378400  0.88583600  0.15915400  1
  C  C2  1  0.25761200  0.34796100  0.75802400  1
  C  C3  1  0.52388600  0.64326400  0.55995300  1
  C  C4  1  0.24162300  0.56009700  0.45071000  1
  C  C5  1  0.24173500  0.52821500  0.96143200  1
  C  C6  1  0.29308000  0.40629300  0.23651700  1
  C  C7  1  0.75837700  0.56009700  0.95071000  1
  C  C8  1  0.75826500  0.52821500  0.46143200  1
  C  C9  1  0.74238800  0.34796100  0.25802400  1
  C  C10  1  0.08447600  0.14673500  0.26887000  1
  C  C11  1  0.70692000  0.40629300  0.73651700  1
  C  C12  1  0.00611200  0.52231100  0.60282400  1
  C  C13  1  0.91552400  0.14673500  0.76887000  1
  C  C14  1  0.47611400  0.64326400  0.05995300  1
  C  C15  1  0.99388800  0.52231100  0.10282400  1
  C  C16  1  0.29621600  0.88583600  0.65915400  1
  C  C17  1  0.99103700  0.44450400  0.87030400  1
  C  C18  1  0.00896300  0.44450400  0.37030400  1
  C  C19  1  0.50538000  0.13103500  0.98621000  1
  Ni  Ni20  1  0.95255800  0.94427500  0.20463400  1
  Ni  Ni21  1  0.49200500  0.01225300  0.72651900  1
  Ni  Ni22  1  0.50799500  0.01225300  0.22651900  1
  Ni  Ni23  1  0.04744200  0.94427500  0.70463400  1
  Cu  Cu24  1  0.37760900  0.48720000  0.01928200  1
  Cu  Cu25  1  0.97172400  0.15901800  0.90406900  1
  Cu  Cu26  1  0.87569600  0.46213200  0.21516200  1
  Cu  Cu27  1  0.09517000  0.43974000  0.50251300  1
  Cu  Cu28  1  0.68384500  0.33327400  0.03445200  1
  Cu  Cu29  1  0.73899700  0.32185400  0.41374500  1
  Cu  Cu30  1  0.58005600  0.91817500  0.48993400  1
  Cu  Cu31  1  0.40552000  0.58614300  0.20217100  1
  Cu  Cu32  1  0.41994400  0.91817500  0.98993400  1
  Cu  Cu33  1  0.74962600  0.77495800  0.33327300  1
  Cu  Cu34  1  0.67623100  0.61071900  0.18435200  1
  Cu  Cu35  1  0.59448000  0.58614300  0.70217100  1
  Cu  Cu36  1  0.25037400  0.77495800  0.83327300  1
  Cu  Cu37  1  0.32376900  0.61071900  0.68435200  1
  Cu  Cu38  1  0.38133600  0.95924700  0.51515200  1
  Cu  Cu39  1  0.12430400  0.46213200  0.71516200  1
  Cu  Cu40  1  0.21178400  0.52494200  0.31327700  1
  Cu  Cu41  1  0.09474600  0.45123300  0.97794100  1
  Cu  Cu42  1  0.02827600  0.15901800  0.40406900  1
  Cu  Cu43  1  0.79243800  0.54681600  0.60032800  1
  Cu  Cu44  1  0.78821600  0.52494200  0.81327700  1
  Cu  Cu45  1  0.90525400  0.45123300  0.47794100  1
  Cu  Cu46  1  0.90483000  0.43974000  0.00251300  1
  Cu  Cu47  1  0.62239100  0.48720000  0.51928200  1
  Cu  Cu48  1  0.26100300  0.32185400  0.91374500  1
  Cu  Cu49  1  0.61866400  0.95924700  0.01515200  1
  Cu  Cu50  1  0.20756200  0.54681600  0.10032800  1
  Cu  Cu51  1  0.31615500  0.33327400  0.53445200  1
