# generated using pymatgen
data_CuNiC4
_symmetry_space_group_name_H-M   'P 1'
_cell_length_a   8.60617200
_cell_length_b   9.12532306
_cell_length_c   9.51533714
_cell_angle_alpha   97.05074339
_cell_angle_beta   111.31504040
_cell_angle_gamma   93.47755799
_symmetry_Int_Tables_number   1
_chemical_formula_structural   CuNiC4
_chemical_formula_sum   'Cu8 Ni8 C32'
_cell_volume   686.40337881
_cell_formula_units_Z   8
loop_
 _symmetry_equiv_pos_site_id
 _symmetry_equiv_pos_as_xyz
  1  'x, y, z'
loop_
 _atom_site_type_symbol
 _atom_site_label
 _atom_site_symmetry_multiplicity
 _atom_site_fract_x
 _atom_site_fract_y
 _atom_site_fract_z
 _atom_site_occupancy
  Ni  Ni0  1  0.42576700  0.61676800  0.55367400  1
  Ni  Ni1  1  0.57423300  0.38323200  0.44632600  1
  Ni  Ni2  1  0.00452500  0.10552600  0.90246600  1
  Ni  Ni3  1  0.99547500  0.89447400  0.09753400  1
  Ni  Ni4  1  0.82479700  0.17027700  0.13598300  1
  Ni  Ni5  1  0.17520300  0.82972300  0.86401700  1
  Ni  Ni6  1  0.20497500  0.34928600  0.54038700  1
  Ni  Ni7  1  0.79502500  0.65071400  0.45961300  1
  Cu  Cu8  1  0.22629300  0.77952100  0.27415400  1
  Cu  Cu9  1  0.25296600  0.08757200  0.74588200  1
  Cu  Cu10  1  0.12102300  0.55887400  0.70149600  1
  Cu  Cu11  1  0.77370700  0.22047900  0.72584600  1
  Cu  Cu12  1  0.74703400  0.91242800  0.25411800  1
  Cu  Cu13  1  0.47399000  0.94202400  0.18906800  1
  Cu  Cu14  1  0.52601000  0.05797600  0.81093200  1
  Cu  Cu15  1  0.87897700  0.44112600  0.29850400  1
  C  C16  1  0.39405900  0.40126600  0.50335900  1
  C  C17  1  0.41263400  0.81775300  0.26389100  1
  C  C18  1  0.72525000  0.31637000  0.60361800  1
  C  C19  1  0.24718400  0.55897300  0.61630700  1
  C  C20  1  0.45857400  0.08655600  0.29653400  1
  C  C21  1  0.51294900  0.23538500  0.27144400  1
  C  C22  1  0.21416100  0.64206900  0.86543400  1
  C  C23  1  0.27475000  0.68363000  0.39638200  1
  C  C24  1  0.98215000  0.09663000  0.08613200  1
  C  C25  1  0.01785000  0.90337000  0.91386800  1
  C  C26  1  0.36571500  0.92498600  0.02040800  1
  C  C27  1  0.22866600  0.16859500  0.60962100  1
  C  C28  1  0.89929700  0.28713600  0.88589200  1
  C  C29  1  0.75281600  0.44102700  0.38369300  1
  C  C30  1  0.18234400  0.92187800  0.70679800  1
  C  C31  1  0.60594100  0.59873400  0.49664100  1
  C  C32  1  0.07591400  0.39138200  0.67601900  1
  C  C33  1  0.63428500  0.07501400  0.97959200  1
  C  C34  1  0.20011100  0.16200200  0.87288600  1
  C  C35  1  0.48705100  0.76461500  0.72855600  1
  C  C36  1  0.84121600  0.07189300  0.69859500  1
  C  C37  1  0.92408600  0.60861800  0.32398100  1
  C  C38  1  0.02562300  0.34519800  0.36360100  1
  C  C39  1  0.81765600  0.07812200  0.29320200  1
  C  C40  1  0.79988900  0.83799800  0.12711400  1
  C  C41  1  0.77133400  0.83140500  0.39037900  1
  C  C42  1  0.54142600  0.91344400  0.70346600  1
  C  C43  1  0.15878400  0.92810700  0.30140500  1
  C  C44  1  0.78583900  0.35793100  0.13456600  1
  C  C45  1  0.97437700  0.65480200  0.63639900  1
  C  C46  1  0.58736600  0.18224700  0.73610900  1
  C  C47  1  0.10070300  0.71286400  0.11410800  1
