# generated using pymatgen
data_Cu2Ni2C9
_symmetry_space_group_name_H-M   'P 1'
_cell_length_a   9.45261705
_cell_length_b   9.45261705
_cell_length_c   8.59536944
_cell_angle_alpha   83.02091861
_cell_angle_beta   83.02091861
_cell_angle_gamma   89.67660976
_symmetry_Int_Tables_number   1
_chemical_formula_structural   Cu2Ni2C9
_chemical_formula_sum   'Cu8 Ni8 C36'
_cell_volume   756.64186650
_cell_formula_units_Z   4
loop_
 _symmetry_equiv_pos_site_id
 _symmetry_equiv_pos_as_xyz
  1  'x, y, z'
loop_
 _atom_site_type_symbol
 _atom_site_label
 _atom_site_symmetry_multiplicity
 _atom_site_fract_x
 _atom_site_fract_y
 _atom_site_fract_z
 _atom_site_occupancy
  C  C0  1  0.42835400  0.93847200  0.30177800  1
  C  C1  1  0.06152800  0.57164600  0.19822200  1
  C  C2  1  0.57164600  0.06152800  0.69822200  1
  C  C3  1  0.93847200  0.42835400  0.80177800  1
  Ni  Ni4  1  0.05917100  0.20102200  0.11912900  1
  Ni  Ni5  1  0.79897800  0.94082900  0.38087100  1
  Ni  Ni6  1  0.94082900  0.79897800  0.88087100  1
  Ni  Ni7  1  0.20102200  0.05917100  0.61912900  1
  Ni  Ni8  1  0.29296100  0.54729300  0.52565400  1
  Ni  Ni9  1  0.45270700  0.70703900  0.97434600  1
  Ni  Ni10  1  0.70703900  0.45270700  0.47434600  1
  Ni  Ni11  1  0.54729300  0.29296100  0.02565400  1
  Cu  Cu12  1  0.93932000  0.21849200  0.49103700  1
  Cu  Cu13  1  0.78150800  0.06068000  0.00896300  1
  Cu  Cu14  1  0.06068000  0.78150800  0.50896300  1
  Cu  Cu15  1  0.21849200  0.93932000  0.99103700  1
  Cu  Cu16  1  0.27726500  0.43477100  0.90304100  1
  Cu  Cu17  1  0.56522900  0.72273500  0.59695900  1
  Cu  Cu18  1  0.72273500  0.56522900  0.09695900  1
  Cu  Cu19  1  0.43477100  0.27726500  0.40304100  1
  C  C20  1  0.90988900  0.17865100  0.00187100  1
  C  C21  1  0.82134900  0.09011100  0.49812900  1
  C  C22  1  0.09011100  0.82134900  0.99812900  1
  C  C23  1  0.17865100  0.90988900  0.50187100  1
  C  C24  1  0.43093400  0.68716500  0.50297500  1
  C  C25  1  0.31283500  0.56906600  0.99702500  1
  C  C26  1  0.56906600  0.31283500  0.49702500  1
  C  C27  1  0.68716500  0.43093400  0.00297500  1
  C  C28  1  0.18346900  0.05397300  0.11912300  1
  C  C29  1  0.94602700  0.81653100  0.38087700  1
  C  C30  1  0.81653100  0.94602700  0.88087700  1
  C  C31  1  0.05397300  0.18346900  0.61912300  1
  C  C32  1  0.67643300  0.59146900  0.60618400  1
  C  C33  1  0.40853100  0.32356700  0.89381600  1
  C  C34  1  0.32356700  0.40853100  0.39381600  1
  C  C35  1  0.59146900  0.67643300  0.10618400  1
  C  C36  1  0.01381200  0.26773000  0.31073200  1
  C  C37  1  0.73227000  0.98618800  0.18926800  1
  C  C38  1  0.98618800  0.73227000  0.68926800  1
  C  C39  1  0.26773000  0.01381200  0.81073200  1
  C  C40  1  0.87496700  0.62491200  0.99298500  1
  C  C41  1  0.37508800  0.12503300  0.50701500  1
  C  C42  1  0.12503300  0.37508800  0.00701500  1
  C  C43  1  0.62491200  0.87496700  0.49298500  1
  C  C44  1  0.85829200  0.35799600  0.55917800  1
  C  C45  1  0.64200400  0.14170800  0.94082200  1
  C  C46  1  0.14170800  0.64200400  0.44082200  1
  C  C47  1  0.35799600  0.85829200  0.05917800  1
  C  C48  1  0.77694800  0.52047200  0.27013400  1
  C  C49  1  0.47952800  0.22305200  0.22986600  1
  C  C50  1  0.22305200  0.47952800  0.72986600  1
  C  C51  1  0.52047200  0.77694800  0.77013400  1
