# generated using pymatgen
data_Cu13Ni27C8
_symmetry_space_group_name_H-M   'P 1'
_cell_length_a   9.76588500
_cell_length_b   9.90494855
_cell_length_c   17.72531165
_cell_angle_alpha   82.19939290
_cell_angle_beta   80.36779867
_cell_angle_gamma   64.19413796
_symmetry_Int_Tables_number   1
_chemical_formula_structural   Cu13Ni27C8
_chemical_formula_sum   'Cu13 Ni27 C8'
_cell_volume   1518.00617058
_cell_formula_units_Z   1
loop_
 _symmetry_equiv_pos_site_id
 _symmetry_equiv_pos_as_xyz
  1  'x, y, z'
loop_
 _atom_site_type_symbol
 _atom_site_label
 _atom_site_symmetry_multiplicity
 _atom_site_fract_x
 _atom_site_fract_y
 _atom_site_fract_z
 _atom_site_occupancy
  C  C0  1  0.86830300  0.22530600  0.08451900  1
  C  C1  1  0.39978400  0.26036000  0.59415700  1
  C  C2  1  0.34838100  0.18964700  0.34669900  1
  C  C3  1  0.20870200  0.72321900  0.18868500  1
  C  C4  1  0.84991600  0.23903800  0.85272700  1
  C  C5  1  0.65876800  0.72309000  0.69405300  1
  C  C6  1  0.69590600  0.75357000  0.39381800  1
  C  C7  1  0.15860400  0.74184000  0.90756700  1
  Ni  Ni8  1  0.76527600  0.83911900  0.15947000  1
  Ni  Ni9  1  0.81173900  0.62942800  0.20908500  1
  Ni  Ni10  1  0.71642000  0.45652700  0.01670600  1
  Ni  Ni11  1  0.21684700  0.92485000  0.68496800  1
  Ni  Ni12  1  0.40454400  0.78858100  0.12263200  1
  Ni  Ni13  1  0.33755500  0.69326100  0.51754900  1
  Ni  Ni14  1  0.66684700  0.14221900  0.08568200  1
  Ni  Ni15  1  0.25365600  0.71435200  0.72452100  1
  Ni  Ni16  1  0.23623900  0.55438900  0.52465600  1
  Ni  Ni17  1  0.31584300  0.11536000  0.23344900  1
  Ni  Ni18  1  0.33651700  0.59941500  0.30138500  1
  Ni  Ni19  1  0.28303200  0.49528200  0.13024600  1
  Ni  Ni20  1  0.08634200  0.92614400  0.36573700  1
  Ni  Ni21  1  0.88248300  0.76360800  0.66348300  1
  Ni  Ni22  1  0.95691300  0.67656300  0.90819400  1
  Ni  Ni23  1  0.15587600  0.27209200  0.58662900  1
  Ni  Ni24  1  0.08044500  0.28451700  0.06814700  1
  Ni  Ni25  1  0.96908000  0.14185200  0.39102100  1
  Ni  Ni26  1  0.80717700  0.16830000  0.73933200  1
  Ni  Ni27  1  0.72373200  0.55760600  0.81534100  1
  Ni  Ni28  1  0.72798200  0.52066000  0.61992600  1
  Ni  Ni29  1  0.50970400  0.02581400  0.85304500  1
  Ni  Ni30  1  0.72768800  0.49889600  0.41589000  1
  Ni  Ni31  1  0.76956900  0.31209700  0.20821700  1
  Ni  Ni32  1  0.58527700  0.07440200  0.94061100  1
  Ni  Ni33  1  0.33957000  0.49162700  0.90591200  1
  Ni  Ni34  1  0.32445500  0.36112100  0.71441200  1
  Cu  Cu35  1  0.35993400  0.00630100  0.40756300  1
  Cu  Cu36  1  0.03020300  0.93782800  0.86154400  1
  Cu  Cu37  1  0.45386700  0.20974200  0.48937700  1
  Cu  Cu38  1  0.12475900  0.79180200  0.00945900  1
  Cu  Cu39  1  0.90380200  0.70477600  0.41066600  1
  Cu  Cu40  1  0.94333000  0.13957100  0.97974900  1
  Cu  Cu41  1  0.61687400  0.80266500  0.50031200  1
  Cu  Cu42  1  0.99243500  0.02629100  0.12741200  1
  Cu  Cu43  1  0.32146100  0.80258200  0.87698900  1
  Cu  Cu44  1  0.57245400  0.30593200  0.58020400  1
  Cu  Cu45  1  0.57021400  0.10332900  0.32862000  1
  Cu  Cu46  1  0.49696800  0.05689300  0.63393600  1
  Cu  Cu47  1  0.04607600  0.23423000  0.81054700  1
