# generated using pymatgen
data_Cu4NiC20
_symmetry_space_group_name_H-M   'P 1'
_cell_length_a   5.56607000
_cell_length_b   9.68314054
_cell_length_c   12.46835613
_cell_angle_alpha   75.36682485
_cell_angle_beta   77.75050682
_cell_angle_gamma   73.64936261
_symmetry_Int_Tables_number   1
_chemical_formula_structural   Cu4NiC20
_chemical_formula_sum   'Cu8 Ni2 C40'
_cell_volume   616.67091909
_cell_formula_units_Z   2
loop_
 _symmetry_equiv_pos_site_id
 _symmetry_equiv_pos_as_xyz
  1  'x, y, z'
loop_
 _atom_site_type_symbol
 _atom_site_label
 _atom_site_symmetry_multiplicity
 _atom_site_fract_x
 _atom_site_fract_y
 _atom_site_fract_z
 _atom_site_occupancy
  C  C0  1  0.20025000  0.14976600  0.44895300  1
  C  C1  1  0.39821600  0.54969500  0.65104100  1
  C  C2  1  0.60023000  0.94990700  0.85157300  1
  C  C3  1  0.80189700  0.34908200  0.04840100  1
  C  C4  1  0.40043500  0.05044600  0.14953400  1
  C  C5  1  0.00082200  0.75035000  0.25040600  1
  C  C6  1  0.00240000  0.25247400  0.75154900  1
  C  C7  1  0.60010000  0.45041400  0.34955200  1
  C  C8  1  0.20158800  0.64921800  0.94994000  1
  C  C9  1  0.79964700  0.84692200  0.54773400  1
  Ni  Ni10  1  0.60157400  0.20162800  0.59967900  1
  Ni  Ni11  1  0.19951400  0.89848200  0.70056500  1
  Cu  Cu12  1  0.00115900  0.99868100  0.00026900  1
  Cu  Cu13  1  0.19909200  0.39983100  0.20068900  1
  Cu  Cu14  1  0.80138600  0.60022900  0.79931600  1
  Cu  Cu15  1  0.79929400  0.09959700  0.30019400  1
  Cu  Cu16  1  0.39988500  0.80096000  0.39986000  1
  Cu  Cu17  1  0.40113100  0.30033000  0.89946800  1
  Cu  Cu18  1  0.00236100  0.49871200  0.49956300  1
  Cu  Cu19  1  0.59903600  0.70020700  0.09966900  1
  C  C20  1  0.45181900  0.02469200  0.63715500  1
  C  C21  1  0.04774300  0.22513500  0.23259300  1
  C  C22  1  0.92763600  0.05989900  0.63099000  1
  C  C23  1  0.90986600  0.01539200  0.16157100  1
  C  C24  1  0.68337800  0.18930000  0.44027100  1
  C  C25  1  0.65119600  0.42496800  0.84221000  1
  C  C26  1  0.53658700  0.26343200  0.22461900  1
  C  C27  1  0.66588100  0.14067600  0.97828800  1
  C  C28  1  0.51184800  0.21997900  0.75818900  1
  C  C29  1  0.29074900  0.38706300  0.03642200  1
  C  C30  1  0.24425400  0.62670600  0.43468500  1
  C  C31  1  0.12770800  0.45702700  0.83328100  1
  C  C32  1  0.26806800  0.33092500  0.57718900  1
  C  C33  1  0.15042000  0.17270900  0.96396500  1
  C  C34  1  0.10666000  0.42359200  0.35965300  1
  C  C35  1  0.88662200  0.58714000  0.63766300  1
  C  C36  1  0.85669100  0.82287000  0.04083300  1
  C  C37  1  0.73339700  0.66287900  0.42646800  1
  C  C38  1  0.86171800  0.53577400  0.17433100  1
  C  C39  1  0.75707400  0.36624000  0.56054300  1
  C  C40  1  0.71214100  0.61380500  0.96110300  1
  C  C41  1  0.48866600  0.78511400  0.23964200  1
  C  C42  1  0.32727200  0.86025800  0.03299100  1
  C  C43  1  0.45349400  0.74321000  0.77499400  1
  C  C44  1  0.35090500  0.57311200  0.16165300  1
  C  C45  1  0.30707400  0.82404200  0.56095900  1
  C  C46  1  0.09223700  0.99020500  0.83266100  1
  C  C47  1  0.05926300  0.93329500  0.37167900  1
  C  C48  1  0.96440100  0.77360000  0.75828900  1
  C  C49  1  0.56521500  0.97003000  0.35715500  1
