# generated using pymatgen
data_CuNiC4
_symmetry_space_group_name_H-M   'P 1'
_cell_length_a   7.37125307
_cell_length_b   7.37125307
_cell_length_c   7.37125222
_cell_angle_alpha   95.53130633
_cell_angle_beta   95.53130633
_cell_angle_gamma   95.53130715
_symmetry_Int_Tables_number   1
_chemical_formula_structural   CuNiC4
_chemical_formula_sum   'Cu6 Ni6 C24'
_cell_volume   394.53450391
_cell_formula_units_Z   6
loop_
 _symmetry_equiv_pos_site_id
 _symmetry_equiv_pos_as_xyz
  1  'x, y, z'
loop_
 _atom_site_type_symbol
 _atom_site_label
 _atom_site_symmetry_multiplicity
 _atom_site_fract_x
 _atom_site_fract_y
 _atom_site_fract_z
 _atom_site_occupancy
  C  C0  1  0.47673400  0.21407900  0.56473500  1
  C  C1  1  0.52326600  0.78592100  0.43526500  1
  C  C2  1  0.56473500  0.47673400  0.21407900  1
  C  C3  1  0.21407900  0.56473500  0.47673400  1
  C  C4  1  0.43526500  0.52326600  0.78592100  1
  C  C5  1  0.78592100  0.43526500  0.52326600  1
  Ni  Ni6  1  0.08754100  0.04054100  0.34649300  1
  Ni  Ni7  1  0.91245900  0.95945900  0.65350700  1
  Ni  Ni8  1  0.04054100  0.34649300  0.08754100  1
  Ni  Ni9  1  0.65350700  0.91245900  0.95945900  1
  Ni  Ni10  1  0.34649300  0.08754100  0.04054100  1
  Ni  Ni11  1  0.95945900  0.65350700  0.91245900  1
  Cu  Cu12  1  0.93097800  0.38089400  0.17219900  1
  Cu  Cu13  1  0.06902200  0.61910600  0.82780100  1
  Cu  Cu14  1  0.61910600  0.82780100  0.06902200  1
  Cu  Cu15  1  0.38089400  0.17219900  0.93097800  1
  Cu  Cu16  1  0.82780100  0.06902200  0.61910600  1
  Cu  Cu17  1  0.17219900  0.93097800  0.38089400  1
  C  C18  1  0.61809900  0.90596900  0.22730800  1
  C  C19  1  0.77269200  0.38190100  0.09403100  1
  C  C20  1  0.40609000  0.70332200  0.62823700  1
  C  C21  1  0.37176300  0.59391000  0.29667800  1
  C  C22  1  0.09403100  0.77269200  0.38190100  1
  C  C23  1  0.97857700  0.41504100  0.34553900  1
  C  C24  1  0.38190100  0.09403100  0.77269200  1
  C  C25  1  0.59391000  0.29667800  0.37176300  1
  C  C26  1  0.41504100  0.34553900  0.97857700  1
  C  C27  1  0.22730800  0.61809900  0.90596900  1
  C  C28  1  0.29667800  0.37176300  0.59391000  1
  C  C29  1  0.62823700  0.40609000  0.70332200  1
  C  C30  1  0.70332200  0.62823700  0.40609000  1
  C  C31  1  0.90596900  0.22730800  0.61809900  1
  C  C32  1  0.34553900  0.97857700  0.41504100  1
  C  C33  1  0.65446100  0.02142300  0.58495900  1
  C  C34  1  0.58495900  0.65446100  0.02142300  1
  C  C35  1  0.02142300  0.58495900  0.65446100  1
