# generated using pymatgen
data_CuNiC3
_symmetry_space_group_name_H-M   'P 1'
_cell_length_a   8.57384000
_cell_length_b   11.82623400
_cell_length_c   17.08588700
_cell_angle_alpha   90.00000000
_cell_angle_beta   90.00000000
_cell_angle_gamma   90.00000000
_symmetry_Int_Tables_number   1
_chemical_formula_structural   CuNiC3
_chemical_formula_sum   'Cu20 Ni20 C60'
_cell_volume   1732.44466672
_cell_formula_units_Z   20
loop_
 _symmetry_equiv_pos_site_id
 _symmetry_equiv_pos_as_xyz
  1  'x, y, z'
loop_
 _atom_site_type_symbol
 _atom_site_label
 _atom_site_symmetry_multiplicity
 _atom_site_fract_x
 _atom_site_fract_y
 _atom_site_fract_z
 _atom_site_occupancy
  C  C0  1  0.18136300  0.49840900  0.25000000  1
  C  C1  1  0.31863700  0.99840900  0.25000000  1
  C  C2  1  0.81863700  0.50159100  0.75000000  1
  C  C3  1  0.68136300  0.00159100  0.75000000  1
  C  C4  1  0.02319400  0.78556800  0.33810700  1
  C  C5  1  0.47680600  0.28556800  0.16189300  1
  C  C6  1  0.97680600  0.21443200  0.83810700  1
  C  C7  1  0.52319400  0.71443200  0.66189300  1
  C  C8  1  0.97680600  0.21443200  0.66189300  1
  C  C9  1  0.52319400  0.71443200  0.83810700  1
  C  C10  1  0.02319400  0.78556800  0.16189300  1
  C  C11  1  0.47680600  0.28556800  0.33810700  1
  C  C12  1  0.68077000  0.06409300  0.25000000  1
  C  C13  1  0.81923000  0.56409300  0.25000000  1
  C  C14  1  0.31923000  0.93590700  0.75000000  1
  C  C15  1  0.18077000  0.43590700  0.75000000  1
  C  C16  1  0.76239500  0.94819100  0.25000000  1
  C  C17  1  0.73760500  0.44819100  0.25000000  1
  C  C18  1  0.23760500  0.05180900  0.75000000  1
  C  C19  1  0.26239500  0.55180900  0.75000000  1
  C  C20  1  0.40895500  0.63802500  0.12218900  1
  C  C21  1  0.09104500  0.13802500  0.37781100  1
  C  C22  1  0.59104500  0.36197500  0.62218900  1
  C  C23  1  0.90895500  0.86197500  0.87781100  1
  C  C24  1  0.59104500  0.36197500  0.87781100  1
  C  C25  1  0.90895500  0.86197500  0.62218900  1
  C  C26  1  0.40895500  0.63802500  0.37781100  1
  C  C27  1  0.09104500  0.13802500  0.12218900  1
  C  C28  1  0.51806800  0.68777500  0.08217200  1
  C  C29  1  0.98193200  0.18777500  0.41782800  1
  C  C30  1  0.48193200  0.31222500  0.58217200  1
  C  C31  1  0.01806800  0.81222500  0.91782800  1
  C  C32  1  0.48193200  0.31222500  0.91782800  1
  C  C33  1  0.01806800  0.81222500  0.58217200  1
  C  C34  1  0.51806800  0.68777500  0.41782800  1
  C  C35  1  0.98193200  0.18777500  0.08217200  1
  C  C36  1  0.69160000  0.67057900  0.06893000  1
  C  C37  1  0.80840000  0.17057900  0.43107000  1
  C  C38  1  0.30840000  0.32942100  0.56893000  1
  C  C39  1  0.19160000  0.82942100  0.93107000  1
  C  C40  1  0.30840000  0.32942100  0.93107000  1
  C  C41  1  0.19160000  0.82942100  0.56893000  1
  C  C42  1  0.69160000  0.67057900  0.43107000  1
  C  C43  1  0.80840000  0.17057900  0.06893000  1
  C  C44  1  0.57347700  0.80966500  0.07057000  1
  C  C45  1  0.92652300  0.30966500  0.42943000  1
  C  C46  1  0.42652300  0.19033500  0.57057000  1
  C  C47  1  0.07347700  0.69033500  0.92943000  1
  C  C48  1  0.42652300  0.19033500  0.92943000  1
  C  C49  1  0.07347700  0.69033500  0.57057000  1
  C  C50  1  0.57347700  0.80966500  0.42943000  1
  C  C51  1  0.92652300  0.30966500  0.07057000  1
  C  C52  1  0.71996700  0.77913400  0.09547800  1
  C  C53  1  0.78003300  0.27913400  0.40452200  1
  C  C54  1  0.28003300  0.22086600  0.59547800  1
  C  C55  1  0.21996700  0.72086600  0.90452200  1
  C  C56  1  0.28003300  0.22086600  0.90452200  1
  C  C57  1  0.21996700  0.72086600  0.59547800  1
  C  C58  1  0.71996700  0.77913400  0.40452200  1
  C  C59  1  0.78003300  0.27913400  0.09547800  1
  Ni  Ni60  1  0.84567900  0.84078700  0.10917100  1
  Ni  Ni61  1  0.65432100  0.34078700  0.39082900  1
  Ni  Ni62  1  0.15432100  0.15921300  0.60917100  1
  Ni  Ni63  1  0.34567900  0.65921300  0.89082900  1
  Ni  Ni64  1  0.15432100  0.15921300  0.89082900  1
  Ni  Ni65  1  0.34567900  0.65921300  0.60917100  1
  Ni  Ni66  1  0.84567900  0.84078700  0.39082900  1
  Ni  Ni67  1  0.65432100  0.34078700  0.10917100  1
  Ni  Ni68  1  0.04196900  0.66262400  0.12336200  1
  Ni  Ni69  1  0.45803100  0.16262400  0.37663800  1
  Ni  Ni70  1  0.95803100  0.33737600  0.62336200  1
  Ni  Ni71  1  0.54196900  0.83737600  0.87663800  1
  Ni  Ni72  1  0.95803100  0.33737600  0.87663800  1
  Ni  Ni73  1  0.54196900  0.83737600  0.62336200  1
  Ni  Ni74  1  0.04196900  0.66262400  0.37663800  1
  Ni  Ni75  1  0.45803100  0.16262400  0.12336200  1
  Ni  Ni76  1  0.65894300  0.98314500  0.25000000  1
  Ni  Ni77  1  0.84105700  0.48314500  0.25000000  1
  Ni  Ni78  1  0.34105700  0.01685500  0.75000000  1
  Ni  Ni79  1  0.15894300  0.51685500  0.75000000  1
  Cu  Cu80  1  0.88715000  0.72056100  0.25000000  1
  Cu  Cu81  1  0.61285000  0.22056100  0.25000000  1
  Cu  Cu82  1  0.11285000  0.27943900  0.75000000  1
  Cu  Cu83  1  0.38715000  0.77943900  0.75000000  1
  Cu  Cu84  1  0.17197500  0.75343600  0.25000000  1
  Cu  Cu85  1  0.32802500  0.25343600  0.25000000  1
  Cu  Cu86  1  0.82802500  0.24656400  0.75000000  1
  Cu  Cu87  1  0.67197500  0.74656400  0.75000000  1
  Cu  Cu88  1  0.98662800  0.90954600  0.25000000  1
  Cu  Cu89  1  0.51337200  0.40954600  0.25000000  1
  Cu  Cu90  1  0.01337200  0.09045400  0.75000000  1
  Cu  Cu91  1  0.48662800  0.59045400  0.75000000  1
  Cu  Cu92  1  0.16798400  0.87277000  0.11835800  1
  Cu  Cu93  1  0.33201600  0.37277000  0.38164200  1
  Cu  Cu94  1  0.83201600  0.12723000  0.61835800  1
  Cu  Cu95  1  0.66798400  0.62723000  0.88164200  1
  Cu  Cu96  1  0.83201600  0.12723000  0.88164200  1
  Cu  Cu97  1  0.66798400  0.62723000  0.61835800  1
  Cu  Cu98  1  0.16798400  0.87277000  0.38164200  1
  Cu  Cu99  1  0.33201600  0.37277000  0.11835800  1
