# generated using pymatgen
data_Cu4Ni
_symmetry_space_group_name_H-M   'P 1'
_cell_length_a   10.76156417
_cell_length_b   10.76156417
_cell_length_c   31.50138100
_cell_angle_alpha   90.00000000
_cell_angle_beta   90.00000000
_cell_angle_gamma   120.00000102
_symmetry_Int_Tables_number   1
_chemical_formula_structural   Cu4Ni
_chemical_formula_sum   'Cu64 Ni16'
_cell_volume   3159.44660147
_cell_formula_units_Z   16
loop_
 _symmetry_equiv_pos_site_id
 _symmetry_equiv_pos_as_xyz
  1  'x, y, z'
loop_
 _atom_site_type_symbol
 _atom_site_label
 _atom_site_symmetry_multiplicity
 _atom_site_fract_x
 _atom_site_fract_y
 _atom_site_fract_z
 _atom_site_occupancy
  Ni  Ni0  1  0.95834100  0.21822700  0.91399800  1
  Ni  Ni1  1  0.92166000  0.55923900  0.60498100  1
  Ni  Ni2  1  0.25988600  0.04165900  0.91399800  1
  Ni  Ni3  1  0.00000000  0.00000000  0.29871700  1
  Ni  Ni4  1  0.55923900  0.92166000  0.10498100  1
  Ni  Ni5  1  0.74011400  0.78177300  0.41399800  1
  Ni  Ni6  1  0.21822700  0.95834100  0.41399800  1
  Ni  Ni7  1  0.04165900  0.25988600  0.41399800  1
  Ni  Ni8  1  0.63757900  0.07834000  0.60498100  1
  Ni  Ni9  1  0.36242100  0.44076100  0.10498100  1
  Ni  Ni10  1  0.00000000  0.00000000  0.79871700  1
  Ni  Ni11  1  0.33333300  0.66666700  0.21942100  1
  Ni  Ni12  1  0.66666700  0.33333300  0.71942100  1
  Ni  Ni13  1  0.07834000  0.63757900  0.10498100  1
  Ni  Ni14  1  0.44076100  0.36242100  0.60498100  1
  Ni  Ni15  1  0.78177300  0.74011400  0.91399800  1
  Cu  Cu16  1  0.43767200  0.92237200  0.56033200  1
  Cu  Cu17  1  0.92237200  0.43767200  0.06033200  1
  Cu  Cu18  1  0.48470000  0.56232800  0.56033200  1
  Cu  Cu19  1  0.27841100  0.86115300  0.95417800  1
  Cu  Cu20  1  0.85666700  0.30323000  0.65867500  1
  Cu  Cu21  1  0.22045700  0.18848600  0.36132900  1
  Cu  Cu22  1  0.99148900  0.18711700  0.25941400  1
  Cu  Cu23  1  0.33333300  0.66666700  0.05879900  1
  Cu  Cu24  1  0.58274300  0.72158900  0.95417800  1
  Cu  Cu25  1  0.81288300  0.80437200  0.25941400  1
  Cu  Cu26  1  0.00851100  0.19562800  0.75941400  1
  Cu  Cu27  1  0.88074400  0.49510800  0.75853100  1
  Cu  Cu28  1  0.91766900  0.35636800  0.86188500  1
  Cu  Cu29  1  0.50489200  0.38563700  0.75853100  1
  Cu  Cu30  1  0.81151400  0.03197100  0.36132900  1
  Cu  Cu31  1  0.74344400  0.92417400  0.06198000  1
  Cu  Cu32  1  0.08233100  0.43869800  0.36188500  1
  Cu  Cu33  1  0.66666700  0.33333300  0.55879900  1
  Cu  Cu34  1  0.89911300  0.61446100  0.15467200  1
  Cu  Cu35  1  0.75849600  0.16711800  0.95953200  1
  Cu  Cu36  1  0.59137800  0.83288200  0.45953200  1
  Cu  Cu37  1  0.49510800  0.88074400  0.25853100  1
  Cu  Cu38  1  0.51530000  0.07762800  0.06033200  1
  Cu  Cu39  1  0.38563700  0.50489200  0.25853100  1
  Cu  Cu40  1  0.72158900  0.58274300  0.45417800  1
  Cu  Cu41  1  0.07762800  0.51530000  0.56033200  1
  Cu  Cu42  1  0.64363200  0.56130200  0.86188500  1
  Cu  Cu43  1  0.44656300  0.14333300  0.65867500  1
  Cu  Cu44  1  0.00000000  0.00000000  0.46164200  1
  Cu  Cu45  1  0.11925600  0.61436300  0.25853100  1
  Cu  Cu46  1  0.10088700  0.71534800  0.65467200  1
  Cu  Cu47  1  0.18711700  0.99148900  0.75941400  1
  Cu  Cu48  1  0.00000000  0.00000000  0.96164200  1
  Cu  Cu49  1  0.83288200  0.59137800  0.95953200  1
  Cu  Cu50  1  0.35636800  0.91766900  0.36188500  1
  Cu  Cu51  1  0.19562800  0.00851100  0.25941400  1
  Cu  Cu52  1  0.41725700  0.13884700  0.45417800  1
  Cu  Cu53  1  0.61446100  0.89911300  0.65467200  1
  Cu  Cu54  1  0.30323000  0.85666700  0.15867500  1
  Cu  Cu55  1  0.18073000  0.25655600  0.06198000  1
  Cu  Cu56  1  0.24150400  0.40862200  0.45953200  1
  Cu  Cu57  1  0.56130200  0.64363200  0.36188500  1
  Cu  Cu58  1  0.28465200  0.38553900  0.65467200  1
  Cu  Cu59  1  0.56232800  0.48470000  0.06033200  1
  Cu  Cu60  1  0.25655600  0.18073000  0.56198000  1
  Cu  Cu61  1  0.18848600  0.22045700  0.86132900  1
  Cu  Cu62  1  0.43869800  0.08233100  0.86188500  1
  Cu  Cu63  1  0.69677000  0.55343700  0.65867500  1
  Cu  Cu64  1  0.61436300  0.11925600  0.75853100  1
  Cu  Cu65  1  0.71534800  0.10088700  0.15467200  1
  Cu  Cu66  1  0.14333300  0.44656300  0.15867500  1
  Cu  Cu67  1  0.81927000  0.07582600  0.56198000  1
  Cu  Cu68  1  0.55343700  0.69677000  0.15867500  1
  Cu  Cu69  1  0.07582600  0.81927000  0.06198000  1
  Cu  Cu70  1  0.38553900  0.28465200  0.15467200  1
  Cu  Cu71  1  0.77954300  0.96802900  0.86132900  1
  Cu  Cu72  1  0.96802900  0.77954300  0.36132900  1
  Cu  Cu73  1  0.03197100  0.81151400  0.86132900  1
  Cu  Cu74  1  0.16711800  0.75849600  0.45953200  1
  Cu  Cu75  1  0.92417400  0.74344400  0.56198000  1
  Cu  Cu76  1  0.13884700  0.41725700  0.95417800  1
  Cu  Cu77  1  0.80437200  0.81288300  0.75941400  1
  Cu  Cu78  1  0.86115300  0.27841100  0.45417800  1
  Cu  Cu79  1  0.40862200  0.24150400  0.95953200  1
