# generated using pymatgen
data_Cu2Ni5C53
_symmetry_space_group_name_H-M   'P 1'
_cell_length_a   6.65053100
_cell_length_b   6.65476251
_cell_length_c   15.97132531
_cell_angle_alpha   78.01366495
_cell_angle_beta   78.21072673
_cell_angle_gamma   84.42866036
_symmetry_Int_Tables_number   1
_chemical_formula_structural   Cu2Ni5C53
_chemical_formula_sum   'Cu2 Ni5 C53'
_cell_volume   675.75385192
_cell_formula_units_Z   1
loop_
 _symmetry_equiv_pos_site_id
 _symmetry_equiv_pos_as_xyz
  1  'x, y, z'
loop_
 _atom_site_type_symbol
 _atom_site_label
 _atom_site_symmetry_multiplicity
 _atom_site_fract_x
 _atom_site_fract_y
 _atom_site_fract_z
 _atom_site_occupancy
  C  C0  1  0.69999200  0.30156200  0.91864600  1
  C  C1  1  0.29588000  0.69770100  0.75051600  1
  C  C2  1  0.69741900  0.30077200  0.58326700  1
  C  C3  1  0.30196100  0.70227100  0.41513600  1
  C  C4  1  0.69921900  0.30415400  0.25034900  1
  C  C5  1  0.29957200  0.69354700  0.08520200  1
  Ni  Ni6  1  0.09253400  0.90514400  0.91654300  1
  Ni  Ni7  1  0.90550400  0.09310100  0.75000500  1
  Ni  Ni8  1  0.09081300  0.90823000  0.58314400  1
  Ni  Ni9  1  0.90745700  0.09102700  0.41669900  1
  Ni  Ni10  1  0.09097600  0.90802100  0.24824000  1
  Cu  Cu11  1  0.91349900  0.09176000  0.08249600  1
  Cu  Cu12  1  0.38871600  0.18727800  0.09159800  1
  C  C13  1  0.62023300  0.80803000  0.91050300  1
  C  C14  1  0.19693100  0.38019800  0.92533200  1
  C  C15  1  0.80566300  0.62016800  0.74433700  1
  C  C16  1  0.37668800  0.19321800  0.75597600  1
  C  C17  1  0.61863500  0.80730500  0.57769900  1
  C  C18  1  0.19153300  0.38067700  0.58905900  1
  C  C19  1  0.80709800  0.62179300  0.41042800  1
  C  C20  1  0.37876000  0.19434100  0.42361600  1
  C  C21  1  0.62361600  0.80835400  0.24055900  1
  C  C22  1  0.19352600  0.37964400  0.25745900  1
  C  C23  1  0.81053000  0.61575500  0.07586900  1
  C  C24  1  0.67099500  0.63132000  0.99885000  1
  C  C25  1  0.38619100  0.88608900  0.94239500  1
  C  C26  1  0.79626900  0.97319600  0.88060100  1
  C  C27  1  0.03118400  0.19741500  0.96040600  1
  C  C28  1  0.10232900  0.60927700  0.89338200  1
  C  C29  1  0.62973800  0.66973000  0.83240900  1
  C  C30  1  0.36152600  0.33311000  0.83356800  1
  C  C31  1  0.88706700  0.38677900  0.77544100  1
  C  C32  1  0.97048200  0.79708400  0.71349700  1
  C  C33  1  0.20169100  0.02670600  0.78647600  1
  C  C34  1  0.61094200  0.11451500  0.72542300  1
  C  C35  1  0.66663500  0.63001000  0.66614200  1
  C  C36  1  0.32888900  0.37073500  0.66758200  1
  C  C37  1  0.38481200  0.88669900  0.60856700  1
  C  C38  1  0.79455600  0.97279900  0.54735200  1
  C  C39  1  0.02606500  0.20452900  0.61901000  1
  C  C40  1  0.11219700  0.61412800  0.55692600  1
  C  C41  1  0.63047100  0.66960800  0.49897900  1
  C  C42  1  0.37180700  0.33015500  0.50228300  1
  C  C43  1  0.88145900  0.38625400  0.44076500  1
  C  C44  1  0.97347800  0.79685300  0.38026000  1
  C  C45  1  0.20356600  0.02776100  0.45289200  1
  C  C46  1  0.61128600  0.11230200  0.39047200  1
  C  C47  1  0.66783400  0.64032700  0.33151000  1
  C  C48  1  0.32523000  0.37676300  0.33838500  1
  C  C49  1  0.38821400  0.88601800  0.26814000  1
  C  C50  1  0.79916100  0.97769400  0.20677200  1
  C  C51  1  0.02895800  0.20041000  0.28710300  1
  C  C52  1  0.09939100  0.60997900  0.22703300  1
  C  C53  1  0.64090700  0.65958600  0.16583800  1
  C  C54  1  0.37643400  0.33665800  0.17405300  1
  C  C55  1  0.89119800  0.37779200  0.10413600  1
  C  C56  1  0.97016400  0.79970300  0.04887900  1
  C  C57  1  0.17815000  0.02830000  0.11652700  1
  C  C58  1  0.64806800  0.10926900  0.05923100  1
  C  C59  1  0.34589900  0.37639500  0.99603600  1
