# generated using pymatgen
data_Cu2Ni12C13
_symmetry_space_group_name_H-M   'P 1'
_cell_length_a   11.13151100
_cell_length_b   11.13151100
_cell_length_c   11.13151100
_cell_angle_alpha   90.00000000
_cell_angle_beta   90.00000000
_cell_angle_gamma   90.00000000
_symmetry_Int_Tables_number   1
_chemical_formula_structural   Cu2Ni12C13
_chemical_formula_sum   'Cu8 Ni48 C52'
_cell_volume   1379.31150722
_cell_formula_units_Z   4
loop_
 _symmetry_equiv_pos_site_id
 _symmetry_equiv_pos_as_xyz
  1  'x, y, z'
loop_
 _atom_site_type_symbol
 _atom_site_label
 _atom_site_symmetry_multiplicity
 _atom_site_fract_x
 _atom_site_fract_y
 _atom_site_fract_z
 _atom_site_occupancy
  C  C0  1  0.50000000  0.50000000  0.00000000  1
  C  C1  1  0.50000000  0.00000000  0.50000000  1
  C  C2  1  0.00000000  0.50000000  0.50000000  1
  C  C3  1  0.00000000  0.00000000  0.00000000  1
  Ni  Ni4  1  0.04695500  0.63383900  0.20360400  1
  Ni  Ni5  1  0.95304500  0.13383900  0.29639600  1
  Ni  Ni6  1  0.45304500  0.36616100  0.70360400  1
  Ni  Ni7  1  0.54695500  0.86616100  0.79639600  1
  Ni  Ni8  1  0.20360400  0.04695500  0.63383900  1
  Ni  Ni9  1  0.29639600  0.95304500  0.13383900  1
  Ni  Ni10  1  0.70360400  0.45304500  0.36616100  1
  Ni  Ni11  1  0.79639600  0.54695500  0.86616100  1
  Ni  Ni12  1  0.63383900  0.20360400  0.04695500  1
  Ni  Ni13  1  0.13383900  0.29639600  0.95304500  1
  Ni  Ni14  1  0.36616100  0.70360400  0.45304500  1
  Ni  Ni15  1  0.86616100  0.79639600  0.54695500  1
  Ni  Ni16  1  0.95304500  0.36616100  0.79639600  1
  Ni  Ni17  1  0.04695500  0.86616100  0.70360400  1
  Ni  Ni18  1  0.54695500  0.63383900  0.29639600  1
  Ni  Ni19  1  0.45304500  0.13383900  0.20360400  1
  Ni  Ni20  1  0.79639600  0.95304500  0.36616100  1
  Ni  Ni21  1  0.70360400  0.04695500  0.86616100  1
  Ni  Ni22  1  0.29639600  0.54695500  0.63383900  1
  Ni  Ni23  1  0.20360400  0.45304500  0.13383900  1
  Ni  Ni24  1  0.36616100  0.79639600  0.95304500  1
  Ni  Ni25  1  0.86616100  0.70360400  0.04695500  1
  Ni  Ni26  1  0.63383900  0.29639600  0.54695500  1
  Ni  Ni27  1  0.13383900  0.20360400  0.45304500  1
  Ni  Ni28  1  0.19732200  0.40177300  0.88569700  1
  Ni  Ni29  1  0.80267800  0.90177300  0.61430300  1
  Ni  Ni30  1  0.30267800  0.59822700  0.38569700  1
  Ni  Ni31  1  0.69732200  0.09822700  0.11430300  1
  Ni  Ni32  1  0.88569700  0.19732200  0.40177300  1
  Ni  Ni33  1  0.61430300  0.80267800  0.90177300  1
  Ni  Ni34  1  0.38569700  0.30267800  0.59822700  1
  Ni  Ni35  1  0.11430300  0.69732200  0.09822700  1
  Ni  Ni36  1  0.40177300  0.88569700  0.19732200  1
  Ni  Ni37  1  0.90177300  0.61430300  0.80267800  1
  Ni  Ni38  1  0.59822700  0.38569700  0.30267800  1
  Ni  Ni39  1  0.09822700  0.11430300  0.69732200  1
  Ni  Ni40  1  0.80267800  0.59822700  0.11430300  1
  Ni  Ni41  1  0.19732200  0.09822700  0.38569700  1
  Ni  Ni42  1  0.69732200  0.40177300  0.61430300  1
  Ni  Ni43  1  0.30267800  0.90177300  0.88569700  1
  Ni  Ni44  1  0.11430300  0.80267800  0.59822700  1
  Ni  Ni45  1  0.38569700  0.19732200  0.09822700  1
  Ni  Ni46  1  0.61430300  0.69732200  0.40177300  1
  Ni  Ni47  1  0.88569700  0.30267800  0.90177300  1
  Ni  Ni48  1  0.59822700  0.11430300  0.80267800  1
  Ni  Ni49  1  0.09822700  0.38569700  0.19732200  1
  Ni  Ni50  1  0.40177300  0.61430300  0.69732200  1
  Ni  Ni51  1  0.90177300  0.88569700  0.30267800  1
  Cu  Cu52  1  0.16768700  0.83231300  0.33231300  1
  Cu  Cu53  1  0.83231300  0.33231300  0.16768700  1
  Cu  Cu54  1  0.33231300  0.16768700  0.83231300  1
  Cu  Cu55  1  0.66768700  0.66768700  0.66768700  1
  Cu  Cu56  1  0.83231300  0.16768700  0.66768700  1
  Cu  Cu57  1  0.16768700  0.66768700  0.83231300  1
  Cu  Cu58  1  0.66768700  0.83231300  0.16768700  1
  Cu  Cu59  1  0.33231300  0.33231300  0.33231300  1
  C  C60  1  0.12652500  0.64366000  0.16624500  1
  C  C61  1  0.87347500  0.14366000  0.33375500  1
  C  C62  1  0.37347500  0.35634000  0.66624500  1
  C  C63  1  0.62652500  0.85634000  0.83375500  1
  C  C64  1  0.16624500  0.12652500  0.64366000  1
  C  C65  1  0.33375500  0.87347500  0.14366000  1
  C  C66  1  0.66624500  0.37347500  0.35634000  1
  C  C67  1  0.83375500  0.62652500  0.85634000  1
  C  C68  1  0.64366000  0.16624500  0.12652500  1
  C  C69  1  0.14366000  0.33375500  0.87347500  1
  C  C70  1  0.35634000  0.66624500  0.37347500  1
  C  C71  1  0.85634000  0.83375500  0.62652500  1
  C  C72  1  0.87347500  0.35634000  0.83375500  1
  C  C73  1  0.12652500  0.85634000  0.66624500  1
  C  C74  1  0.62652500  0.64366000  0.33375500  1
  C  C75  1  0.37347500  0.14366000  0.16624500  1
  C  C76  1  0.83375500  0.87347500  0.35634000  1
  C  C77  1  0.66624500  0.12652500  0.85634000  1
  C  C78  1  0.33375500  0.62652500  0.64366000  1
  C  C79  1  0.16624500  0.37347500  0.14366000  1
  C  C80  1  0.35634000  0.83375500  0.87347500  1
  C  C81  1  0.85634000  0.66624500  0.12652500  1
  C  C82  1  0.64366000  0.33375500  0.62652500  1
  C  C83  1  0.14366000  0.16624500  0.37347500  1
  C  C84  1  0.51240500  0.47020900  0.83925400  1
  C  C85  1  0.48759500  0.97020900  0.66074600  1
  C  C86  1  0.98759500  0.52979100  0.33925400  1
  C  C87  1  0.01240500  0.02979100  0.16074600  1
  C  C88  1  0.83925400  0.51240500  0.47020900  1
  C  C89  1  0.66074600  0.48759500  0.97020900  1
  C  C90  1  0.33925400  0.98759500  0.52979100  1
  C  C91  1  0.16074600  0.01240500  0.02979100  1
  C  C92  1  0.47020900  0.83925400  0.51240500  1
  C  C93  1  0.97020900  0.66074600  0.48759500  1
  C  C94  1  0.52979100  0.33925400  0.98759500  1
  C  C95  1  0.02979100  0.16074600  0.01240500  1
  C  C96  1  0.48759500  0.52979100  0.16074600  1
  C  C97  1  0.51240500  0.02979100  0.33925400  1
  C  C98  1  0.01240500  0.47020900  0.66074600  1
  C  C99  1  0.98759500  0.97020900  0.83925400  1
  C  C100  1  0.16074600  0.48759500  0.52979100  1
  C  C101  1  0.33925400  0.51240500  0.02979100  1
  C  C102  1  0.66074600  0.01240500  0.47020900  1
  C  C103  1  0.83925400  0.98759500  0.97020900  1
  C  C104  1  0.52979100  0.16074600  0.48759500  1
  C  C105  1  0.02979100  0.33925400  0.51240500  1
  C  C106  1  0.47020900  0.66074600  0.01240500  1
  C  C107  1  0.97020900  0.83925400  0.98759500  1
