# generated using pymatgen
data_CuNiC2
_symmetry_space_group_name_H-M   'P 1'
_cell_length_a   5.88415314
_cell_length_b   5.88415314
_cell_length_c   5.90400500
_cell_angle_alpha   90.00000000
_cell_angle_beta   90.00000000
_cell_angle_gamma   134.62683457
_symmetry_Int_Tables_number   1
_chemical_formula_structural   CuNiC2
_chemical_formula_sum   'Cu2 Ni2 C4'
_cell_volume   145.48219855
_cell_formula_units_Z   2
loop_
 _symmetry_equiv_pos_site_id
 _symmetry_equiv_pos_as_xyz
  1  'x, y, z'
loop_
 _atom_site_type_symbol
 _atom_site_label
 _atom_site_symmetry_multiplicity
 _atom_site_fract_x
 _atom_site_fract_y
 _atom_site_fract_z
 _atom_site_occupancy
  C  C0  1  0.00000000  0.00000000  0.50000000  1
  C  C1  1  0.00000000  0.00000000  0.00000000  1
  Ni  Ni2  1  0.14233900  0.85766100  0.25000000  1
  Ni  Ni3  1  0.85766100  0.14233900  0.75000000  1
  Cu  Cu4  1  0.74802000  0.25198000  0.75000000  1
  Cu  Cu5  1  0.25198000  0.74802000  0.25000000  1
  C  C6  1  0.63465300  0.36534700  0.75000000  1
  C  C7  1  0.36534700  0.63465300  0.25000000  1
