# generated using pymatgen
data_Cu6Ni4C43
_symmetry_space_group_name_H-M   'P 1'
_cell_length_a   8.30023800
_cell_length_b   8.36894484
_cell_length_c   8.77625138
_cell_angle_alpha   90.59548869
_cell_angle_beta   98.45771924
_cell_angle_gamma   91.91761926
_symmetry_Int_Tables_number   1
_chemical_formula_structural   Cu6Ni4C43
_chemical_formula_sum   'Cu6 Ni4 C43'
_cell_volume   602.59556762
_cell_formula_units_Z   1
loop_
 _symmetry_equiv_pos_site_id
 _symmetry_equiv_pos_as_xyz
  1  'x, y, z'
loop_
 _atom_site_type_symbol
 _atom_site_label
 _atom_site_symmetry_multiplicity
 _atom_site_fract_x
 _atom_site_fract_y
 _atom_site_fract_z
 _atom_site_occupancy
  C  C0  1  0.54318900  0.03991200  0.01449200  1
  C  C1  1  0.02300000  0.49099700  0.03749600  1
  Ni  Ni2  1  0.50510800  0.71935400  0.32642000  1
  Ni  Ni3  1  0.53171300  0.35688500  0.31703600  1
  Ni  Ni4  1  0.97953000  0.84912400  0.67443200  1
  Ni  Ni5  1  0.97737600  0.19123200  0.72786600  1
  Cu  Cu6  1  0.05257500  0.95220400  0.04361500  1
  Cu  Cu7  1  0.75149900  0.90406500  0.38183000  1
  Cu  Cu8  1  0.29398100  0.02533500  0.30255400  1
  Cu  Cu9  1  0.09767000  0.47701900  0.64851500  1
  Cu  Cu10  1  0.65896700  0.40180800  0.67110500  1
  Cu  Cu11  1  0.55718500  0.45928100  0.99413900  1
  C  C12  1  0.76236300  0.56352300  0.32057400  1
  C  C13  1  0.27903100  0.50793400  0.36992500  1
  C  C14  1  0.90599100  0.11376900  0.33803500  1
  C  C15  1  0.02572800  0.78770900  0.24537700  1
  C  C16  1  0.21581800  0.96504100  0.99198500  1
  C  C17  1  0.56345600  0.73984900  0.03722300  1
  C  C18  1  0.94589700  0.08971200  0.97829800  1
  C  C19  1  0.97562200  0.84873800  0.89060900  1
  C  C20  1  0.38912900  0.49829200  0.01631500  1
  C  C21  1  0.70513600  0.55235600  0.96635300  1
  C  C22  1  0.39572100  0.34357200  0.76686100  1
  C  C23  1  0.63870000  0.68466500  0.73333200  1
  C  C24  1  0.22923300  0.04041400  0.70529100  1
  C  C25  1  0.71604700  0.00177600  0.65987200  1
  C  C26  1  0.66086800  0.82832000  0.21091400  1
  C  C27  1  0.41167800  0.17175600  0.26628000  1
  C  C28  1  0.64416000  0.55098300  0.31605000  1
  C  C29  1  0.36924700  0.52121000  0.30944200  1
  C  C30  1  0.34092800  0.84865300  0.25025500  1
  C  C31  1  0.10716100  0.05862700  0.21907700  1
  C  C32  1  0.99977600  0.78244500  0.13268100  1
  C  C33  1  0.97331800  0.51707900  0.33283100  1
  C  C34  1  0.61330300  0.32528600  0.12069400  1
  C  C35  1  0.58872000  0.31186800  0.51468300  1
  C  C36  1  0.60108700  0.85772800  0.47725100  1
  C  C37  1  0.26712100  0.01083100  0.49275800  1
  C  C38  1  0.78923200  0.09519400  0.34397400  1
  C  C39  1  0.20700300  0.34455700  0.54964400  1
  C  C40  1  0.91942700  0.83149400  0.47070500  1
  C  C41  1  0.02045700  0.30227000  0.54006000  1
  C  C42  1  0.08348300  0.57795300  0.44753600  1
  C  C43  1  0.60320300  0.80662100  0.83505500  1
  C  C44  1  0.38495600  0.05460400  0.60961900  1
  C  C45  1  0.51310600  0.36198300  0.80847300  1
  C  C46  1  0.49522300  0.72345600  0.93211500  1
  C  C47  1  0.12974400  0.36106200  0.80791100  1
  C  C48  1  0.67248700  0.59213200  0.66204600  1
  C  C49  1  0.83285400  0.01399000  0.69745500  1
  C  C50  1  0.11639400  0.02593400  0.72872000  1
  C  C51  1  0.81789300  0.32353000  0.77115600  1
  C  C52  1  0.06983500  0.65140900  0.72341900  1
