# generated using pymatgen
data_Cu2NiC7
_symmetry_space_group_name_H-M   'P 1'
_cell_length_a   5.82473300
_cell_length_b   7.90925800
_cell_length_c   30.35800003
_cell_angle_alpha   79.68016401
_cell_angle_beta   90.00000000
_cell_angle_gamma   90.00000000
_symmetry_Int_Tables_number   1
_chemical_formula_structural   Cu2NiC7
_chemical_formula_sum   'Cu16 Ni8 C56'
_cell_volume   1375.94770244
_cell_formula_units_Z   8
loop_
 _symmetry_equiv_pos_site_id
 _symmetry_equiv_pos_as_xyz
  1  'x, y, z'
loop_
 _atom_site_type_symbol
 _atom_site_label
 _atom_site_symmetry_multiplicity
 _atom_site_fract_x
 _atom_site_fract_y
 _atom_site_fract_z
 _atom_site_occupancy
  C  C0  1  0.27911300  0.30959700  0.19284400  1
  C  C1  1  0.22088700  0.30959700  0.69284400  1
  C  C2  1  0.26821500  0.37227000  0.95165500  1
  C  C3  1  0.73178500  0.62773000  0.04834500  1
  C  C4  1  0.72088700  0.69040300  0.80715600  1
  C  C5  1  0.76821500  0.62773000  0.54834500  1
  C  C6  1  0.77911300  0.69040300  0.30715600  1
  C  C7  1  0.23178500  0.37227000  0.45165500  1
  Ni  Ni8  1  0.75351700  0.06807900  0.64941700  1
  Ni  Ni9  1  0.75533400  0.13991600  0.89130800  1
  Ni  Ni10  1  0.24648300  0.93192100  0.35058300  1
  Ni  Ni11  1  0.74466600  0.13991600  0.39130800  1
  Ni  Ni12  1  0.25533400  0.86008400  0.60869200  1
  Ni  Ni13  1  0.24466600  0.86008400  0.10869200  1
  Ni  Ni14  1  0.25351700  0.93192100  0.85058300  1
  Ni  Ni15  1  0.74648300  0.06807900  0.14941700  1
  Cu  Cu16  1  0.78443800  0.58320100  0.17576300  1
  Cu  Cu17  1  0.27953000  0.33812300  0.57890400  1
  Cu  Cu18  1  0.71556200  0.58320100  0.67576300  1
  Cu  Cu19  1  0.74753100  0.14693600  0.02605500  1
  Cu  Cu20  1  0.21556200  0.41679900  0.82423700  1
  Cu  Cu21  1  0.72135000  0.19320500  0.77077900  1
  Cu  Cu22  1  0.27865000  0.80679500  0.22922100  1
  Cu  Cu23  1  0.72047000  0.66187700  0.42109600  1
  Cu  Cu24  1  0.77953000  0.66187700  0.92109600  1
  Cu  Cu25  1  0.22047000  0.33812300  0.07890400  1
  Cu  Cu26  1  0.75246900  0.14693600  0.52605500  1
  Cu  Cu27  1  0.28443800  0.41679900  0.32423700  1
  Cu  Cu28  1  0.22135000  0.80679500  0.72922100  1
  Cu  Cu29  1  0.77865000  0.19320500  0.27077900  1
  Cu  Cu30  1  0.25246900  0.85306400  0.97394500  1
  Cu  Cu31  1  0.24753100  0.85306400  0.47394500  1
  C  C32  1  0.84927100  0.74914700  0.99926600  1
  C  C33  1  0.97937200  0.91001500  0.40747600  1
  C  C34  1  0.44092500  0.67063000  0.04838700  1
  C  C35  1  0.47030900  0.85578000  0.67059900  1
  C  C36  1  0.15000100  0.10781100  0.72459200  1
  C  C37  1  0.26929000  0.46070100  0.72625800  1
  C  C38  1  0.55907500  0.32937000  0.95161300  1
  C  C39  1  0.77223000  0.40578000  0.05016800  1
  C  C40  1  0.52969100  0.14422000  0.32940100  1
  C  C41  1  0.97030900  0.14422000  0.82940100  1
  C  C42  1  0.02062800  0.08998500  0.59252400  1
  C  C43  1  0.73071000  0.53929900  0.27374200  1
  C  C44  1  0.86107400  0.68451000  0.09583800  1
  C  C45  1  0.46275900  0.30050100  0.65830900  1
  C  C46  1  0.96275900  0.69949900  0.84169100  1
  C  C47  1  0.34999900  0.10781100  0.22459200  1
  C  C48  1  0.36107400  0.31549000  0.40416200  1
  C  C49  1  0.01329600  0.18318900  0.33395300  1
  C  C50  1  0.94092500  0.32937000  0.45161300  1
  C  C51  1  0.23071000  0.46070100  0.22625800  1
  C  C52  1  0.27223000  0.59422000  0.44983200  1
  C  C53  1  0.76929000  0.53929900  0.77374200  1
  C  C54  1  0.65072900  0.74914700  0.49926600  1
  C  C55  1  0.48087300  0.92219800  0.40895700  1
  C  C56  1  0.13892600  0.31549000  0.90416200  1
  C  C57  1  0.84999900  0.89218900  0.27540800  1
  C  C58  1  0.51912700  0.07780200  0.59104300  1
  C  C59  1  0.53724100  0.69949900  0.34169100  1
  C  C60  1  0.72777000  0.40578000  0.55016800  1
  C  C61  1  0.50361200  0.37201100  0.15514300  1
  C  C62  1  0.98670400  0.81681100  0.66604700  1
  C  C63  1  0.98087300  0.07780200  0.09104300  1
  C  C64  1  0.47937200  0.08998500  0.09252400  1
  C  C65  1  0.51329600  0.81681100  0.16604700  1
  C  C66  1  0.34927100  0.25085300  0.50073400  1
  C  C67  1  0.15072900  0.25085300  0.00073400  1
  C  C68  1  0.22777000  0.59422000  0.94983200  1
  C  C69  1  0.63892600  0.68451000  0.59583800  1
  C  C70  1  0.99638800  0.37201100  0.65514300  1
  C  C71  1  0.52062800  0.91001500  0.90747600  1
  C  C72  1  0.03724100  0.30050100  0.15830900  1
  C  C73  1  0.49638800  0.62798900  0.84485700  1
  C  C74  1  0.05907500  0.67063000  0.54838700  1
  C  C75  1  0.02969100  0.85578000  0.17059900  1
  C  C76  1  0.65000100  0.89218900  0.77540800  1
  C  C77  1  0.01912700  0.92219800  0.90895700  1
  C  C78  1  0.48670400  0.18318900  0.83395300  1
  C  C79  1  0.00361200  0.62798900  0.34485700  1
