# generated using pymatgen
data_Cu4Ni4C13
_symmetry_space_group_name_H-M   'P 1'
_cell_length_a   8.38860800
_cell_length_b   13.41218800
_cell_length_c   17.13851697
_cell_angle_alpha   57.72114472
_cell_angle_beta   90.00000000
_cell_angle_gamma   90.00000000
_symmetry_Int_Tables_number   1
_chemical_formula_structural   Cu4Ni4C13
_chemical_formula_sum   'Cu32 Ni32 C104'
_cell_volume   1630.25413533
_cell_formula_units_Z   8
loop_
 _symmetry_equiv_pos_site_id
 _symmetry_equiv_pos_as_xyz
  1  'x, y, z'
loop_
 _atom_site_type_symbol
 _atom_site_label
 _atom_site_symmetry_multiplicity
 _atom_site_fract_x
 _atom_site_fract_y
 _atom_site_fract_z
 _atom_site_occupancy
  C  C0  1  0.53904500  0.87023700  0.64459300  1
  C  C1  1  0.03904500  0.12976300  0.85540700  1
  C  C2  1  0.46095500  0.12976300  0.35540700  1
  C  C3  1  0.96095500  0.87023700  0.14459300  1
  C  C4  1  0.71287900  0.18132000  0.55646500  1
  C  C5  1  0.21287900  0.81868000  0.94353500  1
  C  C6  1  0.28712100  0.81868000  0.44353500  1
  C  C7  1  0.78712100  0.18132000  0.05646500  1
  C  C8  1  0.24298700  0.68295300  0.84340400  1
  C  C9  1  0.74298700  0.31704700  0.65659600  1
  C  C10  1  0.75701300  0.31704700  0.15659600  1
  C  C11  1  0.25701300  0.68295300  0.34340400  1
  C  C12  1  0.50117400  0.06253800  0.64162500  1
  C  C13  1  0.00117400  0.93746200  0.85837500  1
  C  C14  1  0.49882600  0.93746200  0.35837500  1
  C  C15  1  0.99882600  0.06253800  0.14162500  1
  C  C16  1  0.28017300  0.88788300  0.72035900  1
  C  C17  1  0.78017300  0.11211700  0.77964100  1
  C  C18  1  0.71982700  0.11211700  0.27964100  1
  C  C19  1  0.21982700  0.88788300  0.22035900  1
  C  C20  1  0.66691600  0.99053900  0.70284200  1
  C  C21  1  0.16691600  0.00946100  0.79715800  1
  C  C22  1  0.33308400  0.00946100  0.29715800  1
  C  C23  1  0.83308400  0.99053900  0.20284200  1
  C  C24  1  0.43549500  0.83214300  0.79539600  1
  C  C25  1  0.93549500  0.16785700  0.70460400  1
  C  C26  1  0.56450500  0.16785700  0.20460400  1
  C  C27  1  0.06450500  0.83214300  0.29539600  1
  C  C28  1  0.90949800  0.10411100  0.40487400  1
  C  C29  1  0.40949800  0.89588900  0.09512600  1
  C  C30  1  0.09050200  0.89588900  0.59512600  1
  C  C31  1  0.59050200  0.10411100  0.90487400  1
  C  C32  1  0.32782700  0.48016500  0.77315500  1
  C  C33  1  0.82782700  0.51983500  0.72684500  1
  C  C34  1  0.67217300  0.51983500  0.22684500  1
  C  C35  1  0.17217300  0.48016500  0.27315500  1
  C  C36  1  0.82876700  0.29307800  0.41886100  1
  C  C37  1  0.32876700  0.70692200  0.08113900  1
  C  C38  1  0.17123300  0.70692200  0.58113900  1
  C  C39  1  0.67123300  0.29307800  0.91886100  1
  C  C40  1  0.22176800  0.41194700  0.92274300  1
  C  C41  1  0.72176800  0.58805300  0.57725700  1
  C  C42  1  0.77823200  0.58805300  0.07725700  1
  C  C43  1  0.27823200  0.41194700  0.42274300  1
  C  C44  1  0.98894600  0.22816800  0.48663100  1
  C  C45  1  0.48894600  0.77183200  0.01336900  1
  C  C46  1  0.01105400  0.77183200  0.51336900  1
  C  C47  1  0.51105400  0.22816800  0.98663100  1
  C  C48  1  0.08367600  0.50961400  0.85171000  1
  C  C49  1  0.58367600  0.49038600  0.64829000  1
  C  C50  1  0.91632400  0.49038600  0.14829000  1
  C  C51  1  0.41632400  0.50961400  0.35171000  1
  C  C52  1  0.06912400  0.02255400  0.64915200  1
  C  C53  1  0.56912400  0.97744600  0.85084800  1
  C  C54  1  0.93087600  0.97744600  0.35084800  1
  C  C55  1  0.43087600  0.02255400  0.14915200  1
  C  C56  1  0.97012500  0.91245100  0.72143600  1
  C  C57  1  0.47012500  0.08754900  0.77856400  1
  C  C58  1  0.02987500  0.08754900  0.27856400  1
  C  C59  1  0.52987500  0.91245100  0.22143600  1
  C  C60  1  0.84851400  0.67188900  0.76430300  1
  C  C61  1  0.34851400  0.32811100  0.73569700  1
  C  C62  1  0.15148600  0.32811100  0.23569700  1
  C  C63  1  0.65148600  0.67188900  0.26430300  1
  C  C64  1  0.95899800  0.68178600  0.68523300  1
  C  C65  1  0.45899800  0.31821400  0.81476700  1
  C  C66  1  0.04100200  0.31821400  0.31476700  1
  C  C67  1  0.54100200  0.68178600  0.18523300  1
  C  C68  1  0.20785800  0.61756800  0.99573300  1
  C  C69  1  0.70785800  0.38243200  0.50426700  1
  C  C70  1  0.79214200  0.38243200  0.00426700  1
  C  C71  1  0.29214200  0.61756800  0.49573300  1
  C  C72  1  0.04555500  0.68818500  0.94607700  1
  C  C73  1  0.54555500  0.31181500  0.55392300  1
  C  C74  1  0.95444500  0.31181500  0.05392300  1
  C  C75  1  0.45444500  0.68818500  0.44607700  1
  C  C76  1  0.64587600  0.50531800  0.99773200  1
  C  C77  1  0.14587600  0.49468200  0.50226800  1
  C  C78  1  0.35412400  0.49468200  0.00226800  1
  C  C79  1  0.85412400  0.50531800  0.49773200  1
  C  C80  1  0.66742600  0.57684400  0.89258600  1
  C  C81  1  0.16742600  0.42315600  0.60741400  1
  C  C82  1  0.33257400  0.42315600  0.10741400  1
  C  C83  1  0.83257400  0.57684400  0.39258600  1
  C  C84  1  0.76794700  0.06095400  0.51569900  1
  C  C85  1  0.26794700  0.93904600  0.98430100  1
  C  C86  1  0.23205300  0.93904600  0.48430100  1
  C  C87  1  0.73205300  0.06095400  0.01569900  1
  C  C88  1  0.35370600  0.64635300  0.75209600  1
  C  C89  1  0.85370600  0.35364700  0.74790400  1
  C  C90  1  0.64629400  0.35364700  0.24790400  1
  C  C91  1  0.14629400  0.64635300  0.25209600  1
  C  C92  1  0.71660100  0.92830600  0.52934500  1
  C  C93  1  0.21660100  0.07169400  0.97065500  1
  C  C94  1  0.28339900  0.07169400  0.47065500  1
  C  C95  1  0.78339900  0.92830600  0.02934500  1
  C  C96  1  0.47382900  0.69826200  0.65645000  1
  C  C97  1  0.97382900  0.30173800  0.84355000  1
  C  C98  1  0.52617100  0.30173800  0.34355000  1
  C  C99  1  0.02617100  0.69826200  0.15645000  1
  C  C100  1  0.73980300  0.79655100  0.86306100  1
  C  C101  1  0.23980300  0.20344900  0.63693900  1
  C  C102  1  0.26019700  0.20344900  0.13693900  1
  C  C103  1  0.76019700  0.79655100  0.36306100  1
  Ni  Ni104  1  0.70414400  0.09657900  0.56833100  1
  Ni  Ni105  1  0.20414400  0.90342100  0.93166900  1
  Ni  Ni106  1  0.29585600  0.90342100  0.43166900  1
  Ni  Ni107  1  0.79585600  0.09657900  0.06833100  1
  Ni  Ni108  1  0.31063800  0.71430200  0.78404300  1
  Ni  Ni109  1  0.81063800  0.28569800  0.71595700  1
  Ni  Ni110  1  0.68936200  0.28569800  0.21595700  1
  Ni  Ni111  1  0.18936200  0.71430200  0.28404300  1
  Ni  Ni112  1  0.60396500  0.01897300  0.64221000  1
  Ni  Ni113  1  0.10396500  0.98102700  0.85779000  1
  Ni  Ni114  1  0.39603500  0.98102700  0.35779000  1
  Ni  Ni115  1  0.89603500  0.01897300  0.14221000  1
  Ni  Ni116  1  0.37451100  0.82839100  0.74447900  1
  Ni  Ni117  1  0.87451100  0.17160900  0.75552100  1
  Ni  Ni118  1  0.62548900  0.17160900  0.25552100  1
  Ni  Ni119  1  0.12548900  0.82839100  0.24447900  1
  Ni  Ni120  1  0.87315800  0.12921800  0.44965700  1
  Ni  Ni121  1  0.37315800  0.87078200  0.05034300  1
  Ni  Ni122  1  0.12684200  0.87078200  0.55034300  1
  Ni  Ni123  1  0.62684200  0.12921800  0.94965700  1
  Ni  Ni124  1  0.29797100  0.53611900  0.79573700  1
  Ni  Ni125  1  0.79797100  0.46388100  0.70426300  1
  Ni  Ni126  1  0.70202900  0.46388100  0.20426300  1
  Ni  Ni127  1  0.20202900  0.53611900  0.29573700  1
  Ni  Ni128  1  0.92536800  0.23986700  0.43074300  1
  Ni  Ni129  1  0.42536800  0.76013300  0.06925700  1
  Ni  Ni130  1  0.07463200  0.76013300  0.56925700  1
  Ni  Ni131  1  0.57463200  0.23986700  0.93074300  1
  Ni  Ni132  1  0.20062900  0.49873600  0.87332800  1
  Ni  Ni133  1  0.70062900  0.50126400  0.62667200  1
  Ni  Ni134  1  0.79937100  0.50126400  0.12667200  1
  Ni  Ni135  1  0.29937100  0.49873600  0.37332800  1
  Cu  Cu136  1  0.58050300  0.82752500  0.88474400  1
  Cu  Cu137  1  0.08050300  0.17247500  0.61525600  1
  Cu  Cu138  1  0.41949700  0.17247500  0.11525600  1
  Cu  Cu139  1  0.91949700  0.82752500  0.38474400  1
  Cu  Cu140  1  0.82722500  0.91024600  0.79842400  1
  Cu  Cu141  1  0.32722500  0.08975400  0.70157600  1
  Cu  Cu142  1  0.17277500  0.08975400  0.20157600  1
  Cu  Cu143  1  0.67277500  0.91024600  0.29842400  1
  Cu  Cu144  1  0.71247500  0.73354100  0.81389200  1
  Cu  Cu145  1  0.21247500  0.26645900  0.68610800  1
  Cu  Cu146  1  0.28752500  0.26645900  0.18610800  1
  Cu  Cu147  1  0.78752500  0.73354100  0.31389200  1
  Cu  Cu148  1  0.83418000  0.72393600  0.94832500  1
  Cu  Cu149  1  0.33418000  0.27606400  0.55167500  1
  Cu  Cu150  1  0.16582000  0.27606400  0.05167500  1
  Cu  Cu151  1  0.66582000  0.72393600  0.44832500  1
  Cu  Cu152  1  0.06062400  0.93574000  0.67780400  1
  Cu  Cu153  1  0.56062400  0.06426000  0.82219600  1
  Cu  Cu154  1  0.93937600  0.06426000  0.32219600  1
  Cu  Cu155  1  0.43937600  0.93574000  0.17780400  1
  Cu  Cu156  1  0.91662200  0.62565600  0.74806200  1
  Cu  Cu157  1  0.41662200  0.37434400  0.75193800  1
  Cu  Cu158  1  0.08337800  0.37434400  0.25193800  1
  Cu  Cu159  1  0.58337800  0.62565600  0.24806200  1
  Cu  Cu160  1  0.16338100  0.69064700  0.94121200  1
  Cu  Cu161  1  0.66338100  0.30935300  0.55878800  1
  Cu  Cu162  1  0.83661900  0.30935300  0.05878800  1
  Cu  Cu163  1  0.33661900  0.69064700  0.44121200  1
  Cu  Cu164  1  0.64904500  0.49524800  0.94527300  1
  Cu  Cu165  1  0.14904500  0.50475200  0.55472700  1
  Cu  Cu166  1  0.35095500  0.50475200  0.05472700  1
  Cu  Cu167  1  0.85095500  0.49524800  0.44527300  1
