# generated using pymatgen
data_Cu5Ni3C2
_symmetry_space_group_name_H-M   'P 1'
_cell_length_a   10.32537500
_cell_length_b   10.32537500
_cell_length_c   5.44261500
_cell_angle_alpha   90.00000000
_cell_angle_beta   90.00000000
_cell_angle_gamma   90.00000000
_symmetry_Int_Tables_number   1
_chemical_formula_structural   Cu5Ni3C2
_chemical_formula_sum   'Cu20 Ni12 C8'
_cell_volume   580.25552072
_cell_formula_units_Z   4
loop_
 _symmetry_equiv_pos_site_id
 _symmetry_equiv_pos_as_xyz
  1  'x, y, z'
loop_
 _atom_site_type_symbol
 _atom_site_label
 _atom_site_symmetry_multiplicity
 _atom_site_fract_x
 _atom_site_fract_y
 _atom_site_fract_z
 _atom_site_occupancy
  C  C0  1  0.07025800  0.76425000  0.00000000  1
  C  C1  1  0.76425000  0.92974200  0.00000000  1
  C  C2  1  0.73575000  0.42974200  0.50000000  1
  C  C3  1  0.23575000  0.07025800  0.00000000  1
  C  C4  1  0.26425000  0.57025800  0.50000000  1
  C  C5  1  0.42974200  0.26425000  0.50000000  1
  C  C6  1  0.57025800  0.73575000  0.50000000  1
  C  C7  1  0.92974200  0.23575000  0.00000000  1
  Ni  Ni8  1  0.62275300  0.35500300  0.00000000  1
  Ni  Ni9  1  0.64499700  0.62275300  0.00000000  1
  Ni  Ni10  1  0.85500300  0.12275300  0.50000000  1
  Ni  Ni11  1  0.37724700  0.64499700  0.00000000  1
  Ni  Ni12  1  0.14499700  0.87724700  0.50000000  1
  Ni  Ni13  1  0.35500300  0.37724700  0.00000000  1
  Ni  Ni14  1  0.87724700  0.85500300  0.50000000  1
  Ni  Ni15  1  0.00000000  0.50000000  0.75000000  1
  Ni  Ni16  1  0.12275300  0.14499700  0.50000000  1
  Ni  Ni17  1  0.50000000  0.00000000  0.25000000  1
  Ni  Ni18  1  0.50000000  0.00000000  0.75000000  1
  Ni  Ni19  1  0.00000000  0.50000000  0.25000000  1
  Cu  Cu20  1  0.00000000  0.00000000  0.73474700  1
  Cu  Cu21  1  0.32337000  0.82337000  0.75000000  1
  Cu  Cu22  1  0.47671700  0.18065600  0.00000000  1
  Cu  Cu23  1  0.17663000  0.32337000  0.75000000  1
  Cu  Cu24  1  0.50000000  0.50000000  0.23474700  1
  Cu  Cu25  1  0.68065600  0.97671700  0.50000000  1
  Cu  Cu26  1  0.00000000  0.00000000  0.26525300  1
  Cu  Cu27  1  0.18065600  0.52328300  0.00000000  1
  Cu  Cu28  1  0.17663000  0.32337000  0.25000000  1
  Cu  Cu29  1  0.50000000  0.50000000  0.76525300  1
  Cu  Cu30  1  0.31934400  0.02328300  0.50000000  1
  Cu  Cu31  1  0.32337000  0.82337000  0.25000000  1
  Cu  Cu32  1  0.82337000  0.67663000  0.25000000  1
  Cu  Cu33  1  0.82337000  0.67663000  0.75000000  1
  Cu  Cu34  1  0.97671700  0.31934400  0.50000000  1
  Cu  Cu35  1  0.81934400  0.47671700  0.00000000  1
  Cu  Cu36  1  0.02328300  0.68065600  0.50000000  1
  Cu  Cu37  1  0.67663000  0.17663000  0.25000000  1
  Cu  Cu38  1  0.67663000  0.17663000  0.75000000  1
  Cu  Cu39  1  0.52328300  0.81934400  0.00000000  1
