# generated using pymatgen
data_CuNiC7
_symmetry_space_group_name_H-M   'P 1'
_cell_length_a   5.39452900
_cell_length_b   5.63503700
_cell_length_c   15.02717000
_cell_angle_alpha   90.00000000
_cell_angle_beta   90.00000000
_cell_angle_gamma   90.00000000
_symmetry_Int_Tables_number   1
_chemical_formula_structural   CuNiC7
_chemical_formula_sum   'Cu4 Ni4 C28'
_cell_volume   456.80148142
_cell_formula_units_Z   4
loop_
 _symmetry_equiv_pos_site_id
 _symmetry_equiv_pos_as_xyz
  1  'x, y, z'
loop_
 _atom_site_type_symbol
 _atom_site_label
 _atom_site_symmetry_multiplicity
 _atom_site_fract_x
 _atom_site_fract_y
 _atom_site_fract_z
 _atom_site_occupancy
  C  C0  1  0.51280000  0.02738500  0.39145300  1
  C  C1  1  0.48720000  0.97261500  0.89145300  1
  C  C2  1  0.01280000  0.47261500  0.39145300  1
  C  C3  1  0.98720000  0.52738500  0.89145300  1
  C  C4  1  0.01280000  0.47261500  0.10854700  1
  C  C5  1  0.51280000  0.02738500  0.10854700  1
  C  C6  1  0.48720000  0.97261500  0.60854700  1
  C  C7  1  0.98720000  0.52738500  0.60854700  1
  Ni  Ni8  1  0.50000000  0.50000000  0.50000000  1
  Ni  Ni9  1  0.00000000  0.00000000  0.50000000  1
  Ni  Ni10  1  0.00000000  0.00000000  0.00000000  1
  Ni  Ni11  1  0.50000000  0.50000000  0.00000000  1
  Cu  Cu12  1  0.04677300  0.93172700  0.25000000  1
  Cu  Cu13  1  0.95322700  0.06827300  0.75000000  1
  Cu  Cu14  1  0.45322700  0.43172700  0.75000000  1
  Cu  Cu15  1  0.54677300  0.56827300  0.25000000  1
  C  C16  1  0.97047900  0.07140100  0.14307700  1
  C  C17  1  0.47047900  0.42859900  0.14307700  1
  C  C18  1  0.90086500  0.62208700  0.25000000  1
  C  C19  1  0.75568800  0.74316700  0.48629800  1
  C  C20  1  0.02952100  0.92859900  0.64307700  1
  C  C21  1  0.09913500  0.37791300  0.75000000  1
  C  C22  1  0.24431200  0.25683300  0.51370200  1
  C  C23  1  0.74431200  0.24316700  0.98629800  1
  C  C24  1  0.25568800  0.75683300  0.48629800  1
  C  C25  1  0.74431200  0.24316700  0.51370200  1
  C  C26  1  0.24431200  0.25683300  0.98629800  1
  C  C27  1  0.25568800  0.75683300  0.01370200  1
  C  C28  1  0.52952100  0.57140100  0.64307700  1
  C  C29  1  0.75568800  0.74316700  0.01370200  1
  C  C30  1  0.59913500  0.12208700  0.75000000  1
  C  C31  1  0.97047900  0.07140100  0.35692300  1
  C  C32  1  0.47047900  0.42859900  0.35692300  1
  C  C33  1  0.40086500  0.87791300  0.25000000  1
  C  C34  1  0.52952100  0.57140100  0.85692300  1
  C  C35  1  0.02952100  0.92859900  0.85692300  1
