# generated using pymatgen
data_CuNiC5
_symmetry_space_group_name_H-M   'P 1'
_cell_length_a   2.94994600
_cell_length_b   9.12496000
_cell_length_c   11.22757600
_cell_angle_alpha   90.00000000
_cell_angle_beta   90.00000000
_cell_angle_gamma   90.00000000
_symmetry_Int_Tables_number   1
_chemical_formula_structural   CuNiC5
_chemical_formula_sum   'Cu4 Ni4 C20'
_cell_volume   302.22545423
_cell_formula_units_Z   4
loop_
 _symmetry_equiv_pos_site_id
 _symmetry_equiv_pos_as_xyz
  1  'x, y, z'
loop_
 _atom_site_type_symbol
 _atom_site_label
 _atom_site_symmetry_multiplicity
 _atom_site_fract_x
 _atom_site_fract_y
 _atom_site_fract_z
 _atom_site_occupancy
  C  C0  1  0.75000000  0.39425200  0.89310400  1
  C  C1  1  0.25000000  0.10574800  0.39310400  1
  C  C2  1  0.25000000  0.60574800  0.10689600  1
  C  C3  1  0.75000000  0.89425200  0.60689600  1
  Ni  Ni4  1  0.75000000  0.72165600  0.82984300  1
  Ni  Ni5  1  0.25000000  0.77834400  0.32984300  1
  Ni  Ni6  1  0.25000000  0.27834400  0.17015700  1
  Ni  Ni7  1  0.75000000  0.22165600  0.67015700  1
  Cu  Cu8  1  0.75000000  0.99447000  0.11225300  1
  Cu  Cu9  1  0.25000000  0.50553000  0.61225300  1
  Cu  Cu10  1  0.75000000  0.49447000  0.38774700  1
  Cu  Cu11  1  0.25000000  0.00553000  0.88774700  1
  C  C12  1  0.75000000  0.11621300  0.81356000  1
  C  C13  1  0.75000000  0.87879600  0.40491400  1
  C  C14  1  0.25000000  0.10829300  0.04143500  1
  C  C15  1  0.25000000  0.62120400  0.90491400  1
  C  C16  1  0.25000000  0.85435600  0.76706600  1
  C  C17  1  0.75000000  0.14564400  0.23293400  1
  C  C18  1  0.75000000  0.61621300  0.68644000  1
  C  C19  1  0.25000000  0.38378700  0.31356000  1
  C  C20  1  0.75000000  0.39170700  0.54143500  1
  C  C21  1  0.25000000  0.88378700  0.18644000  1
  C  C22  1  0.25000000  0.60829300  0.45856500  1
  C  C23  1  0.25000000  0.12120400  0.59508600  1
  C  C24  1  0.75000000  0.89170700  0.95856500  1
  C  C25  1  0.25000000  0.35435600  0.73293400  1
  C  C26  1  0.75000000  0.37879600  0.09508600  1
  C  C27  1  0.75000000  0.64564400  0.26706600  1
