# generated using pymatgen
data_Cu6Ni10C21
_symmetry_space_group_name_H-M   'P 1'
_cell_length_a   7.72048800
_cell_length_b   9.32809933
_cell_length_c   12.26994301
_cell_angle_alpha   99.19406274
_cell_angle_beta   105.93714212
_cell_angle_gamma   91.59480887
_symmetry_Int_Tables_number   1
_chemical_formula_structural   Cu6Ni10C21
_chemical_formula_sum   'Cu12 Ni20 C42'
_cell_volume   836.37331104
_cell_formula_units_Z   2
loop_
 _symmetry_equiv_pos_site_id
 _symmetry_equiv_pos_as_xyz
  1  'x, y, z'
loop_
 _atom_site_type_symbol
 _atom_site_label
 _atom_site_symmetry_multiplicity
 _atom_site_fract_x
 _atom_site_fract_y
 _atom_site_fract_z
 _atom_site_occupancy
  C  C0  1  0.07517300  0.26132100  0.79299600  1
  C  C1  1  0.51260100  0.94936000  0.74490200  1
  C  C2  1  0.48739900  0.05064000  0.25509800  1
  C  C3  1  0.92482700  0.73867900  0.20700400  1
  Ni  Ni4  1  0.00008200  0.85911300  0.73201200  1
  Ni  Ni5  1  0.17962600  0.94724400  0.93650200  1
  Ni  Ni6  1  0.00854800  0.75976000  0.53049700  1
  Ni  Ni7  1  0.17596500  0.04252300  0.44011500  1
  Ni  Ni8  1  0.04430300  0.25318600  0.10458100  1
  Ni  Ni9  1  0.36847300  0.82873400  0.44002600  1
  Ni  Ni10  1  0.57726600  0.33368300  0.92997300  1
  Ni  Ni11  1  0.23071200  0.48162200  0.10369700  1
  Ni  Ni12  1  0.41655600  0.35377500  0.52943500  1
  Ni  Ni13  1  0.58909500  0.33639100  0.73016700  1
  Ni  Ni14  1  0.41090500  0.66360900  0.26983300  1
  Ni  Ni15  1  0.58344400  0.64622500  0.47056500  1
  Ni  Ni16  1  0.76928800  0.51837800  0.89630300  1
  Ni  Ni17  1  0.42273400  0.66631700  0.07002700  1
  Ni  Ni18  1  0.63152700  0.17126600  0.55997400  1
  Ni  Ni19  1  0.95569700  0.74681400  0.89541900  1
  Ni  Ni20  1  0.82403500  0.95747700  0.55988500  1
  Ni  Ni21  1  0.99145200  0.24024000  0.46950300  1
  Ni  Ni22  1  0.82037400  0.05275600  0.06349800  1
  Ni  Ni23  1  0.99991800  0.14088700  0.26798800  1
  Cu  Cu24  1  0.37178700  0.55472900  0.72746100  1
  Cu  Cu25  1  0.13624800  0.58528100  0.47868200  1
  Cu  Cu26  1  0.22908800  0.67418700  0.72651800  1
  Cu  Cu27  1  0.42156800  0.69234500  0.91089500  1
  Cu  Cu28  1  0.26939000  0.38803600  0.37330900  1
  Cu  Cu29  1  0.62904200  0.88094800  0.00319000  1
  Cu  Cu30  1  0.37095800  0.11905200  0.99681000  1
  Cu  Cu31  1  0.73061000  0.61196400  0.62669100  1
  Cu  Cu32  1  0.57843100  0.30765500  0.08910500  1
  Cu  Cu33  1  0.77091200  0.32581300  0.27348200  1
  Cu  Cu34  1  0.86375200  0.41471900  0.52131800  1
  Cu  Cu35  1  0.62821300  0.44527100  0.27253900  1
  C  C36  1  0.08888800  0.84341600  0.97487500  1
  C  C37  1  0.14823800  0.95058600  0.82125100  1
  C  C38  1  0.07858800  0.77128900  0.64717400  1
  C  C39  1  0.05334000  0.65822900  0.45081000  1
  C  C40  1  0.11356300  0.14200700  0.51531700  1
  C  C41  1  0.12893600  0.04315000  0.32496900  1
  C  C42  1  0.09551100  0.24304600  0.21861000  1
  C  C43  1  0.33494200  0.63509400  0.77673400  1
  C  C44  1  0.47953200  0.73668600  0.99438400  1
  C  C45  1  0.29277100  0.94542000  0.49082500  1
  C  C46  1  0.29251400  0.42418600  0.45600300  1
  C  C47  1  0.11875600  0.35583700  0.05686100  1
  C  C48  1  0.51046600  0.28252100  0.81452300  1
  C  C49  1  0.26625800  0.54560500  0.21581600  1
  C  C50  1  0.44515300  0.39452600  0.64499200  1
  C  C51  1  0.33070800  0.78763700  0.32452400  1
  C  C52  1  0.70046500  0.95484600  0.97991000  1
  C  C53  1  0.49300600  0.75888900  0.51598900  1
  C  C54  1  0.69890700  0.45667200  0.97258100  1
  C  C55  1  0.30109300  0.54332800  0.02741900  1
  C  C56  1  0.50699400  0.24111100  0.48401100  1
  C  C57  1  0.29953500  0.04515400  0.02009000  1
  C  C58  1  0.66929200  0.21236300  0.67547600  1
  C  C59  1  0.55484700  0.60547400  0.35500800  1
  C  C60  1  0.73374200  0.45439500  0.78418400  1
  C  C61  1  0.48953400  0.71747900  0.18547700  1
  C  C62  1  0.88124400  0.64416300  0.94313900  1
  C  C63  1  0.70748600  0.57581400  0.54399700  1
  C  C64  1  0.70722900  0.05458000  0.50917500  1
  C  C65  1  0.52046800  0.26331400  0.00561600  1
  C  C66  1  0.66505800  0.36490600  0.22326600  1
  C  C67  1  0.90448900  0.75695400  0.78139000  1
  C  C68  1  0.87106400  0.95685000  0.67503100  1
  C  C69  1  0.88643700  0.85799300  0.48468300  1
  C  C70  1  0.94666000  0.34177100  0.54919000  1
  C  C71  1  0.92141200  0.22871100  0.35282600  1
  C  C72  1  0.85176200  0.04941400  0.17874900  1
  C  C73  1  0.91111200  0.15658400  0.02512500  1
