# generated using pymatgen
data_Cu27Ni9C5
_symmetry_space_group_name_H-M   'P 1'
_cell_length_a   13.91875800
_cell_length_b   13.91875800
_cell_length_c   13.91875800
_cell_angle_alpha   90.00000000
_cell_angle_beta   90.00000000
_cell_angle_gamma   90.00000000
_symmetry_Int_Tables_number   1
_chemical_formula_structural   Cu27Ni9C5
_chemical_formula_sum   'Cu108 Ni36 C20'
_cell_volume   2696.50637881
_cell_formula_units_Z   4
loop_
 _symmetry_equiv_pos_site_id
 _symmetry_equiv_pos_as_xyz
  1  'x, y, z'
loop_
 _atom_site_type_symbol
 _atom_site_label
 _atom_site_symmetry_multiplicity
 _atom_site_fract_x
 _atom_site_fract_y
 _atom_site_fract_z
 _atom_site_occupancy
  C  C0  1  0.87500000  0.80402500  0.55402500  1
  C  C1  1  0.55402500  0.87500000  0.80402500  1
  C  C2  1  0.30402500  0.94597500  0.12500000  1
  C  C3  1  0.94597500  0.12500000  0.30402500  1
  C  C4  1  0.69597500  0.44597500  0.37500000  1
  C  C5  1  0.12500000  0.30402500  0.94597500  1
  C  C6  1  0.05402500  0.62500000  0.19597500  1
  C  C7  1  0.80402500  0.55402500  0.87500000  1
  C  C8  1  0.19597500  0.05402500  0.62500000  1
  C  C9  1  0.37500000  0.69597500  0.44597500  1
  C  C10  1  0.44597500  0.37500000  0.69597500  1
  C  C11  1  0.62500000  0.19597500  0.05402500  1
  C  C12  1  0.44439800  0.55560200  0.05560200  1
  C  C13  1  0.30560200  0.30560200  0.30560200  1
  C  C14  1  0.55560200  0.05560200  0.44439800  1
  C  C15  1  0.94439800  0.94439800  0.94439800  1
  C  C16  1  0.80560200  0.19439800  0.69439800  1
  C  C17  1  0.69439800  0.80560200  0.19439800  1
  C  C18  1  0.19439800  0.69439800  0.80560200  1
  C  C19  1  0.05560200  0.44439800  0.55560200  1
  Ni  Ni20  1  0.73280800  0.87500000  0.98280800  1
  Ni  Ni21  1  0.07585000  0.86135700  0.09534900  1
  Ni  Ni22  1  0.36135700  0.40465100  0.92415000  1
  Ni  Ni23  1  0.32585000  0.84534900  0.88864300  1
  Ni  Ni24  1  0.34534900  0.61135700  0.67415000  1
  Ni  Ni25  1  0.87500000  0.98280800  0.73280800  1
  Ni  Ni26  1  0.67415000  0.34534900  0.61135700  1
  Ni  Ni27  1  0.62500000  0.01719200  0.23280800  1
  Ni  Ni28  1  0.63864300  0.90465100  0.57585000  1
  Ni  Ni29  1  0.48280800  0.76719200  0.12500000  1
  Ni  Ni30  1  0.13864300  0.59534900  0.42415000  1
  Ni  Ni31  1  0.01719200  0.23280800  0.62500000  1
  Ni  Ni32  1  0.84534900  0.88864300  0.32585000  1
  Ni  Ni33  1  0.37500000  0.51719200  0.26719200  1
  Ni  Ni34  1  0.12500000  0.48280800  0.76719200  1
  Ni  Ni35  1  0.17415000  0.15465100  0.38864300  1
  Ni  Ni36  1  0.90465100  0.57585000  0.63864300  1
  Ni  Ni37  1  0.40465100  0.92415000  0.36135700  1
  Ni  Ni38  1  0.92415000  0.36135700  0.40465100  1
  Ni  Ni39  1  0.98280800  0.73280800  0.87500000  1
  Ni  Ni40  1  0.65465100  0.11135700  0.82585000  1
  Ni  Ni41  1  0.51719200  0.26719200  0.37500000  1
  Ni  Ni42  1  0.09534900  0.07585000  0.86135700  1
  Ni  Ni43  1  0.76719200  0.12500000  0.48280800  1
  Ni  Ni44  1  0.61135700  0.67415000  0.34534900  1
  Ni  Ni45  1  0.88864300  0.32585000  0.84534900  1
  Ni  Ni46  1  0.23280800  0.62500000  0.01719200  1
  Ni  Ni47  1  0.57585000  0.63864300  0.90465100  1
  Ni  Ni48  1  0.15465100  0.38864300  0.17415000  1
  Ni  Ni49  1  0.38864300  0.17415000  0.15465100  1
  Ni  Ni50  1  0.82585000  0.65465100  0.11135700  1
  Ni  Ni51  1  0.26719200  0.37500000  0.51719200  1
  Ni  Ni52  1  0.59534900  0.42415000  0.13864300  1
  Ni  Ni53  1  0.86135700  0.09534900  0.07585000  1
  Ni  Ni54  1  0.42415000  0.13864300  0.59534900  1
  Ni  Ni55  1  0.11135700  0.82585000  0.65465100  1
  Cu  Cu56  1  0.84278400  0.63002700  0.67353500  1
  Cu  Cu57  1  0.42353500  0.11997300  0.09278400  1
  Cu  Cu58  1  0.92529000  0.24350600  0.82691700  1
  Cu  Cu59  1  0.45375000  0.89985400  0.43551900  1
  Cu  Cu60  1  0.24524500  0.40381800  0.59982800  1
  Cu  Cu61  1  0.00649400  0.32471000  0.42308300  1
  Cu  Cu62  1  0.13002700  0.82646500  0.15721600  1
  Cu  Cu63  1  0.15017200  0.65381800  0.99524500  1
  Cu  Cu64  1  0.84982800  0.15381800  0.50475500  1
  Cu  Cu65  1  0.37500000  0.45162700  0.20162700  1
  Cu  Cu66  1  0.06448100  0.54625000  0.39985400  1
  Cu  Cu67  1  0.95375000  0.60014600  0.56448100  1
  Cu  Cu68  1  0.17308300  0.42529000  0.25649400  1
  Cu  Cu69  1  0.59278400  0.07646500  0.88002700  1
  Cu  Cu70  1  0.32691700  0.57471000  0.75649400  1
  Cu  Cu71  1  0.40381800  0.59982800  0.24524500  1
  Cu  Cu72  1  0.07471000  0.74350600  0.67308300  1
  Cu  Cu73  1  0.09278400  0.42353500  0.11997300  1
  Cu  Cu74  1  0.49524500  0.34982800  0.34618200  1
  Cu  Cu75  1  0.39985400  0.06448100  0.54625000  1
  Cu  Cu76  1  0.57646500  0.61997300  0.40721600  1
  Cu  Cu77  1  0.67308300  0.07471000  0.74350600  1
  Cu  Cu78  1  0.79625000  0.81448100  0.35014600  1
  Cu  Cu79  1  0.42529000  0.25649400  0.17308300  1
  Cu  Cu80  1  0.81448100  0.35014600  0.79625000  1
  Cu  Cu81  1  0.49350600  0.67529000  0.92308300  1
  Cu  Cu82  1  0.42308300  0.00649400  0.32471000  1
  Cu  Cu83  1  0.54837300  0.70162700  0.12500000  1
  Cu  Cu84  1  0.09982800  0.25475500  0.59618200  1
  Cu  Cu85  1  0.17529000  0.57691700  0.50649400  1
  Cu  Cu86  1  0.40017200  0.74524500  0.09618200  1
  Cu  Cu87  1  0.57691700  0.50649400  0.17529000  1
  Cu  Cu88  1  0.65017200  0.84618200  0.00475500  1
  Cu  Cu89  1  0.62500000  0.95162700  0.29837300  1
  Cu  Cu90  1  0.56448100  0.95375000  0.60014600  1
  Cu  Cu91  1  0.86997300  0.32646500  0.34278400  1
  Cu  Cu92  1  0.15381800  0.50475500  0.84982800  1
  Cu  Cu93  1  0.87500000  0.04837300  0.79837300  1
  Cu  Cu94  1  0.38002700  0.90721600  0.92353500  1
  Cu  Cu95  1  0.50649400  0.17529000  0.57691700  1
  Cu  Cu96  1  0.36997300  0.17353500  0.65721600  1
  Cu  Cu97  1  0.60014600  0.56448100  0.95375000  1
  Cu  Cu98  1  0.89985400  0.43551900  0.45375000  1
  Cu  Cu99  1  0.15721600  0.13002700  0.82646500  1
  Cu  Cu100  1  0.63002700  0.67353500  0.84278400  1
  Cu  Cu101  1  0.40721600  0.57646500  0.61997300  1
  Cu  Cu102  1  0.99350600  0.82471000  0.07691700  1
  Cu  Cu103  1  0.67529000  0.92308300  0.49350600  1
  Cu  Cu104  1  0.61997300  0.40721600  0.57646500  1
  Cu  Cu105  1  0.34982800  0.34618200  0.49524500  1
  Cu  Cu106  1  0.04837300  0.79837300  0.87500000  1
  Cu  Cu107  1  0.07691700  0.99350600  0.82471000  1
  Cu  Cu108  1  0.90721600  0.92353500  0.38002700  1
  Cu  Cu109  1  0.82471000  0.07691700  0.99350600  1
  Cu  Cu110  1  0.70375000  0.18551900  0.85014600  1
  Cu  Cu111  1  0.93551900  0.04625000  0.10014600  1
  Cu  Cu112  1  0.82646500  0.15721600  0.13002700  1
  Cu  Cu113  1  0.59982800  0.24524500  0.40381800  1
  Cu  Cu114  1  0.70162700  0.12500000  0.54837300  1
  Cu  Cu115  1  0.34278400  0.86997300  0.32646500  1
  Cu  Cu116  1  0.20375000  0.31448100  0.14985400  1
  Cu  Cu117  1  0.18551900  0.85014600  0.70375000  1
  Cu  Cu118  1  0.64985400  0.29625000  0.68551900  1
  Cu  Cu119  1  0.45162700  0.20162700  0.37500000  1
  Cu  Cu120  1  0.11997300  0.09278400  0.42353500  1
  Cu  Cu121  1  0.75649400  0.32691700  0.57471000  1
  Cu  Cu122  1  0.99524500  0.15017200  0.65381800  1
  Cu  Cu123  1  0.29625000  0.68551900  0.64985400  1
  Cu  Cu124  1  0.00475500  0.65017200  0.84618200  1
  Cu  Cu125  1  0.50475500  0.84982800  0.15381800  1
  Cu  Cu126  1  0.34618200  0.49524500  0.34982800  1
  Cu  Cu127  1  0.54625000  0.39985400  0.06448100  1
  Cu  Cu128  1  0.79837300  0.87500000  0.04837300  1
  Cu  Cu129  1  0.12500000  0.54837300  0.70162700  1
  Cu  Cu130  1  0.90381800  0.90017200  0.75475500  1
  Cu  Cu131  1  0.92308300  0.49350600  0.67529000  1
  Cu  Cu132  1  0.90017200  0.75475500  0.90381800  1
  Cu  Cu133  1  0.85014600  0.70375000  0.18551900  1
  Cu  Cu134  1  0.65721600  0.36997300  0.17353500  1
  Cu  Cu135  1  0.35014600  0.79625000  0.81448100  1
  Cu  Cu136  1  0.74350600  0.67308300  0.07471000  1
  Cu  Cu137  1  0.20162700  0.37500000  0.45162700  1
  Cu  Cu138  1  0.82691700  0.92529000  0.24350600  1
  Cu  Cu139  1  0.17353500  0.65721600  0.36997300  1
  Cu  Cu140  1  0.14985400  0.20375000  0.31448100  1
  Cu  Cu141  1  0.67353500  0.84278400  0.63002700  1
  Cu  Cu142  1  0.29837300  0.62500000  0.95162700  1
  Cu  Cu143  1  0.43551900  0.45375000  0.89985400  1
  Cu  Cu144  1  0.59618200  0.09982800  0.25475500  1
  Cu  Cu145  1  0.88002700  0.59278400  0.07646500  1
  Cu  Cu146  1  0.74524500  0.09618200  0.40017200  1
  Cu  Cu147  1  0.31448100  0.14985400  0.20375000  1
  Cu  Cu148  1  0.92353500  0.38002700  0.90721600  1
  Cu  Cu149  1  0.68551900  0.64985400  0.29625000  1
  Cu  Cu150  1  0.24350600  0.82691700  0.92529000  1
  Cu  Cu151  1  0.95162700  0.29837300  0.62500000  1
  Cu  Cu152  1  0.75475500  0.90381800  0.90017200  1
  Cu  Cu153  1  0.57471000  0.75649400  0.32691700  1
  Cu  Cu154  1  0.65381800  0.99524500  0.15017200  1
  Cu  Cu155  1  0.25475500  0.59618200  0.09982800  1
  Cu  Cu156  1  0.09618200  0.40017200  0.74524500  1
  Cu  Cu157  1  0.32471000  0.42308300  0.00649400  1
  Cu  Cu158  1  0.25649400  0.17308300  0.42529000  1
  Cu  Cu159  1  0.04625000  0.10014600  0.93551900  1
  Cu  Cu160  1  0.32646500  0.34278400  0.86997300  1
  Cu  Cu161  1  0.84618200  0.00475500  0.65017200  1
  Cu  Cu162  1  0.07646500  0.88002700  0.59278400  1
  Cu  Cu163  1  0.10014600  0.93551900  0.04625000  1
