# generated using pymatgen
data_Cu2Ni8C19
_symmetry_space_group_name_H-M   'P 1'
_cell_length_a   3.86129400
_cell_length_b   3.86129400
_cell_length_c   27.34120000
_cell_angle_alpha   90.00000000
_cell_angle_beta   90.00000000
_cell_angle_gamma   90.00000000
_symmetry_Int_Tables_number   1
_chemical_formula_structural   Cu2Ni8C19
_chemical_formula_sum   'Cu2 Ni8 C19'
_cell_volume   407.64611914
_cell_formula_units_Z   1
loop_
 _symmetry_equiv_pos_site_id
 _symmetry_equiv_pos_as_xyz
  1  'x, y, z'
loop_
 _atom_site_type_symbol
 _atom_site_label
 _atom_site_symmetry_multiplicity
 _atom_site_fract_x
 _atom_site_fract_y
 _atom_site_fract_z
 _atom_site_occupancy
  Ni  Ni0  1  0.50000000  0.00000000  0.15012200  1
  Ni  Ni1  1  0.00000000  0.50000000  0.25004000  1
  Ni  Ni2  1  0.50000000  0.00000000  0.35005600  1
  Ni  Ni3  1  0.00000000  0.50000000  0.45007600  1
  Ni  Ni4  1  0.50000000  0.00000000  0.54992400  1
  Ni  Ni5  1  0.00000000  0.50000000  0.64994400  1
  Ni  Ni6  1  0.50000000  0.00000000  0.74996000  1
  Ni  Ni7  1  0.00000000  0.50000000  0.84987800  1
  Cu  Cu8  1  0.50000000  0.00000000  0.94381100  1
  Cu  Cu9  1  0.00000000  0.50000000  0.05618900  1
  C  C10  1  0.00000000  0.00000000  0.30002700  1
  C  C11  1  0.50000000  0.50000000  0.40043000  1
  C  C12  1  0.00000000  0.00000000  0.50000000  1
  C  C13  1  0.50000000  0.50000000  0.59957000  1
  C  C14  1  0.00000000  0.00000000  0.69997300  1
  C  C15  1  0.50000000  0.50000000  0.80132900  1
  C  C16  1  0.00000000  0.00000000  0.79842700  1
  C  C17  1  0.00000000  0.00000000  0.89566600  1
  C  C18  1  0.50000000  0.50000000  0.90533700  1
  C  C19  1  0.00000000  0.00000000  0.00000000  1
  C  C20  1  0.00000000  0.00000000  0.10433400  1
  C  C21  1  0.50000000  0.50000000  0.09466300  1
  C  C22  1  0.50000000  0.50000000  0.19867100  1
  C  C23  1  0.00000000  0.00000000  0.20157300  1
  C  C24  1  0.50000000  0.50000000  0.30000000  1
  C  C25  1  0.00000000  0.00000000  0.39981700  1
  C  C26  1  0.50000000  0.50000000  0.50000000  1
  C  C27  1  0.00000000  0.00000000  0.60018300  1
  C  C28  1  0.50000000  0.50000000  0.70000000  1
