# generated using pymatgen
data_Cu40Ni7C15
_symmetry_space_group_name_H-M   'P 1'
_cell_length_a   7.61663839
_cell_length_b   7.61663839
_cell_length_c   73.68613552
_cell_angle_alpha   89.61606504
_cell_angle_beta   89.61606504
_cell_angle_gamma   34.77118685
_symmetry_Int_Tables_number   1
_chemical_formula_structural   Cu40Ni7C15
_chemical_formula_sum   'Cu40 Ni7 C15'
_cell_volume   2437.84192502
_cell_formula_units_Z   1
loop_
 _symmetry_equiv_pos_site_id
 _symmetry_equiv_pos_as_xyz
  1  'x, y, z'
loop_
 _atom_site_type_symbol
 _atom_site_label
 _atom_site_symmetry_multiplicity
 _atom_site_fract_x
 _atom_site_fract_y
 _atom_site_fract_z
 _atom_site_occupancy
  C  C0  1  0.00460700  0.00460700  0.99778900  1
  C  C1  1  0.90782900  0.90782900  0.09770700  1
  C  C2  1  0.14026300  0.14026300  0.35290500  1
  C  C3  1  0.04232500  0.04232500  0.45221200  1
  C  C4  1  0.94377800  0.94377800  0.55379400  1
  C  C5  1  0.40215600  0.40215600  0.59989900  1
  C  C6  1  0.85020200  0.85020200  0.65005500  1
  C  C7  1  0.75021200  0.75021200  0.74998400  1
  C  C8  1  0.29976300  0.29976300  0.70007100  1
  C  C9  1  0.19849100  0.19849100  0.80009400  1
  C  C10  1  0.10407500  0.10407500  0.89739700  1
  C  C11  1  0.64651000  0.64651000  0.84942200  1
  C  C12  1  0.55366700  0.55366700  0.94928800  1
  C  C13  1  0.82836900  0.82836900  0.92283800  1
  C  C14  1  0.27254900  0.27254900  0.97339200  1
  Ni  Ni15  1  0.44959800  0.44959800  0.04925600  1
  Ni  Ni16  1  0.35375000  0.35375000  0.14655000  1
  Ni  Ni17  1  0.80502700  0.80502700  0.19913500  1
  Ni  Ni18  1  0.69675600  0.69675600  0.30364700  1
  Ni  Ni19  1  0.24441600  0.24441600  0.25095800  1
  Ni  Ni20  1  0.60118300  0.60118300  0.40101900  1
  Ni  Ni21  1  0.50173900  0.50173900  0.50106300  1
  Cu  Cu22  1  0.36529000  0.36529000  0.01246900  1
  Cu  Cu23  1  0.81072300  0.81072300  0.06213200  1
  Cu  Cu24  1  0.08637800  0.08637800  0.03766900  1
  Cu  Cu25  1  0.26368000  0.26368000  0.11185000  1
  Cu  Cu26  1  0.53268000  0.53268000  0.08912400  1
  Cu  Cu27  1  0.71132200  0.71132200  0.16188700  1
  Cu  Cu28  1  0.98931400  0.98931400  0.13735200  1
  Cu  Cu29  1  0.16045500  0.16045500  0.21348700  1
  Cu  Cu30  1  0.44680700  0.44680700  0.18696300  1
  Cu  Cu31  1  0.60329300  0.60329300  0.26276900  1
  Cu  Cu32  1  0.88868800  0.88868800  0.23658800  1
  Cu  Cu33  1  0.06119400  0.06119400  0.31250300  1
  Cu  Cu34  1  0.33918000  0.33918000  0.28812400  1
  Cu  Cu35  1  0.51765700  0.51765700  0.36056900  1
  Cu  Cu36  1  0.78706400  0.78706400  0.33799800  1
  Cu  Cu37  1  0.96304900  0.96304900  0.41145600  1
  Cu  Cu38  1  0.24041300  0.24041300  0.38785500  1
  Cu  Cu39  1  0.41869900  0.41869900  0.46082000  1
  Cu  Cu40  1  0.68465000  0.68465000  0.43715200  1
  Cu  Cu41  1  0.86397300  0.86397300  0.51227600  1
  Cu  Cu42  1  0.14015700  0.14015700  0.48791200  1
  Cu  Cu43  1  0.32328600  0.32328600  0.56404300  1
  Cu  Cu44  1  0.58469900  0.58469900  0.53742100  1
  Cu  Cu45  1  0.77377200  0.77377200  0.61429100  1
  Cu  Cu46  1  0.03055400  0.03055400  0.58903100  1
  Cu  Cu47  1  0.22390800  0.22390800  0.66369100  1
  Cu  Cu48  1  0.47488300  0.47488300  0.63661700  1
  Cu  Cu49  1  0.67411600  0.67411600  0.71384300  1
  Cu  Cu50  1  0.92561200  0.92561200  0.68607500  1
  Cu  Cu51  1  0.12439500  0.12439500  0.76383100  1
  Cu  Cu52  1  0.37653100  0.37653100  0.73634100  1
  Cu  Cu53  1  0.57174800  0.57174800  0.81179900  1
  Cu  Cu54  1  0.82590400  0.82590400  0.78623700  1
  Cu  Cu55  1  0.02506900  0.02506900  0.86157700  1
  Cu  Cu56  1  0.27421700  0.27421700  0.83611400  1
  Cu  Cu57  1  0.46255800  0.46255800  0.91496000  1
  Cu  Cu58  1  0.72996300  0.72996300  0.88867800  1
  Cu  Cu59  1  0.90459400  0.90459400  0.96389100  1
  Cu  Cu60  1  0.18853700  0.18853700  0.93750700  1
  Cu  Cu61  1  0.63372400  0.63372400  0.98662200  1
