# generated using pymatgen
data_Cu(NiC8)2
_symmetry_space_group_name_H-M   'P 1'
_cell_length_a   10.29939200
_cell_length_b   10.35428246
_cell_length_c   20.60098900
_cell_angle_alpha   90.01096231
_cell_angle_beta   90.05537122
_cell_angle_gamma   90.05883808
_symmetry_Int_Tables_number   1
_chemical_formula_structural   Cu(NiC8)2
_chemical_formula_sum   'Cu8 Ni16 C128'
_cell_volume   2196.94521187
_cell_formula_units_Z   8
loop_
 _symmetry_equiv_pos_site_id
 _symmetry_equiv_pos_as_xyz
  1  'x, y, z'
loop_
 _atom_site_type_symbol
 _atom_site_label
 _atom_site_symmetry_multiplicity
 _atom_site_fract_x
 _atom_site_fract_y
 _atom_site_fract_z
 _atom_site_occupancy
  Ni  Ni0  1  0.07087500  0.92377600  0.03090500  1
  Ni  Ni1  1  0.07263000  0.93043100  0.53433300  1
  Ni  Ni2  1  0.70378400  0.79915500  0.39805200  1
  Ni  Ni3  1  0.70423000  0.79999200  0.89741900  1
  Ni  Ni4  1  0.30073900  0.69944900  0.14705500  1
  Ni  Ni5  1  0.29652100  0.70456200  0.64628700  1
  Ni  Ni6  1  0.92841600  0.57468100  0.28127900  1
  Ni  Ni7  1  0.93202900  0.57518100  0.78095500  1
  Ni  Ni8  1  0.42777600  0.43984200  0.46431800  1
  Ni  Ni9  1  0.43425300  0.43449900  0.96604200  1
  Ni  Ni10  1  0.80079800  0.29225000  0.10126000  1
  Ni  Ni11  1  0.79702900  0.29466000  0.60048800  1
  Ni  Ni12  1  0.19952600  0.20742000  0.35185100  1
  Ni  Ni13  1  0.19948800  0.20365500  0.85039400  1
  Ni  Ni14  1  0.56086200  0.06742900  0.71512300  1
  Ni  Ni15  1  0.56485700  0.06598900  0.21477400  1
  Cu  Cu16  1  0.91438800  0.91869100  0.20642400  1
  Cu  Cu17  1  0.91532100  0.91619000  0.70878600  1
  Cu  Cu18  1  0.34965700  0.85518500  0.32589800  1
  Cu  Cu19  1  0.34765500  0.85511500  0.82436900  1
  Cu  Cu20  1  0.65408800  0.64344300  0.07484600  1
  Cu  Cu21  1  0.08331000  0.58313900  0.45546900  1
  Cu  Cu22  1  0.08698200  0.58209400  0.95659600  1
  Cu  Cu23  1  0.42093000  0.08865400  0.53864500  1
  C  C24  1  0.64668000  0.64142200  0.57230700  1
  C  C25  1  0.58682200  0.41546300  0.29028100  1
  C  C26  1  0.58435700  0.41514200  0.79203100  1
  C  C27  1  0.14539500  0.35095600  0.17841300  1
  C  C28  1  0.13927600  0.35330000  0.67687500  1
  C  C29  1  0.85084200  0.14642200  0.42863300  1
  C  C30  1  0.85567900  0.14850500  0.92804600  1
  C  C31  1  0.41403900  0.08640200  0.04146000  1
  C  C32  1  0.72623000  0.97278200  0.05618900  1
  C  C33  1  0.73745000  0.95345300  0.55881200  1
  C  C34  1  0.03311200  0.89085600  0.37083800  1
  C  C35  1  0.03092700  0.88521800  0.87301900  1
  C  C36  1  0.38567300  0.75808400  0.48425100  1
  C  C37  1  0.37910400  0.77902500  0.98476400  1
  C  C38  1  0.62394100  0.72257200  0.23500800  1
  C  C39  1  0.62460200  0.71913200  0.72865500  1
  C  C40  1  0.97053900  0.61200000  0.12133500  1
  C  C41  1  0.95922400  0.61683100  0.61784800  1
  C  C42  1  0.27366500  0.52736300  0.30621700  1
  C  C43  1  0.27173600  0.52782400  0.80590100  1
  C  C44  1  0.76564400  0.45624700  0.93051900  1
  C  C45  1  0.75499700  0.45721000  0.43563400  1
  C  C46  1  0.45704800  0.36442800  0.13620600  1
  C  C47  1  0.46057100  0.38209900  0.63781400  1
  C  C48  1  0.12861600  0.25923300  0.02181500  1
  C  C49  1  0.11590500  0.26126100  0.52103000  1
  C  C50  1  0.87309300  0.24324900  0.27314500  1
  C  C51  1  0.86996500  0.24005100  0.77181900  1
  C  C52  1  0.54738500  0.14055300  0.37984600  1
  C  C53  1  0.54444000  0.13532200  0.88653300  1
  C  C54  1  0.23571800  0.04305400  0.18091500  1
  C  C55  1  0.23030900  0.04939000  0.68497400  1
  C  C56  1  0.10062700  0.99214700  0.16330200  1
  C  C57  1  0.09571300  0.99782600  0.66723300  1
  C  C58  1  0.94085600  0.99935700  0.39719200  1
  C  C59  1  0.93722200  0.99332700  0.89962200  1
  C  C60  1  0.79473800  0.99113500  0.12181300  1
  C  C61  1  0.83257100  0.97765800  0.61462400  1
  C  C62  1  0.29899200  0.96594000  0.23629700  1
  C  C63  1  0.28491900  0.98429400  0.74605500  1
  C  C64  1  0.17335100  0.94215600  0.37510200  1
  C  C65  1  0.17123000  0.93587300  0.87830300  1
  C  C66  1  0.36476900  0.92643200  0.00274600  1
  C  C67  1  0.35282900  0.89580500  0.50523300  1
  C  C68  1  0.99411300  0.85916800  0.30107200  1
  C  C69  1  0.99451400  0.85331400  0.80288000  1
  C  C70  1  0.75716400  0.78720100  0.24259900  1
  C  C71  1  0.73575700  0.83286800  0.03182600  1
  C  C72  1  0.75114400  0.79010100  0.74476600  1
  C  C73  1  0.73486300  0.80583200  0.54124500  1
  C  C74  1  0.53065600  0.78894200  0.28176800  1
  C  C75  1  0.51102900  0.78780800  0.76180900  1
  C  C76  1  0.43499300  0.75359800  0.41368300  1
  C  C77  1  0.43227700  0.76873700  0.91491100  1
  C  C78  1  0.01257400  0.77239600  0.41465300  1
  C  C79  1  0.00652800  0.76710700  0.91618200  1
  C  C80  1  0.98389900  0.72910300  0.66466600  1
  C  C81  1  0.99199800  0.73306600  0.16300900  1
  C  C82  1  0.57242100  0.73072800  0.16506800  1
  C  C83  1  0.59752400  0.72194900  0.65391000  1
  C  C84  1  0.47022900  0.71237900  0.03272000  1
  C  C85  1  0.49593500  0.70412900  0.52987200  1
  C  C86  1  0.26465100  0.66798800  0.28276000  1
  C  C87  1  0.26985700  0.66710200  0.49472300  1
  C  C88  1  0.26197400  0.66843700  0.78268400  1
  C  C89  1  0.24494200  0.71562800  0.99180800  1
  C  C90  1  0.01092900  0.64951300  0.55042700  1
  C  C91  1  0.00606600  0.64014800  0.05072800  1
  C  C92  1  0.63963200  0.57597200  0.25389300  1
  C  C93  1  0.63873000  0.57714400  0.75270300  1
  C  C94  1  0.83093500  0.55860600  0.12662300  1
  C  C95  1  0.81239900  0.57831200  0.61420600  1
  C  C96  1  0.69434100  0.53547200  0.49339000  1
  C  C97  1  0.70148900  0.53218400  0.98588100  1
  C  C98  1  0.20130400  0.50731000  0.37056100  1
  C  C99  1  0.20198700  0.50687000  0.87076700  1
  C  C100  1  0.06604900  0.50691500  0.14922800  1
  C  C101  1  0.03603400  0.49932600  0.64705700  1
  C  C102  1  0.90047700  0.50744000  0.91299500  1
  C  C103  1  0.88865500  0.51210600  0.41757000  1
  C  C104  1  0.41755000  0.48426200  0.31426000  1
  C  C105  1  0.41648000  0.48680800  0.81495800  1
  C  C106  1  0.53536400  0.46878500  0.10097800  1
  C  C107  1  0.54101300  0.49211100  0.60518200  1
  C  C108  1  0.67375300  0.47362000  0.87094900  1
  C  C109  1  0.66086000  0.47349300  0.37701200  1
  C  C110  1  0.20746700  0.43428000  0.25654700  1
  C  C111  1  0.20416400  0.43844400  0.75504000  1
  C  C112  1  0.31109200  0.40596200  0.13786600  1
  C  C113  1  0.31366400  0.41936100  0.63693400  1
  C  C114  1  0.14867300  0.39578400  0.49567600  1
  C  C115  1  0.16375400  0.39304500  0.99561200  1
  C  C116  1  0.51168000  0.34233400  0.20583600  1
  C  C117  1  0.51022900  0.35801000  0.70859700  1
  C  C118  1  0.75645100  0.33870400  0.26661800  1
  C  C119  1  0.75000500  0.33100900  0.76522300  1
  C  C120  1  0.76390300  0.31285600  0.45686100  1
  C  C121  1  0.77383900  0.31187500  0.95239300  1
  C  C122  1  0.98491200  0.30224400  0.23093000  1
  C  C123  1  0.98121000  0.30116400  0.73035800  1
  C  C124  1  0.08373000  0.26545800  0.09405000  1
  C  C125  1  0.08312400  0.26607800  0.59513900  1
  C  C126  1  0.47129200  0.23798200  0.09585000  1
  C  C127  1  0.48687400  0.25897100  0.59861900  1
  C  C128  1  0.53606700  0.25538000  0.33188000  1
  C  C129  1  0.52901000  0.26005000  0.84453400  1
  C  C130  1  0.91675800  0.23695200  0.34570700  1
  C  C131  1  0.91622000  0.23275500  0.84394100  1
  C  C132  1  0.99409900  0.20503000  0.48488000  1
  C  C133  1  0.01858200  0.19717300  0.97975100  1
  C  C134  1  0.25010600  0.17015700  0.01484900  1
  C  C135  1  0.22874500  0.16897100  0.50742600  1
  C  C136  1  0.22737000  0.18746800  0.20295900  1
  C  C137  1  0.22286400  0.19772300  0.70181400  1
  C  C138  1  0.49572700  0.18103200  0.44659700  1
  C  C139  1  0.49006900  0.16112100  0.95583800  1
  C  C140  1  0.83537800  0.11020700  0.24632100  1
  C  C141  1  0.83289800  0.10683100  0.74511200  1
  C  C142  1  0.69260000  0.09742500  0.38320200  1
  C  C143  1  0.69094200  0.09461700  0.88827500  1
  C  C144  1  0.79380900  0.06648700  0.00742400  1
  C  C145  1  0.78818200  0.03314500  0.49937300  1
  C  C146  1  0.32704800  0.02653800  0.12113400  1
  C  C147  1  0.32466400  0.02649300  0.62906900  1
  C  C148  1  0.46804300  0.02958500  0.35066900  1
  C  C149  1  0.47002800  0.02698400  0.85220400  1
  C  C150  1  0.58212100  0.01558100  0.06358300  1
  C  C151  1  0.60257600  0.00247600  0.57710700  1
