# generated using pymatgen
data_Cu4Ni2C3
_symmetry_space_group_name_H-M   'P 1'
_cell_length_a   19.69270700
_cell_length_b   7.82314700
_cell_length_c   7.98730992
_cell_angle_alpha   67.50382138
_cell_angle_beta   90.00000000
_cell_angle_gamma   90.00000000
_symmetry_Int_Tables_number   1
_chemical_formula_structural   Cu4Ni2C3
_chemical_formula_sum   'Cu16 Ni8 C12'
_cell_volume   1136.88042514
_cell_formula_units_Z   4
loop_
 _symmetry_equiv_pos_site_id
 _symmetry_equiv_pos_as_xyz
  1  'x, y, z'
loop_
 _atom_site_type_symbol
 _atom_site_label
 _atom_site_symmetry_multiplicity
 _atom_site_fract_x
 _atom_site_fract_y
 _atom_site_fract_z
 _atom_site_occupancy
  C  C0  1  0.05951100  0.00878700  0.73713900  1
  C  C1  1  0.44048900  0.50878700  0.73713900  1
  C  C2  1  0.31742700  0.49269900  0.20889300  1
  C  C3  1  0.56595500  0.01256200  0.74005300  1
  C  C4  1  0.55951100  0.49121300  0.26286100  1
  C  C5  1  0.06595500  0.48743800  0.25994700  1
  C  C6  1  0.94048900  0.99121300  0.26286100  1
  C  C7  1  0.93404500  0.51256200  0.74005300  1
  C  C8  1  0.81742700  0.00730100  0.79110700  1
  C  C9  1  0.43404500  0.98743800  0.25994700  1
  C  C10  1  0.68257300  0.50730100  0.79110700  1
  C  C11  1  0.18257300  0.99269900  0.20889300  1
  Ni  Ni12  1  0.75729200  0.60684700  0.31612300  1
  Ni  Ni13  1  0.12185700  0.52259400  0.79027500  1
  Ni  Ni14  1  0.37814300  0.02259400  0.79027500  1
  Ni  Ni15  1  0.25729200  0.89315300  0.68387700  1
  Ni  Ni16  1  0.62185700  0.97740600  0.20972500  1
  Ni  Ni17  1  0.87814300  0.47740600  0.20972500  1
  Ni  Ni18  1  0.24270800  0.39315300  0.68387700  1
  Ni  Ni19  1  0.74270800  0.10684700  0.31612300  1
  Cu  Cu20  1  0.31800800  0.21354200  0.95851300  1
  Cu  Cu21  1  0.93518200  0.25647900  0.49388600  1
  Cu  Cu22  1  0.81800800  0.28645800  0.04148700  1
  Cu  Cu23  1  0.44656500  0.75269200  0.99849100  1
  Cu  Cu24  1  0.20211500  0.20929600  0.49058800  1
  Cu  Cu25  1  0.06481800  0.74352100  0.50611400  1
  Cu  Cu26  1  0.79788500  0.79070400  0.50941200  1
  Cu  Cu27  1  0.70211500  0.29070400  0.50941200  1
  Cu  Cu28  1  0.94656500  0.74730800  0.00150900  1
  Cu  Cu29  1  0.56481800  0.75647900  0.49388600  1
  Cu  Cu30  1  0.43518200  0.24352100  0.50611400  1
  Cu  Cu31  1  0.18199200  0.71354200  0.95851300  1
  Cu  Cu32  1  0.05343500  0.25269200  0.99849100  1
  Cu  Cu33  1  0.68199200  0.78645800  0.04148700  1
  Cu  Cu34  1  0.55343500  0.24730800  0.00150900  1
  Cu  Cu35  1  0.29788500  0.70929600  0.49058800  1
