# generated using pymatgen
data_Cu3NiC10
_symmetry_space_group_name_H-M   'P 1'
_cell_length_a   8.45519800
_cell_length_b   8.45519800
_cell_length_c   8.45519800
_cell_angle_alpha   90.00000000
_cell_angle_beta   90.00000000
_cell_angle_gamma   90.00000000
_symmetry_Int_Tables_number   1
_chemical_formula_structural   Cu3NiC10
_chemical_formula_sum   'Cu12 Ni4 C40'
_cell_volume   604.46526066
_cell_formula_units_Z   4
loop_
 _symmetry_equiv_pos_site_id
 _symmetry_equiv_pos_as_xyz
  1  'x, y, z'
loop_
 _atom_site_type_symbol
 _atom_site_label
 _atom_site_symmetry_multiplicity
 _atom_site_fract_x
 _atom_site_fract_y
 _atom_site_fract_z
 _atom_site_occupancy
  Ni  Ni0  1  0.37500000  0.12500000  0.87500000  1
  Ni  Ni1  1  0.12500000  0.87500000  0.37500000  1
  Ni  Ni2  1  0.87500000  0.37500000  0.12500000  1
  Ni  Ni3  1  0.62500000  0.62500000  0.62500000  1
  Cu  Cu4  1  0.87139300  0.12500000  0.37860700  1
  Cu  Cu5  1  0.37500000  0.62139300  0.37139300  1
  Cu  Cu6  1  0.87500000  0.87860700  0.62860700  1
  Cu  Cu7  1  0.37139300  0.37500000  0.62139300  1
  Cu  Cu8  1  0.12139300  0.12860700  0.62500000  1
  Cu  Cu9  1  0.12860700  0.62500000  0.12139300  1
  Cu  Cu10  1  0.62139300  0.37139300  0.37500000  1
  Cu  Cu11  1  0.62860700  0.87500000  0.87860700  1
  Cu  Cu12  1  0.12500000  0.37860700  0.87139300  1
  Cu  Cu13  1  0.62500000  0.12139300  0.12860700  1
  Cu  Cu14  1  0.37860700  0.87139300  0.12500000  1
  Cu  Cu15  1  0.87860700  0.62860700  0.87500000  1
  C  C16  1  0.99318400  0.50681600  0.49318400  1
  C  C17  1  0.74318400  0.25681600  0.75681600  1
  C  C18  1  0.25681600  0.75681600  0.74318400  1
  C  C19  1  0.00681600  0.00681600  0.00681600  1
  C  C20  1  0.50681600  0.49318400  0.99318400  1
  C  C21  1  0.75681600  0.74318400  0.25681600  1
  C  C22  1  0.49318400  0.99318400  0.50681600  1
  C  C23  1  0.24318400  0.24318400  0.24318400  1
  C  C24  1  0.10989900  0.89681300  0.62185600  1
  C  C25  1  0.60318700  0.37814400  0.60989900  1
  C  C26  1  0.14681300  0.85989900  0.12814400  1
  C  C27  1  0.89681300  0.62185600  0.10989900  1
  C  C28  1  0.85989900  0.12814400  0.14681300  1
  C  C29  1  0.10318700  0.12185600  0.39010100  1
  C  C30  1  0.87185600  0.64681300  0.64010100  1
  C  C31  1  0.12185600  0.39010100  0.10318700  1
  C  C32  1  0.13336800  0.36663200  0.63336800  1
  C  C33  1  0.64681300  0.64010100  0.87185600  1
  C  C34  1  0.38336800  0.38336800  0.38336800  1
  C  C35  1  0.88336800  0.11663200  0.61663200  1
  C  C36  1  0.36663200  0.63336800  0.13336800  1
  C  C37  1  0.37814400  0.60989900  0.60318700  1
  C  C38  1  0.89010100  0.39681300  0.87814400  1
  C  C39  1  0.62185600  0.10989900  0.89681300  1
  C  C40  1  0.64010100  0.87185600  0.64681300  1
  C  C41  1  0.61663200  0.88336800  0.11663200  1
  C  C42  1  0.11663200  0.61663200  0.88336800  1
  C  C43  1  0.85318700  0.35989900  0.37185600  1
  C  C44  1  0.60989900  0.60318700  0.37814400  1
  C  C45  1  0.87814400  0.89010100  0.39681300  1
  C  C46  1  0.63336800  0.13336800  0.36663200  1
  C  C47  1  0.86663200  0.86663200  0.86663200  1
  C  C48  1  0.14010100  0.62814400  0.35318700  1
  C  C49  1  0.39681300  0.87814400  0.89010100  1
  C  C50  1  0.35989900  0.37185600  0.85318700  1
  C  C51  1  0.37185600  0.85318700  0.35989900  1
  C  C52  1  0.62814400  0.35318700  0.14010100  1
  C  C53  1  0.12814400  0.14681300  0.85989900  1
  C  C54  1  0.35318700  0.14010100  0.62814400  1
  C  C55  1  0.39010100  0.10318700  0.12185600  1
