# generated using pymatgen
data_CuNiC
_symmetry_space_group_name_H-M   'P 1'
_cell_length_a   4.19157900
_cell_length_b   9.33547300
_cell_length_c   9.36168300
_cell_angle_alpha   90.00000000
_cell_angle_beta   90.00000000
_cell_angle_gamma   90.00000000
_symmetry_Int_Tables_number   1
_chemical_formula_structural   CuNiC
_chemical_formula_sum   'Cu4 Ni4 C4'
_cell_volume   366.32614378
_cell_formula_units_Z   4
loop_
 _symmetry_equiv_pos_site_id
 _symmetry_equiv_pos_as_xyz
  1  'x, y, z'
loop_
 _atom_site_type_symbol
 _atom_site_label
 _atom_site_symmetry_multiplicity
 _atom_site_fract_x
 _atom_site_fract_y
 _atom_site_fract_z
 _atom_site_occupancy
  C  C0  1  0.25000000  0.17085700  0.92089200  1
  C  C1  1  0.75000000  0.32914300  0.42089200  1
  C  C2  1  0.75000000  0.82914300  0.07910800  1
  C  C3  1  0.25000000  0.67085700  0.57910800  1
  Ni  Ni4  1  0.25000000  0.51918100  0.32701700  1
  Ni  Ni5  1  0.25000000  0.01918100  0.17298300  1
  Ni  Ni6  1  0.75000000  0.48081900  0.67298300  1
  Ni  Ni7  1  0.75000000  0.98081900  0.82701700  1
  Cu  Cu8  1  0.75000000  0.32959100  0.06850600  1
  Cu  Cu9  1  0.75000000  0.82959100  0.43149400  1
  Cu  Cu10  1  0.25000000  0.67040900  0.93149400  1
  Cu  Cu11  1  0.25000000  0.17040900  0.56850600  1
