# generated using pymatgen
data_Cu2NiC8
_symmetry_space_group_name_H-M   'P 1'
_cell_length_a   8.68055800
_cell_length_b   6.74204800
_cell_length_c   9.81920087
_cell_angle_alpha   79.40372364
_cell_angle_beta   90.00000000
_cell_angle_gamma   90.00000000
_symmetry_Int_Tables_number   1
_chemical_formula_structural   Cu2NiC8
_chemical_formula_sum   'Cu8 Ni4 C32'
_cell_volume   564.86655645
_cell_formula_units_Z   4
loop_
 _symmetry_equiv_pos_site_id
 _symmetry_equiv_pos_as_xyz
  1  'x, y, z'
loop_
 _atom_site_type_symbol
 _atom_site_label
 _atom_site_symmetry_multiplicity
 _atom_site_fract_x
 _atom_site_fract_y
 _atom_site_fract_z
 _atom_site_occupancy
  C  C0  1  0.04261700  0.25011500  0.74739800  1
  C  C1  1  0.54261700  0.74988500  0.25260200  1
  C  C2  1  0.95738300  0.74988500  0.25260200  1
  C  C3  1  0.45738300  0.25011500  0.74739800  1
  Ni  Ni4  1  0.05514100  0.24856600  0.24858900  1
  Ni  Ni5  1  0.94485900  0.75143400  0.75141100  1
  Ni  Ni6  1  0.55514100  0.75143400  0.75141100  1
  Ni  Ni7  1  0.44485900  0.24856600  0.24858900  1
  Cu  Cu8  1  0.75000000  0.45393200  0.03328500  1
  Cu  Cu9  1  0.75000000  0.04821600  0.46939800  1
  Cu  Cu10  1  0.25000000  0.47739800  0.44601900  1
  Cu  Cu11  1  0.25000000  0.95178400  0.53060200  1
  Cu  Cu12  1  0.25000000  0.54606800  0.96671500  1
  Cu  Cu13  1  0.25000000  0.02048800  0.05024600  1
  Cu  Cu14  1  0.75000000  0.52260200  0.55398100  1
  Cu  Cu15  1  0.75000000  0.97951200  0.94975400  1
  C  C16  1  0.25000000  0.75064900  0.43421600  1
  C  C17  1  0.41463900  0.95781300  0.63822100  1
  C  C18  1  0.42667400  0.02773200  0.13995300  1
  C  C19  1  0.92726400  0.53239000  0.64061100  1
  C  C20  1  0.58573300  0.45965900  0.14112000  1
  C  C21  1  0.07332600  0.02773200  0.13995300  1
  C  C22  1  0.91463900  0.04218700  0.36177900  1
  C  C23  1  0.08573300  0.54034100  0.85888000  1
  C  C24  1  0.75000000  0.25296600  0.93825900  1
  C  C25  1  0.75000000  0.84900600  0.12077100  1
  C  C26  1  0.57332600  0.97226800  0.86004700  1
  C  C27  1  0.75000000  0.65669300  0.88609600  1
  C  C28  1  0.91426700  0.45965900  0.14112000  1
  C  C29  1  0.75000000  0.84905900  0.61897400  1
  C  C30  1  0.92667400  0.97226800  0.86004700  1
  C  C31  1  0.75000000  0.65653100  0.38403300  1
  C  C32  1  0.41426700  0.54034100  0.85888000  1
  C  C33  1  0.25000000  0.74703400  0.06174100  1
  C  C34  1  0.42726400  0.46761000  0.35938900  1
  C  C35  1  0.25000000  0.34330700  0.11390400  1
  C  C36  1  0.25000000  0.15099400  0.87922900  1
  C  C37  1  0.25000000  0.15094100  0.38102600  1
  C  C38  1  0.75000000  0.24935100  0.56578400  1
  C  C39  1  0.58536100  0.04218700  0.36177900  1
  C  C40  1  0.07273600  0.46761000  0.35938900  1
  C  C41  1  0.25000000  0.34346900  0.61596700  1
  C  C42  1  0.08536100  0.95781300  0.63822100  1
  C  C43  1  0.57273600  0.53239000  0.64061100  1
