# generated using pymatgen
data_Cu6NiC3
_symmetry_space_group_name_H-M   'P 1'
_cell_length_a   10.65817981
_cell_length_b   11.25835733
_cell_length_c   16.52225887
_cell_angle_alpha   90.00000000
_cell_angle_beta   90.00000000
_cell_angle_gamma   90.00000000
_symmetry_Int_Tables_number   1
_chemical_formula_structural   Cu6NiC3
_chemical_formula_sum   'Cu48 Ni8 C24'
_cell_volume   1982.56526888
_cell_formula_units_Z   8
loop_
 _symmetry_equiv_pos_site_id
 _symmetry_equiv_pos_as_xyz
  1  'x, y, z'
loop_
 _atom_site_type_symbol
 _atom_site_label
 _atom_site_symmetry_multiplicity
 _atom_site_fract_x
 _atom_site_fract_y
 _atom_site_fract_z
 _atom_site_occupancy
  C  C0  1  0.51314675  0.21207243  0.45187792  1
  C  C1  1  0.65737888  0.46410986  0.32410709  1
  C  C2  1  0.36078816  0.97820280  0.93752674  1
  C  C3  1  0.65737888  0.03589014  0.82410709  1
  C  C4  1  0.15737888  0.03589014  0.67589291  1
  C  C5  1  0.01314675  0.21207243  0.04812208  1
  C  C6  1  0.98685325  0.78792757  0.95187792  1
  C  C7  1  0.48685325  0.78792757  0.54812208  1
  C  C8  1  0.63921184  0.47820280  0.56247326  1
  C  C9  1  0.34262112  0.53589014  0.67589291  1
  C  C10  1  0.86078816  0.52179720  0.06247326  1
  C  C11  1  0.01314675  0.28792757  0.54812208  1
  C  C12  1  0.34262112  0.96410986  0.17589291  1
  C  C13  1  0.15737888  0.46410986  0.17589291  1
  C  C14  1  0.13921184  0.02179720  0.43752674  1
  C  C15  1  0.84262112  0.96410986  0.32410709  1
  C  C16  1  0.36078816  0.52179720  0.43752674  1
  C  C17  1  0.51314675  0.28792757  0.95187792  1
  C  C18  1  0.98685325  0.71207243  0.45187792  1
  C  C19  1  0.13921184  0.47820280  0.93752674  1
  C  C20  1  0.86078816  0.97820280  0.56247326  1
  C  C21  1  0.84262112  0.53589014  0.82410709  1
  C  C22  1  0.63921184  0.02179720  0.06247326  1
  C  C23  1  0.48685325  0.71207243  0.04812208  1
  Ni  Ni24  1  0.94989709  0.59095670  0.93994079  1
  Ni  Ni25  1  0.05010291  0.40904330  0.06005921  1
  Ni  Ni26  1  0.55010291  0.09095670  0.93994079  1
  Ni  Ni27  1  0.94989709  0.90904330  0.43994079  1
  Ni  Ni28  1  0.44989709  0.90904330  0.06005921  1
  Ni  Ni29  1  0.05010291  0.09095670  0.56005921  1
  Ni  Ni30  1  0.55010291  0.40904330  0.43994079  1
  Ni  Ni31  1  0.44989709  0.59095670  0.56005921  1
  Cu  Cu32  1  0.62981090  0.56103353  0.16021797  1
  Cu  Cu33  1  0.87018910  0.06103353  0.16021797  1
  Cu  Cu34  1  0.66727856  0.21400178  0.31376264  1
  Cu  Cu35  1  0.66727856  0.28599822  0.81376264  1
  Cu  Cu36  1  0.14336209  0.53024820  0.55300842  1
  Cu  Cu37  1  0.89718472  0.42071638  0.22597472  1
  Cu  Cu38  1  0.35663791  0.03024820  0.55300842  1
  Cu  Cu39  1  0.16727856  0.28599822  0.68623736  1
  Cu  Cu40  1  0.46943924  0.18592567  0.12349384  1
  Cu  Cu41  1  0.24895006  0.28383098  0.45450162  1
  Cu  Cu42  1  0.03056076  0.68592567  0.12349384  1
  Cu  Cu43  1  0.25104994  0.78383098  0.45450162  1
  Cu  Cu44  1  0.10281528  0.92071638  0.27402528  1
  Cu  Cu45  1  0.96943924  0.31407433  0.87650616  1
  Cu  Cu46  1  0.37018910  0.43896647  0.83978203  1
  Cu  Cu47  1  0.96943924  0.18592567  0.37650616  1
  Cu  Cu48  1  0.16727856  0.21400178  0.18623736  1
  Cu  Cu49  1  0.12981090  0.93896647  0.83978203  1
  Cu  Cu50  1  0.33272144  0.71400178  0.18623736  1
  Cu  Cu51  1  0.03056076  0.81407433  0.62349384  1
  Cu  Cu52  1  0.14336209  0.96975180  0.05300842  1
  Cu  Cu53  1  0.25104994  0.71616902  0.95450162  1
  Cu  Cu54  1  0.62981090  0.93896647  0.66021797  1
  Cu  Cu55  1  0.64336209  0.96975180  0.44699158  1
  Cu  Cu56  1  0.12981090  0.56103353  0.33978203  1
  Cu  Cu57  1  0.89718472  0.07928362  0.72597472  1
  Cu  Cu58  1  0.60281528  0.57928362  0.72597472  1
  Cu  Cu59  1  0.39718472  0.42071638  0.27402528  1
  Cu  Cu60  1  0.75104994  0.78383098  0.04549838  1
  Cu  Cu61  1  0.24895006  0.21616902  0.95450162  1
  Cu  Cu62  1  0.39718472  0.07928362  0.77402528  1
  Cu  Cu63  1  0.83272144  0.78599822  0.81376264  1
  Cu  Cu64  1  0.85663791  0.46975180  0.44699158  1
  Cu  Cu65  1  0.64336209  0.53024820  0.94699158  1
  Cu  Cu66  1  0.33272144  0.78599822  0.68623736  1
  Cu  Cu67  1  0.35663791  0.46975180  0.05300842  1
  Cu  Cu68  1  0.10281528  0.57928362  0.77402528  1
  Cu  Cu69  1  0.60281528  0.92071638  0.22597472  1
  Cu  Cu70  1  0.53056076  0.81407433  0.87650616  1
  Cu  Cu71  1  0.53056076  0.68592567  0.37650616  1
  Cu  Cu72  1  0.83272144  0.71400178  0.31376264  1
  Cu  Cu73  1  0.37018910  0.06103353  0.33978203  1
  Cu  Cu74  1  0.87018910  0.43896647  0.66021797  1
  Cu  Cu75  1  0.75104994  0.71616902  0.54549838  1
  Cu  Cu76  1  0.74895006  0.21616902  0.54549838  1
  Cu  Cu77  1  0.85663791  0.03024820  0.94699158  1
  Cu  Cu78  1  0.74895006  0.28383098  0.04549838  1
  Cu  Cu79  1  0.46943924  0.31407433  0.62349384  1
