# generated using pymatgen
data_Cu8Ni2C7
_symmetry_space_group_name_H-M   'P 1'
_cell_length_a   5.43086437
_cell_length_b   5.43086437
_cell_length_c   7.51276249
_cell_angle_alpha   70.44972283
_cell_angle_beta   70.44972283
_cell_angle_gamma   89.11308697
_symmetry_Int_Tables_number   1
_chemical_formula_structural   Cu8Ni2C7
_chemical_formula_sum   'Cu8 Ni2 C7'
_cell_volume   195.60538960
_cell_formula_units_Z   1
loop_
 _symmetry_equiv_pos_site_id
 _symmetry_equiv_pos_as_xyz
  1  'x, y, z'
loop_
 _atom_site_type_symbol
 _atom_site_label
 _atom_site_symmetry_multiplicity
 _atom_site_fract_x
 _atom_site_fract_y
 _atom_site_fract_z
 _atom_site_occupancy
  C  C0  1  0.00000000  0.00000000  0.00000000  1
  C  C1  1  0.00000000  0.50000000  0.50000000  1
  C  C2  1  0.50000000  0.00000000  0.50000000  1
  C  C3  1  0.40001700  0.19156500  0.08443500  1
  C  C4  1  0.19156500  0.40001700  0.08443500  1
  C  C5  1  0.59998300  0.80843500  0.91556500  1
  C  C6  1  0.80843500  0.59998300  0.91556500  1
  Ni  Ni7  1  0.25622700  0.25622700  0.03431600  1
  Ni  Ni8  1  0.74377300  0.74377300  0.96568400  1
  Cu  Cu9  1  0.92335800  0.33713600  0.78975400  1
  Cu  Cu10  1  0.33713600  0.92335800  0.78975400  1
  Cu  Cu11  1  0.07664200  0.66286400  0.21024600  1
  Cu  Cu12  1  0.66286400  0.07664200  0.21024600  1
  Cu  Cu13  1  0.31734600  0.31734600  0.43878900  1
  Cu  Cu14  1  0.68265400  0.68265400  0.56121100  1
  Cu  Cu15  1  0.20571600  0.79428400  0.50000000  1
  Cu  Cu16  1  0.79428400  0.20571600  0.50000000  1
