# generated using pymatgen
data_Cu2Ni2C15
_symmetry_space_group_name_H-M   'P 1'
_cell_length_a   15.32007200
_cell_length_b   4.26648000
_cell_length_c   7.29087836
_cell_angle_alpha   75.05469939
_cell_angle_beta   90.00000000
_cell_angle_gamma   90.00000000
_symmetry_Int_Tables_number   1
_chemical_formula_structural   Cu2Ni2C15
_chemical_formula_sum   'Cu4 Ni4 C30'
_cell_volume   460.43150710
_cell_formula_units_Z   2
loop_
 _symmetry_equiv_pos_site_id
 _symmetry_equiv_pos_as_xyz
  1  'x, y, z'
loop_
 _atom_site_type_symbol
 _atom_site_label
 _atom_site_symmetry_multiplicity
 _atom_site_fract_x
 _atom_site_fract_y
 _atom_site_fract_z
 _atom_site_occupancy
  C  C0  1  0.00000000  0.00000000  0.00000000  1
  C  C1  1  0.50000000  0.00000000  0.50000000  1
  C  C2  1  0.87632200  0.53958900  0.06842200  1
  C  C3  1  0.37632200  0.46041100  0.43157800  1
  C  C4  1  0.12367800  0.46041100  0.93157800  1
  C  C5  1  0.62367800  0.53958900  0.56842200  1
  C  C6  1  0.84648400  0.81928900  0.87607600  1
  C  C7  1  0.34648400  0.18071100  0.62392400  1
  C  C8  1  0.15351600  0.18071100  0.12392400  1
  C  C9  1  0.65351600  0.81928900  0.37607600  1
  C  C10  1  0.87621200  0.42372100  0.74832100  1
  C  C11  1  0.37621200  0.57627900  0.75167900  1
  C  C12  1  0.12378800  0.57627900  0.25167900  1
  C  C13  1  0.62378800  0.42372100  0.24832100  1
  C  C14  1  0.97334600  0.59491200  0.73841000  1
  C  C15  1  0.47334600  0.40508800  0.76159000  1
  C  C16  1  0.02665400  0.40508800  0.26159000  1
  C  C17  1  0.52665400  0.59491200  0.23841000  1
  Ni  Ni18  1  0.12457600  0.95129400  0.64020000  1
  Ni  Ni19  1  0.62457600  0.04870600  0.85980000  1
  Ni  Ni20  1  0.87542400  0.04870600  0.35980000  1
  Ni  Ni21  1  0.37542400  0.95129400  0.14020000  1
  Cu  Cu22  1  0.20000800  0.91160600  0.49198300  1
  Cu  Cu23  1  0.70000800  0.08839400  0.00801700  1
  Cu  Cu24  1  0.79999200  0.08839400  0.50801700  1
  Cu  Cu25  1  0.29999200  0.91160600  0.99198300  1
  C  C26  1  0.89846500  0.68228600  0.94179800  1
  C  C27  1  0.39846500  0.31771400  0.55820200  1
  C  C28  1  0.10153500  0.31771400  0.05820200  1
  C  C29  1  0.60153500  0.68228600  0.44179800  1
  C  C30  1  0.92733300  0.46682100  0.83010400  1
  C  C31  1  0.42733300  0.53317900  0.66989600  1
  C  C32  1  0.07266700  0.53317900  0.16989600  1
  C  C33  1  0.57266700  0.46682100  0.33010500  1
  C  C34  1  0.06884800  0.97559700  0.74955200  1
  C  C35  1  0.56884800  0.02440300  0.75044800  1
  C  C36  1  0.93115200  0.02440300  0.25044800  1
  C  C37  1  0.43115200  0.97559700  0.24955200  1
