# generated using pymatgen
data_Cu(NiC2)5
_symmetry_space_group_name_H-M   'P 1'
_cell_length_a   7.66488600
_cell_length_b   8.71485210
_cell_length_c   9.03310047
_cell_angle_alpha   89.64124689
_cell_angle_beta   99.63829856
_cell_angle_gamma   101.18781145
_symmetry_Int_Tables_number   1
_chemical_formula_structural   Cu(NiC2)5
_chemical_formula_sum   'Cu2 Ni10 C20'
_cell_volume   583.35948275
_cell_formula_units_Z   2
loop_
 _symmetry_equiv_pos_site_id
 _symmetry_equiv_pos_as_xyz
  1  'x, y, z'
loop_
 _atom_site_type_symbol
 _atom_site_label
 _atom_site_symmetry_multiplicity
 _atom_site_fract_x
 _atom_site_fract_y
 _atom_site_fract_z
 _atom_site_occupancy
  C  C0  1  0.66051200  0.36956000  0.82710500  1
  C  C1  1  0.33948800  0.63044000  0.17289500  1
  C  C2  1  0.30602000  0.08876900  0.17519100  1
  C  C3  1  0.69398000  0.91123100  0.82480900  1
  C  C4  1  0.12406600  0.30856400  0.68816500  1
  C  C5  1  0.87593400  0.69143600  0.31183500  1
  C  C6  1  0.99523200  0.06960800  0.30731800  1
  C  C7  1  0.00476800  0.93039200  0.69268200  1
  C  C8  1  0.86228800  0.19146600  0.26402500  1
  C  C9  1  0.13771200  0.80853400  0.73597500  1
  C  C10  1  0.69596500  0.00492500  0.19278500  1
  C  C11  1  0.30403500  0.99507500  0.80721500  1
  C  C12  1  0.22658500  0.35307700  0.39860800  1
  C  C13  1  0.77341500  0.64692300  0.60139200  1
  C  C14  1  0.93767600  0.21213000  0.06256700  1
  C  C15  1  0.06232400  0.78787000  0.93743300  1
  C  C16  1  0.79156300  0.15409500  0.47052100  1
  C  C17  1  0.20843700  0.84590500  0.52947900  1
  C  C18  1  0.67968000  0.34014900  0.20887000  1
  C  C19  1  0.32032000  0.65985100  0.79113000  1
  Ni  Ni20  1  0.97845400  0.22210300  0.94191700  1
  Ni  Ni21  1  0.02154600  0.77789700  0.05808300  1
  Ni  Ni22  1  0.59771400  0.88778800  0.14476800  1
  Ni  Ni23  1  0.40228600  0.11221200  0.85523200  1
  Ni  Ni24  1  0.74856900  0.12805100  0.58876900  1
  Ni  Ni25  1  0.25143100  0.87194900  0.41123100  1
  Ni  Ni26  1  0.09376500  0.39981300  0.33806500  1
  Ni  Ni27  1  0.90623500  0.60018700  0.66193500  1
  Ni  Ni28  1  0.56995700  0.41709500  0.17296900  1
  Ni  Ni29  1  0.43004300  0.58290500  0.82703100  1
  Cu  Cu30  1  0.35829000  0.30944700  0.46477400  1
  Cu  Cu31  1  0.64171000  0.69055300  0.53522600  1
