# generated using pymatgen
data_Cu2Ni2C5
_symmetry_space_group_name_H-M   'P 1'
_cell_length_a   5.00769232
_cell_length_b   5.00769232
_cell_length_c   3.37746623
_cell_angle_alpha   75.97253016
_cell_angle_beta   75.97253016
_cell_angle_gamma   94.21635718
_symmetry_Int_Tables_number   1
_chemical_formula_structural   Cu2Ni2C5
_chemical_formula_sum   'Cu2 Ni2 C5'
_cell_volume   78.92948342
_cell_formula_units_Z   1
loop_
 _symmetry_equiv_pos_site_id
 _symmetry_equiv_pos_as_xyz
  1  'x, y, z'
loop_
 _atom_site_type_symbol
 _atom_site_label
 _atom_site_symmetry_multiplicity
 _atom_site_fract_x
 _atom_site_fract_y
 _atom_site_fract_z
 _atom_site_occupancy
  C  C0  1  0.00000000  0.00000000  0.00000000  1
  C  C1  1  0.55141600  0.22893100  0.20275000  1
  C  C2  1  0.22893100  0.55141600  0.20275000  1
  C  C3  1  0.44858400  0.77106900  0.79725000  1
  C  C4  1  0.77106900  0.44858400  0.79725000  1
  Ni  Ni5  1  0.73956900  0.26043100  0.00000000  1
  Ni  Ni6  1  0.26043100  0.73956900  0.00000000  1
  Cu  Cu7  1  0.76670200  0.76670200  0.54486100  1
  Cu  Cu8  1  0.23329800  0.23329800  0.45513900  1
