# generated using pymatgen
data_Cu5Ni3C13
_symmetry_space_group_name_H-M   'P 1'
_cell_length_a   10.46292265
_cell_length_b   10.46292265
_cell_length_c   7.48190000
_cell_angle_alpha   90.00000000
_cell_angle_beta   90.00000000
_cell_angle_gamma   120.00000411
_symmetry_Int_Tables_number   1
_chemical_formula_structural   Cu5Ni3C13
_chemical_formula_sum   'Cu10 Ni6 C26'
_cell_volume   709.33035007
_cell_formula_units_Z   2
loop_
 _symmetry_equiv_pos_site_id
 _symmetry_equiv_pos_as_xyz
  1  'x, y, z'
loop_
 _atom_site_type_symbol
 _atom_site_label
 _atom_site_symmetry_multiplicity
 _atom_site_fract_x
 _atom_site_fract_y
 _atom_site_fract_z
 _atom_site_occupancy
  Ni  Ni0  1  0.38041500  0.97492900  0.75000000  1
  Ni  Ni1  1  0.59451400  0.61958500  0.75000000  1
  Ni  Ni2  1  0.97492900  0.59451400  0.25000000  1
  Ni  Ni3  1  0.02507100  0.40548600  0.75000000  1
  Ni  Ni4  1  0.40548600  0.38041500  0.25000000  1
  Ni  Ni5  1  0.61958500  0.02507100  0.25000000  1
  Cu  Cu6  1  0.25340500  0.01037300  0.25000000  1
  Cu  Cu7  1  0.66666700  0.33333300  0.50370100  1
  Cu  Cu8  1  0.24303200  0.25340500  0.75000000  1
  Cu  Cu9  1  0.75696800  0.74659500  0.25000000  1
  Cu  Cu10  1  0.33333300  0.66666700  0.49629900  1
  Cu  Cu11  1  0.98962700  0.24303200  0.25000000  1
  Cu  Cu12  1  0.66666700  0.33333300  0.99629900  1
  Cu  Cu13  1  0.01037300  0.75696800  0.75000000  1
  Cu  Cu14  1  0.33333300  0.66666700  0.00370100  1
  Cu  Cu15  1  0.74659500  0.98962700  0.75000000  1
  C  C16  1  0.00000000  0.00000000  0.00000000  1
  C  C17  1  0.00000000  0.00000000  0.50000000  1
  C  C18  1  0.90867000  0.64379600  0.06694000  1
  C  C19  1  0.26487400  0.90867000  0.93306000  1
  C  C20  1  0.64379600  0.73512600  0.93306000  1
  C  C21  1  0.50699100  0.83552700  0.25000000  1
  C  C22  1  0.32853700  0.49300900  0.25000000  1
  C  C23  1  0.51712700  0.11513900  0.25000000  1
  C  C24  1  0.26487400  0.90867000  0.56694000  1
  C  C25  1  0.35620400  0.26487400  0.43306000  1
  C  C26  1  0.90867000  0.64379600  0.43306000  1
  C  C27  1  0.09133000  0.35620400  0.93306000  1
  C  C28  1  0.11513900  0.59801100  0.75000000  1
  C  C29  1  0.59801100  0.48287300  0.25000000  1
  C  C30  1  0.88486100  0.40198900  0.25000000  1
  C  C31  1  0.67146300  0.50699100  0.75000000  1
  C  C32  1  0.83552700  0.32853700  0.75000000  1
  C  C33  1  0.40198900  0.51712700  0.75000000  1
  C  C34  1  0.16447300  0.67146300  0.25000000  1
  C  C35  1  0.64379600  0.73512600  0.56694000  1
  C  C36  1  0.09133000  0.35620400  0.56694000  1
  C  C37  1  0.73512600  0.09133000  0.06694000  1
  C  C38  1  0.73512600  0.09133000  0.43306000  1
  C  C39  1  0.48287300  0.88486100  0.75000000  1
  C  C40  1  0.35620400  0.26487400  0.06694000  1
  C  C41  1  0.49300900  0.16447300  0.75000000  1
