# generated using pymatgen
data_Cu3NiC2
_symmetry_space_group_name_H-M   'P 1'
_cell_length_a   7.29338279
_cell_length_b   7.29338279
_cell_length_c   4.97384200
_cell_angle_alpha   90.00000000
_cell_angle_beta   90.00000000
_cell_angle_gamma   120.00000714
_symmetry_Int_Tables_number   1
_chemical_formula_structural   Cu3NiC2
_chemical_formula_sum   'Cu9 Ni3 C6'
_cell_volume   229.12928568
_cell_formula_units_Z   3
loop_
 _symmetry_equiv_pos_site_id
 _symmetry_equiv_pos_as_xyz
  1  'x, y, z'
loop_
 _atom_site_type_symbol
 _atom_site_label
 _atom_site_symmetry_multiplicity
 _atom_site_fract_x
 _atom_site_fract_y
 _atom_site_fract_z
 _atom_site_occupancy
  C  C0  1  0.67179600  0.67179600  0.00000000  1
  C  C1  1  0.32820400  0.00000000  0.00000000  1
  C  C2  1  0.00000000  0.32820400  0.00000000  1
  Ni  Ni3  1  0.59974600  0.00000000  0.50000000  1
  Ni  Ni4  1  0.00000000  0.59974600  0.50000000  1
  Ni  Ni5  1  0.40025400  0.40025400  0.50000000  1
  Cu  Cu6  1  0.00000000  0.68384900  0.27141600  1
  Cu  Cu7  1  0.31615100  0.31615100  0.72858400  1
  Cu  Cu8  1  0.68384900  0.00000000  0.27141600  1
  Cu  Cu9  1  0.42043000  0.00000000  0.50000000  1
  Cu  Cu10  1  0.00000000  0.68384900  0.72858400  1
  Cu  Cu11  1  0.68384900  0.00000000  0.72858400  1
  Cu  Cu12  1  0.31615100  0.31615100  0.27141600  1
  Cu  Cu13  1  0.57957000  0.57957000  0.50000000  1
  Cu  Cu14  1  0.00000000  0.42043000  0.50000000  1
  C  C15  1  0.00000000  0.00000000  0.00000000  1
  C  C16  1  0.66666700  0.33333300  0.00000000  1
  C  C17  1  0.33333300  0.66666700  0.00000000  1
