# generated using pymatgen
data_Cu2Ni2C35
_symmetry_space_group_name_H-M   'P 1'
_cell_length_a   7.84403600
_cell_length_b   8.26517558
_cell_length_c   8.28261388
_cell_angle_alpha   88.09039550
_cell_angle_beta   107.27932100
_cell_angle_gamma   99.45569859
_symmetry_Int_Tables_number   1
_chemical_formula_structural   Cu2Ni2C35
_chemical_formula_sum   'Cu2 Ni2 C35'
_cell_volume   505.71120593
_cell_formula_units_Z   1
loop_
 _symmetry_equiv_pos_site_id
 _symmetry_equiv_pos_as_xyz
  1  'x, y, z'
loop_
 _atom_site_type_symbol
 _atom_site_label
 _atom_site_symmetry_multiplicity
 _atom_site_fract_x
 _atom_site_fract_y
 _atom_site_fract_z
 _atom_site_occupancy
  Ni  Ni0  1  0.06788700  0.16911300  0.48108600  1
  Ni  Ni1  1  0.91084000  0.77505900  0.41761000  1
  Cu  Cu2  1  0.82135800  0.23710000  0.05419000  1
  Cu  Cu3  1  0.29707600  0.83851500  0.65386900  1
  C  C4  1  0.57215600  0.02292800  0.10815100  1
  C  C5  1  0.68332100  0.08391300  0.60205400  1
  C  C6  1  0.89011300  0.11698900  0.95753600  1
  C  C7  1  0.42292600  0.21079500  0.66137500  1
  C  C8  1  0.41961200  0.22499600  0.44336000  1
  C  C9  1  0.77619800  0.34580500  0.89545400  1
  C  C10  1  0.48098900  0.39503500  0.10737400  1
  C  C11  1  0.88385000  0.33360000  0.67354100  1
  C  C12  1  0.22893000  0.36124300  0.12031900  1
  C  C13  1  0.37836200  0.39310000  0.54997100  1
  C  C14  1  0.56898700  0.62014600  0.44313900  1
  C  C15  1  0.86190400  0.57741600  0.79278700  1
  C  C16  1  0.85333000  0.66506000  0.77030800  1
  C  C17  1  0.19655600  0.59695200  0.42431800  1
  C  C18  1  0.55315600  0.67966400  0.87736800  1
  C  C19  1  0.17458700  0.61180300  0.01762900  1
  C  C20  1  0.68411500  0.99438900  0.59007800  1
  C  C21  1  0.54093100  0.81753100  0.33249100  1
  C  C22  1  0.08313500  0.91130400  0.93301300  1
  C  C23  1  0.33359900  0.90620100  0.48739100  1
  C  C24  1  0.50410400  0.08361400  0.89123500  1
  C  C25  1  0.15577600  0.95651400  0.16411200  1
  C  C26  1  0.57273800  0.12615400  0.02189600  1
  C  C27  1  0.89580000  0.35027600  0.54367900  1
  C  C28  1  0.35837500  0.25938200  0.53702800  1
  C  C29  1  0.63218300  0.74010900  0.41038700  1
  C  C30  1  0.14132600  0.86857500  0.06265500  1
  C  C31  1  0.15150200  0.62769900  0.53335500  1
  C  C32  1  0.18213000  0.72152400  0.09093300  1
  C  C33  1  0.36535400  0.25917400  0.07893400  1
  C  C34  1  0.62329000  0.63817600  0.03266200  1
  C  C35  1  0.94181100  0.99273200  0.30093600  1
  C  C36  1  0.78677200  0.41359800  0.43087400  1
  C  C37  1  0.11902500  0.50903000  0.63548000  1
  C  C38  1  0.09630000  0.94108300  0.63642300  1
