# generated using pymatgen
data_Cu8NiC4
_symmetry_space_group_name_H-M   'P 1'
_cell_length_a   7.66262476
_cell_length_b   7.66262476
_cell_length_c   7.66262556
_cell_angle_alpha   60.13647611
_cell_angle_beta   60.13647611
_cell_angle_gamma   60.13647562
_symmetry_Int_Tables_number   1
_chemical_formula_structural   Cu8NiC4
_chemical_formula_sum   'Cu8 Ni1 C4'
_cell_volume   319.12314786
_cell_formula_units_Z   1
loop_
 _symmetry_equiv_pos_site_id
 _symmetry_equiv_pos_as_xyz
  1  'x, y, z'
loop_
 _atom_site_type_symbol
 _atom_site_label
 _atom_site_symmetry_multiplicity
 _atom_site_fract_x
 _atom_site_fract_y
 _atom_site_fract_z
 _atom_site_occupancy
  C  C0  1  0.47228000  0.00986000  0.00986000  1
  C  C1  1  0.00986000  0.00986000  0.47228000  1
  C  C2  1  0.00986000  0.47228000  0.00986000  1
  C  C3  1  0.62770100  0.62770100  0.62770100  1
  Ni  Ni4  1  0.01056900  0.01056900  0.01056900  1
  Cu  Cu5  1  0.24260700  0.24260700  0.75743800  1
  Cu  Cu6  1  0.75743800  0.24260700  0.24260700  1
  Cu  Cu7  1  0.24260700  0.75743800  0.24260700  1
  Cu  Cu8  1  0.24640500  0.24640500  0.24640500  1
  Cu  Cu9  1  0.76164100  0.76164100  0.76164100  1
  Cu  Cu10  1  0.76162200  0.22079200  0.76162200  1
  Cu  Cu11  1  0.22079200  0.76162200  0.76162200  1
  Cu  Cu12  1  0.76162200  0.76162200  0.22079200  1
