# generated using pymatgen
data_CuNiC7
_symmetry_space_group_name_H-M   'P 1'
_cell_length_a   7.69699510
_cell_length_b   7.69699510
_cell_length_c   10.75447843
_cell_angle_alpha   77.99378758
_cell_angle_beta   77.99378758
_cell_angle_gamma   51.83495279
_symmetry_Int_Tables_number   1
_chemical_formula_structural   CuNiC7
_chemical_formula_sum   'Cu4 Ni4 C28'
_cell_volume   487.35590618
_cell_formula_units_Z   4
loop_
 _symmetry_equiv_pos_site_id
 _symmetry_equiv_pos_as_xyz
  1  'x, y, z'
loop_
 _atom_site_type_symbol
 _atom_site_label
 _atom_site_symmetry_multiplicity
 _atom_site_fract_x
 _atom_site_fract_y
 _atom_site_fract_z
 _atom_site_occupancy
  Ni  Ni0  1  0.00000000  0.50000000  0.50000000  1
  Ni  Ni1  1  0.50000000  0.00000000  0.00000000  1
  Ni  Ni2  1  0.24289000  0.75711000  0.25000000  1
  Ni  Ni3  1  0.75711000  0.24289000  0.75000000  1
  Cu  Cu4  1  0.65536300  0.17972000  0.43703600  1
  Cu  Cu5  1  0.82028000  0.34463700  0.06296400  1
  Cu  Cu6  1  0.34463700  0.82028000  0.56296400  1
  Cu  Cu7  1  0.17972000  0.65536300  0.93703600  1
  C  C8  1  0.08782100  0.27268400  0.29569400  1
  C  C9  1  0.72731600  0.91217900  0.20430600  1
  C  C10  1  0.91217900  0.72731600  0.70430600  1
  C  C11  1  0.27268400  0.08782100  0.79569400  1
  C  C12  1  0.17457400  0.41634900  0.24732500  1
  C  C13  1  0.58365100  0.82542600  0.25267500  1
  C  C14  1  0.82542600  0.58365100  0.75267500  1
  C  C15  1  0.41634900  0.17457400  0.74732500  1
  C  C16  1  0.04988900  0.42083200  0.29831500  1
  C  C17  1  0.57916800  0.95011100  0.20168500  1
  C  C18  1  0.95011100  0.57916800  0.70168500  1
  C  C19  1  0.42083200  0.04988900  0.79831500  1
  C  C20  1  0.14808200  0.63710500  0.43734800  1
  C  C21  1  0.36289500  0.85191800  0.06265200  1
  C  C22  1  0.85191800  0.36289500  0.56265200  1
  C  C23  1  0.63710500  0.14808200  0.93734800  1
  C  C24  1  0.72776000  0.77321200  0.46671400  1
  C  C25  1  0.22678800  0.27224000  0.03328600  1
  C  C26  1  0.27224000  0.22678800  0.53328600  1
  C  C27  1  0.77321200  0.72776000  0.96671400  1
  C  C28  1  0.97403600  0.88413400  0.18491700  1
  C  C29  1  0.11586600  0.02596400  0.31508300  1
  C  C30  1  0.02596400  0.11586600  0.81508300  1
  C  C31  1  0.88413400  0.97403600  0.68491700  1
  C  C32  1  0.36689900  0.48617900  0.18872500  1
  C  C33  1  0.51382100  0.63310100  0.31127500  1
  C  C34  1  0.63310100  0.51382100  0.81127500  1
  C  C35  1  0.48617900  0.36689900  0.68872500  1
