# generated using pymatgen
data_Cu17(Ni2C3)2
_symmetry_space_group_name_H-M   'P 1'
_cell_length_a   9.01100829
_cell_length_b   10.06565539
_cell_length_c   14.33625728
_cell_angle_alpha   82.26872617
_cell_angle_beta   86.86345495
_cell_angle_gamma   89.24233313
_symmetry_Int_Tables_number   1
_chemical_formula_structural   Cu17(Ni2C3)2
_chemical_formula_sum   'Cu34 Ni8 C12'
_cell_volume   1286.55012784
_cell_formula_units_Z   2
loop_
 _symmetry_equiv_pos_site_id
 _symmetry_equiv_pos_as_xyz
  1  'x, y, z'
loop_
 _atom_site_type_symbol
 _atom_site_label
 _atom_site_symmetry_multiplicity
 _atom_site_fract_x
 _atom_site_fract_y
 _atom_site_fract_z
 _atom_site_occupancy
  C  C0  1  0.17050883  0.08854524  0.65803496  1
  C  C1  1  0.52036416  0.26834603  0.45847705  1
  C  C2  1  0.60604412  0.88470310  0.81721935  1
  C  C3  1  0.13025033  0.43055513  0.32550615  1
  C  C4  1  0.41788293  0.42104200  0.83338833  1
  C  C5  1  0.94859567  0.23877152  0.00057413  1
  C  C6  1  0.39395588  0.11529690  0.18278065  1
  C  C7  1  0.47963584  0.73165397  0.54152295  1
  C  C8  1  0.86974967  0.56944487  0.67449385  1
  C  C9  1  0.82949117  0.91145476  0.34196504  1
  C  C10  1  0.05140433  0.76122848  0.99942587  1
  C  C11  1  0.58211707  0.57895800  0.16661167  1
  Ni  Ni12  1  0.77374591  0.55846921  0.39426436  1
  Ni  Ni13  1  0.75236098  0.55941491  0.92284882  1
  Ni  Ni14  1  0.25098051  0.99911680  0.41526937  1
  Ni  Ni15  1  0.73083429  0.93787745  0.09914280  1
  Ni  Ni16  1  0.26916571  0.06212255  0.90085720  1
  Ni  Ni17  1  0.22625409  0.44153079  0.60573564  1
  Ni  Ni18  1  0.24763902  0.44058509  0.07715118  1
  Ni  Ni19  1  0.74901949  0.00088320  0.58473063  1
  Cu  Cu20  1  0.74648652  0.11339424  0.16738890  1
  Cu  Cu21  1  0.13265397  0.21666200  0.83268039  1
  Cu  Cu22  1  0.20317870  0.58962547  0.69548979  1
  Cu  Cu23  1  0.57128223  0.64597041  0.72115710  1
  Cu  Cu24  1  0.01818221  0.34717604  0.60287734  1
  Cu  Cu25  1  0.31710454  0.51868745  0.46659132  1
  Cu  Cu26  1  0.39419032  0.29941208  0.65370370  1
  Cu  Cu27  1  0.85464770  0.02855133  0.70733263  1
  Cu  Cu28  1  0.45784180  0.35276159  0.04900708  1
  Cu  Cu29  1  0.60580968  0.70058792  0.34629630  1
  Cu  Cu30  1  0.88401179  0.71121801  0.83845454  1
  Cu  Cu31  1  0.49103648  0.12754544  0.88590889  1
  Cu  Cu32  1  0.24232066  0.61338095  0.15004986  1
  Cu  Cu33  1  0.75767934  0.38661905  0.84995014  1
  Cu  Cu34  1  0.83908346  0.50162954  0.05679733  1
  Cu  Cu35  1  0.50896352  0.87245456  0.11409111  1
  Cu  Cu36  1  0.19157085  0.86620713  0.53682498  1
  Cu  Cu37  1  0.11598821  0.28878199  0.16154546  1
  Cu  Cu38  1  0.82163809  0.98128628  0.95688254  1
  Cu  Cu39  1  0.51525638  0.99428173  0.62310308  1
  Cu  Cu40  1  0.86734603  0.78333800  0.16731961  1
  Cu  Cu41  1  0.16091654  0.49837046  0.94320267  1
  Cu  Cu42  1  0.54215820  0.64723841  0.95099292  1
  Cu  Cu43  1  0.68289546  0.48131255  0.53340868  1
  Cu  Cu44  1  0.17836191  0.01871372  0.04311746  1
  Cu  Cu45  1  0.80842915  0.13379287  0.46317502  1
  Cu  Cu46  1  0.48474362  0.00571827  0.37689692  1
  Cu  Cu47  1  0.79332364  0.80894365  0.54021635  1
  Cu  Cu48  1  0.25351348  0.88660576  0.83261110  1
  Cu  Cu49  1  0.42871777  0.35402959  0.27884290  1
  Cu  Cu50  1  0.14535230  0.97144867  0.29266737  1
  Cu  Cu51  1  0.20667636  0.19105635  0.45978365  1
  Cu  Cu52  1  0.98181779  0.65282396  0.39712266  1
  Cu  Cu53  1  0.79682130  0.41037453  0.30451021  1
