# generated using pymatgen
data_Cu(NiC2)5
_symmetry_space_group_name_H-M   'P 1'
_cell_length_a   10.76209200
_cell_length_b   7.94878900
_cell_length_c   10.44602606
_cell_angle_alpha   80.60270339
_cell_angle_beta   90.00000000
_cell_angle_gamma   90.00000000
_symmetry_Int_Tables_number   1
_chemical_formula_structural   Cu(NiC2)5
_chemical_formula_sum   'Cu4 Ni20 C40'
_cell_volume   881.61916537
_cell_formula_units_Z   4
loop_
 _symmetry_equiv_pos_site_id
 _symmetry_equiv_pos_as_xyz
  1  'x, y, z'
loop_
 _atom_site_type_symbol
 _atom_site_label
 _atom_site_symmetry_multiplicity
 _atom_site_fract_x
 _atom_site_fract_y
 _atom_site_fract_z
 _atom_site_occupancy
  C  C0  1  0.13741500  0.58144700  0.13058500  1
  C  C1  1  0.63741500  0.41855300  0.36941500  1
  C  C2  1  0.36258500  0.58144700  0.63058500  1
  C  C3  1  0.86258500  0.41855300  0.86941500  1
  C  C4  1  0.18324300  0.48333500  0.84302400  1
  C  C5  1  0.81675700  0.51666500  0.15697600  1
  C  C6  1  0.31675700  0.48333500  0.34302400  1
  C  C7  1  0.68324300  0.51666500  0.65697600  1
  Ni  Ni8  1  0.67677800  0.04486800  0.33755500  1
  Ni  Ni9  1  0.91650000  0.45502100  0.35166900  1
  Ni  Ni10  1  0.17677800  0.95513200  0.16244500  1
  Ni  Ni11  1  0.87456700  0.67333200  0.61145000  1
  Ni  Ni12  1  0.88791100  0.26933100  0.10014100  1
  Ni  Ni13  1  0.62543300  0.67333200  0.11145000  1
  Ni  Ni14  1  0.52133000  0.83078500  0.90951800  1
  Ni  Ni15  1  0.08350000  0.54497900  0.64833100  1
  Ni  Ni16  1  0.38791100  0.73066900  0.39985900  1
  Ni  Ni17  1  0.97867000  0.83078500  0.40951800  1
  Ni  Ni18  1  0.41650000  0.54497900  0.14833100  1
  Ni  Ni19  1  0.47867000  0.16921500  0.09048200  1
  Ni  Ni20  1  0.11208900  0.73066900  0.89985900  1
  Ni  Ni21  1  0.12543300  0.32666800  0.38855000  1
  Ni  Ni22  1  0.82322200  0.04486800  0.83755500  1
  Ni  Ni23  1  0.58350000  0.45502100  0.85166900  1
  Ni  Ni24  1  0.37456700  0.32666800  0.88855000  1
  Ni  Ni25  1  0.61208900  0.26933100  0.60014100  1
  Ni  Ni26  1  0.32322200  0.95513200  0.66244500  1
  Ni  Ni27  1  0.02133000  0.16921500  0.59048200  1
  Cu  Cu28  1  0.96866100  0.98443700  0.93690600  1
  Cu  Cu29  1  0.03133900  0.01556300  0.06309400  1
  Cu  Cu30  1  0.53133900  0.98443700  0.43690600  1
  Cu  Cu31  1  0.46866100  0.01556300  0.56309400  1
  C  C32  1  0.33610600  0.22093600  0.94075300  1
  C  C33  1  0.86425400  0.07547400  0.91464600  1
  C  C34  1  0.67680500  0.35658600  0.56781200  1
  C  C35  1  0.79489500  0.71416000  0.07089300  1
  C  C36  1  0.95987200  0.56320800  0.14291300  1
  C  C37  1  0.54012800  0.56320800  0.64291300  1
  C  C38  1  0.16940900  0.51009600  0.31772100  1
  C  C39  1  0.29489500  0.28584000  0.42910700  1
  C  C40  1  0.70510500  0.71416000  0.57089300  1
  C  C41  1  0.20510500  0.28584000  0.92910700  1
  C  C42  1  0.66940900  0.48990400  0.18227900  1
  C  C43  1  0.00966400  0.89011800  0.86563200  1
  C  C44  1  0.82319500  0.35658600  0.06781200  1
  C  C45  1  0.83399600  0.43383100  0.31844900  1
  C  C46  1  0.66600400  0.43383100  0.81844900  1
  C  C47  1  0.33399600  0.56616900  0.18155100  1
  C  C48  1  0.16600400  0.56616900  0.68155100  1
  C  C49  1  0.49033600  0.89011800  0.36563200  1
  C  C50  1  0.66389400  0.77906400  0.05924700  1
  C  C51  1  0.13574600  0.92452600  0.08535400  1
  C  C52  1  0.50966400  0.10988200  0.63436800  1
  C  C53  1  0.83059100  0.48990400  0.68227900  1
  C  C54  1  0.32319500  0.64341400  0.43218800  1
  C  C55  1  0.63574600  0.07547400  0.41464600  1
  C  C56  1  0.33059100  0.51009600  0.81772100  1
  C  C57  1  0.36425400  0.92452600  0.58535400  1
  C  C58  1  0.83610600  0.77906400  0.55924700  1
  C  C59  1  0.17680500  0.64341400  0.93218800  1
  C  C60  1  0.45987200  0.43679200  0.35708700  1
  C  C61  1  0.99033600  0.10988200  0.13436800  1
  C  C62  1  0.04012800  0.43679200  0.85708700  1
  C  C63  1  0.16389400  0.22093600  0.44075300  1
