# generated using pymatgen
data_Cu2Ni7C6
_symmetry_space_group_name_H-M   'P 1'
_cell_length_a   7.31031900
_cell_length_b   11.11279000
_cell_length_c   11.89247900
_cell_angle_alpha   90.00000000
_cell_angle_beta   90.00000000
_cell_angle_gamma   90.00000000
_symmetry_Int_Tables_number   1
_chemical_formula_structural   Cu2Ni7C6
_chemical_formula_sum   'Cu8 Ni28 C24'
_cell_volume   966.12168327
_cell_formula_units_Z   4
loop_
 _symmetry_equiv_pos_site_id
 _symmetry_equiv_pos_as_xyz
  1  'x, y, z'
loop_
 _atom_site_type_symbol
 _atom_site_label
 _atom_site_symmetry_multiplicity
 _atom_site_fract_x
 _atom_site_fract_y
 _atom_site_fract_z
 _atom_site_occupancy
  C  C0  1  0.57282400  0.95121400  0.18478800  1
  C  C1  1  0.92717600  0.45121400  0.31521200  1
  C  C2  1  0.92717600  0.95121400  0.68478800  1
  C  C3  1  0.57282400  0.45121400  0.81521200  1
  C  C4  1  0.07282400  0.04878600  0.31521200  1
  C  C5  1  0.42717600  0.04878600  0.81521200  1
  C  C6  1  0.07282400  0.54878600  0.68478800  1
  C  C7  1  0.42717600  0.54878600  0.18478800  1
  C  C8  1  0.00000000  0.75000000  0.11518400  1
  C  C9  1  0.50000000  0.25000000  0.38481600  1
  C  C10  1  0.50000000  0.75000000  0.61518400  1
  C  C11  1  0.00000000  0.50000000  0.00000000  1
  C  C12  1  0.00000000  0.00000000  0.00000000  1
  C  C13  1  0.00000000  0.25000000  0.88481600  1
  C  C14  1  0.50000000  0.00000000  0.50000000  1
  C  C15  1  0.50000000  0.50000000  0.50000000  1
  C  C16  1  0.19463400  0.71809300  0.41555400  1
  C  C17  1  0.69463400  0.78190700  0.91555400  1
  C  C18  1  0.69463400  0.28190700  0.08444600  1
  C  C19  1  0.30536600  0.21809300  0.08444600  1
  C  C20  1  0.19463400  0.21809300  0.58444600  1
  C  C21  1  0.80536600  0.28190700  0.58444600  1
  C  C22  1  0.30536600  0.71809300  0.91555400  1
  C  C23  1  0.80536600  0.78190700  0.41555400  1
  Ni  Ni24  1  0.72546400  0.70651000  0.01809000  1
  Ni  Ni25  1  0.77453600  0.70651000  0.51809000  1
  Ni  Ni26  1  0.27453600  0.29349000  0.98191000  1
  Ni  Ni27  1  0.44080900  0.08354600  0.36562500  1
  Ni  Ni28  1  0.22546400  0.29349000  0.48191000  1
  Ni  Ni29  1  0.27748700  0.08473300  0.08506200  1
  Ni  Ni30  1  0.00000000  0.25000000  0.64194100  1
  Ni  Ni31  1  0.00000000  0.75000000  0.35805900  1
  Ni  Ni32  1  0.55919100  0.41645400  0.36562500  1
  Ni  Ni33  1  0.27748700  0.58473300  0.91493800  1
  Ni  Ni34  1  0.22251300  0.58473300  0.41493800  1
  Ni  Ni35  1  0.72251300  0.41526700  0.08506200  1
  Ni  Ni36  1  0.72251300  0.91526700  0.91493800  1
  Ni  Ni37  1  0.94080900  0.91645400  0.13437500  1
  Ni  Ni38  1  0.72546400  0.20651000  0.98191000  1
  Ni  Ni39  1  0.44080900  0.58354600  0.63437500  1
  Ni  Ni40  1  0.22251300  0.08473300  0.58506200  1
  Ni  Ni41  1  0.55919100  0.91645400  0.63437500  1
  Ni  Ni42  1  0.27453600  0.79349000  0.01809000  1
  Ni  Ni43  1  0.22546400  0.79349000  0.51809000  1
  Ni  Ni44  1  0.77453600  0.20651000  0.48191000  1
  Ni  Ni45  1  0.50000000  0.25000000  0.14194100  1
  Ni  Ni46  1  0.77748700  0.41526700  0.58506200  1
  Ni  Ni47  1  0.94080900  0.41645400  0.86562500  1
  Ni  Ni48  1  0.05919100  0.08354600  0.86562500  1
  Ni  Ni49  1  0.77748700  0.91526700  0.41493800  1
  Ni  Ni50  1  0.05919100  0.58354600  0.13437500  1
  Ni  Ni51  1  0.50000000  0.75000000  0.85805900  1
  Cu  Cu52  1  0.31527800  0.77332500  0.31494700  1
  Cu  Cu53  1  0.68472200  0.22667500  0.68505300  1
  Cu  Cu54  1  0.18472200  0.27332500  0.18505300  1
  Cu  Cu55  1  0.31527800  0.27332500  0.68505300  1
  Cu  Cu56  1  0.81527800  0.72667500  0.81494700  1
  Cu  Cu57  1  0.18472200  0.77332500  0.81494700  1
  Cu  Cu58  1  0.68472200  0.72667500  0.31494700  1
  Cu  Cu59  1  0.81527800  0.22667500  0.18505300  1
