# generated using pymatgen
data_Cu2NiC
_symmetry_space_group_name_H-M   'P 1'
_cell_length_a   5.75923200
_cell_length_b   7.09335000
_cell_length_c   7.65134100
_cell_angle_alpha   90.00000000
_cell_angle_beta   90.00000000
_cell_angle_gamma   90.00000000
_symmetry_Int_Tables_number   1
_chemical_formula_structural   Cu2NiC
_chemical_formula_sum   'Cu8 Ni4 C4'
_cell_volume   312.57448242
_cell_formula_units_Z   4
loop_
 _symmetry_equiv_pos_site_id
 _symmetry_equiv_pos_as_xyz
  1  'x, y, z'
loop_
 _atom_site_type_symbol
 _atom_site_label
 _atom_site_symmetry_multiplicity
 _atom_site_fract_x
 _atom_site_fract_y
 _atom_site_fract_z
 _atom_site_occupancy
  C  C0  1  0.84454900  0.25000000  0.46569800  1
  C  C1  1  0.15545100  0.75000000  0.53430200  1
  C  C2  1  0.34454900  0.75000000  0.03430200  1
  C  C3  1  0.65545100  0.25000000  0.96569800  1
  Ni  Ni4  1  0.65292500  0.75000000  0.38190900  1
  Ni  Ni5  1  0.34707500  0.25000000  0.61809100  1
  Ni  Ni6  1  0.84707500  0.75000000  0.88190900  1
  Ni  Ni7  1  0.15292500  0.25000000  0.11809100  1
  Cu  Cu8  1  0.91346100  0.55046500  0.17924700  1
  Cu  Cu9  1  0.58653900  0.94953500  0.67924700  1
  Cu  Cu10  1  0.58653900  0.55046500  0.67924700  1
  Cu  Cu11  1  0.41346100  0.44953500  0.32075300  1
  Cu  Cu12  1  0.41346100  0.05046500  0.32075300  1
  Cu  Cu13  1  0.91346100  0.94953500  0.17924700  1
  Cu  Cu14  1  0.08653900  0.05046500  0.82075300  1
  Cu  Cu15  1  0.08653900  0.44953500  0.82075300  1
