# generated using pymatgen
data_Cu8Ni4C
_symmetry_space_group_name_H-M   'P 1'
_cell_length_a   11.92724400
_cell_length_b   7.96841100
_cell_length_c   12.76897426
_cell_angle_alpha   85.39738006
_cell_angle_beta   90.00000000
_cell_angle_gamma   90.00000000
_symmetry_Int_Tables_number   1
_chemical_formula_structural   Cu8Ni4C
_chemical_formula_sum   'Cu64 Ni32 C8'
_cell_volume   1209.66487482
_cell_formula_units_Z   8
loop_
 _symmetry_equiv_pos_site_id
 _symmetry_equiv_pos_as_xyz
  1  'x, y, z'
loop_
 _atom_site_type_symbol
 _atom_site_label
 _atom_site_symmetry_multiplicity
 _atom_site_fract_x
 _atom_site_fract_y
 _atom_site_fract_z
 _atom_site_occupancy
  C  C0  1  0.03263600  0.22289200  0.88918000  1
  C  C1  1  0.53263600  0.27710800  0.11082000  1
  C  C2  1  0.43555100  0.15682000  0.40404800  1
  C  C3  1  0.06444900  0.65682000  0.40404800  1
  C  C4  1  0.46736400  0.72289200  0.88918000  1
  C  C5  1  0.93555100  0.34318000  0.59595200  1
  C  C6  1  0.56444900  0.84318000  0.59595200  1
  C  C7  1  0.96736400  0.77710800  0.11082000  1
  Ni  Ni8  1  0.72506200  0.35212100  0.24059000  1
  Ni  Ni9  1  0.17168200  0.24243600  0.58771700  1
  Ni  Ni10  1  0.19442500  0.17378400  0.05328700  1
  Ni  Ni11  1  0.88311100  0.95936500  0.28332900  1
  Ni  Ni12  1  0.69442500  0.32621600  0.94671300  1
  Ni  Ni13  1  0.77493800  0.85212100  0.24059000  1
  Ni  Ni14  1  0.80557500  0.82621600  0.94671300  1
  Ni  Ni15  1  0.83778000  0.61019900  0.32841800  1
  Ni  Ni16  1  0.51871700  0.37678900  0.85842900  1
  Ni  Ni17  1  0.67168200  0.25756400  0.41228300  1
  Ni  Ni18  1  0.98128300  0.87678900  0.85842900  1
  Ni  Ni19  1  0.37344600  0.50647600  0.18659000  1
  Ni  Ni20  1  0.67745900  0.51332000  0.99481600  1
  Ni  Ni21  1  0.11688900  0.04063500  0.71667100  1
  Ni  Ni22  1  0.82254100  0.01332000  0.99481600  1
  Ni  Ni23  1  0.17745900  0.98668000  0.00518400  1
  Ni  Ni24  1  0.82831800  0.75756400  0.41228300  1
  Ni  Ni25  1  0.32254100  0.48668000  0.00518400  1
  Ni  Ni26  1  0.30557500  0.67378400  0.05328700  1
  Ni  Ni27  1  0.38311100  0.54063500  0.71667100  1
  Ni  Ni28  1  0.32831800  0.74243600  0.58771700  1
  Ni  Ni29  1  0.12655400  0.00647600  0.18659000  1
  Ni  Ni30  1  0.48128300  0.62321100  0.14157100  1
  Ni  Ni31  1  0.33778000  0.88980100  0.67158200  1
  Ni  Ni32  1  0.62655400  0.49352400  0.81341000  1
  Ni  Ni33  1  0.22506200  0.14787900  0.75941000  1
  Ni  Ni34  1  0.66222000  0.11019900  0.32841800  1
  Ni  Ni35  1  0.16222000  0.38980100  0.67158200  1
  Ni  Ni36  1  0.27493800  0.64787900  0.75941000  1
  Ni  Ni37  1  0.87344600  0.99352400  0.81341000  1
  Ni  Ni38  1  0.61688900  0.45936500  0.28332900  1
  Ni  Ni39  1  0.01871700  0.12321100  0.14157100  1
  Cu  Cu40  1  0.37303100  0.77968000  0.65118800  1
  Cu  Cu41  1  0.85886800  0.84370000  0.26016600  1
  Cu  Cu42  1  0.04738400  0.71020700  0.64272100  1
  Cu  Cu43  1  0.24463700  0.58266300  0.47406600  1
  Cu  Cu44  1  0.17841800  0.37861700  0.17199000  1
  Cu  Cu45  1  0.37849200  0.08396000  0.93191200  1
  Cu  Cu46  1  0.10993700  0.94739000  0.38598100  1
  Cu  Cu47  1  0.62696900  0.22032000  0.34881200  1
  Cu  Cu48  1  0.75536300  0.41733700  0.52593400  1
  Cu  Cu49  1  0.40388100  0.20706100  0.97245400  1
  Cu  Cu50  1  0.60993700  0.55261000  0.61401900  1
  Cu  Cu51  1  0.09829600  0.77603700  0.70663200  1
  Cu  Cu52  1  0.15209600  0.46454700  0.88946300  1
  Cu  Cu53  1  0.59829600  0.72396300  0.29336800  1
  Cu  Cu54  1  0.59611900  0.79293900  0.02754600  1
  Cu  Cu55  1  0.32158200  0.87861700  0.17199000  1
  Cu  Cu56  1  0.18385800  0.01303800  0.42935700  1
  Cu  Cu57  1  0.63472200  0.00116900  0.80079400  1
  Cu  Cu58  1  0.99475300  0.64268700  0.57769700  1
  Cu  Cu59  1  0.90388100  0.29293900  0.02754600  1
  Cu  Cu60  1  0.13610700  0.08800500  0.03191400  1
  Cu  Cu61  1  0.65209600  0.03545300  0.11053700  1
  Cu  Cu62  1  0.36389300  0.58800500  0.03191400  1
  Cu  Cu63  1  0.95261600  0.28979300  0.35727900  1
  Cu  Cu64  1  0.90924300  0.37543500  0.77318000  1
  Cu  Cu65  1  0.84790400  0.53545300  0.11053700  1
  Cu  Cu66  1  0.12696900  0.27968000  0.65118800  1
  Cu  Cu67  1  0.64113200  0.34370000  0.26016600  1
  Cu  Cu68  1  0.89006300  0.05261000  0.61401900  1
  Cu  Cu69  1  0.09075700  0.62456500  0.22682000  1
  Cu  Cu70  1  0.34790400  0.96454700  0.88946300  1
  Cu  Cu71  1  0.87303100  0.72032000  0.34881200  1
  Cu  Cu72  1  0.40924300  0.12456500  0.22682000  1
  Cu  Cu73  1  0.67841800  0.12138300  0.82801000  1
  Cu  Cu74  1  0.12150800  0.58396000  0.93191200  1
  Cu  Cu75  1  0.35886800  0.65630000  0.73983400  1
  Cu  Cu76  1  0.31614200  0.51303800  0.42935700  1
  Cu  Cu77  1  0.49475300  0.85731300  0.42230300  1
  Cu  Cu78  1  0.50524700  0.14268700  0.57769700  1
  Cu  Cu79  1  0.74463700  0.91733700  0.52593400  1
  Cu  Cu80  1  0.81614200  0.98696200  0.57064300  1
  Cu  Cu81  1  0.40170400  0.27603700  0.70663200  1
  Cu  Cu82  1  0.09611900  0.70706100  0.97245400  1
  Cu  Cu83  1  0.86527800  0.50116900  0.80079400  1
  Cu  Cu84  1  0.00524700  0.35731300  0.42230300  1
  Cu  Cu85  1  0.59075700  0.87543500  0.77318000  1
  Cu  Cu86  1  0.86389300  0.91199500  0.96808600  1
  Cu  Cu87  1  0.87849200  0.41604000  0.06808800  1
  Cu  Cu88  1  0.63610700  0.41199500  0.96808600  1
  Cu  Cu89  1  0.92726900  0.97108700  0.87605800  1
  Cu  Cu90  1  0.90170400  0.22396300  0.29336800  1
  Cu  Cu91  1  0.07273100  0.02891300  0.12394200  1
  Cu  Cu92  1  0.39006300  0.44739000  0.38598100  1
  Cu  Cu93  1  0.54738400  0.78979300  0.35727900  1
  Cu  Cu94  1  0.42726900  0.52891300  0.12394200  1
  Cu  Cu95  1  0.57273100  0.47108700  0.87605800  1
  Cu  Cu96  1  0.14113200  0.15630000  0.73983400  1
  Cu  Cu97  1  0.45261600  0.21020700  0.64272100  1
  Cu  Cu98  1  0.68385800  0.48696200  0.57064300  1
  Cu  Cu99  1  0.13472200  0.49883100  0.19920600  1
  Cu  Cu100  1  0.82158200  0.62138300  0.82801000  1
  Cu  Cu101  1  0.36527800  0.99883100  0.19920600  1
  Cu  Cu102  1  0.62150800  0.91604000  0.06808800  1
  Cu  Cu103  1  0.25536300  0.08266300  0.47406600  1
