# generated using pymatgen
data_Cu4Ni3C13
_symmetry_space_group_name_H-M   'P 1'
_cell_length_a   9.78481000
_cell_length_b   10.37610400
_cell_length_c   13.37428100
_cell_angle_alpha   90.00000000
_cell_angle_beta   90.00000000
_cell_angle_gamma   90.00000000
_symmetry_Int_Tables_number   1
_chemical_formula_structural   Cu4Ni3C13
_chemical_formula_sum   'Cu32 Ni24 C104'
_cell_volume   1357.86675888
_cell_formula_units_Z   8
loop_
 _symmetry_equiv_pos_site_id
 _symmetry_equiv_pos_as_xyz
  1  'x, y, z'
loop_
 _atom_site_type_symbol
 _atom_site_label
 _atom_site_symmetry_multiplicity
 _atom_site_fract_x
 _atom_site_fract_y
 _atom_site_fract_z
 _atom_site_occupancy
  C  C0  1  0.23380900  0.85481800  0.27936800  1
  C  C1  1  0.06867100  0.26573000  0.56209000  1
  C  C2  1  0.47836000  0.85621300  0.66266100  1
  C  C3  1  0.15019100  0.48887000  0.33416900  1
  C  C4  1  0.91673300  0.28236100  0.91856600  1
  C  C5  1  0.66652500  0.24026300  0.77796500  1
  C  C6  1  0.25180300  0.42965700  0.93791900  1
  C  C7  1  0.75180300  0.07034300  0.56208100  1
  C  C8  1  0.76619100  0.14518200  0.72063200  1
  C  C9  1  0.14307400  0.59798400  0.84899600  1
  C  C10  1  0.66652500  0.24026300  0.22203500  1
  C  C11  1  0.52164000  0.14378700  0.66266100  1
  C  C12  1  0.60936200  0.85563500  0.85667100  1
  C  C13  1  0.73380900  0.64518200  0.22063200  1
  C  C14  1  0.73488000  0.92655700  0.07973100  1
  C  C15  1  0.02164000  0.35621300  0.83733900  1
  C  C16  1  0.26619100  0.35481800  0.22063200  1
  C  C17  1  0.23380900  0.85481800  0.72063200  1
  C  C18  1  0.25180300  0.42965700  0.06208100  1
  C  C19  1  0.58326700  0.78236100  0.58143400  1
  C  C20  1  0.14307400  0.59798400  0.15100400  1
  C  C21  1  0.39063800  0.14436500  0.85667100  1
  C  C22  1  0.08326700  0.71763900  0.91856600  1
  C  C23  1  0.32413500  0.81061000  0.50000000  1
  C  C24  1  0.76619100  0.14518200  0.27936800  1
  C  C25  1  0.47836000  0.85621300  0.33733900  1
  C  C26  1  0.16652500  0.25973700  0.72203500  1
  C  C27  1  0.16652500  0.25973700  0.27796500  1
  C  C28  1  0.30108900  0.83154500  0.00000000  1
  C  C29  1  0.41673300  0.21763900  0.58143400  1
  C  C30  1  0.80108900  0.66845500  0.50000000  1
  C  C31  1  0.91673300  0.28236100  0.08143400  1
  C  C32  1  0.60936200  0.85563500  0.14332900  1
  C  C33  1  0.06867100  0.26573000  0.43791000  1
  C  C34  1  0.43132900  0.76573000  0.06209000  1
  C  C35  1  0.26512000  0.07344300  0.07973100  1
  C  C36  1  0.82413500  0.68939000  0.00000000  1
  C  C37  1  0.89063800  0.35563500  0.35667100  1
  C  C38  1  0.74819700  0.57034300  0.93791900  1
  C  C39  1  0.52164000  0.14378700  0.33733900  1
  C  C40  1  0.75180300  0.07034300  0.43791900  1
  C  C41  1  0.24819700  0.92965700  0.43791900  1
  C  C42  1  0.10936200  0.64436500  0.64332900  1
  C  C43  1  0.43132900  0.76573000  0.93791000  1
  C  C44  1  0.76512000  0.42655700  0.42026900  1
  C  C45  1  0.65019100  0.01113000  0.83416900  1
  C  C46  1  0.76512000  0.42655700  0.57973100  1
  C  C47  1  0.73488000  0.92655700  0.92026900  1
  C  C48  1  0.64307400  0.90201600  0.34899600  1
  C  C49  1  0.67586500  0.18939000  0.50000000  1
  C  C50  1  0.83347500  0.74026300  0.27796500  1
  C  C51  1  0.34980900  0.98887000  0.83416900  1
  C  C52  1  0.23488000  0.57344300  0.57973100  1
  C  C53  1  0.85692600  0.40201600  0.84899600  1
  C  C54  1  0.84980900  0.51113000  0.33416900  1
  C  C55  1  0.64307400  0.90201600  0.65100400  1
  C  C56  1  0.33347500  0.75973700  0.77796500  1
  C  C57  1  0.73380900  0.64518200  0.77936800  1
  C  C58  1  0.10936200  0.64436500  0.35667100  1
  C  C59  1  0.02164000  0.35621300  0.16266100  1
  C  C60  1  0.35692600  0.09798400  0.34899600  1
  C  C61  1  0.24819700  0.92965700  0.56208100  1
  C  C62  1  0.34980900  0.98887000  0.16583100  1
  C  C63  1  0.93132900  0.73427000  0.56209000  1
  C  C64  1  0.17586500  0.31061000  0.00000000  1
  C  C65  1  0.97836000  0.64378700  0.16266100  1
  C  C66  1  0.56867100  0.23427000  0.93791000  1
  C  C67  1  0.85692600  0.40201600  0.15100400  1
  C  C68  1  0.74819700  0.57034300  0.06208100  1
  C  C69  1  0.26619100  0.35481800  0.77936800  1
  C  C70  1  0.23488000  0.57344300  0.42026900  1
  C  C71  1  0.84980900  0.51113000  0.66583100  1
  C  C72  1  0.56867100  0.23427000  0.06209000  1
  C  C73  1  0.26512000  0.07344300  0.92026900  1
  C  C74  1  0.58326700  0.78236100  0.41856600  1
  C  C75  1  0.89063800  0.35563500  0.64332900  1
  C  C76  1  0.83347500  0.74026300  0.72203500  1
  C  C77  1  0.97836000  0.64378700  0.83733900  1
  C  C78  1  0.65019100  0.01113000  0.16583100  1
  C  C79  1  0.41673300  0.21763900  0.41856600  1
  C  C80  1  0.33347500  0.75973700  0.22203500  1
  C  C81  1  0.15019100  0.48887000  0.66583100  1
  C  C82  1  0.19891100  0.33154500  0.50000000  1
  C  C83  1  0.39063800  0.14436500  0.14332900  1
  C  C84  1  0.35692600  0.09798400  0.65100400  1
  C  C85  1  0.93132900  0.73427000  0.43791000  1
  C  C86  1  0.08326700  0.71763900  0.08143400  1
  C  C87  1  0.69891100  0.16845500  0.00000000  1
  C  C88  1  0.50000000  0.00000000  0.50000000  1
  C  C89  1  0.00000000  0.50000000  0.00000000  1
  C  C90  1  0.50000000  0.00000000  0.00000000  1
  C  C91  1  0.00000000  0.50000000  0.50000000  1
  C  C92  1  0.97889700  0.92632100  0.67390700  1
  C  C93  1  0.47889700  0.57367900  0.17390700  1
  C  C94  1  0.49805900  0.42439500  0.50000000  1
  C  C95  1  0.52110300  0.42632100  0.82609300  1
  C  C96  1  0.47889700  0.57367900  0.82609300  1
  C  C97  1  0.02110300  0.07367900  0.67390700  1
  C  C98  1  0.02110300  0.07367900  0.32609300  1
  C  C99  1  0.50194100  0.57560500  0.50000000  1
  C  C100  1  0.52110300  0.42632100  0.17390700  1
  C  C101  1  0.00194100  0.92439500  0.00000000  1
  C  C102  1  0.97889700  0.92632100  0.32609300  1
  C  C103  1  0.99805900  0.07560500  0.00000000  1
  Ni  Ni104  1  0.36049400  0.05904100  0.11101200  1
  Ni  Ni105  1  0.19367000  0.40898900  0.00000000  1
  Ni  Ni106  1  0.36049400  0.05904100  0.88898800  1
  Ni  Ni107  1  0.86049400  0.44095900  0.38898800  1
  Ni  Ni108  1  0.59440900  0.18132600  0.00000000  1
  Ni  Ni109  1  0.94142000  0.37020800  0.88710900  1
  Ni  Ni110  1  0.86049400  0.44095900  0.61101200  1
  Ni  Ni111  1  0.55858000  0.87020800  0.38710900  1
  Ni  Ni112  1  0.05858000  0.62979200  0.88710900  1
  Ni  Ni113  1  0.30633000  0.90898900  0.50000000  1
  Ni  Ni114  1  0.44142000  0.12979200  0.61289100  1
  Ni  Ni115  1  0.09440900  0.31867400  0.50000000  1
  Ni  Ni116  1  0.94142000  0.37020800  0.11289100  1
  Ni  Ni117  1  0.90559100  0.68132600  0.50000000  1
  Ni  Ni118  1  0.55858000  0.87020800  0.61289100  1
  Ni  Ni119  1  0.13950600  0.55904100  0.61101200  1
  Ni  Ni120  1  0.63950600  0.94095900  0.11101200  1
  Ni  Ni121  1  0.40559100  0.81867400  0.00000000  1
  Ni  Ni122  1  0.63950600  0.94095900  0.88898800  1
  Ni  Ni123  1  0.69367000  0.09101100  0.50000000  1
  Ni  Ni124  1  0.05858000  0.62979200  0.11289100  1
  Ni  Ni125  1  0.80633000  0.59101100  0.00000000  1
  Ni  Ni126  1  0.13950600  0.55904100  0.38898800  1
  Ni  Ni127  1  0.44142000  0.12979200  0.38710900  1
  Cu  Cu128  1  0.17217300  0.34801000  0.75092900  1
  Cu  Cu129  1  0.92610200  0.15653800  0.66831400  1
  Cu  Cu130  1  0.85238300  0.89992500  0.67693400  1
  Cu  Cu131  1  0.64761700  0.39992500  0.17693400  1
  Cu  Cu132  1  0.07389800  0.84346200  0.33168600  1
  Cu  Cu133  1  0.32782700  0.84801000  0.74907100  1
  Cu  Cu134  1  0.42610200  0.34346200  0.16831400  1
  Cu  Cu135  1  0.38141500  0.37116000  0.50000000  1
  Cu  Cu136  1  0.67217300  0.15199000  0.25092900  1
  Cu  Cu137  1  0.57389800  0.65653800  0.83168600  1
  Cu  Cu138  1  0.88141500  0.12884000  0.00000000  1
  Cu  Cu139  1  0.42610200  0.34346200  0.83168600  1
  Cu  Cu140  1  0.57389800  0.65653800  0.16831400  1
  Cu  Cu141  1  0.92610200  0.15653800  0.33168600  1
  Cu  Cu142  1  0.35238300  0.60007500  0.82306600  1
  Cu  Cu143  1  0.17217300  0.34801000  0.24907100  1
  Cu  Cu144  1  0.82782700  0.65199000  0.24907100  1
  Cu  Cu145  1  0.38840100  0.63458200  0.50000000  1
  Cu  Cu146  1  0.11159900  0.13458200  0.00000000  1
  Cu  Cu147  1  0.07389800  0.84346200  0.66831400  1
  Cu  Cu148  1  0.67217300  0.15199000  0.74907100  1
  Cu  Cu149  1  0.14761700  0.10007500  0.67693400  1
  Cu  Cu150  1  0.61858500  0.62884000  0.50000000  1
  Cu  Cu151  1  0.14761700  0.10007500  0.32306600  1
  Cu  Cu152  1  0.88840100  0.86541800  0.00000000  1
  Cu  Cu153  1  0.61159900  0.36541800  0.50000000  1
  Cu  Cu154  1  0.11858500  0.87116000  0.00000000  1
  Cu  Cu155  1  0.85238300  0.89992500  0.32306600  1
  Cu  Cu156  1  0.35238300  0.60007500  0.17693400  1
  Cu  Cu157  1  0.82782700  0.65199000  0.75092900  1
  Cu  Cu158  1  0.32782700  0.84801000  0.25092900  1
  Cu  Cu159  1  0.64761700  0.39992500  0.82306600  1
