# generated using pymatgen
data_Cu2NiC7
_symmetry_space_group_name_H-M   'P 1'
_cell_length_a   21.99498357
_cell_length_b   21.71574215
_cell_length_c   6.80730655
_cell_angle_alpha   83.37029800
_cell_angle_beta   78.72564323
_cell_angle_gamma   17.90405877
_symmetry_Int_Tables_number   1
_chemical_formula_structural   Cu2NiC7
_chemical_formula_sum   'Cu8 Ni4 C28'
_cell_volume   953.03078633
_cell_formula_units_Z   4
loop_
 _symmetry_equiv_pos_site_id
 _symmetry_equiv_pos_as_xyz
  1  'x, y, z'
loop_
 _atom_site_type_symbol
 _atom_site_label
 _atom_site_symmetry_multiplicity
 _atom_site_fract_x
 _atom_site_fract_y
 _atom_site_fract_z
 _atom_site_occupancy
  Cu  Cu0  1  0.84065600  0.84065600  0.65934400  1
  Cu  Cu1  1  0.40934400  0.40934400  0.59065600  1
  Cu  Cu2  1  0.09320700  0.09320700  0.90679300  1
  Cu  Cu3  1  0.34320700  0.34320700  0.15679300  1
  Cu  Cu4  1  0.59065600  0.59065600  0.40934400  1
  Cu  Cu5  1  0.65934400  0.65934400  0.84065600  1
  Cu  Cu6  1  0.90679300  0.90679300  0.09320700  1
  Cu  Cu7  1  0.15679300  0.15679300  0.34320700  1
  Ni  Ni8  1  0.00102600  0.49897400  0.00102600  1
  Ni  Ni9  1  0.49897400  0.00102600  0.49897400  1
  Ni  Ni10  1  0.75102600  0.24897400  0.75102600  1
  Ni  Ni11  1  0.24897400  0.75102600  0.24897400  1
  C  C12  1  0.33434600  0.33434600  0.66565400  1
  C  C13  1  0.58434600  0.58434600  0.91565400  1
  C  C14  1  0.91565400  0.91565400  0.58434600  1
  C  C15  1  0.66565400  0.66565400  0.33434600  1
  C  C16  1  0.40419800  0.87588000  0.59273300  1
  C  C17  1  0.44929300  0.14092600  0.85724400  1
  C  C18  1  0.87588000  0.40419800  0.12718900  1
  C  C19  1  0.69746400  0.39275600  0.10907400  1
  C  C20  1  0.85724400  0.55253600  0.44929300  1
  C  C21  1  0.28543200  0.61100800  0.89943500  1
  C  C22  1  0.89943500  0.20412400  0.28543200  1
  C  C23  1  0.80070700  0.10907400  0.39275600  1
  C  C24  1  0.55253600  0.85724400  0.14092600  1
  C  C25  1  0.65726700  0.12281100  0.84580200  1
  C  C26  1  0.63899200  0.96456800  0.04587600  1
  C  C27  1  0.35056500  0.04587600  0.96456800  1
  C  C28  1  0.12718900  0.59273300  0.87588000  1
  C  C29  1  0.20412400  0.89943500  0.61100800  1
  C  C30  1  0.61100800  0.28543200  0.20412400  1
  C  C31  1  0.84580200  0.37412000  0.65726700  1
  C  C32  1  0.59273300  0.12718900  0.40419800  1
  C  C33  1  0.14092600  0.44929300  0.55253600  1
  C  C34  1  0.37412000  0.84580200  0.12281100  1
  C  C35  1  0.96456800  0.63899200  0.35056500  1
  C  C36  1  0.39275600  0.69746400  0.80070700  1
  C  C37  1  0.10907400  0.80070700  0.69746400  1
  C  C38  1  0.04587600  0.35056500  0.63899200  1
  C  C39  1  0.12281100  0.65726700  0.37412000  1
