# generated using pymatgen
data_Cu6NiC17
_symmetry_space_group_name_H-M   'P 1'
_cell_length_a   8.21370993
_cell_length_b   8.21370993
_cell_length_c   17.20458474
_cell_angle_alpha   76.37653605
_cell_angle_beta   76.37653605
_cell_angle_gamma   39.29689896
_symmetry_Int_Tables_number   1
_chemical_formula_structural   Cu6NiC17
_chemical_formula_sum   'Cu12 Ni2 C34'
_cell_volume   711.75885357
_cell_formula_units_Z   2
loop_
 _symmetry_equiv_pos_site_id
 _symmetry_equiv_pos_as_xyz
  1  'x, y, z'
loop_
 _atom_site_type_symbol
 _atom_site_label
 _atom_site_symmetry_multiplicity
 _atom_site_fract_x
 _atom_site_fract_y
 _atom_site_fract_z
 _atom_site_occupancy
  Ni  Ni0  1  0.00329200  0.62259300  0.76770700  1
  Ni  Ni1  1  0.37740700  0.99670800  0.23229300  1
  Cu  Cu2  1  0.47140100  0.10697500  0.38987600  1
  Cu  Cu3  1  0.13024000  0.73048300  0.92283900  1
  Cu  Cu4  1  0.22852900  0.82247200  0.59504700  1
  Cu  Cu5  1  0.72092400  0.22670400  0.74264800  1
  Cu  Cu6  1  0.36169700  0.92439200  0.75729500  1
  Cu  Cu7  1  0.07560800  0.63830300  0.24270500  1
  Cu  Cu8  1  0.89302500  0.52859900  0.61012400  1
  Cu  Cu9  1  0.17752800  0.77147100  0.40495300  1
  Cu  Cu10  1  0.79207100  0.40057300  0.91218200  1
  Cu  Cu11  1  0.77329600  0.27907600  0.25735200  1
  Cu  Cu12  1  0.59942700  0.20792900  0.08781800  1
  Cu  Cu13  1  0.26951700  0.86976000  0.07716100  1
  C  C14  1  0.46761700  0.10451600  0.89726900  1
  C  C15  1  0.89548400  0.53238300  0.10273100  1
  C  C16  1  0.76850900  0.51290300  0.42102500  1
  C  C17  1  0.48709700  0.23149100  0.57897500  1
  C  C18  1  0.46651300  0.59738800  0.83979800  1
  C  C19  1  0.18358300  0.95020600  0.29160900  1
  C  C20  1  0.32197700  0.24274300  0.65222000  1
  C  C21  1  0.61058400  0.68203000  0.49365600  1
  C  C22  1  0.31797000  0.38941600  0.50634400  1
  C  C23  1  0.94899300  0.05100700  0.00000000  1
  C  C24  1  0.96566200  0.08553900  0.83789000  1
  C  C25  1  0.06665600  0.26951400  0.15787000  1
  C  C26  1  0.32016000  0.48755800  0.33693000  1
  C  C27  1  0.04935100  0.25363200  0.43913300  1
  C  C28  1  0.74636800  0.95064900  0.56086700  1
  C  C29  1  0.02062500  0.16866700  0.66077400  1
  C  C30  1  0.39699800  0.19034100  0.26169200  1
  C  C31  1  0.63502600  0.46436900  0.39797700  1
  C  C32  1  0.80965900  0.60300200  0.73830800  1
  C  C33  1  0.53563100  0.36497400  0.60202300  1
  C  C34  1  0.83133300  0.97937500  0.33922600  1
  C  C35  1  0.40261200  0.53348700  0.16020200  1
  C  C36  1  0.04979400  0.81641700  0.70839100  1
  C  C37  1  0.91446100  0.03433800  0.16211000  1
  C  C38  1  0.85563600  0.49966800  0.02749600  1
  C  C39  1  0.45672400  0.54327600  0.00000000  1
  C  C40  1  0.38629300  0.97987300  0.91200800  1
  C  C41  1  0.62391200  0.73701100  0.15214300  1
  C  C42  1  0.02012700  0.61370700  0.08799200  1
  C  C43  1  0.50033200  0.14436400  0.97250400  1
  C  C44  1  0.75725700  0.67802300  0.34778000  1
  C  C45  1  0.26298900  0.37608800  0.84785700  1
  C  C46  1  0.73048700  0.93334400  0.84213000  1
  C  C47  1  0.51244200  0.67984000  0.66307000  1
