# generated using pymatgen
data_Cu5Ni6
_symmetry_space_group_name_H-M   'P 1'
_cell_length_a   12.88503142
_cell_length_b   12.88503142
_cell_length_c   12.88503126
_cell_angle_alpha   112.72743482
_cell_angle_beta   112.72743482
_cell_angle_gamma   112.72743752
_symmetry_Int_Tables_number   1
_chemical_formula_structural   Cu5Ni6
_chemical_formula_sum   'Cu10 Ni12'
_cell_volume   1413.94540118
_cell_formula_units_Z   2
loop_
 _symmetry_equiv_pos_site_id
 _symmetry_equiv_pos_as_xyz
  1  'x, y, z'
loop_
 _atom_site_type_symbol
 _atom_site_label
 _atom_site_symmetry_multiplicity
 _atom_site_fract_x
 _atom_site_fract_y
 _atom_site_fract_z
 _atom_site_occupancy
  Ni  Ni0  1  0.07116100  0.94541600  0.51825800  1
  Ni  Ni1  1  0.44541600  0.57116100  0.01825800  1
  Ni  Ni2  1  0.55458400  0.42883900  0.98174200  1
  Ni  Ni3  1  0.98174200  0.55458400  0.42883900  1
  Ni  Ni4  1  0.05458400  0.48174200  0.92883900  1
  Ni  Ni5  1  0.57116100  0.01825800  0.44541600  1
  Ni  Ni6  1  0.51825800  0.07116100  0.94541600  1
  Ni  Ni7  1  0.94541600  0.51825800  0.07116100  1
  Ni  Ni8  1  0.42883900  0.98174200  0.55458400  1
  Ni  Ni9  1  0.92883900  0.05458400  0.48174200  1
  Ni  Ni10  1  0.48174200  0.92883900  0.05458400  1
  Ni  Ni11  1  0.01825800  0.44541600  0.57116100  1
  Cu  Cu12  1  0.75000000  0.12039700  0.37960300  1
  Cu  Cu13  1  0.12039700  0.37960300  0.75000000  1
  Cu  Cu14  1  0.87300800  0.87300800  0.87300800  1
  Cu  Cu15  1  0.62699200  0.62699200  0.62699200  1
  Cu  Cu16  1  0.25000000  0.87960300  0.62039700  1
  Cu  Cu17  1  0.62039700  0.25000000  0.87960300  1
  Cu  Cu18  1  0.87960300  0.62039700  0.25000000  1
  Cu  Cu19  1  0.37300800  0.37300800  0.37300800  1
  Cu  Cu20  1  0.37960300  0.75000000  0.12039700  1
  Cu  Cu21  1  0.12699200  0.12699200  0.12699200  1
