# generated using pymatgen
data_Cu4NiC2
_symmetry_space_group_name_H-M   'P 1'
_cell_length_a   8.81677297
_cell_length_b   8.81677297
_cell_length_c   10.99693011
_cell_angle_alpha   83.30643306
_cell_angle_beta   83.30643306
_cell_angle_gamma   52.36216957
_symmetry_Int_Tables_number   1
_chemical_formula_structural   Cu4NiC2
_chemical_formula_sum   'Cu16 Ni4 C8'
_cell_volume   671.21126653
_cell_formula_units_Z   4
loop_
 _symmetry_equiv_pos_site_id
 _symmetry_equiv_pos_as_xyz
  1  'x, y, z'
loop_
 _atom_site_type_symbol
 _atom_site_label
 _atom_site_symmetry_multiplicity
 _atom_site_fract_x
 _atom_site_fract_y
 _atom_site_fract_z
 _atom_site_occupancy
  C  C0  1  0.39171700  0.60828300  0.75000000  1
  C  C1  1  0.92452500  0.68511000  0.18390800  1
  C  C2  1  0.07547500  0.31489000  0.81609200  1
  C  C3  1  0.68511000  0.92452500  0.68390800  1
  C  C4  1  0.31489000  0.07547500  0.31609200  1
  C  C5  1  0.60828300  0.39171700  0.25000000  1
  Ni  Ni6  1  0.69226400  0.62756400  0.47021800  1
  Ni  Ni7  1  0.37243600  0.30773600  0.02978200  1
  Ni  Ni8  1  0.62756400  0.69226400  0.97021800  1
  Ni  Ni9  1  0.30773600  0.37243600  0.52978200  1
  Cu  Cu10  1  0.74360000  0.55432200  0.66054700  1
  Cu  Cu11  1  0.60290500  0.10799000  0.14391200  1
  Cu  Cu12  1  0.71082300  0.85692600  0.41435200  1
  Cu  Cu13  1  0.89201000  0.39709500  0.35608800  1
  Cu  Cu14  1  0.28917700  0.14307400  0.58564800  1
  Cu  Cu15  1  0.44567800  0.25640000  0.83945300  1
  Cu  Cu16  1  0.85692600  0.71082300  0.91435200  1
  Cu  Cu17  1  0.10799000  0.60290500  0.64391200  1
  Cu  Cu18  1  0.25640000  0.44567800  0.33945300  1
  Cu  Cu19  1  0.14307400  0.28917700  0.08564800  1
  Cu  Cu20  1  0.72395300  0.40796000  0.95251100  1
  Cu  Cu21  1  0.40796000  0.72395300  0.45251100  1
  Cu  Cu22  1  0.59204000  0.27604700  0.54748900  1
  Cu  Cu23  1  0.55432200  0.74360000  0.16054700  1
  Cu  Cu24  1  0.39709500  0.89201000  0.85608800  1
  Cu  Cu25  1  0.27604700  0.59204000  0.04748900  1
  C  C26  1  0.00759000  0.99241000  0.25000000  1
  C  C27  1  0.99241000  0.00759000  0.75000000  1
