# generated using pymatgen
data_Cu3Ni6C13
_symmetry_space_group_name_H-M   'P 1'
_cell_length_a   7.88195585
_cell_length_b   7.88195585
_cell_length_c   7.88195497
_cell_angle_alpha   100.66060390
_cell_angle_beta   100.66060390
_cell_angle_gamma   100.66059959
_symmetry_Int_Tables_number   1
_chemical_formula_structural   Cu3Ni6C13
_chemical_formula_sum   'Cu6 Ni12 C26'
_cell_volume   460.56772880
_cell_formula_units_Z   2
loop_
 _symmetry_equiv_pos_site_id
 _symmetry_equiv_pos_as_xyz
  1  'x, y, z'
loop_
 _atom_site_type_symbol
 _atom_site_label
 _atom_site_symmetry_multiplicity
 _atom_site_fract_x
 _atom_site_fract_y
 _atom_site_fract_z
 _atom_site_occupancy
  C  C0  1  0.24396900  0.24396900  0.24396900  1
  C  C1  1  0.75603100  0.75603100  0.75603100  1
  Ni  Ni2  1  0.57870000  0.30373200  0.14549300  1
  Ni  Ni3  1  0.30373200  0.14549300  0.57870000  1
  Ni  Ni4  1  0.14549300  0.57870000  0.30373200  1
  Ni  Ni5  1  0.42130000  0.69626800  0.85450700  1
  Ni  Ni6  1  0.69626800  0.85450700  0.42130000  1
  Ni  Ni7  1  0.85450700  0.42130000  0.69626800  1
  Ni  Ni8  1  0.63944600  0.32923900  0.35334900  1
  Ni  Ni9  1  0.32923900  0.35334900  0.63944600  1
  Ni  Ni10  1  0.35334900  0.63944600  0.32923900  1
  Ni  Ni11  1  0.36055400  0.67076100  0.64665100  1
  Ni  Ni12  1  0.67076100  0.64665100  0.36055400  1
  Ni  Ni13  1  0.64665100  0.36055400  0.67076100  1
  Cu  Cu14  1  0.89973100  0.13841800  0.33963500  1
  Cu  Cu15  1  0.13841800  0.33963500  0.89973100  1
  Cu  Cu16  1  0.33963500  0.89973100  0.13841800  1
  Cu  Cu17  1  0.10026900  0.86158200  0.66036500  1
  Cu  Cu18  1  0.86158200  0.66036500  0.10026900  1
  Cu  Cu19  1  0.66036500  0.10026900  0.86158200  1
  C  C20  1  0.75800300  0.06657800  0.37169300  1
  C  C21  1  0.06657800  0.37169300  0.75800300  1
  C  C22  1  0.37169300  0.75800300  0.06657800  1
  C  C23  1  0.24199700  0.93342200  0.62830700  1
  C  C24  1  0.93342200  0.62830700  0.24199700  1
  C  C25  1  0.62830700  0.24199700  0.93342200  1
  C  C26  1  0.00685800  0.04016300  0.29074000  1
  C  C27  1  0.04016300  0.29074000  0.00685800  1
  C  C28  1  0.29074000  0.00685800  0.04016300  1
  C  C29  1  0.99314200  0.95983700  0.70926000  1
  C  C30  1  0.95983700  0.70926000  0.99314200  1
  C  C31  1  0.70926000  0.99314200  0.95983700  1
  C  C32  1  0.94348800  0.30231000  0.35199500  1
  C  C33  1  0.30231000  0.35199500  0.94348800  1
  C  C34  1  0.35199500  0.94348800  0.30231000  1
  C  C35  1  0.05651200  0.69769000  0.64800500  1
  C  C36  1  0.69769000  0.64800500  0.05651200  1
  C  C37  1  0.64800500  0.05651200  0.69769000  1
  C  C38  1  0.55114500  0.35301300  0.26035900  1
  C  C39  1  0.35301300  0.26035900  0.55114500  1
  C  C40  1  0.26035900  0.55114500  0.35301300  1
  C  C41  1  0.44885500  0.64698700  0.73964100  1
  C  C42  1  0.64698700  0.73964100  0.44885500  1
  C  C43  1  0.73964100  0.44885500  0.64698700  1
