# generated using pymatgen
data_Cu12Ni6C11
_symmetry_space_group_name_H-M   'P 1'
_cell_length_a   11.30387280
_cell_length_b   11.30387280
_cell_length_c   14.83883329
_cell_angle_alpha   58.30575192
_cell_angle_beta   58.30575192
_cell_angle_gamma   44.94700907
_symmetry_Int_Tables_number   1
_chemical_formula_structural   Cu12Ni6C11
_chemical_formula_sum   'Cu24 Ni12 C22'
_cell_volume   1101.91006536
_cell_formula_units_Z   2
loop_
 _symmetry_equiv_pos_site_id
 _symmetry_equiv_pos_as_xyz
  1  'x, y, z'
loop_
 _atom_site_type_symbol
 _atom_site_label
 _atom_site_symmetry_multiplicity
 _atom_site_fract_x
 _atom_site_fract_y
 _atom_site_fract_z
 _atom_site_occupancy
  C  C0  1  0.52661800  0.89417000  0.61948900  1
  C  C1  1  0.47765300  0.10295100  0.87650800  1
  C  C2  1  0.47338200  0.10583000  0.38051100  1
  C  C3  1  0.89704900  0.52234700  0.62349200  1
  C  C4  1  0.52234700  0.89704900  0.12349200  1
  C  C5  1  0.26724100  0.06265500  0.83893900  1
  C  C6  1  0.00000000  0.00000000  0.50000000  1
  C  C7  1  0.10583000  0.47338200  0.88051100  1
  C  C8  1  0.73275900  0.93734500  0.16106100  1
  C  C9  1  0.93734500  0.73275900  0.66106100  1
  C  C10  1  0.00000000  0.00000000  0.00000000  1
  C  C11  1  0.89417000  0.52661800  0.11948900  1
  C  C12  1  0.10295100  0.47765300  0.37650800  1
  C  C13  1  0.06265500  0.26724100  0.33893900  1
  C  C14  1  0.32331800  0.32653800  0.63807100  1
  C  C15  1  0.12470500  0.11068900  0.59971500  1
  C  C16  1  0.32653800  0.32331800  0.13807100  1
  C  C17  1  0.67346200  0.67668200  0.86192900  1
  C  C18  1  0.88931100  0.87529500  0.90028500  1
  C  C19  1  0.87529500  0.88931100  0.40028500  1
  C  C20  1  0.11068900  0.12470500  0.09971500  1
  C  C21  1  0.67668200  0.67346200  0.36192900  1
  Ni  Ni22  1  0.90234100  0.27497200  0.82506500  1
  Ni  Ni23  1  0.72502800  0.09765900  0.67493500  1
  Ni  Ni24  1  0.27497200  0.90234100  0.32506500  1
  Ni  Ni25  1  0.60291900  0.62876300  0.11103800  1
  Ni  Ni26  1  0.29157400  0.81071000  0.85000500  1
  Ni  Ni27  1  0.81071000  0.29157400  0.35000500  1
  Ni  Ni28  1  0.39708000  0.37123700  0.88896200  1
  Ni  Ni29  1  0.18929000  0.70842600  0.64999500  1
  Ni  Ni30  1  0.09765900  0.72502800  0.17493500  1
  Ni  Ni31  1  0.62876300  0.60292000  0.61103800  1
  Ni  Ni32  1  0.70842600  0.18929000  0.14999500  1
  Ni  Ni33  1  0.37123700  0.39708100  0.38896200  1
  Cu  Cu34  1  0.05835200  0.33806300  0.54273200  1
  Cu  Cu35  1  0.87256800  0.93583500  0.00756000  1
  Cu  Cu36  1  0.49253900  0.08527800  0.14206800  1
  Cu  Cu37  1  0.00392500  0.36275600  0.03053600  1
  Cu  Cu38  1  0.99607500  0.63724400  0.96946400  1
  Cu  Cu39  1  0.93583500  0.87256800  0.50756000  1
  Cu  Cu40  1  0.06416500  0.12743200  0.49244000  1
  Cu  Cu41  1  0.27190700  0.28194600  0.79915300  1
  Cu  Cu42  1  0.50746100  0.91472200  0.85793200  1
  Cu  Cu43  1  0.08527800  0.49253900  0.64206800  1
  Cu  Cu44  1  0.12315100  0.34699600  0.17308600  1
  Cu  Cu45  1  0.12743200  0.06416500  0.99244000  1
  Cu  Cu46  1  0.91472200  0.50746100  0.35793200  1
  Cu  Cu47  1  0.87684900  0.65300400  0.82691400  1
  Cu  Cu48  1  0.34699600  0.12315100  0.67308600  1
  Cu  Cu49  1  0.66193700  0.94164800  0.95726800  1
  Cu  Cu50  1  0.63724400  0.99607500  0.46946400  1
  Cu  Cu51  1  0.33806300  0.05835200  0.04273200  1
  Cu  Cu52  1  0.65300400  0.87684900  0.32691400  1
  Cu  Cu53  1  0.94164800  0.66193700  0.45726800  1
  Cu  Cu54  1  0.28194600  0.27190700  0.29915300  1
  Cu  Cu55  1  0.72809300  0.71805400  0.20084700  1
  Cu  Cu56  1  0.71805400  0.72809300  0.70084700  1
  Cu  Cu57  1  0.36275600  0.00392500  0.53053600  1
