# generated using pymatgen
data_Cu3Ni5C2
_symmetry_space_group_name_H-M   'P 1'
_cell_length_a   8.49542846
_cell_length_b   8.49542846
_cell_length_c   8.49542846
_cell_angle_alpha   140.10978627
_cell_angle_beta   108.74694006
_cell_angle_gamma   84.91327065
_symmetry_Int_Tables_number   1
_chemical_formula_structural   Cu3Ni5C2
_chemical_formula_sum   'Cu6 Ni10 C4'
_cell_volume   359.54229715
_cell_formula_units_Z   2
loop_
 _symmetry_equiv_pos_site_id
 _symmetry_equiv_pos_as_xyz
  1  'x, y, z'
loop_
 _atom_site_type_symbol
 _atom_site_label
 _atom_site_symmetry_multiplicity
 _atom_site_fract_x
 _atom_site_fract_y
 _atom_site_fract_z
 _atom_site_occupancy
  C  C0  1  0.37007700  0.13884300  0.23123300  1
  C  C1  1  0.09239000  0.36115700  0.73123300  1
  C  C2  1  0.62992300  0.86115700  0.76876700  1
  C  C3  1  0.90761000  0.63884300  0.26876700  1
  Ni  Ni4  1  0.29280100  0.04280100  0.75000000  1
  Ni  Ni5  1  0.41138200  0.58750100  0.82388100  1
  Ni  Ni6  1  0.23638100  0.91249900  0.32388100  1
  Ni  Ni7  1  0.00000000  0.75000000  0.75000000  1
  Ni  Ni8  1  0.29280100  0.54280100  0.25000000  1
  Ni  Ni9  1  0.00000000  0.25000000  0.25000000  1
  Ni  Ni10  1  0.58861800  0.41249900  0.17611900  1
  Ni  Ni11  1  0.70719900  0.45719900  0.75000000  1
  Ni  Ni12  1  0.76361900  0.08750100  0.67611900  1
  Ni  Ni13  1  0.70719900  0.95719900  0.25000000  1
  Cu  Cu14  1  0.76100800  0.35244100  0.40856700  1
  Cu  Cu15  1  0.05612700  0.14755900  0.90856700  1
  Cu  Cu16  1  0.94387300  0.85244100  0.09143300  1
  Cu  Cu17  1  0.23899200  0.64755900  0.59143300  1
  Cu  Cu18  1  0.50000000  0.75000000  0.25000000  1
  Cu  Cu19  1  0.50000000  0.25000000  0.75000000  1
