# generated using pymatgen
data_Cu2NiC
_symmetry_space_group_name_H-M   'P 1'
_cell_length_a   4.78978433
_cell_length_b   4.78978433
_cell_length_c   43.90969800
_cell_angle_alpha   90.00000000
_cell_angle_beta   90.00000000
_cell_angle_gamma   120.00000451
_symmetry_Int_Tables_number   1
_chemical_formula_structural   Cu2NiC
_chemical_formula_sum   'Cu12 Ni6 C6'
_cell_volume   872.41470895
_cell_formula_units_Z   6
loop_
 _symmetry_equiv_pos_site_id
 _symmetry_equiv_pos_as_xyz
  1  'x, y, z'
loop_
 _atom_site_type_symbol
 _atom_site_label
 _atom_site_symmetry_multiplicity
 _atom_site_fract_x
 _atom_site_fract_y
 _atom_site_fract_z
 _atom_site_occupancy
  Ni  Ni0  1  0.33333300  0.66666700  0.01031700  1
  Ni  Ni1  1  0.00000000  0.00000000  0.91810400  1
  Ni  Ni2  1  0.66666700  0.33333300  0.83156000  1
  Ni  Ni3  1  0.33333300  0.66666700  0.74758000  1
  Ni  Ni4  1  0.66666700  0.33333300  0.57593800  1
  Ni  Ni5  1  0.00000000  0.00000000  0.66295600  1
  C  C6  1  0.00000000  0.00000000  0.41359700  1
  C  C7  1  0.33333300  0.66666700  0.48838900  1
  C  C8  1  0.66666700  0.33333300  0.33160900  1
  C  C9  1  0.00000000  0.00000000  0.16700200  1
  C  C10  1  0.33333300  0.66666700  0.24931500  1
  C  C11  1  0.66666700  0.33333300  0.08570800  1
  Cu  Cu12  1  0.00000000  0.00000000  0.98499400  1
  Cu  Cu13  1  0.66666700  0.33333300  0.89893300  1
  Cu  Cu14  1  0.33333300  0.66666700  0.81487900  1
  Cu  Cu15  1  0.00000000  0.00000000  0.73010500  1
  Cu  Cu16  1  0.66666700  0.33333300  0.64347300  1
  Cu  Cu17  1  0.33333300  0.66666700  0.55411700  1
  Cu  Cu18  1  0.00000000  0.00000000  0.47722100  1
  Cu  Cu19  1  0.66666700  0.33333300  0.39572900  1
  Cu  Cu20  1  0.33333300  0.66666700  0.31358000  1
  Cu  Cu21  1  0.00000000  0.00000000  0.23160700  1
  Cu  Cu22  1  0.66666700  0.33333300  0.15042300  1
  Cu  Cu23  1  0.33333300  0.66666700  0.07286100  1
