# generated using pymatgen
data_CuNiC2
_symmetry_space_group_name_H-M   'P 1'
_cell_length_a   6.70334100
_cell_length_b   6.84992200
_cell_length_c   7.76653600
_cell_angle_alpha   90.00000000
_cell_angle_beta   90.00000000
_cell_angle_gamma   90.00000000
_symmetry_Int_Tables_number   1
_chemical_formula_structural   CuNiC2
_chemical_formula_sum   'Cu4 Ni4 C8'
_cell_volume   356.61885268
_cell_formula_units_Z   4
loop_
 _symmetry_equiv_pos_site_id
 _symmetry_equiv_pos_as_xyz
  1  'x, y, z'
loop_
 _atom_site_type_symbol
 _atom_site_label
 _atom_site_symmetry_multiplicity
 _atom_site_fract_x
 _atom_site_fract_y
 _atom_site_fract_z
 _atom_site_occupancy
  C  C0  1  0.75000000  0.80124200  0.50000000  1
  C  C1  1  0.25000000  0.19875800  0.00000000  1
  C  C2  1  0.25000000  0.19875800  0.50000000  1
  C  C3  1  0.75000000  0.80124200  0.00000000  1
  Ni  Ni4  1  0.71278500  0.23169400  0.25000000  1
  Ni  Ni5  1  0.78721500  0.23169400  0.75000000  1
  Ni  Ni6  1  0.28721500  0.76830600  0.75000000  1
  Ni  Ni7  1  0.21278500  0.76830600  0.25000000  1
  C  C8  1  0.88966900  0.39518100  0.25000000  1
  C  C9  1  0.61033100  0.39518100  0.75000000  1
  C  C10  1  0.38966900  0.60481900  0.25000000  1
  C  C11  1  0.11033100  0.60481900  0.75000000  1
  Cu  Cu12  1  0.08376200  0.88828700  0.25000000  1
  Cu  Cu13  1  0.41623800  0.88828700  0.75000000  1
  Cu  Cu14  1  0.58376200  0.11171300  0.25000000  1
  Cu  Cu15  1  0.91623800  0.11171300  0.75000000  1
