# generated using pymatgen
data_Cu5(NiC2)2
_symmetry_space_group_name_H-M   'P 1'
_cell_length_a   11.78523670
_cell_length_b   11.78523670
_cell_length_c   11.78523670
_cell_angle_alpha   161.33306936
_cell_angle_beta   161.33306936
_cell_angle_gamma   26.51848821
_symmetry_Int_Tables_number   1
_chemical_formula_structural   Cu5(NiC2)2
_chemical_formula_sum   'Cu5 Ni2 C4'
_cell_volume   167.62397889
_cell_formula_units_Z   1
loop_
 _symmetry_equiv_pos_site_id
 _symmetry_equiv_pos_as_xyz
  1  'x, y, z'
loop_
 _atom_site_type_symbol
 _atom_site_label
 _atom_site_symmetry_multiplicity
 _atom_site_fract_x
 _atom_site_fract_y
 _atom_site_fract_z
 _atom_site_occupancy
  C  C0  1  0.66019800  0.66019800  0.00000000  1
  C  C1  1  0.33980200  0.33980200  0.00000000  1
  C  C2  1  0.92083900  0.92083900  0.00000000  1
  C  C3  1  0.07916100  0.07916100  0.00000000  1
  Ni  Ni4  1  0.79443900  0.79443900  0.00000000  1
  Ni  Ni5  1  0.20556100  0.20556100  0.00000000  1
  Cu  Cu6  1  0.00000000  0.00000000  0.00000000  1
  Cu  Cu7  1  0.89918200  0.39918200  0.50000000  1
  Cu  Cu8  1  0.60081800  0.10081800  0.50000000  1
  Cu  Cu9  1  0.39918200  0.89918200  0.50000000  1
  Cu  Cu10  1  0.10081800  0.60081800  0.50000000  1
