# generated using pymatgen
data_CuNi2C17
_symmetry_space_group_name_H-M   'P 1'
_cell_length_a   9.19204800
_cell_length_b   9.20194931
_cell_length_c   9.34918953
_cell_angle_alpha   60.91052480
_cell_angle_beta   60.61745940
_cell_angle_gamma   60.17357845
_symmetry_Int_Tables_number   1
_chemical_formula_structural   CuNi2C17
_chemical_formula_sum   'Cu2 Ni4 C34'
_cell_volume   566.29728910
_cell_formula_units_Z   2
loop_
 _symmetry_equiv_pos_site_id
 _symmetry_equiv_pos_as_xyz
  1  'x, y, z'
loop_
 _atom_site_type_symbol
 _atom_site_label
 _atom_site_symmetry_multiplicity
 _atom_site_fract_x
 _atom_site_fract_y
 _atom_site_fract_z
 _atom_site_occupancy
  C  C0  1  0.24340600  0.89181100  0.25644900  1
  C  C1  1  0.87976900  0.62155600  0.25006200  1
  C  C2  1  0.63377300  0.24167600  0.22737900  1
  C  C3  1  0.47450600  0.51646600  0.51164900  1
  C  C4  1  0.20508000  0.82390500  0.92897200  1
  C  C5  1  0.75665600  0.10907400  0.77391500  1
  C  C6  1  0.85773800  0.84917400  0.44055100  1
  C  C7  1  0.65363200  0.64559400  0.05339400  1
  C  C8  1  0.34383400  0.35550500  0.94396400  1
  C  C9  1  0.14761600  0.14932400  0.55808900  1
  Ni  Ni10  1  0.53579800  0.96180400  0.24632300  1
  Ni  Ni11  1  0.25522100  0.53504300  0.25432200  1
  Ni  Ni12  1  0.95339600  0.25051900  0.26053700  1
  Ni  Ni13  1  0.05146200  0.74751000  0.74351000  1
  Cu  Cu14  1  0.74724800  0.45721300  0.74504400  1
  Cu  Cu15  1  0.46113400  0.04139800  0.74952300  1
  C  C16  1  0.48208900  0.88095800  0.91761900  1
  C  C17  1  0.87617500  0.71352500  0.91453700  1
  C  C18  1  0.70740400  0.92453000  0.28744100  1
  C  C19  1  0.70169800  0.49334200  0.91163800  1
  C  C20  1  0.56393700  0.78061100  0.22529700  1
  C  C21  1  0.34731100  0.99927600  0.40389600  1
  C  C22  1  0.07956000  0.71542600  0.27010000  1
  C  C23  1  0.42488700  0.57070500  0.22921900  1
  C  C24  1  0.77893500  0.42552200  0.22521500  1
  C  C25  1  0.01816100  0.78604600  0.57009000  1
  C  C26  1  0.06341100  0.92424000  0.73591800  1
  C  C27  1  0.78276500  0.61742500  0.58274500  1
  C  C28  1  0.24108900  0.35638100  0.41602900  1
  C  C29  1  0.92125300  0.07942600  0.28414700  1
  C  C30  1  0.97120200  0.23863100  0.43192000  1
  C  C31  1  0.23310500  0.57819000  0.76122500  1
  C  C32  1  0.58951800  0.42737800  0.75585100  1
  C  C33  1  0.91114100  0.28760900  0.73304700  1
  C  C34  1  0.62728600  0.00049300  0.59285000  1
  C  C35  1  0.45192300  0.20695900  0.76345100  1
  C  C36  1  0.27583900  0.51380800  0.07918800  1
  C  C37  1  0.29343100  0.06647700  0.72875200  1
  C  C38  1  0.13773500  0.26544000  0.09814100  1
  C  C39  1  0.52317500  0.13402800  0.06990100  1
