# generated using pymatgen
data_Cu5(NiC6)3
_symmetry_space_group_name_H-M   'P 1'
_cell_length_a   7.60413604
_cell_length_b   7.60413604
_cell_length_c   12.82864800
_cell_angle_alpha   90.00000000
_cell_angle_beta   90.00000000
_cell_angle_gamma   120.00000038
_symmetry_Int_Tables_number   1
_chemical_formula_structural   Cu5(NiC6)3
_chemical_formula_sum   'Cu5 Ni3 C18'
_cell_volume   642.40849476
_cell_formula_units_Z   1
loop_
 _symmetry_equiv_pos_site_id
 _symmetry_equiv_pos_as_xyz
  1  'x, y, z'
loop_
 _atom_site_type_symbol
 _atom_site_label
 _atom_site_symmetry_multiplicity
 _atom_site_fract_x
 _atom_site_fract_y
 _atom_site_fract_z
 _atom_site_occupancy
  Ni  Ni0  1  0.00000000  0.00000000  0.50000000  1
  Ni  Ni1  1  0.66666700  0.33333300  0.35617100  1
  Ni  Ni2  1  0.66666700  0.33333300  0.64382900  1
  Cu  Cu3  1  0.00000000  0.00000000  0.83460700  1
  Cu  Cu4  1  0.00000000  0.00000000  0.16539300  1
  Cu  Cu5  1  0.33333300  0.66666700  0.00000000  1
  Cu  Cu6  1  0.33333300  0.66666700  0.33353200  1
  Cu  Cu7  1  0.33333300  0.66666700  0.66646800  1
  C  C8  1  0.97185400  0.24542600  0.00000000  1
  C  C9  1  0.97917300  0.25426500  0.32553500  1
  C  C10  1  0.97917300  0.25426500  0.67446500  1
  C  C11  1  0.75457400  0.72642800  0.00000000  1
  C  C12  1  0.74573500  0.72490800  0.32553500  1
  C  C13  1  0.74573500  0.72490800  0.67446500  1
  C  C14  1  0.05821900  0.63713900  0.83592100  1
  C  C15  1  0.05821900  0.63713900  0.16407900  1
  C  C16  1  0.04924500  0.61533700  0.50000000  1
  C  C17  1  0.27357200  0.02814600  0.00000000  1
  C  C18  1  0.27509200  0.02082700  0.32553500  1
  C  C19  1  0.27509200  0.02082700  0.67446500  1
  C  C20  1  0.57892000  0.94178100  0.83592100  1
  C  C21  1  0.57892000  0.94178100  0.16407900  1
  C  C22  1  0.56609200  0.95075500  0.50000000  1
  C  C23  1  0.36286100  0.42108000  0.83592100  1
  C  C24  1  0.36286100  0.42108000  0.16407900  1
  C  C25  1  0.38466300  0.43390800  0.50000000  1
