# generated using pymatgen
data_Cu2NiC9
_symmetry_space_group_name_H-M   'P 1'
_cell_length_a   3.98265200
_cell_length_b   3.98265200
_cell_length_c   9.68669643
_cell_angle_alpha   101.86306062
_cell_angle_beta   101.86306062
_cell_angle_gamma   90.00000000
_symmetry_Int_Tables_number   1
_chemical_formula_structural   Cu2NiC9
_chemical_formula_sum   'Cu2 Ni1 C9'
_cell_volume   147.00924999
_cell_formula_units_Z   1
loop_
 _symmetry_equiv_pos_site_id
 _symmetry_equiv_pos_as_xyz
  1  'x, y, z'
loop_
 _atom_site_type_symbol
 _atom_site_label
 _atom_site_symmetry_multiplicity
 _atom_site_fract_x
 _atom_site_fract_y
 _atom_site_fract_z
 _atom_site_occupancy
  Ni  Ni0  1  0.00000000  0.00000000  0.00000000  1
  Cu  Cu1  1  0.25000000  0.75000000  0.50000000  1
  Cu  Cu2  1  0.75000000  0.25000000  0.50000000  1
  C  C3  1  0.61407400  0.61407400  0.22814800  1
  C  C4  1  0.38592600  0.38592600  0.77185200  1
  C  C5  1  0.50000000  0.50000000  0.00000000  1
  C  C6  1  0.60373300  0.10373300  0.20746600  1
  C  C7  1  0.10373300  0.60373300  0.20746600  1
  C  C8  1  0.39626700  0.89626700  0.79253400  1
  C  C9  1  0.89626700  0.39626700  0.79253400  1
  C  C10  1  0.28367000  0.28367000  0.56734000  1
  C  C11  1  0.71633000  0.71633000  0.43266000  1
