# generated using pymatgen
data_CuNiC8
_symmetry_space_group_name_H-M   'P 1'
_cell_length_a   5.61864755
_cell_length_b   22.57447224
_cell_length_c   5.68447600
_cell_angle_alpha   119.64611967
_cell_angle_beta   119.64831259
_cell_angle_gamma   90.01908803
_symmetry_Int_Tables_number   1
_chemical_formula_structural   CuNiC8
_chemical_formula_sum   'Cu4 Ni4 C32'
_cell_volume   515.13624321
_cell_formula_units_Z   4
loop_
 _symmetry_equiv_pos_site_id
 _symmetry_equiv_pos_as_xyz
  1  'x, y, z'
loop_
 _atom_site_type_symbol
 _atom_site_label
 _atom_site_symmetry_multiplicity
 _atom_site_fract_x
 _atom_site_fract_y
 _atom_site_fract_z
 _atom_site_occupancy
  C  C0  1  0.25612400  0.19163300  0.51128100  1
  C  C1  1  0.24570400  0.43679600  0.49630800  1
  C  C2  1  0.25847000  0.69103500  0.51543800  1
  C  C3  1  0.23746300  0.92993300  0.47671900  1
  C  C4  1  0.75350400  0.31185900  0.49771200  1
  C  C5  1  0.75447800  0.06650100  0.51459700  1
  C  C6  1  0.74670700  0.56135500  0.49563900  1
  C  C7  1  0.74394100  0.80969300  0.49348400  1
  Ni  Ni8  1  0.99794600  0.25054300  0.00327800  1
  Ni  Ni9  1  0.00465100  0.50045500  0.00132500  1
  Ni  Ni10  1  0.00234800  0.75215300  0.00430000  1
  Ni  Ni11  1  0.49428900  0.87072900  0.99067300  1
  Cu  Cu12  1  0.99368000  0.99633000  0.99239500  1
  Cu  Cu13  1  0.50132400  0.12555000  0.00333700  1
  Cu  Cu14  1  0.50216600  0.37623100  0.00238700  1
  Cu  Cu15  1  0.49927900  0.62512000  0.99985200  1
  C  C16  1  0.25124700  0.05879200  0.49669100  1
  C  C17  1  0.26016600  0.31390100  0.50170200  1
  C  C18  1  0.24368500  0.56398200  0.50086800  1
  C  C19  1  0.24126700  0.81231900  0.49891700  1
  C  C20  1  0.20942000  0.17721400  0.99403800  1
  C  C21  1  0.20803700  0.42849700  0.00245600  1
  C  C22  1  0.22141000  0.67654200  0.00722800  1
  C  C23  1  0.18210800  0.91934700  0.97353100  1
  C  C24  1  0.27813400  0.04693500  0.99687800  1
  C  C25  1  0.29602200  0.30673000  0.00057000  1
  C  C26  1  0.28850700  0.55246100  0.99858400  1
  C  C27  1  0.32398400  0.80161400  0.03194900  1
  C  C28  1  0.75453400  0.18726400  0.49856200  1
  C  C29  1  0.74450800  0.43958600  0.50480700  1
  C  C30  1  0.75892400  0.69074800  0.50305300  1
  C  C31  1  0.74861900  0.93422000  0.49586900  1
  C  C32  1  0.71019700  0.20019600  0.99875300  1
  C  C33  1  0.70482000  0.44767600  0.00619400  1
  C  C34  1  0.70953500  0.70233600  0.01579700  1
  C  C35  1  0.71190400  0.94963100  0.00134100  1
  C  C36  1  0.79609000  0.07232500  0.00228800  1
  C  C37  1  0.79327300  0.32397000  0.99990300  1
  C  C38  1  0.78014600  0.57533900  0.00327600  1
  C  C39  1  0.79139100  0.82245800  0.96801900  1
