# generated using pymatgen
data_CuNiC8
_symmetry_space_group_name_H-M   'P 1'
_cell_length_a   8.80369500
_cell_length_b   15.33174800
_cell_length_c   24.19908500
_cell_angle_alpha   90.00000000
_cell_angle_beta   90.00000000
_cell_angle_gamma   90.00000000
_symmetry_Int_Tables_number   1
_chemical_formula_structural   CuNiC8
_chemical_formula_sum   'Cu16 Ni16 C128'
_cell_volume   3266.29650058
_cell_formula_units_Z   16
loop_
 _symmetry_equiv_pos_site_id
 _symmetry_equiv_pos_as_xyz
  1  'x, y, z'
loop_
 _atom_site_type_symbol
 _atom_site_label
 _atom_site_symmetry_multiplicity
 _atom_site_fract_x
 _atom_site_fract_y
 _atom_site_fract_z
 _atom_site_occupancy
  Ni  Ni0  1  0.07580900  0.74633300  0.75165400  1
  Ni  Ni1  1  0.17932000  0.59988200  0.68818700  1
  Ni  Ni2  1  0.81921900  0.52264400  0.06299800  1
  Ni  Ni3  1  0.18078100  0.02264400  0.93700200  1
  Ni  Ni4  1  0.94403500  0.38534900  0.99589600  1
  Ni  Ni5  1  0.92419100  0.24633300  0.24834600  1
  Ni  Ni6  1  0.32068000  0.59988200  0.18818700  1
  Ni  Ni7  1  0.31921900  0.02264400  0.43700200  1
  Ni  Ni8  1  0.82068000  0.09988200  0.31181300  1
  Ni  Ni9  1  0.42419100  0.74633300  0.25165400  1
  Ni  Ni10  1  0.44403500  0.88534900  0.50410400  1
  Ni  Ni11  1  0.68078100  0.52264400  0.56299800  1
  Ni  Ni12  1  0.05596500  0.88534900  0.00410400  1
  Ni  Ni13  1  0.55596500  0.38534900  0.49589600  1
  Ni  Ni14  1  0.57580900  0.24633300  0.74834600  1
  Ni  Ni15  1  0.67932000  0.09988200  0.81181300  1
  Cu  Cu16  1  0.74503900  0.50161700  0.73191100  1
  Cu  Cu17  1  0.23084700  0.33898200  0.62733700  1
  Cu  Cu18  1  0.75496100  0.50161700  0.23191100  1
  Cu  Cu19  1  0.26915300  0.33898200  0.12733700  1
  Cu  Cu20  1  0.20867900  0.29468500  0.38642400  1
  Cu  Cu21  1  0.25250900  0.62894100  0.52157100  1
  Cu  Cu22  1  0.24749100  0.62894100  0.02157100  1
  Cu  Cu23  1  0.70867900  0.79468500  0.11357600  1
  Cu  Cu24  1  0.79132100  0.79468500  0.61357600  1
  Cu  Cu25  1  0.25496100  0.00161700  0.26808900  1
  Cu  Cu26  1  0.29132100  0.29468500  0.88642400  1
  Cu  Cu27  1  0.24503900  0.00161700  0.76808900  1
  Cu  Cu28  1  0.74749100  0.12894100  0.47842900  1
  Cu  Cu29  1  0.75250900  0.12894100  0.97842900  1
  Cu  Cu30  1  0.73084700  0.83898200  0.87266300  1
  Cu  Cu31  1  0.76915300  0.83898200  0.37266300  1
  C  C32  1  0.64497700  0.10911300  0.17369200  1
  C  C33  1  0.81766100  0.38049100  0.54068000  1
  C  C34  1  0.62767600  0.50316900  0.92795100  1
  C  C35  1  0.27609500  0.11673300  0.01898800  1
  C  C36  1  0.35502300  0.60911300  0.82630800  1
  C  C37  1  0.65837600  0.23316700  0.28903700  1
  C  C38  1  0.74582500  0.00089200  0.72823600  1
  C  C39  1  0.13016000  0.68116700  0.84921000  1
  C  C40  1  0.72390500  0.61673300  0.98101200  1
  C  C41  1  0.34162400  0.73316700  0.71096300  1
  C  C42  1  0.13546600  0.94971000  0.09909100  1
  C  C43  1  0.12767600  0.00316900  0.57204900  1
  C  C44  1  0.36984000  0.68116700  0.34921000  1
  C  C45  1  0.87232400  0.50316900  0.42795100  1
  C  C46  1  0.24582500  0.50089200  0.77176400  1
  C  C47  1  0.18233900  0.88049100  0.45932000  1
  C  C48  1  0.68233900  0.38049100  0.04068000  1
  C  C49  1  0.63546600  0.44971000  0.40090900  1
  C  C50  1  0.86984000  0.18116700  0.15079000  1
  C  C51  1  0.77609500  0.61673300  0.48101200  1
  C  C52  1  0.14497700  0.60911300  0.32630800  1
  C  C53  1  0.15837600  0.73316700  0.21096300  1
  C  C54  1  0.36453400  0.94971000  0.59909100  1
  C  C55  1  0.37232400  0.00316900  0.07204900  1
  C  C56  1  0.85502300  0.10911300  0.67369200  1
  C  C57  1  0.31766100  0.88049100  0.95932000  1
  C  C58  1  0.63016000  0.18116700  0.65079000  1
  C  C59  1  0.25417500  0.50089200  0.27176400  1
  C  C60  1  0.86453400  0.44971000  0.90090900  1
  C  C61  1  0.75417500  0.00089200  0.22823600  1
  C  C62  1  0.22390500  0.11673300  0.51898800  1
  C  C63  1  0.84162400  0.23316700  0.78903700  1
  C  C64  1  0.90546500  0.75373800  0.37334800  1
  C  C65  1  0.88197400  0.80499900  0.54893600  1
  C  C66  1  0.16357600  0.37739600  0.56309000  1
  C  C67  1  0.87448800  0.47962400  0.28911500  1
  C  C68  1  0.30180900  0.28669300  0.32189800  1
  C  C69  1  0.77717800  0.22806800  0.44202100  1
  C  C70  1  0.14316700  0.23163800  0.91797700  1
  C  C71  1  0.13533500  0.27107600  0.09229600  1
  C  C72  1  0.58930800  0.17783100  0.51256800  1
  C  C73  1  0.86782200  0.92368800  0.87084700  1
  C  C74  1  0.10700000  0.19731200  0.37240500  1
  C  C75  1  0.06204900  0.35742700  0.35482400  1
  C  C76  1  0.89300000  0.69731200  0.62759500  1
  C  C77  1  0.31489600  0.39196100  0.40065600  1
  C  C78  1  0.66357600  0.87739600  0.93691000  1
  C  C79  1  0.72282200  0.22806800  0.94202100  1
  C  C80  1  0.18510400  0.39196100  0.90065600  1
  C  C81  1  0.08930800  0.67783100  0.98743200  1
  C  C82  1  0.85683300  0.73163800  0.08202300  1
  C  C83  1  0.33321700  0.08813200  0.73175100  1
  C  C84  1  0.39173400  0.07327800  0.29655000  1
  C  C85  1  0.33642400  0.37739600  0.06309000  1
  C  C86  1  0.36782200  0.42368800  0.62915300  1
  C  C87  1  0.63533500  0.77107600  0.40770400  1
  C  C88  1  0.21187900  0.53051300  0.98564400  1
  C  C89  1  0.36555900  0.02252400  0.82615500  1
  C  C90  1  0.10138700  0.40814300  0.66278600  1
  C  C91  1  0.22282200  0.72806800  0.55797900  1
  C  C92  1  0.93795100  0.85742700  0.64517600  1
  C  C93  1  0.83642400  0.87739600  0.43691000  1
  C  C94  1  0.80097100  0.79924400  0.80775100  1
  C  C95  1  0.60826600  0.57327800  0.70345000  1
  C  C96  1  0.33904900  0.91331100  0.30561300  1
  C  C97  1  0.19819100  0.28669300  0.82189800  1
  C  C98  1  0.28812100  0.53051300  0.48564400  1
  C  C99  1  0.12293700  0.59440900  0.07616400  1
  C  C100  1  0.86466500  0.77107600  0.90770400  1
  C  C101  1  0.83904900  0.41331100  0.19438700  1
  C  C102  1  0.39300000  0.19731200  0.87240500  1
  C  C103  1  0.09453500  0.25373800  0.62665200  1
  C  C104  1  0.66095100  0.41331100  0.69438700  1
  C  C105  1  0.40546500  0.25373800  0.12665200  1
  C  C106  1  0.10826600  0.07327800  0.79655000  1
  C  C107  1  0.69902900  0.79924400  0.30775100  1
  C  C108  1  0.56204900  0.85742700  0.14517600  1
  C  C109  1  0.87706300  0.09440900  0.92383600  1
  C  C110  1  0.71187900  0.03051300  0.51435600  1
  C  C111  1  0.19902900  0.29924400  0.19224900  1
  C  C112  1  0.61802600  0.80499900  0.04893600  1
  C  C113  1  0.78812100  0.03051300  0.01435600  1
  C  C114  1  0.89861300  0.90814300  0.33721400  1
  C  C115  1  0.86555900  0.52252400  0.67384500  1
  C  C116  1  0.62293700  0.09440900  0.42383600  1
  C  C117  1  0.11853000  0.92756700  0.24094200  1
  C  C118  1  0.35683300  0.23163800  0.41797700  1
  C  C119  1  0.38197400  0.30499900  0.95106400  1
  C  C120  1  0.39861300  0.40814300  0.16278600  1
  C  C121  1  0.90163800  0.08051700  0.44309800  1
  C  C122  1  0.80180900  0.78669300  0.17810200  1
  C  C123  1  0.62551200  0.47962400  0.78911500  1
  C  C124  1  0.88147000  0.42756700  0.75905800  1
  C  C125  1  0.16095100  0.91331100  0.80561300  1
  C  C126  1  0.60700000  0.69731200  0.12759500  1
  C  C127  1  0.37706300  0.59440900  0.57616400  1
  C  C128  1  0.63444100  0.52252400  0.17384500  1
  C  C129  1  0.91069200  0.17783100  0.01256800  1
  C  C130  1  0.89173400  0.57327800  0.20345000  1
  C  C131  1  0.09836200  0.58051700  0.55690200  1
  C  C132  1  0.59453500  0.75373800  0.87334800  1
  C  C133  1  0.36810100  0.66493400  0.96734400  1
  C  C134  1  0.69819100  0.78669300  0.67810200  1
  C  C135  1  0.60138700  0.90814300  0.83721400  1
  C  C136  1  0.12551200  0.97962400  0.71088500  1
  C  C137  1  0.63189900  0.16493400  0.03265600  1
  C  C138  1  0.36466500  0.27107600  0.59229600  1
  C  C139  1  0.37448800  0.97962400  0.21088500  1
  C  C140  1  0.81489600  0.89196100  0.09934400  1
  C  C141  1  0.13217800  0.42368800  0.12915300  1
  C  C142  1  0.43795100  0.35742700  0.85482400  1
  C  C143  1  0.68510400  0.89196100  0.59934400  1
  C  C144  1  0.27717800  0.72806800  0.05797900  1
  C  C145  1  0.13444100  0.02252400  0.32615500  1
  C  C146  1  0.40163800  0.58051700  0.05690200  1
  C  C147  1  0.30097100  0.29924400  0.69224900  1
  C  C148  1  0.59836200  0.08051700  0.94309800  1
  C  C149  1  0.83321700  0.58813200  0.76824900  1
  C  C150  1  0.63217800  0.92368800  0.37084700  1
  C  C151  1  0.16678300  0.08813200  0.23175100  1
  C  C152  1  0.64316700  0.73163800  0.58202300  1
  C  C153  1  0.66678300  0.58813200  0.26824900  1
  C  C154  1  0.61853000  0.42756700  0.25905800  1
  C  C155  1  0.11802600  0.30499900  0.45106400  1
  C  C156  1  0.13189900  0.66493400  0.46734400  1
  C  C157  1  0.41069200  0.67783100  0.48743200  1
  C  C158  1  0.38147000  0.92756700  0.74094200  1
  C  C159  1  0.86810100  0.16493400  0.53265600  1
