# generated using pymatgen
data_Cu(NiC4)2
_symmetry_space_group_name_H-M   'P 1'
_cell_length_a   7.10979256
_cell_length_b   7.10979256
_cell_length_c   6.61962830
_cell_angle_alpha   68.06015724
_cell_angle_beta   68.06015724
_cell_angle_gamma   67.67283762
_symmetry_Int_Tables_number   1
_chemical_formula_structural   Cu(NiC4)2
_chemical_formula_sum   'Cu2 Ni4 C16'
_cell_volume   276.44771739
_cell_formula_units_Z   2
loop_
 _symmetry_equiv_pos_site_id
 _symmetry_equiv_pos_as_xyz
  1  'x, y, z'
loop_
 _atom_site_type_symbol
 _atom_site_label
 _atom_site_symmetry_multiplicity
 _atom_site_fract_x
 _atom_site_fract_y
 _atom_site_fract_z
 _atom_site_occupancy
  C  C0  1  0.15400600  0.34701700  0.31028400  1
  C  C1  1  0.65298300  0.84599400  0.18971600  1
  C  C2  1  0.84599400  0.65298300  0.68971600  1
  C  C3  1  0.34701700  0.15400600  0.81028400  1
  Ni  Ni4  1  0.23598000  0.95693500  0.29112700  1
  Ni  Ni5  1  0.04306500  0.76402000  0.20887300  1
  Ni  Ni6  1  0.76402000  0.04306500  0.70887300  1
  Ni  Ni7  1  0.95693500  0.23598000  0.79112700  1
  Cu  Cu8  1  0.68863700  0.31136300  0.25000000  1
  Cu  Cu9  1  0.31136300  0.68863700  0.75000000  1
  C  C10  1  0.68550000  0.52954000  0.09545500  1
  C  C11  1  0.47046000  0.31450000  0.40454500  1
  C  C12  1  0.31450000  0.47046000  0.90454500  1
  C  C13  1  0.52954000  0.68550000  0.59545500  1
  C  C14  1  0.83636700  0.24585700  0.39070900  1
  C  C15  1  0.75414300  0.16363300  0.10929100  1
  C  C16  1  0.16363300  0.75414300  0.60929100  1
  C  C17  1  0.24585700  0.83636700  0.89070900  1
  C  C18  1  0.32063600  0.05488800  0.19273500  1
  C  C19  1  0.94511200  0.67936400  0.30726500  1
  C  C20  1  0.67936400  0.94511200  0.80726500  1
  C  C21  1  0.05488800  0.32063600  0.69273500  1
