# generated using pymatgen
data_CuNiC6
_symmetry_space_group_name_H-M   'P 1'
_cell_length_a   7.22841523
_cell_length_b   7.22841523
_cell_length_c   7.06308600
_cell_angle_alpha   90.00000000
_cell_angle_beta   90.00000000
_cell_angle_gamma   119.99999298
_symmetry_Int_Tables_number   1
_chemical_formula_structural   CuNiC6
_chemical_formula_sum   'Cu3 Ni3 C18'
_cell_volume   319.60336382
_cell_formula_units_Z   3
loop_
 _symmetry_equiv_pos_site_id
 _symmetry_equiv_pos_as_xyz
  1  'x, y, z'
loop_
 _atom_site_type_symbol
 _atom_site_label
 _atom_site_symmetry_multiplicity
 _atom_site_fract_x
 _atom_site_fract_y
 _atom_site_fract_z
 _atom_site_occupancy
  C  C0  1  0.60657500  0.00000000  0.66666700  1
  C  C1  1  0.39342500  0.39342500  0.00000000  1
  C  C2  1  0.00000000  0.60657500  0.33333300  1
  Ni  Ni3  1  0.90716300  0.90716300  0.00000000  1
  Ni  Ni4  1  0.00000000  0.09283700  0.33333300  1
  Ni  Ni5  1  0.09283700  0.00000000  0.66666700  1
  Cu  Cu6  1  0.61234600  0.00000000  0.16666700  1
  Cu  Cu7  1  0.38765400  0.38765400  0.50000000  1
  Cu  Cu8  1  0.00000000  0.61234600  0.83333300  1
  C  C9  1  0.96037100  0.96037100  0.50000000  1
  C  C10  1  0.03962900  0.00000000  0.16666700  1
  C  C11  1  0.00000000  0.03962900  0.83333300  1
  C  C12  1  0.43189600  0.85740400  0.29903800  1
  C  C13  1  0.14259600  0.57449200  0.96570400  1
  C  C14  1  0.42550800  0.56810400  0.63237100  1
  C  C15  1  0.13855600  0.81813100  0.70281300  1
  C  C16  1  0.18186900  0.32042600  0.36948000  1
  C  C17  1  0.67957400  0.86144400  0.03614600  1
  C  C18  1  0.32042600  0.18186900  0.63052000  1
  C  C19  1  0.86144400  0.67957400  0.96385400  1
  C  C20  1  0.81813100  0.13855600  0.29718700  1
  C  C21  1  0.85740400  0.43189600  0.70096200  1
  C  C22  1  0.56810400  0.42550800  0.36762900  1
  C  C23  1  0.57449200  0.14259600  0.03429600  1
