# generated using pymatgen
data_Cu(Ni7C12)2
_symmetry_space_group_name_H-M   'P 1'
_cell_length_a   5.12565300
_cell_length_b   5.45046379
_cell_length_c   16.96727481
_cell_angle_alpha   83.78500978
_cell_angle_beta   81.36382837
_cell_angle_gamma   62.22564786
_symmetry_Int_Tables_number   1
_chemical_formula_structural   Cu(Ni7C12)2
_chemical_formula_sum   'Cu1 Ni14 C24'
_cell_volume   414.25347582
_cell_formula_units_Z   1
loop_
 _symmetry_equiv_pos_site_id
 _symmetry_equiv_pos_as_xyz
  1  'x, y, z'
loop_
 _atom_site_type_symbol
 _atom_site_label
 _atom_site_symmetry_multiplicity
 _atom_site_fract_x
 _atom_site_fract_y
 _atom_site_fract_z
 _atom_site_occupancy
  Ni  Ni0  1  0.70077300  0.28406800  0.83159500  1
  Ni  Ni1  1  0.42657100  0.84198100  0.79066300  1
  Ni  Ni2  1  0.43738200  0.03678400  0.58820200  1
  Ni  Ni3  1  0.18755900  0.58786000  0.53761100  1
  Ni  Ni4  1  0.05975400  0.66265500  0.71302900  1
  Ni  Ni5  1  0.18905900  0.78686800  0.33812900  1
  Ni  Ni6  1  0.81094100  0.21313200  0.66187100  1
  Ni  Ni7  1  0.94024600  0.33734500  0.28697100  1
  Ni  Ni8  1  0.81244100  0.41214000  0.46238900  1
  Ni  Ni9  1  0.91016100  0.57990100  0.09025500  1
  Ni  Ni10  1  0.56261800  0.96321600  0.41179800  1
  Ni  Ni11  1  0.57342900  0.15801900  0.20933700  1
  Ni  Ni12  1  0.29922700  0.71593200  0.16840500  1
  Ni  Ni13  1  0.08983900  0.42009900  0.90974500  1
  Cu  Cu14  1  0.50000000  0.50000000  0.00000000  1
  C  C15  1  0.70894300  0.00925100  0.76262200  1
  C  C16  1  0.23475100  0.93877100  0.68900500  1
  C  C17  1  0.10426200  0.12328600  0.85357200  1
  C  C18  1  0.38628600  0.38764400  0.63805300  1
  C  C19  1  0.26252800  0.55832600  0.81238800  1
  C  C20  1  0.46324500  0.76210700  0.51273900  1
  C  C21  1  0.77886600  0.49495200  0.73520900  1
  C  C22  1  0.98686100  0.68810000  0.43739200  1
  C  C23  1  0.86263400  0.86336900  0.61214600  1
  C  C24  1  0.13736600  0.13663100  0.38785400  1
  C  C25  1  0.01313900  0.31190000  0.56260800  1
  C  C26  1  0.22113400  0.50504800  0.26479100  1
  C  C27  1  0.53675500  0.23789300  0.48726100  1
  C  C28  1  0.73747200  0.44167400  0.18761200  1
  C  C29  1  0.61371400  0.61235600  0.36194700  1
  C  C30  1  0.89573800  0.87671400  0.14642800  1
  C  C31  1  0.76524900  0.06122900  0.31099500  1
  C  C32  1  0.91133900  0.30890200  0.01530300  1
  C  C33  1  0.29105700  0.99074900  0.23737800  1
  C  C34  1  0.50616700  0.21599500  0.93704000  1
  C  C35  1  0.35113300  0.38136500  0.10842600  1
  C  C36  1  0.64886700  0.61863500  0.89157400  1
  C  C37  1  0.49383300  0.78400500  0.06296000  1
  C  C38  1  0.08866100  0.69109800  0.98469700  1
