# generated using pymatgen
data_Cu(NiC2)2
_symmetry_space_group_name_H-M   'P 1'
_cell_length_a   5.48175600
_cell_length_b   7.39215400
_cell_length_c   7.54888000
_cell_angle_alpha   90.00000000
_cell_angle_beta   90.00000000
_cell_angle_gamma   90.00000000
_symmetry_Int_Tables_number   1
_chemical_formula_structural   Cu(NiC2)2
_chemical_formula_sum   'Cu4 Ni8 C16'
_cell_volume   305.89559867
_cell_formula_units_Z   4
loop_
 _symmetry_equiv_pos_site_id
 _symmetry_equiv_pos_as_xyz
  1  'x, y, z'
loop_
 _atom_site_type_symbol
 _atom_site_label
 _atom_site_symmetry_multiplicity
 _atom_site_fract_x
 _atom_site_fract_y
 _atom_site_fract_z
 _atom_site_occupancy
  Ni  Ni0  1  0.40693700  0.74394600  0.14199100  1
  Ni  Ni1  1  0.90693700  0.75605400  0.85800900  1
  Ni  Ni2  1  0.71677400  0.43694400  0.04075700  1
  Ni  Ni3  1  0.78322600  0.56305600  0.54075700  1
  Ni  Ni4  1  0.21677400  0.06305600  0.95924300  1
  Ni  Ni5  1  0.28322600  0.93694400  0.45924300  1
  Ni  Ni6  1  0.09306300  0.25605400  0.64199100  1
  Ni  Ni7  1  0.59306300  0.24394600  0.35800900  1
  Cu  Cu8  1  0.62958400  0.14386100  0.76546800  1
  Cu  Cu9  1  0.37041600  0.64386100  0.73453200  1
  Cu  Cu10  1  0.12958400  0.35613900  0.23453200  1
  Cu  Cu11  1  0.87041600  0.85613900  0.26546800  1
  C  C12  1  0.45352100  0.71326800  0.53984400  1
  C  C13  1  0.37580300  0.48673500  0.21167200  1
  C  C14  1  0.95352100  0.78673200  0.46015600  1
  C  C15  1  0.77464000  0.71758500  0.10580500  1
  C  C16  1  0.87580300  0.01326500  0.78832800  1
  C  C17  1  0.04647900  0.28673200  0.03984400  1
  C  C18  1  0.13973900  0.92706400  0.19219100  1
  C  C19  1  0.36026100  0.07293600  0.69219100  1
  C  C20  1  0.27464000  0.78241500  0.89419500  1
  C  C21  1  0.54647900  0.21326800  0.96015600  1
  C  C22  1  0.72536000  0.28241500  0.60580500  1
  C  C23  1  0.63973900  0.57293600  0.80780900  1
  C  C24  1  0.86026100  0.42706400  0.30780900  1
  C  C25  1  0.12419700  0.51326500  0.71167200  1
  C  C26  1  0.22536000  0.21758500  0.39419500  1
  C  C27  1  0.62419700  0.98673500  0.28832800  1
