# generated using pymatgen
data_CuNi2C5
_symmetry_space_group_name_H-M   'P 1'
_cell_length_a   10.87968981
_cell_length_b   10.56941814
_cell_length_c   8.16401349
_cell_angle_alpha   69.65656209
_cell_angle_beta   65.62808296
_cell_angle_gamma   44.71535495
_symmetry_Int_Tables_number   1
_chemical_formula_structural   CuNi2C5
_chemical_formula_sum   'Cu4 Ni8 C20'
_cell_volume   599.48922739
_cell_formula_units_Z   4
loop_
 _symmetry_equiv_pos_site_id
 _symmetry_equiv_pos_as_xyz
  1  'x, y, z'
loop_
 _atom_site_type_symbol
 _atom_site_label
 _atom_site_symmetry_multiplicity
 _atom_site_fract_x
 _atom_site_fract_y
 _atom_site_fract_z
 _atom_site_occupancy
  Ni  Ni0  1  0.56986900  0.93013100  0.93013100  1
  Ni  Ni1  1  0.93013100  0.56986900  0.56986900  1
  Ni  Ni2  1  0.31986900  0.68013100  0.68013100  1
  Ni  Ni3  1  0.11149400  0.11149400  0.88850600  1
  Ni  Ni4  1  0.13850600  0.13850600  0.36149400  1
  Ni  Ni5  1  0.36149400  0.36149400  0.13850600  1
  Ni  Ni6  1  0.68013100  0.31986900  0.31986900  1
  Ni  Ni7  1  0.88850600  0.88850600  0.11149400  1
  Cu  Cu8  1  0.33838900  0.33838900  0.66161100  1
  Cu  Cu9  1  0.91161100  0.91161100  0.58838900  1
  Cu  Cu10  1  0.66161100  0.66161100  0.33838900  1
  Cu  Cu11  1  0.58838900  0.58838900  0.91161100  1
  C  C12  1  0.49267000  0.00733000  0.49267000  1
  C  C13  1  0.00733000  0.49267000  0.00733000  1
  C  C14  1  0.75733000  0.24267000  0.75733000  1
  C  C15  1  0.24267000  0.75733000  0.24267000  1
  C  C16  1  0.01075400  0.65885800  0.82243700  1
  C  C17  1  0.70112300  0.28280900  0.99660500  1
  C  C18  1  0.65885800  0.01075400  0.50795100  1
  C  C19  1  0.50795100  0.82243700  0.65885800  1
  C  C20  1  0.23924600  0.59114200  0.42756300  1
  C  C21  1  0.74204900  0.42756300  0.59114200  1
  C  C22  1  0.99660500  0.01946300  0.70112300  1
  C  C23  1  0.54887700  0.96719100  0.25339500  1
  C  C24  1  0.42756300  0.74204900  0.23924600  1
  C  C25  1  0.96719100  0.54887700  0.23053700  1
  C  C26  1  0.28280900  0.70112300  0.01946300  1
  C  C27  1  0.82243700  0.50795100  0.01075400  1
  C  C28  1  0.23053700  0.25339500  0.96719100  1
  C  C29  1  0.59114200  0.23924600  0.74204900  1
  C  C30  1  0.25339500  0.23053700  0.54887700  1
  C  C31  1  0.01946300  0.99660500  0.28280900  1
