# generated using pymatgen
data_Cu4NiC4
_symmetry_space_group_name_H-M   'P 1'
_cell_length_a   12.64147900
_cell_length_b   12.64147900
_cell_length_c   12.64147900
_cell_angle_alpha   90.00000000
_cell_angle_beta   90.00000000
_cell_angle_gamma   90.00000000
_symmetry_Int_Tables_number   1
_chemical_formula_structural   Cu4NiC4
_chemical_formula_sum   'Cu32 Ni8 C32'
_cell_volume   2020.19672467
_cell_formula_units_Z   8
loop_
 _symmetry_equiv_pos_site_id
 _symmetry_equiv_pos_as_xyz
  1  'x, y, z'
loop_
 _atom_site_type_symbol
 _atom_site_label
 _atom_site_symmetry_multiplicity
 _atom_site_fract_x
 _atom_site_fract_y
 _atom_site_fract_z
 _atom_site_occupancy
  C  C0  1  0.76879300  0.02589700  0.43266800  1
  C  C1  1  0.52589700  0.43266800  0.73120700  1
  C  C2  1  0.23120700  0.97410300  0.56733200  1
  C  C3  1  0.22983900  0.72983900  0.77016100  1
  C  C4  1  0.56733200  0.26879300  0.47410300  1
  C  C5  1  0.76879300  0.47410300  0.93266800  1
  C  C6  1  0.22983900  0.77016100  0.27016100  1
  C  C7  1  0.43266800  0.76879300  0.02589700  1
  C  C8  1  0.93266800  0.76879300  0.47410300  1
  C  C9  1  0.47410300  0.56733200  0.26879300  1
  C  C10  1  0.26879300  0.02589700  0.06733200  1
  C  C11  1  0.93266800  0.73120700  0.97410300  1
  C  C12  1  0.77016100  0.27016100  0.22983900  1
  C  C13  1  0.02589700  0.43266800  0.76879300  1
  C  C14  1  0.56733200  0.23120700  0.97410300  1
  C  C15  1  0.26879300  0.47410300  0.56733200  1
  C  C16  1  0.73120700  0.52589700  0.43266800  1
  C  C17  1  0.72983900  0.72983900  0.72983900  1
  C  C18  1  0.23120700  0.52589700  0.06733200  1
  C  C19  1  0.02589700  0.06733200  0.26879300  1
  C  C20  1  0.52589700  0.06733200  0.23120700  1
  C  C21  1  0.97410300  0.93266800  0.73120700  1
  C  C22  1  0.27016100  0.22983900  0.77016100  1
  C  C23  1  0.43266800  0.73120700  0.52589700  1
  C  C24  1  0.72983900  0.77016100  0.22983900  1
  C  C25  1  0.47410300  0.93266800  0.76879300  1
  C  C26  1  0.73120700  0.97410300  0.93266800  1
  C  C27  1  0.77016100  0.22983900  0.72983900  1
  C  C28  1  0.06733200  0.23120700  0.52589700  1
  C  C29  1  0.97410300  0.56733200  0.23120700  1
  C  C30  1  0.06733200  0.26879300  0.02589700  1
  C  C31  1  0.27016100  0.27016100  0.27016100  1
  Ni  Ni32  1  0.60040000  0.89960000  0.10040000  1
  Ni  Ni33  1  0.60040000  0.60040000  0.60040000  1
  Ni  Ni34  1  0.39960000  0.10040000  0.89960000  1
  Ni  Ni35  1  0.89960000  0.10040000  0.60040000  1
  Ni  Ni36  1  0.89960000  0.39960000  0.10040000  1
  Ni  Ni37  1  0.10040000  0.89960000  0.39960000  1
  Ni  Ni38  1  0.10040000  0.60040000  0.89960000  1
  Ni  Ni39  1  0.39960000  0.39960000  0.39960000  1
  Cu  Cu40  1  0.07421400  0.25600000  0.32435600  1
  Cu  Cu41  1  0.42578600  0.75600000  0.32435600  1
  Cu  Cu42  1  0.75600000  0.17564400  0.92578600  1
  Cu  Cu43  1  0.25600000  0.32435600  0.07421400  1
  Cu  Cu44  1  0.92578600  0.75600000  0.17564400  1
  Cu  Cu45  1  0.57509100  0.42490900  0.92490900  1
  Cu  Cu46  1  0.74400000  0.82435600  0.42578600  1
  Cu  Cu47  1  0.92578600  0.74400000  0.67564400  1
  Cu  Cu48  1  0.67564400  0.92578600  0.74400000  1
  Cu  Cu49  1  0.42578600  0.74400000  0.82435600  1
  Cu  Cu50  1  0.17564400  0.92578600  0.75600000  1
  Cu  Cu51  1  0.57421400  0.25600000  0.17564400  1
  Cu  Cu52  1  0.07421400  0.24400000  0.82435600  1
  Cu  Cu53  1  0.75600000  0.32435600  0.42578600  1
  Cu  Cu54  1  0.82435600  0.07421400  0.24400000  1
  Cu  Cu55  1  0.07509100  0.42490900  0.57509100  1
  Cu  Cu56  1  0.17564400  0.57421400  0.25600000  1
  Cu  Cu57  1  0.82435600  0.42578600  0.74400000  1
  Cu  Cu58  1  0.57509100  0.07509100  0.42490900  1
  Cu  Cu59  1  0.07509100  0.07509100  0.07509100  1
  Cu  Cu60  1  0.25600000  0.17564400  0.57421400  1
  Cu  Cu61  1  0.67564400  0.57421400  0.24400000  1
  Cu  Cu62  1  0.42490900  0.57509100  0.07509100  1
  Cu  Cu63  1  0.24400000  0.67564400  0.57421400  1
  Cu  Cu64  1  0.74400000  0.67564400  0.92578600  1
  Cu  Cu65  1  0.32435600  0.42578600  0.75600000  1
  Cu  Cu66  1  0.32435600  0.07421400  0.25600000  1
  Cu  Cu67  1  0.24400000  0.82435600  0.07421400  1
  Cu  Cu68  1  0.42490900  0.92490900  0.57509100  1
  Cu  Cu69  1  0.92490900  0.92490900  0.92490900  1
  Cu  Cu70  1  0.57421400  0.24400000  0.67564400  1
  Cu  Cu71  1  0.92490900  0.57509100  0.42490900  1
