# generated using pymatgen
data_Cu2(Ni3C2)3
_symmetry_space_group_name_H-M   'P 1'
_cell_length_a   10.35573921
_cell_length_b   10.35573921
_cell_length_c   3.31832200
_cell_angle_alpha   90.00000000
_cell_angle_beta   90.00000000
_cell_angle_gamma   119.99999494
_symmetry_Int_Tables_number   1
_chemical_formula_structural   Cu2(Ni3C2)3
_chemical_formula_sum   'Cu2 Ni9 C6'
_cell_volume   308.18492416
_cell_formula_units_Z   1
loop_
 _symmetry_equiv_pos_site_id
 _symmetry_equiv_pos_as_xyz
  1  'x, y, z'
loop_
 _atom_site_type_symbol
 _atom_site_label
 _atom_site_symmetry_multiplicity
 _atom_site_fract_x
 _atom_site_fract_y
 _atom_site_fract_z
 _atom_site_occupancy
  Ni  Ni0  1  0.46296500  0.26208600  0.50000000  1
  Ni  Ni1  1  0.54150800  0.54150800  0.00000000  1
  Ni  Ni2  1  0.79912100  0.53703500  0.50000000  1
  Ni  Ni3  1  0.20087900  0.73791400  0.50000000  1
  Ni  Ni4  1  0.53703500  0.79912100  0.50000000  1
  Ni  Ni5  1  0.26208600  0.46296500  0.50000000  1
  Ni  Ni6  1  0.45849200  0.00000000  0.00000000  1
  Ni  Ni7  1  0.73791400  0.20087900  0.50000000  1
  Ni  Ni8  1  0.00000000  0.45849200  0.00000000  1
  Cu  Cu9  1  0.33333300  0.66666700  0.00000000  1
  Cu  Cu10  1  0.66666700  0.33333300  0.00000000  1
  C  C11  1  0.70574100  0.00000000  0.00000000  1
  C  C12  1  0.27482600  0.00000000  0.50000000  1
  C  C13  1  0.72517400  0.72517400  0.50000000  1
  C  C14  1  0.00000000  0.27482600  0.50000000  1
  C  C15  1  0.00000000  0.70574100  0.00000000  1
  C  C16  1  0.29425900  0.29425900  0.00000000  1
