# generated using pymatgen
data_Cu8Ni2C13
_symmetry_space_group_name_H-M   'P 1'
_cell_length_a   7.29300000
_cell_length_b   7.07503800
_cell_length_c   7.55366941
_cell_angle_alpha   88.33860231
_cell_angle_beta   90.00000000
_cell_angle_gamma   90.00000000
_symmetry_Int_Tables_number   1
_chemical_formula_structural   Cu8Ni2C13
_chemical_formula_sum   'Cu16 Ni4 C26'
_cell_volume   389.59229315
_cell_formula_units_Z   2
loop_
 _symmetry_equiv_pos_site_id
 _symmetry_equiv_pos_as_xyz
  1  'x, y, z'
loop_
 _atom_site_type_symbol
 _atom_site_label
 _atom_site_symmetry_multiplicity
 _atom_site_fract_x
 _atom_site_fract_y
 _atom_site_fract_z
 _atom_site_occupancy
  C  C0  1  0.00000000  0.50000000  0.50000000  1
  C  C1  1  0.50000000  0.00000000  0.00000000  1
  C  C2  1  0.07526500  0.77747100  0.79269500  1
  C  C3  1  0.12859200  0.44861000  0.90317800  1
  C  C4  1  0.68911000  0.71435400  0.96053800  1
  C  C5  1  0.92473500  0.22252900  0.20730500  1
  C  C6  1  0.69997400  0.36569500  0.35368200  1
  C  C7  1  0.59952200  0.64746400  0.51671900  1
  C  C8  1  0.19997400  0.13430500  0.14631800  1
  C  C9  1  0.09952200  0.85253600  0.98328100  1
  C  C10  1  0.42473500  0.27747100  0.29269500  1
  C  C11  1  0.81089000  0.21435400  0.46053800  1
  C  C12  1  0.37140800  0.94861000  0.40317800  1
  C  C13  1  0.57526500  0.72252900  0.70730500  1
  C  C14  1  0.62859200  0.05139000  0.59682200  1
  C  C15  1  0.18911000  0.78564600  0.53946200  1
  C  C16  1  0.90047800  0.14746400  0.01671900  1
  C  C17  1  0.80002600  0.86569500  0.85368200  1
  C  C18  1  0.40047800  0.35253600  0.48328100  1
  C  C19  1  0.30002600  0.63430500  0.64631800  1
  C  C20  1  0.87140800  0.55139000  0.09682200  1
  C  C21  1  0.31089000  0.28564600  0.03946200  1
  C  C22  1  0.17860200  0.19782100  0.73968200  1
  C  C23  1  0.32139800  0.69782100  0.23968200  1
  C  C24  1  0.67860200  0.30217900  0.76031800  1
  C  C25  1  0.82139800  0.80217900  0.26031800  1
  Ni  Ni26  1  0.66408000  0.20202700  0.94400100  1
  Ni  Ni27  1  0.83592000  0.70202700  0.44400100  1
  Ni  Ni28  1  0.16408000  0.29797300  0.55599900  1
  Ni  Ni29  1  0.33592000  0.79797300  0.05599900  1
  Cu  Cu30  1  0.85901700  0.41822900  0.73726700  1
  Cu  Cu31  1  0.50573800  0.66382000  0.60989200  1
  Cu  Cu32  1  0.75351800  0.61087200  0.12473900  1
  Cu  Cu33  1  0.33361400  0.17732100  0.13064900  1
  Cu  Cu34  1  0.83361400  0.32267900  0.36935100  1
  Cu  Cu35  1  0.25351800  0.88912800  0.37526100  1
  Cu  Cu36  1  0.00573800  0.83618000  0.89010800  1
  Cu  Cu37  1  0.35901700  0.08177100  0.76273300  1
  Cu  Cu38  1  0.64098300  0.91822900  0.23726700  1
  Cu  Cu39  1  0.99426200  0.16382000  0.10989200  1
  Cu  Cu40  1  0.74648200  0.11087200  0.62473900  1
  Cu  Cu41  1  0.16638600  0.67732100  0.63064900  1
  Cu  Cu42  1  0.66638600  0.82267900  0.86935100  1
  Cu  Cu43  1  0.24648200  0.38912800  0.87526100  1
  Cu  Cu44  1  0.49426200  0.33618000  0.39010800  1
  Cu  Cu45  1  0.14098300  0.58177100  0.26273300  1
