# generated using pymatgen
data_Cu12Ni2C5
_symmetry_space_group_name_H-M   'P 1'
_cell_length_a   5.63516800
_cell_length_b   9.47688600
_cell_length_c   18.20809700
_cell_angle_alpha   90.00000000
_cell_angle_beta   90.00000000
_cell_angle_gamma   90.00000000
_symmetry_Int_Tables_number   1
_chemical_formula_structural   Cu12Ni2C5
_chemical_formula_sum   'Cu48 Ni8 C20'
_cell_volume   972.38238496
_cell_formula_units_Z   4
loop_
 _symmetry_equiv_pos_site_id
 _symmetry_equiv_pos_as_xyz
  1  'x, y, z'
loop_
 _atom_site_type_symbol
 _atom_site_label
 _atom_site_symmetry_multiplicity
 _atom_site_fract_x
 _atom_site_fract_y
 _atom_site_fract_z
 _atom_site_occupancy
  C  C0  1  0.50000000  0.50000000  0.00000000  1
  C  C1  1  0.00000000  0.00000000  0.50000000  1
  C  C2  1  0.50000000  0.50000000  0.50000000  1
  C  C3  1  0.00000000  0.00000000  0.00000000  1
  C  C4  1  0.98911600  0.16576000  0.20630600  1
  C  C5  1  0.51088400  0.66576000  0.29369400  1
  C  C6  1  0.01088400  0.83424000  0.70630600  1
  C  C7  1  0.48911600  0.33424000  0.79369400  1
  C  C8  1  0.01088400  0.83424000  0.79369400  1
  C  C9  1  0.48911600  0.33424000  0.70630600  1
  C  C10  1  0.98911600  0.16576000  0.29369400  1
  C  C11  1  0.51088400  0.66576000  0.20630600  1
  C  C12  1  0.58241700  0.35833300  0.20627000  1
  C  C13  1  0.91758300  0.85833300  0.29373000  1
  C  C14  1  0.41758300  0.64166700  0.70627000  1
  C  C15  1  0.08241700  0.14166700  0.79373000  1
  C  C16  1  0.41758300  0.64166700  0.79373000  1
  C  C17  1  0.08241700  0.14166700  0.70627000  1
  C  C18  1  0.58241700  0.35833300  0.29373000  1
  C  C19  1  0.91758300  0.85833300  0.20627000  1
  Ni  Ni20  1  0.20479800  0.73544300  0.08688900  1
  Ni  Ni21  1  0.29520200  0.23544300  0.41311100  1
  Ni  Ni22  1  0.79520200  0.26455700  0.58688900  1
  Ni  Ni23  1  0.70479800  0.76455700  0.91311100  1
  Ni  Ni24  1  0.79520200  0.26455700  0.91311100  1
  Ni  Ni25  1  0.70479800  0.76455700  0.58688900  1
  Ni  Ni26  1  0.20479800  0.73544300  0.41311100  1
  Ni  Ni27  1  0.29520200  0.23544300  0.08688900  1
  Cu  Cu28  1  0.98600800  0.73427300  0.36955200  1
  Cu  Cu29  1  0.51399200  0.23427300  0.13044800  1
  Cu  Cu30  1  0.01399200  0.26572700  0.86955200  1
  Cu  Cu31  1  0.48600800  0.76572700  0.63044800  1
  Cu  Cu32  1  0.01399200  0.26572700  0.63044800  1
  Cu  Cu33  1  0.48600800  0.76572700  0.86955200  1
  Cu  Cu34  1  0.98600800  0.73427300  0.13044800  1
  Cu  Cu35  1  0.51399200  0.23427300  0.36955200  1
  Cu  Cu36  1  0.41416100  0.77857700  0.12753400  1
  Cu  Cu37  1  0.08583900  0.27857700  0.37246600  1
  Cu  Cu38  1  0.58583900  0.22142300  0.62753400  1
  Cu  Cu39  1  0.91416100  0.72142300  0.87246600  1
  Cu  Cu40  1  0.58583900  0.22142300  0.87246600  1
  Cu  Cu41  1  0.91416100  0.72142300  0.62753400  1
  Cu  Cu42  1  0.41416100  0.77857700  0.37246600  1
  Cu  Cu43  1  0.08583900  0.27857700  0.12753400  1
  Cu  Cu44  1  0.23373700  0.58761000  0.05585500  1
  Cu  Cu45  1  0.26626300  0.08761000  0.44414500  1
  Cu  Cu46  1  0.76626300  0.41239000  0.55585500  1
  Cu  Cu47  1  0.73373700  0.91239000  0.94414500  1
  Cu  Cu48  1  0.76626300  0.41239000  0.94414500  1
  Cu  Cu49  1  0.73373700  0.91239000  0.55585500  1
  Cu  Cu50  1  0.23373700  0.58761000  0.44414500  1
  Cu  Cu51  1  0.26626300  0.08761000  0.05585500  1
  Cu  Cu52  1  0.33391800  0.51583100  0.58358100  1
  Cu  Cu53  1  0.16608200  0.01583100  0.91641900  1
  Cu  Cu54  1  0.66608200  0.48416900  0.08358100  1
  Cu  Cu55  1  0.83391800  0.98416900  0.41641900  1
  Cu  Cu56  1  0.66608200  0.48416900  0.41641900  1
  Cu  Cu57  1  0.83391800  0.98416900  0.08358100  1
  Cu  Cu58  1  0.33391800  0.51583100  0.91641900  1
  Cu  Cu59  1  0.16608200  0.01583100  0.58358100  1
  Cu  Cu60  1  0.16680600  0.82349000  0.01763700  1
  Cu  Cu61  1  0.33319400  0.32349000  0.48236300  1
  Cu  Cu62  1  0.83319400  0.17651000  0.51763700  1
  Cu  Cu63  1  0.66680600  0.67651000  0.98236300  1
  Cu  Cu64  1  0.83319400  0.17651000  0.98236300  1
  Cu  Cu65  1  0.66680600  0.67651000  0.51763700  1
  Cu  Cu66  1  0.16680600  0.82349000  0.48236300  1
  Cu  Cu67  1  0.33319400  0.32349000  0.01763700  1
  Cu  Cu68  1  0.60538000  0.63716500  0.25000000  1
  Cu  Cu69  1  0.89462000  0.13716500  0.25000000  1
  Cu  Cu70  1  0.39462000  0.36283500  0.75000000  1
  Cu  Cu71  1  0.10538000  0.86283500  0.75000000  1
  Cu  Cu72  1  0.99477500  0.90048500  0.25000000  1
  Cu  Cu73  1  0.50522500  0.40048500  0.25000000  1
  Cu  Cu74  1  0.00522500  0.09951500  0.75000000  1
  Cu  Cu75  1  0.49477500  0.59951500  0.75000000  1
