# generated using pymatgen
data_Cu2Ni8C5
_symmetry_space_group_name_H-M   'P 1'
_cell_length_a   7.12584700
_cell_length_b   9.78299100
_cell_length_c   12.46874800
_cell_angle_alpha   90.00000000
_cell_angle_beta   90.00000000
_cell_angle_gamma   90.00000000
_symmetry_Int_Tables_number   1
_chemical_formula_structural   Cu2Ni8C5
_chemical_formula_sum   'Cu8 Ni32 C20'
_cell_volume   869.22257090
_cell_formula_units_Z   4
loop_
 _symmetry_equiv_pos_site_id
 _symmetry_equiv_pos_as_xyz
  1  'x, y, z'
loop_
 _atom_site_type_symbol
 _atom_site_label
 _atom_site_symmetry_multiplicity
 _atom_site_fract_x
 _atom_site_fract_y
 _atom_site_fract_z
 _atom_site_occupancy
  Ni  Ni0  1  0.75000000  0.99134800  0.23867900  1
  Ni  Ni1  1  0.75000000  0.49134800  0.26132100  1
  Ni  Ni2  1  0.25000000  0.00865200  0.76132100  1
  Ni  Ni3  1  0.25000000  0.50865200  0.73867900  1
  Ni  Ni4  1  0.75000000  0.03082300  0.10788400  1
  Ni  Ni5  1  0.75000000  0.53082300  0.39211600  1
  Ni  Ni6  1  0.25000000  0.96917700  0.89211600  1
  Ni  Ni7  1  0.25000000  0.46917700  0.60788400  1
  Ni  Ni8  1  0.63151500  0.89035200  0.15245600  1
  Ni  Ni9  1  0.86848500  0.39035200  0.34754400  1
  Ni  Ni10  1  0.13151500  0.10964800  0.84754400  1
  Ni  Ni11  1  0.36848500  0.60964800  0.65245600  1
  Ni  Ni12  1  0.36848500  0.10964800  0.84754400  1
  Ni  Ni13  1  0.13151500  0.60964800  0.65245600  1
  Ni  Ni14  1  0.86848500  0.89035200  0.15245600  1
  Ni  Ni15  1  0.63151500  0.39035200  0.34754400  1
  Ni  Ni16  1  0.75000000  0.74498300  0.83398500  1
  Ni  Ni17  1  0.75000000  0.24498300  0.66601500  1
  Ni  Ni18  1  0.25000000  0.25501700  0.16601500  1
  Ni  Ni19  1  0.25000000  0.75501700  0.33398500  1
  Ni  Ni20  1  0.75000000  0.57326000  0.84674600  1
  Ni  Ni21  1  0.75000000  0.07326000  0.65325400  1
  Ni  Ni22  1  0.25000000  0.42674000  0.15325400  1
  Ni  Ni23  1  0.25000000  0.92674000  0.34674600  1
  Ni  Ni24  1  0.63078600  0.67041700  0.93547200  1
  Ni  Ni25  1  0.86921400  0.17041700  0.56452800  1
  Ni  Ni26  1  0.13078600  0.32958300  0.06452800  1
  Ni  Ni27  1  0.36921400  0.82958300  0.43547200  1
  Ni  Ni28  1  0.36921400  0.32958300  0.06452800  1
  Ni  Ni29  1  0.13078600  0.82958300  0.43547200  1
  Ni  Ni30  1  0.86921400  0.67041700  0.93547200  1
  Ni  Ni31  1  0.63078600  0.17041700  0.56452800  1
  C  C32  1  0.75000000  0.25216400  0.92844700  1
  C  C33  1  0.75000000  0.75216400  0.57155300  1
  C  C34  1  0.25000000  0.74783600  0.07155300  1
  C  C35  1  0.25000000  0.24783600  0.42844700  1
  C  C36  1  0.75000000  0.03164500  0.88982900  1
  C  C37  1  0.75000000  0.53164500  0.61017100  1
  C  C38  1  0.25000000  0.96835500  0.11017100  1
  C  C39  1  0.25000000  0.46835500  0.38982900  1
  C  C40  1  0.75000000  0.28183800  0.10375900  1
  C  C41  1  0.75000000  0.78183800  0.39624100  1
  C  C42  1  0.25000000  0.71816200  0.89624100  1
  C  C43  1  0.25000000  0.21816200  0.60375900  1
  C  C44  1  0.49858600  0.34984500  0.85950700  1
  C  C45  1  0.00141400  0.84984500  0.64049300  1
  C  C46  1  0.99858600  0.65015500  0.14049300  1
  C  C47  1  0.50141400  0.15015500  0.35950700  1
  C  C48  1  0.50141400  0.65015500  0.14049300  1
  C  C49  1  0.99858600  0.15015500  0.35950700  1
  C  C50  1  0.00141400  0.34984500  0.85950700  1
  C  C51  1  0.49858600  0.84984500  0.64049300  1
  Cu  Cu52  1  0.75000000  0.95077400  0.16238100  1
  Cu  Cu53  1  0.75000000  0.45077400  0.33761900  1
  Cu  Cu54  1  0.25000000  0.04922600  0.83761900  1
  Cu  Cu55  1  0.25000000  0.54922600  0.66238100  1
  Cu  Cu56  1  0.75000000  0.66510800  0.88805700  1
  Cu  Cu57  1  0.75000000  0.16510800  0.61194300  1
  Cu  Cu58  1  0.25000000  0.33489200  0.11194300  1
  Cu  Cu59  1  0.25000000  0.83489200  0.38805700  1
