# generated using pymatgen
data_Cu3NiC
_symmetry_space_group_name_H-M   'P 1'
_cell_length_a   5.96675200
_cell_length_b   6.03071200
_cell_length_c   26.66903300
_cell_angle_alpha   90.00000000
_cell_angle_beta   90.00000000
_cell_angle_gamma   90.00000000
_symmetry_Int_Tables_number   1
_chemical_formula_structural   Cu3NiC
_chemical_formula_sum   'Cu24 Ni8 C8'
_cell_volume   959.65215991
_cell_formula_units_Z   8
loop_
 _symmetry_equiv_pos_site_id
 _symmetry_equiv_pos_as_xyz
  1  'x, y, z'
loop_
 _atom_site_type_symbol
 _atom_site_label
 _atom_site_symmetry_multiplicity
 _atom_site_fract_x
 _atom_site_fract_y
 _atom_site_fract_z
 _atom_site_occupancy
  C  C0  1  0.00240300  0.99991700  0.09093100  1
  C  C1  1  0.00240300  0.49991700  0.40906900  1
  C  C2  1  0.99759700  0.50008300  0.59093100  1
  C  C3  1  0.49759700  0.49991700  0.90906900  1
  C  C4  1  0.99759700  0.00008300  0.90906900  1
  C  C5  1  0.50240300  0.50008300  0.09093100  1
  C  C6  1  0.50240300  0.00008300  0.40906900  1
  C  C7  1  0.49759700  0.99991700  0.59093100  1
  Ni  Ni8  1  0.92023800  0.41470500  0.20672400  1
  Ni  Ni9  1  0.57976200  0.41470500  0.70672400  1
  Ni  Ni10  1  0.92023800  0.91470500  0.29327600  1
  Ni  Ni11  1  0.07976200  0.08529500  0.70672400  1
  Ni  Ni12  1  0.42023800  0.58529500  0.29327600  1
  Ni  Ni13  1  0.07976200  0.58529500  0.79327600  1
  Ni  Ni14  1  0.42023800  0.08529500  0.20672400  1
  Ni  Ni15  1  0.57976200  0.91470500  0.79327600  1
  Cu  Cu16  1  0.25240100  0.74780300  0.50022200  1
  Cu  Cu17  1  0.02350500  0.53770800  0.28865600  1
  Cu  Cu18  1  0.52350500  0.46229200  0.21134400  1
  Cu  Cu19  1  0.02350500  0.03770800  0.21134400  1
  Cu  Cu20  1  0.49480600  0.00450100  0.87616000  1
  Cu  Cu21  1  0.49480600  0.50450100  0.62384000  1
  Cu  Cu22  1  0.24759900  0.74780300  0.00022200  1
  Cu  Cu23  1  0.74759900  0.75219700  0.00022200  1
  Cu  Cu24  1  0.47649500  0.53770800  0.78865600  1
  Cu  Cu25  1  0.50519400  0.49549900  0.37616000  1
  Cu  Cu26  1  0.74759900  0.25219700  0.49977800  1
  Cu  Cu27  1  0.99480600  0.49549900  0.87616000  1
  Cu  Cu28  1  0.00519400  0.00450100  0.37616000  1
  Cu  Cu29  1  0.52350500  0.96229200  0.28865600  1
  Cu  Cu30  1  0.97649500  0.46229200  0.71134400  1
  Cu  Cu31  1  0.75240100  0.25219700  0.99977800  1
  Cu  Cu32  1  0.50519400  0.99549900  0.12384000  1
  Cu  Cu33  1  0.00519400  0.50450100  0.12384000  1
  Cu  Cu34  1  0.47649500  0.03770800  0.71134400  1
  Cu  Cu35  1  0.97649500  0.96229200  0.78865600  1
  Cu  Cu36  1  0.99480600  0.99549900  0.62384000  1
  Cu  Cu37  1  0.24759900  0.24780300  0.49977800  1
  Cu  Cu38  1  0.25240100  0.24780300  0.99977800  1
  Cu  Cu39  1  0.75240100  0.75219700  0.50022200  1
