# generated using pymatgen
data_Cu2(NiC6)3
_symmetry_space_group_name_H-M   'P 1'
_cell_length_a   10.44024778
_cell_length_b   10.44024778
_cell_length_c   10.44024778
_cell_angle_alpha   60.00000000
_cell_angle_beta   60.00000000
_cell_angle_gamma   60.00000000
_symmetry_Int_Tables_number   1
_chemical_formula_structural   Cu2(NiC6)3
_chemical_formula_sum   'Cu4 Ni6 C36'
_cell_volume   804.66927651
_cell_formula_units_Z   2
loop_
 _symmetry_equiv_pos_site_id
 _symmetry_equiv_pos_as_xyz
  1  'x, y, z'
loop_
 _atom_site_type_symbol
 _atom_site_label
 _atom_site_symmetry_multiplicity
 _atom_site_fract_x
 _atom_site_fract_y
 _atom_site_fract_z
 _atom_site_occupancy
  Ni  Ni0  1  0.25000000  0.25000000  0.25000000  1
  Ni  Ni1  1  0.62500000  0.12500000  0.12500000  1
  Ni  Ni2  1  0.12500000  0.62500000  0.12500000  1
  Ni  Ni3  1  0.00000000  0.00000000  0.00000000  1
  Ni  Ni4  1  0.12500000  0.12500000  0.12500000  1
  Ni  Ni5  1  0.12500000  0.12500000  0.62500000  1
  Cu  Cu6  1  0.62500000  0.12500000  0.62500000  1
  Cu  Cu7  1  0.62500000  0.62500000  0.12500000  1
  Cu  Cu8  1  0.62500000  0.62500000  0.62500000  1
  Cu  Cu9  1  0.12500000  0.62500000  0.62500000  1
  C  C10  1  0.44977300  0.18207200  0.44977300  1
  C  C11  1  0.88879000  0.88879000  0.61121000  1
  C  C12  1  0.88879000  0.61121000  0.61121000  1
  C  C13  1  0.18207200  0.44977300  0.44977300  1
  C  C14  1  0.36121000  0.63879000  0.36121000  1
  C  C15  1  0.33161800  0.80022700  0.06792800  1
  C  C16  1  0.91838200  0.18207200  0.44977300  1
  C  C17  1  0.44977300  0.91838200  0.44977300  1
  C  C18  1  0.80022700  0.06792800  0.33161800  1
  C  C19  1  0.63879000  0.36121000  0.36121000  1
  C  C20  1  0.63879000  0.36121000  0.63879000  1
  C  C21  1  0.33161800  0.80022700  0.80022700  1
  C  C22  1  0.80022700  0.33161800  0.06792800  1
  C  C23  1  0.80022700  0.33161800  0.80022700  1
  C  C24  1  0.44977300  0.91838200  0.18207200  1
  C  C25  1  0.63879000  0.63879000  0.36121000  1
  C  C26  1  0.91838200  0.44977300  0.44977300  1
  C  C27  1  0.06792800  0.33161800  0.80022700  1
  C  C28  1  0.36121000  0.63879000  0.63879000  1
  C  C29  1  0.44977300  0.18207200  0.91838200  1
  C  C30  1  0.33161800  0.06792800  0.80022700  1
  C  C31  1  0.18207200  0.91838200  0.44977300  1
  C  C32  1  0.18207200  0.44977300  0.91838200  1
  C  C33  1  0.61121000  0.88879000  0.61121000  1
  C  C34  1  0.06792800  0.80022700  0.33161800  1
  C  C35  1  0.80022700  0.80022700  0.06792800  1
  C  C36  1  0.91838200  0.44977300  0.18207200  1
  C  C37  1  0.61121000  0.88879000  0.88879000  1
  C  C38  1  0.88879000  0.61121000  0.88879000  1
  C  C39  1  0.44977300  0.44977300  0.18207200  1
  C  C40  1  0.61121000  0.61121000  0.88879000  1
  C  C41  1  0.44977300  0.44977300  0.91838200  1
  C  C42  1  0.06792800  0.80022700  0.80022700  1
  C  C43  1  0.36121000  0.36121000  0.63879000  1
  C  C44  1  0.80022700  0.80022700  0.33161800  1
  C  C45  1  0.80022700  0.06792800  0.80022700  1
