# generated using pymatgen
data_Cu2Ni6C31
_symmetry_space_group_name_H-M   'P 1'
_cell_length_a   7.55616374
_cell_length_b   7.55616374
_cell_length_c   24.68279900
_cell_angle_alpha   90.00000000
_cell_angle_beta   90.00000000
_cell_angle_gamma   109.47813298
_symmetry_Int_Tables_number   1
_chemical_formula_structural   Cu2Ni6C31
_chemical_formula_sum   'Cu4 Ni12 C62'
_cell_volume   1328.62474846
_cell_formula_units_Z   2
loop_
 _symmetry_equiv_pos_site_id
 _symmetry_equiv_pos_as_xyz
  1  'x, y, z'
loop_
 _atom_site_type_symbol
 _atom_site_label
 _atom_site_symmetry_multiplicity
 _atom_site_fract_x
 _atom_site_fract_y
 _atom_site_fract_z
 _atom_site_occupancy
  Ni  Ni0  1  0.00543500  0.50543500  0.25148700  1
  Ni  Ni1  1  0.00000000  0.50000000  0.00000000  1
  Ni  Ni2  1  0.25000000  0.25000000  0.12449500  1
  Ni  Ni3  1  0.50000000  0.00000000  0.00000000  1
  Ni  Ni4  1  0.49456500  0.99456500  0.25148700  1
  Ni  Ni5  1  0.75000000  0.75000000  0.12449500  1
  Ni  Ni6  1  0.99456500  0.49456500  0.74851300  1
  Ni  Ni7  1  0.75000000  0.75000000  0.87550500  1
  Ni  Ni8  1  0.25000000  0.25000000  0.87550500  1
  Ni  Ni9  1  0.50543500  0.00543500  0.74851300  1
  Ni  Ni10  1  0.50000000  0.00000000  0.50000000  1
  Ni  Ni11  1  0.00000000  0.50000000  0.50000000  1
  Cu  Cu12  1  0.25000000  0.25000000  0.62582500  1
  Cu  Cu13  1  0.75000000  0.75000000  0.62582500  1
  Cu  Cu14  1  0.75000000  0.75000000  0.37417500  1
  Cu  Cu15  1  0.25000000  0.25000000  0.37417500  1
  C  C16  1  0.75000000  0.25000000  0.12470300  1
  C  C17  1  0.25000000  0.75000000  0.87529700  1
  C  C18  1  0.50044300  0.49955700  0.24755000  1
  C  C19  1  0.00000000  0.00000000  0.00000000  1
  C  C20  1  0.99955700  0.00044300  0.24755000  1
  C  C21  1  0.49955700  0.50044300  0.75245000  1
  C  C22  1  0.25000000  0.75000000  0.12401600  1
  C  C23  1  0.50000000  0.50000000  0.00000000  1
  C  C24  1  0.00000000  0.00000000  0.50000000  1
  C  C25  1  0.75000000  0.25000000  0.87598400  1
  C  C26  1  0.00044300  0.99955700  0.75245000  1
  C  C27  1  0.25000000  0.75000000  0.62596600  1
  C  C28  1  0.50000000  0.50000000  0.50000000  1
  C  C29  1  0.75000000  0.25000000  0.37403400  1
  C  C30  1  0.39721200  0.60278800  0.30533900  1
  C  C31  1  0.61832000  0.38168000  0.31382700  1
  C  C32  1  0.75000000  0.75000000  0.25220000  1
  C  C33  1  0.88569000  0.11431000  0.19232900  1
  C  C34  1  0.88723600  0.11276400  0.05636800  1
  C  C35  1  0.88168000  0.11832000  0.31382700  1
  C  C36  1  0.12447400  0.87552600  0.06218700  1
  C  C37  1  0.12676200  0.87323800  0.18632100  1
  C  C38  1  0.25000000  0.25000000  0.00000000  1
  C  C39  1  0.02384800  0.52384800  0.12488800  1
  C  C40  1  0.38569000  0.61431000  0.80767100  1
  C  C41  1  0.10278800  0.89721200  0.30533900  1
  C  C42  1  0.47615200  0.97615200  0.12488800  1
  C  C43  1  0.25000000  0.25000000  0.25220000  1
  C  C44  1  0.37552600  0.62447400  0.06218700  1
  C  C45  1  0.62676200  0.37323800  0.81367900  1
  C  C46  1  0.62447400  0.37552600  0.93781300  1
  C  C47  1  0.37323800  0.62676200  0.18632100  1
  C  C48  1  0.75000000  0.75000000  0.74780000  1
  C  C49  1  0.52384800  0.02384800  0.87511200  1
  C  C50  1  0.89553500  0.10446500  0.55714700  1
  C  C51  1  0.38723600  0.61276400  0.94363200  1
  C  C52  1  0.61431000  0.38569000  0.19232900  1
  C  C53  1  0.61276400  0.38723600  0.05636800  1
  C  C54  1  0.97615200  0.47615200  0.87511200  1
  C  C55  1  0.75000000  0.75000000  0.00000000  1
  C  C56  1  0.87323800  0.12676200  0.81367900  1
  C  C57  1  0.12051500  0.87948500  0.56538400  1
  C  C58  1  0.11832000  0.88168000  0.68617300  1
  C  C59  1  0.25000000  0.25000000  0.50000000  1
  C  C60  1  0.87552600  0.12447400  0.93781300  1
  C  C61  1  0.89721200  0.10278800  0.69466100  1
  C  C62  1  0.03186900  0.53186900  0.62516400  1
  C  C63  1  0.39553500  0.60446500  0.44285300  1
  C  C64  1  0.11431000  0.88569000  0.80767100  1
  C  C65  1  0.11276400  0.88723600  0.94363200  1
  C  C66  1  0.46813100  0.96813100  0.62516400  1
  C  C67  1  0.37948500  0.62051500  0.56538400  1
  C  C68  1  0.25000000  0.25000000  0.74780000  1
  C  C69  1  0.62051500  0.37948500  0.43461600  1
  C  C70  1  0.38168000  0.61832000  0.68617300  1
  C  C71  1  0.53186900  0.03186900  0.37483600  1
  C  C72  1  0.60278800  0.39721200  0.69466100  1
  C  C73  1  0.60446500  0.39553500  0.55714700  1
  C  C74  1  0.96813100  0.46813100  0.37483600  1
  C  C75  1  0.75000000  0.75000000  0.50000000  1
  C  C76  1  0.87948500  0.12051500  0.43461600  1
  C  C77  1  0.10446500  0.89553500  0.44285300  1
