# generated using pymatgen
data_Cu3NiC5
_symmetry_space_group_name_H-M   'P 1'
_cell_length_a   6.92382600
_cell_length_b   6.16385300
_cell_length_c   11.98166019
_cell_angle_alpha   59.56882330
_cell_angle_beta   90.00000000
_cell_angle_gamma   90.00000000
_symmetry_Int_Tables_number   1
_chemical_formula_structural   Cu3NiC5
_chemical_formula_sum   'Cu12 Ni4 C20'
_cell_volume   440.90261161
_cell_formula_units_Z   4
loop_
 _symmetry_equiv_pos_site_id
 _symmetry_equiv_pos_as_xyz
  1  'x, y, z'
loop_
 _atom_site_type_symbol
 _atom_site_label
 _atom_site_symmetry_multiplicity
 _atom_site_fract_x
 _atom_site_fract_y
 _atom_site_fract_z
 _atom_site_occupancy
  C  C0  1  0.01190100  0.04254200  0.20882000  1
  C  C1  1  0.48809900  0.04254200  0.70882000  1
  C  C2  1  0.98809900  0.95745800  0.79118000  1
  C  C3  1  0.51190100  0.95745800  0.29118000  1
  C  C4  1  0.65982100  0.33824300  0.91144600  1
  C  C5  1  0.84017900  0.33824300  0.41144600  1
  C  C6  1  0.34017900  0.66175700  0.08855400  1
  C  C7  1  0.15982100  0.66175700  0.58855400  1
  C  C8  1  0.33582200  0.49009500  0.82350700  1
  C  C9  1  0.16417800  0.49009500  0.32350700  1
  C  C10  1  0.66417800  0.50990500  0.17649300  1
  C  C11  1  0.83582200  0.50990500  0.67649300  1
  C  C12  1  0.34752800  0.36169400  0.98749400  1
  C  C13  1  0.15247200  0.36169400  0.48749400  1
  C  C14  1  0.65247200  0.63830600  0.01250600  1
  C  C15  1  0.84752800  0.63830600  0.51250600  1
  C  C16  1  0.34962000  0.17047800  0.92180100  1
  C  C17  1  0.15038000  0.17047800  0.42180100  1
  C  C18  1  0.65038000  0.82952200  0.07819900  1
  C  C19  1  0.84962000  0.82952200  0.57819900  1
  Ni  Ni20  1  0.39727500  0.34333900  0.90933000  1
  Ni  Ni21  1  0.10272500  0.34333900  0.40933000  1
  Ni  Ni22  1  0.60272500  0.65666100  0.09067000  1
  Ni  Ni23  1  0.89727500  0.65666100  0.59067000  1
  Cu  Cu24  1  0.71528600  0.27085100  0.80951800  1
  Cu  Cu25  1  0.78471400  0.27085100  0.30951800  1
  Cu  Cu26  1  0.28471400  0.72914900  0.19048200  1
  Cu  Cu27  1  0.21528600  0.72914900  0.69048200  1
  Cu  Cu28  1  0.71156100  0.60638400  0.87742300  1
  Cu  Cu29  1  0.78843900  0.60638400  0.37742300  1
  Cu  Cu30  1  0.28843900  0.39361600  0.12257700  1
  Cu  Cu31  1  0.21156100  0.39361600  0.62257700  1
  Cu  Cu32  1  0.70312400  0.13379900  0.05037300  1
  Cu  Cu33  1  0.79687600  0.13379900  0.55037300  1
  Cu  Cu34  1  0.29687600  0.86620100  0.94962700  1
  Cu  Cu35  1  0.20312400  0.86620100  0.44962700  1
