# generated using pymatgen
data_Cu12Ni12C41
_symmetry_space_group_name_H-M   'P 1'
_cell_length_a   7.33250324
_cell_length_b   7.33250348
_cell_length_c   65.86529396
_cell_angle_alpha   59.93522451
_cell_angle_beta   59.93522342
_cell_angle_gamma   59.99953665
_symmetry_Int_Tables_number   1
_chemical_formula_structural   Cu12Ni12C41
_chemical_formula_sum   'Cu36 Ni36 C123'
_cell_volume   2501.60509120
_cell_formula_units_Z   3
loop_
 _symmetry_equiv_pos_site_id
 _symmetry_equiv_pos_as_xyz
  1  'x, y, z'
loop_
 _atom_site_type_symbol
 _atom_site_label
 _atom_site_symmetry_multiplicity
 _atom_site_fract_x
 _atom_site_fract_y
 _atom_site_fract_z
 _atom_site_occupancy
  Ni  Ni0  1  0.98881878  0.50085781  0.05660711  1
  Ni  Ni1  1  0.50017071  0.50017071  0.99994211  1
  Ni  Ni2  1  0.50085697  0.50085697  0.05660657  1
  Ni  Ni3  1  0.00393100  0.50217314  0.16574664  1
  Ni  Ni4  1  0.50085781  0.98881878  0.05660711  1
  Ni  Ni5  1  0.50818927  0.50818927  0.10838033  1
  Ni  Ni6  1  0.50218033  0.50218033  0.16574673  1
  Ni  Ni7  1  0.00031952  0.50023934  0.27768662  1
  Ni  Ni8  1  0.50217314  0.00393100  0.16574664  1
  Ni  Ni9  1  0.50099804  0.50099804  0.22188933  1
  Ni  Ni10  1  0.50023233  0.50023233  0.27768539  1
  Ni  Ni11  1  0.50023934  0.00031952  0.27768662  1
  Ni  Ni12  1  0.50018777  0.50018777  0.33327055  1
  Ni  Ni13  1  0.50012400  0.50012400  0.38885063  1
  Ni  Ni14  1  0.50012426  0.00009518  0.38885065  1
  Ni  Ni15  1  0.50005554  0.50005554  0.44442470  1
  Ni  Ni16  1  0.00009518  0.50012426  0.38885065  1
  Ni  Ni17  1  0.49985869  0.49985869  0.50003495  1
  Ni  Ni18  1  0.49985665  -0.00000750  0.50003465  1
  Ni  Ni19  1  0.49987253  0.49987253  0.55559944  1
  Ni  Ni20  1  -0.00000750  0.49985665  0.50003465  1
  Ni  Ni21  1  0.49980600  0.49980600  0.61118920  1
  Ni  Ni22  1  0.99589886  0.49779760  0.72316787  1
  Ni  Ni23  1  0.49980201  0.99968812  0.61118973  1
  Ni  Ni24  1  0.49779760  0.99589886  0.72316787  1
  Ni  Ni25  1  0.49903650  0.49903650  0.66698825  1
  Ni  Ni26  1  0.99968812  0.49980201  0.61118973  1
  Ni  Ni27  1  0.49780262  0.49780262  0.72316753  1
  Ni  Ni28  1  0.00860064  0.49697445  0.83305001  1
  Ni  Ni29  1  0.49135473  0.49135473  0.78065965  1
  Ni  Ni30  1  0.49697500  0.49697500  0.83304942  1
  Ni  Ni31  1  0.01218365  0.49903461  0.94330527  1
  Ni  Ni32  1  0.49710141  0.49710141  0.88985782  1
  Ni  Ni33  1  0.49697445  0.00860064  0.83305001  1
  Ni  Ni34  1  0.49904271  0.49904271  0.94330311  1
  Ni  Ni35  1  0.49903461  0.01218365  0.94330527  1
  Cu  Cu36  1  -0.00006395  -0.00006395  0.00008461  1
  Cu  Cu37  1  -0.00006683  0.49937556  0.00008484  1
  Cu  Cu38  1  0.49937556  -0.00006683  0.00008484  1
  Cu  Cu39  1  0.00070228  0.00070228  0.05531989  1
  Cu  Cu40  1  0.00029767  0.49827040  0.11123637  1
  Cu  Cu41  1  0.49827040  0.00029767  0.11123637  1
  Cu  Cu42  1  0.00003682  0.50029238  0.33329232  1
  Cu  Cu43  1  0.50029238  0.00003682  0.33329232  1
  Cu  Cu44  1  0.00029206  0.00029206  0.11123666  1
  Cu  Cu45  1  0.49951710  0.00032421  0.22220343  1
  Cu  Cu46  1  0.00032421  0.49951710  0.22220343  1
  Cu  Cu47  1  0.99977089  0.99977089  0.16674490  1
  Cu  Cu48  1  0.00014685  0.50014386  0.44439719  1
  Cu  Cu49  1  0.00004227  0.00004227  0.33329034  1
  Cu  Cu50  1  0.00033237  0.00033237  0.22220241  1
  Cu  Cu51  1  0.00019994  0.00019994  0.27770962  1
  Cu  Cu52  1  0.50014386  0.00014685  0.44439719  1
  Cu  Cu53  1  0.00029220  0.00029220  0.38879379  1
  Cu  Cu54  1  0.00011377  0.00011377  0.72218457  1
  Cu  Cu55  1  0.50051103  0.99954226  0.66671179  1
  Cu  Cu56  1  0.00014138  0.00014138  0.44439680  1
  Cu  Cu57  1  0.49984200  0.99973259  0.55563122  1
  Cu  Cu58  1  0.99973259  0.49984200  0.55563122  1
  Cu  Cu59  1  0.00007167  0.00007167  0.49997623  1
  Cu  Cu60  1  0.99954528  0.99954528  0.66671227  1
  Cu  Cu61  1  0.99973530  0.99973530  0.55563120  1
  Cu  Cu62  1  0.99954226  0.50051103  0.66671179  1
  Cu  Cu63  1  0.99969857  0.99969857  0.61121003  1
  Cu  Cu64  1  0.50229417  0.99918465  0.77770389  1
  Cu  Cu65  1  0.99918465  0.50229417  0.77770389  1
  Cu  Cu66  1  0.99918161  0.99918161  0.77770528  1
  Cu  Cu67  1  0.50451403  0.99920351  0.88856413  1
  Cu  Cu68  1  0.99863294  0.99863294  0.94489933  1
  Cu  Cu69  1  0.99920351  0.50451403  0.88856413  1
  Cu  Cu70  1  0.99892982  0.99892982  0.83368943  1
  Cu  Cu71  1  0.99920663  0.99920663  0.88856453  1
  C  C72  1  0.08269271  0.66170063  0.01043410  1
  C  C73  1  0.08762185  0.08762185  0.07374754  1
  C  C74  1  0.66170063  0.08269271  0.01043410  1
  C  C75  1  0.36473804  0.36473804  0.04508729  1
  C  C76  1  0.08762480  0.66103040  0.07374739  1
  C  C77  1  0.33128801  0.33128801  0.10239442  1
  C  C78  1  0.08771977  0.66596669  0.12003842  1
  C  C79  1  0.33000722  0.91819363  0.03706696  1
  C  C80  1  0.08343131  0.08343131  0.18516095  1
  C  C81  1  0.66170165  0.66170165  0.01043416  1
  C  C82  1  0.66103040  0.08762480  0.07374739  1
  C  C83  1  0.66596669  0.08771977  0.12003842  1
  C  C84  1  0.38908262  0.38908262  0.14808393  1
  C  C85  1  0.91819363  0.33000722  0.03706696  1
  C  C86  1  0.33128731  0.91586632  0.10239447  1
  C  C87  1  0.08343543  0.66669291  0.18516059  1
  C  C88  1  0.33212297  0.33212297  0.21308300  1
  C  C89  1  0.08312669  0.66784889  0.23124240  1
  C  C90  1  0.33428930  0.91578930  0.14823674  1
  C  C91  1  0.08285647  0.08285647  0.29632915  1
  C  C92  1  0.66669291  0.08343543  0.18516059  1
  C  C93  1  0.91586632  0.33128731  0.10239447  1
  C  C94  1  0.66596731  0.66596731  0.12003854  1
  C  C95  1  0.91819588  0.91819588  0.03706657  1
  C  C96  1  0.66784889  0.08312669  0.23124240  1
  C  C97  1  0.33212362  0.91800319  0.21308322  1
  C  C98  1  0.91578930  0.33428930  0.14823674  1
  C  C99  1  0.62814166  0.62814166  0.17950815  1
  C  C100  1  0.37587485  0.37587485  0.26359802  1
  C  C101  1  0.08285675  0.66732370  0.29632906  1
  C  C102  1  0.33243232  0.33243232  0.32414417  1
  C  C103  1  0.08296844  0.08296844  0.40741610  1
  C  C104  1  0.33326910  0.91756972  0.25906596  1
  C  C105  1  0.08260848  0.66807058  0.34236048  1
  C  C106  1  0.66732370  0.08285675  0.29632906  1
  C  C107  1  0.91800319  0.33212362  0.21308322  1
  C  C108  1  0.91579387  0.91579387  0.14823631  1
  C  C109  1  0.66784354  0.66784354  0.23124276  1
  C  C110  1  0.66807058  0.08260848  0.34236048  1
  C  C111  1  0.91756972  0.33326910  0.25906596  1
  C  C112  1  0.33242945  0.91783533  0.32414445  1
  C  C113  1  0.08297323  0.66732324  0.40741516  1
  C  C114  1  0.62523430  0.62523430  0.29158917  1
  C  C115  1  0.37529232  0.37529232  0.37490199  1
  C  C116  1  0.33260816  0.33260816  0.43522156  1
  C  C117  1  0.08263452  0.08263452  0.51860440  1
  C  C118  1  0.08268556  0.66781822  0.45352212  1
  C  C119  1  0.33319203  0.91772040  0.37015120  1
  C  C120  1  0.66732324  0.08297323  0.40741516  1
  C  C121  1  0.91783533  0.33242945  0.32414445  1
  C  C122  1  0.91757082  0.91757082  0.25906559  1
  C  C123  1  0.66807235  0.66807235  0.34236067  1
  C  C124  1  0.66781822  0.08268556  0.45352212  1
  C  C125  1  0.62525596  0.62525596  0.40269245  1
  C  C126  1  0.08263365  0.66729827  0.51860314  1
  C  C127  1  0.91772040  0.33319203  0.37015120  1
  C  C128  1  0.37507750  0.37507750  0.48608446  1
  C  C129  1  0.33259812  0.91779433  0.43522190  1
  C  C130  1  0.08233082  0.08233082  0.62980456  1
  C  C131  1  0.08253027  0.66730137  0.56476421  1
  C  C132  1  0.33234519  0.33234519  0.54646036  1
  C  C133  1  0.33280280  0.91743618  0.48136999  1
  C  C134  1  0.66729827  0.08263365  0.51860314  1
  C  C135  1  0.91779433  0.33259812  0.43522190  1
  C  C136  1  0.66780681  0.66780681  0.45352197  1
  C  C137  1  0.91772483  0.91772483  0.37015111  1
  C  C138  1  0.66730137  0.08253027  0.56476421  1
  C  C139  1  0.91743618  0.33280280  0.48136999  1
  C  C140  1  0.62491708  0.62491708  0.51391736  1
  C  C141  1  0.37472166  0.37472166  0.59731479  1
  C  C142  1  0.08233582  0.66709683  0.62980421  1
  C  C143  1  0.33233586  0.91716822  0.54646016  1
  C  C144  1  0.33209509  0.33209509  0.65763044  1
  C  C145  1  0.33224851  0.91707075  0.59262262  1
  C  C146  1  0.08192176  0.66809305  0.67576728  1
  C  C147  1  0.08396022  0.08396022  0.74075817  1
  C  C148  1  0.66709683  0.08233582  0.62980421  1
  C  C149  1  0.91716822  0.33233586  0.54646016  1
  C  C150  1  0.91743544  0.91743544  0.48136867  1
  C  C151  1  0.66729356  0.66729356  0.56476432  1
  C  C152  1  0.66809305  0.08192176  0.67576728  1
  C  C153  1  0.91707075  0.33224851  0.59262262  1
  C  C154  1  0.37194898  0.37194898  0.70935043  1
  C  C155  1  0.33209470  0.91713323  0.65763081  1
  C  C156  1  0.62420682  0.62420682  0.62526476  1
  C  C157  1  0.08396291  0.66525776  0.74075725  1
  C  C158  1  0.08310414  0.66860650  0.78663191  1
  C  C159  1  0.33374391  0.33374391  0.76895208  1
  C  C160  1  0.08244407  0.08244407  0.85184811  1
  C  C161  1  0.33338608  0.91665074  0.70370118  1
  C  C162  1  0.91713323  0.33209470  0.65763081  1
  C  C163  1  0.66525776  0.08396291  0.74075725  1
  C  C164  1  0.91707462  0.91707462  0.59262159  1
  C  C165  1  0.66808621  0.66808621  0.67576737  1
  C  C166  1  0.66860650  0.08310414  0.78663191  1
  C  C167  1  0.91665074  0.33338608  0.70370118  1
  C  C168  1  0.61082494  0.61082494  0.74083625  1
  C  C169  1  0.08244547  0.66847813  0.85184793  1
  C  C170  1  0.33373668  0.91194636  0.76895225  1
  C  C171  1  0.33951577  0.33951577  0.87888347  1
  C  C172  1  0.08279314  0.66842507  0.89781831  1
  C  C173  1  0.08099194  0.08099194  0.96318596  1
  C  C174  1  0.34003719  0.91076688  0.81538076  1
  C  C175  1  0.66847813  0.08244547  0.85184793  1
  C  C176  1  0.66860360  0.66860360  0.78663196  1
  C  C177  1  0.91194636  0.33373668  0.76895225  1
  C  C178  1  0.91665308  0.91665308  0.70370065  1
  C  C179  1  0.66842507  0.08279314  0.89781831  1
  C  C180  1  0.62551359  0.62551359  0.84705022  1
  C  C181  1  0.91076688  0.34003719  0.81538076  1
  C  C182  1  0.33951543  0.91101741  0.87888349  1
  C  C183  1  0.08098897  0.66934412  0.96318661  1
  C  C184  1  0.33701557  0.33701557  0.98989346  1
  C  C185  1  0.33833228  0.91224909  0.92635178  1
  C  C186  1  0.66934412  0.08098897  0.96318661  1
  C  C187  1  0.91101741  0.33951543  0.87888349  1
  C  C188  1  0.91077038  0.91077038  0.81537999  1
  C  C189  1  0.66842345  0.66842345  0.89781858  1
  C  C190  1  0.91224909  0.33833228  0.92635178  1
  C  C191  1  0.63432154  0.63432154  0.95522682  1
  C  C192  1  0.33701607  0.91692571  0.98989343  1
  C  C193  1  0.91692571  0.33701607  0.98989343  1
  C  C194  1  0.91224910  0.91224910  0.92635227  1
