# generated using pymatgen
data_Cu3NiC16
_symmetry_space_group_name_H-M   'P 1'
_cell_length_a   7.83737288
_cell_length_b   7.83737288
_cell_length_c   7.83737279
_cell_angle_alpha   90.72039373
_cell_angle_beta   90.72039373
_cell_angle_gamma   90.72038665
_symmetry_Int_Tables_number   1
_chemical_formula_structural   Cu3NiC16
_chemical_formula_sum   'Cu6 Ni2 C32'
_cell_volume   481.29090880
_cell_formula_units_Z   2
loop_
 _symmetry_equiv_pos_site_id
 _symmetry_equiv_pos_as_xyz
  1  'x, y, z'
loop_
 _atom_site_type_symbol
 _atom_site_label
 _atom_site_symmetry_multiplicity
 _atom_site_fract_x
 _atom_site_fract_y
 _atom_site_fract_z
 _atom_site_occupancy
  Ni  Ni0  1  0.75000000  0.75000000  0.75000000  1
  Ni  Ni1  1  0.25000000  0.25000000  0.25000000  1
  Cu  Cu2  1  0.75000000  0.24958400  0.25041600  1
  Cu  Cu3  1  0.24958400  0.25041600  0.75000000  1
  Cu  Cu4  1  0.75041600  0.74958400  0.25000000  1
  Cu  Cu5  1  0.25041600  0.75000000  0.24958400  1
  Cu  Cu6  1  0.74958400  0.25000000  0.75041600  1
  Cu  Cu7  1  0.25000000  0.75041600  0.74958400  1
  C  C8  1  0.00000000  0.50000000  0.00000000  1
  C  C9  1  0.50000000  0.00000000  0.00000000  1
  C  C10  1  0.00000000  0.00000000  0.50000000  1
  C  C11  1  0.00000000  0.50000000  0.50000000  1
  C  C12  1  0.50000000  0.50000000  0.50000000  1
  C  C13  1  0.50000000  0.50000000  0.00000000  1
  C  C14  1  0.00000000  0.00000000  0.00000000  1
  C  C15  1  0.50000000  0.00000000  0.50000000  1
  C  C16  1  0.25000000  0.03337000  0.46663000  1
  C  C17  1  0.53506100  0.24966000  0.47020800  1
  C  C18  1  0.75034000  0.52979200  0.46493900  1
  C  C19  1  0.03381700  0.75000000  0.46618300  1
  C  C20  1  0.52979200  0.46493900  0.75034000  1
  C  C21  1  0.96663000  0.53337000  0.75000000  1
  C  C22  1  0.25000000  0.53381700  0.96618300  1
  C  C23  1  0.03506100  0.97020800  0.74966000  1
  C  C24  1  0.53337000  0.75000000  0.96663000  1
  C  C25  1  0.46618300  0.03381700  0.75000000  1
  C  C26  1  0.97020800  0.74966000  0.03506100  1
  C  C27  1  0.25034000  0.96493900  0.02979200  1
  C  C28  1  0.74966000  0.03506100  0.97020800  1
  C  C29  1  0.02979200  0.25034000  0.96493900  1
  C  C30  1  0.53381700  0.96618300  0.25000000  1
  C  C31  1  0.46663000  0.25000000  0.03337000  1
  C  C32  1  0.96493900  0.02979200  0.25034000  1
  C  C33  1  0.75000000  0.46618300  0.03381700  1
  C  C34  1  0.03337000  0.46663000  0.25000000  1
  C  C35  1  0.47020800  0.53506100  0.24966000  1
  C  C36  1  0.96618300  0.25000000  0.53381700  1
  C  C37  1  0.24966000  0.47020800  0.53506100  1
  C  C38  1  0.46493900  0.75034000  0.52979200  1
  C  C39  1  0.75000000  0.96663000  0.53337000  1
