# generated using pymatgen
data_Cu4NiC7
_symmetry_space_group_name_H-M   'P 1'
_cell_length_a   7.59412400
_cell_length_b   7.59412400
_cell_length_c   5.10194600
_cell_angle_alpha   90.00000000
_cell_angle_beta   90.00000000
_cell_angle_gamma   90.00000000
_symmetry_Int_Tables_number   1
_chemical_formula_structural   Cu4NiC7
_chemical_formula_sum   'Cu8 Ni2 C14'
_cell_volume   294.23289579
_cell_formula_units_Z   2
loop_
 _symmetry_equiv_pos_site_id
 _symmetry_equiv_pos_as_xyz
  1  'x, y, z'
loop_
 _atom_site_type_symbol
 _atom_site_label
 _atom_site_symmetry_multiplicity
 _atom_site_fract_x
 _atom_site_fract_y
 _atom_site_fract_z
 _atom_site_occupancy
  C  C0  1  0.25000000  0.25000000  0.50000000  1
  C  C1  1  0.75000000  0.75000000  0.50000000  1
  C  C2  1  0.25000000  0.75000000  0.50000000  1
  C  C3  1  0.75000000  0.25000000  0.50000000  1
  C  C4  1  0.50000000  0.50000000  0.00000000  1
  C  C5  1  0.00000000  0.00000000  0.00000000  1
  C  C6  1  0.21007900  0.50000000  0.10899300  1
  C  C7  1  0.78992100  0.50000000  0.10899300  1
  C  C8  1  0.71007900  0.00000000  0.89100700  1
  C  C9  1  0.28992100  0.00000000  0.89100700  1
  C  C10  1  0.50000000  0.78992100  0.89100700  1
  C  C11  1  0.50000000  0.21007900  0.89100700  1
  C  C12  1  0.00000000  0.28992100  0.10899300  1
  C  C13  1  0.00000000  0.71007900  0.10899300  1
  Ni  Ni14  1  0.00000000  0.50000000  0.77912100  1
  Ni  Ni15  1  0.50000000  0.00000000  0.22087900  1
  Cu  Cu16  1  0.31609900  0.50000000  0.21788700  1
  Cu  Cu17  1  0.68390100  0.50000000  0.21788700  1
  Cu  Cu18  1  0.81609900  0.00000000  0.78211300  1
  Cu  Cu19  1  0.18390100  0.00000000  0.78211300  1
  Cu  Cu20  1  0.50000000  0.68390100  0.78211300  1
  Cu  Cu21  1  0.50000000  0.31609900  0.78211300  1
  Cu  Cu22  1  0.00000000  0.18390100  0.21788700  1
  Cu  Cu23  1  0.00000000  0.81609900  0.21788700  1
