# generated using pymatgen
data_Cu7Ni5C68
_symmetry_space_group_name_H-M   'P 1'
_cell_length_a   9.39020247
_cell_length_b   9.39809938
_cell_length_c   18.68812984
_cell_angle_alpha   58.85728302
_cell_angle_beta   58.73401373
_cell_angle_gamma   58.91101138
_symmetry_Int_Tables_number   1
_chemical_formula_structural   Cu7Ni5C68
_chemical_formula_sum   'Cu7 Ni5 C68'
_cell_volume   1135.13071829
_cell_formula_units_Z   1
loop_
 _symmetry_equiv_pos_site_id
 _symmetry_equiv_pos_as_xyz
  1  'x, y, z'
loop_
 _atom_site_type_symbol
 _atom_site_label
 _atom_site_symmetry_multiplicity
 _atom_site_fract_x
 _atom_site_fract_y
 _atom_site_fract_z
 _atom_site_occupancy
  C  C0  1  0.02444200  0.98448700  0.00865100  1
  C  C1  1  0.04943200  0.34123800  0.37978300  1
  C  C2  1  0.34339600  0.82099900  0.07705800  1
  C  C3  1  0.83934500  0.13531900  0.17045100  1
  C  C4  1  0.47632300  0.43694800  0.28978800  1
  C  C5  1  0.24829600  0.87432900  0.29132400  1
  C  C6  1  0.14985700  0.31161500  0.92381000  1
  C  C7  1  0.88948400  0.58676700  0.12006700  1
  C  C8  1  0.32746200  0.76800900  0.53428800  1
  C  C9  1  0.76055100  0.07985400  0.65815200  1
  C  C10  1  0.46833300  0.52196200  0.75308100  1
  C  C11  1  0.55124400  0.22233100  0.96013800  1
  C  C12  1  0.88554200  0.62159800  0.62161500  1
  C  C13  1  0.35517300  0.35472300  0.17219000  1
  C  C14  1  0.14578200  0.15098300  0.57057800  1
  C  C15  1  0.35128700  0.35280800  0.68488000  1
  C  C16  1  0.64684300  0.63289900  0.33959800  1
  C  C17  1  0.85109600  0.85726400  0.42549200  1
  C  C18  1  0.65352500  0.67451800  0.81121700  1
  C  C19  1  0.85442000  0.85746100  0.92003200  1
  Ni  Ni20  1  0.04629100  0.72258300  0.23971900  1
  Ni  Ni21  1  0.46376100  0.03953000  0.36948000  1
  Ni  Ni22  1  0.04411200  0.74771100  0.72310800  1
  Ni  Ni23  1  0.47076300  0.04068600  0.86842100  1
  Ni  Ni24  1  0.74012200  0.46904200  0.53637700  1
  Cu  Cu25  1  0.73695400  0.47695400  0.01484300  1
  Cu  Cu26  1  0.24917700  0.54468900  0.48030400  1
  Cu  Cu27  1  0.56353100  0.93935200  0.13074700  1
  Cu  Cu28  1  0.94627200  0.25605800  0.27290700  1
  Cu  Cu29  1  0.25909900  0.56769900  0.96470600  1
  Cu  Cu30  1  0.53965700  0.96782200  0.61973300  1
  Cu  Cu31  1  0.95309300  0.25489300  0.77206500  1
  C  C32  1  0.11517500  0.29080200  0.25143900  1
  C  C33  1  0.28651700  0.49590900  0.05523100  1
  C  C34  1  0.04017800  0.88409600  0.14878200  1
  C  C35  1  0.51868900  0.11816100  0.13791500  1
  C  C36  1  0.02727300  0.76356200  0.32150800  1
  C  C37  1  0.23621000  0.55450400  0.22357400  1
  C  C38  1  0.28683400  0.08846400  0.45465700  1
  C  C39  1  0.45001000  0.21176900  0.27888300  1
  C  C40  1  0.56715500  0.45875600  0.09880000  1
  C  C41  1  0.21307100  0.38287100  0.50080800  1
  C  C42  1  0.08231700  0.71325800  0.47450300  1
  C  C43  1  0.40089900  0.93610300  0.13364200  1
  C  C44  1  0.64575100  0.99372200  0.38161400  1
  C  C45  1  0.10929300  0.29700300  0.75603100  1
  C  C46  1  0.88502500  0.29939400  0.02179100  1
  C  C47  1  0.78141100  0.62321600  0.00893300  1
  C  C48  1  0.40047300  0.57528800  0.38823900  1
  C  C49  1  0.29653200  0.51265700  0.55709300  1
  C  C50  1  0.62544900  0.77429200  0.20770100  1
  C  C51  1  0.06680800  0.93097900  0.63928400  1
  C  C52  1  0.49964300  0.12134200  0.64571700  1
  C  C53  1  0.72567800  0.92914000  0.04210500  1
  C  C54  1  0.98238900  0.77286300  0.81696500  1
  C  C55  1  0.23616000  0.59128000  0.70572600  1
  C  C56  1  0.77217300  0.38844300  0.31599900  1
  C  C57  1  0.93786500  0.28198400  0.18796400  1
  C  C58  1  0.29767700  0.00498400  0.94909800  1
  C  C59  1  0.46727300  0.86633700  0.36716200  1
  C  C60  1  0.96325600  0.06793200  0.34403300  1
  C  C61  1  0.40996900  0.24402200  0.79760500  1
  C  C62  1  0.67798400  0.51875700  0.45734900  1
  C  C63  1  0.58423600  0.41050500  0.62966200  1
  C  C64  1  0.27979200  0.41734700  0.94598200  1
  C  C65  1  0.07261000  0.71486700  0.97334600  1
  C  C66  1  0.88937000  0.64262600  0.28223600  1
  C  C67  1  0.37818600  0.99890700  0.60458600  1
  C  C68  1  0.61906300  0.02022400  0.90014800  1
  C  C69  1  0.92220000  0.29478500  0.53374200  1
  C  C70  1  0.77365200  0.63741100  0.52275300  1
  C  C71  1  0.40173100  0.65045900  0.88587600  1
  C  C72  1  0.57671600  0.78537500  0.69601200  1
  C  C73  1  0.71014800  0.95622200  0.53696400  1
  C  C74  1  0.77587900  0.41469700  0.78621100  1
  C  C75  1  0.99137900  0.22739800  0.68810100  1
  C  C76  1  0.58763000  0.91460000  0.80676200  1
  C  C77  1  0.93061700  0.08863400  0.85646000  1
  C  C78  1  0.69533400  0.54470500  0.93009700  1
  C  C79  1  0.89980200  0.70116600  0.72208200  1
