# generated using pymatgen
data_CuNiC5
_symmetry_space_group_name_H-M   'P 1'
_cell_length_a   4.63737800
_cell_length_b   14.37609400
_cell_length_c   17.48109300
_cell_angle_alpha   90.00000000
_cell_angle_beta   90.00000000
_cell_angle_gamma   90.00000000
_symmetry_Int_Tables_number   1
_chemical_formula_structural   CuNiC5
_chemical_formula_sum   'Cu12 Ni12 C60'
_cell_volume   1165.41870553
_cell_formula_units_Z   12
loop_
 _symmetry_equiv_pos_site_id
 _symmetry_equiv_pos_as_xyz
  1  'x, y, z'
loop_
 _atom_site_type_symbol
 _atom_site_label
 _atom_site_symmetry_multiplicity
 _atom_site_fract_x
 _atom_site_fract_y
 _atom_site_fract_z
 _atom_site_occupancy
  C  C0  1  0.35968600  0.39785300  0.25000000  1
  C  C1  1  0.14031400  0.89785300  0.25000000  1
  C  C2  1  0.64031400  0.60214700  0.75000000  1
  C  C3  1  0.85968600  0.10214700  0.75000000  1
  C  C4  1  0.80013200  0.60276700  0.41368000  1
  C  C5  1  0.69986800  0.10276700  0.08632000  1
  C  C6  1  0.19986800  0.39723300  0.91368000  1
  C  C7  1  0.30013200  0.89723300  0.58632000  1
  C  C8  1  0.19986800  0.39723300  0.58632000  1
  C  C9  1  0.30013200  0.89723300  0.91368000  1
  C  C10  1  0.80013200  0.60276700  0.08632000  1
  C  C11  1  0.69986800  0.10276700  0.41368000  1
  Ni  Ni12  1  0.25537500  0.13316500  0.25000000  1
  Ni  Ni13  1  0.24462500  0.63316500  0.25000000  1
  Ni  Ni14  1  0.74462500  0.86683500  0.75000000  1
  Ni  Ni15  1  0.75537500  0.36683500  0.75000000  1
  Ni  Ni16  1  0.77105600  0.35913300  0.41702900  1
  Ni  Ni17  1  0.72894400  0.85913300  0.08297100  1
  Ni  Ni18  1  0.22894400  0.64086700  0.91702900  1
  Ni  Ni19  1  0.27105600  0.14086700  0.58297100  1
  Ni  Ni20  1  0.22894400  0.64086700  0.58297100  1
  Ni  Ni21  1  0.27105600  0.14086700  0.91702900  1
  Ni  Ni22  1  0.77105600  0.35913300  0.08297100  1
  Ni  Ni23  1  0.72894400  0.85913300  0.41702900  1
  Cu  Cu24  1  0.22234600  0.29325000  0.42134700  1
  Cu  Cu25  1  0.27765400  0.79325000  0.07865300  1
  Cu  Cu26  1  0.77765400  0.70675000  0.92134700  1
  Cu  Cu27  1  0.72234600  0.20675000  0.57865300  1
  Cu  Cu28  1  0.77765400  0.70675000  0.57865300  1
  Cu  Cu29  1  0.72234600  0.20675000  0.92134700  1
  Cu  Cu30  1  0.22234600  0.29325000  0.07865300  1
  Cu  Cu31  1  0.27765400  0.79325000  0.42134700  1
  Cu  Cu32  1  0.85952900  0.21329500  0.25000000  1
  Cu  Cu33  1  0.64047100  0.71329500  0.25000000  1
  Cu  Cu34  1  0.14047100  0.78670500  0.75000000  1
  Cu  Cu35  1  0.35952900  0.28670500  0.75000000  1
  C  C36  1  0.87706500  0.41759300  0.34847400  1
  C  C37  1  0.62293500  0.91759300  0.15152600  1
  C  C38  1  0.12293500  0.58240700  0.84847400  1
  C  C39  1  0.37706500  0.08240700  0.65152600  1
  C  C40  1  0.12293500  0.58240700  0.65152600  1
  C  C41  1  0.37706500  0.08240700  0.84847400  1
  C  C42  1  0.87706500  0.41759300  0.15152600  1
  C  C43  1  0.62293500  0.91759300  0.34847400  1
  C  C44  1  0.17742500  0.07803800  0.32276500  1
  C  C45  1  0.32257500  0.57803800  0.17723500  1
  C  C46  1  0.82257500  0.92196200  0.82276500  1
  C  C47  1  0.67742500  0.42196200  0.67723500  1
  C  C48  1  0.82257500  0.92196200  0.67723500  1
  C  C49  1  0.67742500  0.42196200  0.82276500  1
  C  C50  1  0.17742500  0.07803800  0.17723500  1
  C  C51  1  0.32257500  0.57803800  0.32276500  1
  C  C52  1  0.71213700  0.42094300  0.48706600  1
  C  C53  1  0.78786300  0.92094300  0.01293400  1
  C  C54  1  0.28786300  0.57905700  0.98706600  1
  C  C55  1  0.21213700  0.07905700  0.51293400  1
  C  C56  1  0.28786300  0.57905700  0.51293400  1
  C  C57  1  0.21213700  0.07905700  0.98706600  1
  C  C58  1  0.71213700  0.42094300  0.01293400  1
  C  C59  1  0.78786300  0.92094300  0.48706600  1
  C  C60  1  0.51110200  0.29872600  0.39169700  1
  C  C61  1  0.98889800  0.79872600  0.10830300  1
  C  C62  1  0.48889800  0.70127400  0.89169700  1
  C  C63  1  0.01110200  0.20127400  0.60830300  1
  C  C64  1  0.48889800  0.70127400  0.60830300  1
  C  C65  1  0.01110200  0.20127400  0.89169700  1
  C  C66  1  0.51110200  0.29872600  0.10830300  1
  C  C67  1  0.98889800  0.79872600  0.39169700  1
  C  C68  1  0.01242400  0.28525300  0.44293000  1
  C  C69  1  0.48757600  0.78525300  0.05707000  1
  C  C70  1  0.98757600  0.71474700  0.94293000  1
  C  C71  1  0.51242400  0.21474700  0.55707000  1
  C  C72  1  0.98757600  0.71474700  0.55707000  1
  C  C73  1  0.51242400  0.21474700  0.94293000  1
  C  C74  1  0.01242400  0.28525300  0.05707000  1
  C  C75  1  0.48757600  0.78525300  0.44293000  1
  C  C76  1  0.57323600  0.16152700  0.25000000  1
  C  C77  1  0.92676400  0.66152700  0.25000000  1
  C  C78  1  0.42676400  0.83847300  0.75000000  1
  C  C79  1  0.07323600  0.33847300  0.75000000  1
  C  C80  1  0.07389200  0.22898200  0.25000000  1
  C  C81  1  0.42610800  0.72898200  0.25000000  1
  C  C82  1  0.92610800  0.77101800  0.75000000  1
  C  C83  1  0.57389200  0.27101800  0.75000000  1
