# generated using pymatgen
data_Cu4Ni2C
_symmetry_space_group_name_H-M   'P 1'
_cell_length_a   7.96515625
_cell_length_b   7.96515625
_cell_length_c   7.96515625
_cell_angle_alpha   60.00000000
_cell_angle_beta   60.00000000
_cell_angle_gamma   60.00000000
_symmetry_Int_Tables_number   1
_chemical_formula_structural   Cu4Ni2C
_chemical_formula_sum   'Cu16 Ni8 C4'
_cell_volume   357.32870189
_cell_formula_units_Z   4
loop_
 _symmetry_equiv_pos_site_id
 _symmetry_equiv_pos_as_xyz
  1  'x, y, z'
loop_
 _atom_site_type_symbol
 _atom_site_label
 _atom_site_symmetry_multiplicity
 _atom_site_fract_x
 _atom_site_fract_y
 _atom_site_fract_z
 _atom_site_occupancy
  Ni  Ni0  1  0.24588900  0.91803700  0.91803700  1
  Ni  Ni1  1  0.91803700  0.24588900  0.91803700  1
  Ni  Ni2  1  0.91803700  0.91803700  0.91803700  1
  Ni  Ni3  1  0.91803700  0.91803700  0.24588900  1
  Ni  Ni4  1  0.00411100  0.33196300  0.33196300  1
  Ni  Ni5  1  0.33196300  0.33196300  0.00411100  1
  Ni  Ni6  1  0.33196300  0.00411100  0.33196300  1
  Ni  Ni7  1  0.33196300  0.33196300  0.33196300  1
  Cu  Cu8  1  0.69027900  0.30972100  0.69027900  1
  Cu  Cu9  1  0.62500000  0.12500000  0.12500000  1
  Cu  Cu10  1  0.55972100  0.55972100  0.94027900  1
  Cu  Cu11  1  0.55972100  0.94027900  0.55972100  1
  Cu  Cu12  1  0.94027900  0.94027900  0.55972100  1
  Cu  Cu13  1  0.94027900  0.55972100  0.55972100  1
  Cu  Cu14  1  0.94027900  0.55972100  0.94027900  1
  Cu  Cu15  1  0.69027900  0.30972100  0.30972100  1
  Cu  Cu16  1  0.30972100  0.69027900  0.30972100  1
  Cu  Cu17  1  0.12500000  0.12500000  0.62500000  1
  Cu  Cu18  1  0.30972100  0.30972100  0.69027900  1
  Cu  Cu19  1  0.30972100  0.69027900  0.69027900  1
  Cu  Cu20  1  0.69027900  0.69027900  0.30972100  1
  Cu  Cu21  1  0.12500000  0.62500000  0.12500000  1
  Cu  Cu22  1  0.12500000  0.12500000  0.12500000  1
  Cu  Cu23  1  0.55972100  0.94027900  0.94027900  1
  C  C24  1  0.62500000  0.62500000  0.62500000  1
  C  C25  1  0.12500000  0.62500000  0.62500000  1
  C  C26  1  0.62500000  0.12500000  0.62500000  1
  C  C27  1  0.62500000  0.62500000  0.12500000  1
