# generated using pymatgen
data_Cu3(NiC2)2
_symmetry_space_group_name_H-M   'P 1'
_cell_length_a   5.20855300
_cell_length_b   6.74466200
_cell_length_c   13.67376300
_cell_angle_alpha   90.00000000
_cell_angle_beta   90.00000000
_cell_angle_gamma   90.00000000
_symmetry_Int_Tables_number   1
_chemical_formula_structural   Cu3(NiC2)2
_chemical_formula_sum   'Cu12 Ni8 C16'
_cell_volume   480.35833011
_cell_formula_units_Z   4
loop_
 _symmetry_equiv_pos_site_id
 _symmetry_equiv_pos_as_xyz
  1  'x, y, z'
loop_
 _atom_site_type_symbol
 _atom_site_label
 _atom_site_symmetry_multiplicity
 _atom_site_fract_x
 _atom_site_fract_y
 _atom_site_fract_z
 _atom_site_occupancy
  Ni  Ni0  1  0.22984900  0.40046800  0.14507000  1
  Ni  Ni1  1  0.72984900  0.09953200  0.14507000  1
  Ni  Ni2  1  0.27015100  0.09953200  0.64507000  1
  Ni  Ni3  1  0.77015100  0.40046800  0.64507000  1
  Ni  Ni4  1  0.22984900  0.59953200  0.35493000  1
  Ni  Ni5  1  0.72984900  0.90046800  0.35493000  1
  Ni  Ni6  1  0.27015100  0.90046800  0.85493000  1
  Ni  Ni7  1  0.77015100  0.59953200  0.85493000  1
  Cu  Cu8  1  0.99385600  0.27683200  0.98064900  1
  Cu  Cu9  1  0.50614400  0.22316800  0.48064900  1
  Cu  Cu10  1  0.77675500  0.00000000  0.75000000  1
  Cu  Cu11  1  0.49385600  0.22316800  0.98064900  1
  Cu  Cu12  1  0.72324500  0.50000000  0.25000000  1
  Cu  Cu13  1  0.49385600  0.77683200  0.51935100  1
  Cu  Cu14  1  0.00614400  0.27683200  0.48064900  1
  Cu  Cu15  1  0.00614400  0.72316800  0.01935100  1
  Cu  Cu16  1  0.22324500  0.00000000  0.25000000  1
  Cu  Cu17  1  0.27675500  0.50000000  0.75000000  1
  Cu  Cu18  1  0.50614400  0.77683200  0.01935100  1
  Cu  Cu19  1  0.99385600  0.72316800  0.51935100  1
  C  C20  1  0.21581600  0.01974200  0.06860400  1
  C  C21  1  0.71581600  0.51974200  0.43139600  1
  C  C22  1  0.78418400  0.01974200  0.56860400  1
  C  C23  1  0.47884600  0.75380400  0.18806000  1
  C  C24  1  0.02115400  0.25380400  0.81194000  1
  C  C25  1  0.52115400  0.24619600  0.81194000  1
  C  C26  1  0.21581600  0.98025800  0.43139600  1
  C  C27  1  0.28418400  0.51974200  0.93139600  1
  C  C28  1  0.97884600  0.74619600  0.18806000  1
  C  C29  1  0.71581600  0.48025800  0.06860400  1
  C  C30  1  0.28418400  0.48025800  0.56860400  1
  C  C31  1  0.47884600  0.24619600  0.31194000  1
  C  C32  1  0.02115400  0.74619600  0.68806000  1
  C  C33  1  0.78418400  0.98025800  0.93139600  1
  C  C34  1  0.52115400  0.75380400  0.68806000  1
  C  C35  1  0.97884600  0.25380400  0.31194000  1
