# generated using pymatgen
data_Cu4NiC3
_symmetry_space_group_name_H-M   'P 1'
_cell_length_a   7.96637880
_cell_length_b   11.47838276
_cell_length_c   9.10900946
_cell_angle_alpha   72.92570088
_cell_angle_beta   99.80121600
_cell_angle_gamma   81.91250599
_symmetry_Int_Tables_number   1
_chemical_formula_structural   Cu4NiC3
_chemical_formula_sum   'Cu32 Ni8 C24'
_cell_volume   768.36385298
_cell_formula_units_Z   8
loop_
 _symmetry_equiv_pos_site_id
 _symmetry_equiv_pos_as_xyz
  1  'x, y, z'
loop_
 _atom_site_type_symbol
 _atom_site_label
 _atom_site_symmetry_multiplicity
 _atom_site_fract_x
 _atom_site_fract_y
 _atom_site_fract_z
 _atom_site_occupancy
  C  C0  1  0.61028900  0.21442900  0.87288900  1
  C  C1  1  0.11272900  0.71226400  0.37356300  1
  C  C2  1  0.88886600  0.28730100  0.62794000  1
  C  C3  1  0.38790900  0.78744300  0.12518300  1
  C  C4  1  0.24886700  0.74996200  0.74885400  1
  C  C5  1  0.00098700  0.99981200  0.50001500  1
  C  C6  1  0.49903900  0.49942300  0.99992100  1
  C  C7  1  0.75018900  0.25015400  0.25021300  1
  C  C8  1  0.42050300  0.40750000  0.40546000  1
  C  C9  1  0.91991400  0.90682400  0.90416600  1
  C  C10  1  0.07986000  0.09305600  0.09573600  1
  C  C11  1  0.58160200  0.59594000  0.59553900  1
  C  C12  1  0.41186100  0.30491000  0.19128000  1
  C  C13  1  0.91210000  0.80349800  0.69122300  1
  C  C14  1  0.08950700  0.19464300  0.30982400  1
  C  C15  1  0.58579300  0.69648700  0.80894800  1
  C  C16  1  0.09175700  0.34717300  0.38391400  1
  C  C17  1  0.59145200  0.84803600  0.88421500  1
  C  C18  1  0.40809000  0.15282600  0.11548400  1
  C  C19  1  0.90886900  0.65106800  0.61501400  1
  C  C20  1  0.21338100  0.22260500  0.50833800  1
  C  C21  1  0.71311700  0.72278200  0.00774700  1
  C  C22  1  0.28695700  0.27809000  0.99129200  1
  C  C23  1  0.78678000  0.77709900  0.49150600  1
  Ni  Ni24  1  0.22993000  0.46817800  0.68592200  1
  Ni  Ni25  1  0.73130400  0.96821000  0.18726700  1
  Ni  Ni26  1  0.26885000  0.03183000  0.81380700  1
  Ni  Ni27  1  0.76968500  0.53192200  0.31385500  1
  Ni  Ni28  1  0.87351300  0.37775500  0.91944600  1
  Ni  Ni29  1  0.37253100  0.87831400  0.41620100  1
  Ni  Ni30  1  0.62868700  0.12096400  0.58232300  1
  Ni  Ni31  1  0.12779900  0.62051800  0.08275600  1
  Cu  Cu32  1  0.32761200  0.41245900  0.86067200  1
  Cu  Cu33  1  0.83004600  0.91190400  0.36167900  1
  Cu  Cu34  1  0.16985300  0.08796100  0.63964400  1
  Cu  Cu35  1  0.66971100  0.58782300  0.14007400  1
  Cu  Cu36  1  0.85481100  0.39505300  0.34038300  1
  Cu  Cu37  1  0.35639300  0.89528300  0.84003900  1
  Cu  Cu38  1  0.64571600  0.10505900  0.16095100  1
  Cu  Cu39  1  0.14171000  0.60473600  0.65922800  1
  Cu  Cu40  1  0.37652300  0.48293600  0.59247600  1
  Cu  Cu41  1  0.87722400  0.98157400  0.09262900  1
  Cu  Cu42  1  0.12318900  0.01701300  0.90878300  1
  Cu  Cu43  1  0.62476200  0.51834900  0.41054100  1
  Cu  Cu44  1  0.71088700  0.36678000  0.99764500  1
  Cu  Cu45  1  0.21179700  0.86588800  0.49655500  1
  Cu  Cu46  1  0.78961100  0.13451100  0.50297000  1
  Cu  Cu47  1  0.28820700  0.63354400  0.00246800  1
  Cu  Cu48  1  0.57725200  0.25385700  0.59254400  1
  Cu  Cu49  1  0.07660600  0.75381400  0.09163600  1
  Cu  Cu50  1  0.92061200  0.24437400  0.90885100  1
  Cu  Cu51  1  0.41911300  0.74628900  0.40297100  1
  Cu  Cu52  1  0.70792500  0.04586300  0.75538500  1
  Cu  Cu53  1  0.20724800  0.54615400  0.25598100  1
  Cu  Cu54  1  0.79753700  0.45404600  0.74709100  1
  Cu  Cu55  1  0.29409700  0.95629800  0.24419600  1
  Cu  Cu56  1  0.49797600  0.35341200  0.21735900  1
  Cu  Cu57  1  0.99889200  0.85146600  0.71706500  1
  Cu  Cu58  1  0.00227100  0.14690200  0.28387300  1
  Cu  Cu59  1  0.50080300  0.64766200  0.78081000  1
  Cu  Cu60  1  0.20990800  0.29420900  0.41355300  1
  Cu  Cu61  1  0.70861200  0.79377300  0.91190000  1
  Cu  Cu62  1  0.29030500  0.20623500  0.08587500  1
  Cu  Cu63  1  0.79007500  0.70375400  0.58433700  1
