# generated using pymatgen
data_CuNi4C7
_symmetry_space_group_name_H-M   'P 1'
_cell_length_a   19.14428500
_cell_length_b   6.70774600
_cell_length_c   8.65922892
_cell_angle_alpha   84.18823872
_cell_angle_beta   90.00000000
_cell_angle_gamma   90.00000000
_symmetry_Int_Tables_number   1
_chemical_formula_structural   CuNi4C7
_chemical_formula_sum   'Cu8 Ni32 C56'
_cell_volume   1106.25927855
_cell_formula_units_Z   8
loop_
 _symmetry_equiv_pos_site_id
 _symmetry_equiv_pos_as_xyz
  1  'x, y, z'
loop_
 _atom_site_type_symbol
 _atom_site_label
 _atom_site_symmetry_multiplicity
 _atom_site_fract_x
 _atom_site_fract_y
 _atom_site_fract_z
 _atom_site_occupancy
  C  C0  1  0.71824200  0.35139500  0.61920000  1
  C  C1  1  0.21824200  0.64860500  0.88080000  1
  C  C2  1  0.28175800  0.64860500  0.38080000  1
  C  C3  1  0.78175800  0.35139500  0.11920000  1
  C  C4  1  0.62185800  0.84550300  0.28319800  1
  C  C5  1  0.12185800  0.15449700  0.21680200  1
  C  C6  1  0.37814200  0.15449700  0.71680200  1
  C  C7  1  0.87814200  0.84550300  0.78319800  1
  Ni  Ni8  1  0.90787600  0.86589300  0.44209200  1
  Ni  Ni9  1  0.40787600  0.13410700  0.05790800  1
  Ni  Ni10  1  0.09212400  0.13410700  0.55790800  1
  Ni  Ni11  1  0.59212400  0.86589300  0.94209200  1
  Ni  Ni12  1  0.97711300  0.75259300  0.48782100  1
  Ni  Ni13  1  0.47711300  0.24740700  0.01217900  1
  Ni  Ni14  1  0.02288700  0.24740700  0.51217900  1
  Ni  Ni15  1  0.52288700  0.75259300  0.98782100  1
  Ni  Ni16  1  0.63713400  0.80985000  0.64640800  1
  Ni  Ni17  1  0.13713400  0.19015000  0.85359200  1
  Ni  Ni18  1  0.36286600  0.19015000  0.35359200  1
  Ni  Ni19  1  0.86286600  0.80985000  0.14640800  1
  Ni  Ni20  1  0.56793500  0.70283500  0.61037100  1
  Ni  Ni21  1  0.06793500  0.29716500  0.88962900  1
  Ni  Ni22  1  0.43206500  0.29716500  0.38962900  1
  Ni  Ni23  1  0.93206500  0.70283500  0.11037100  1
  Ni  Ni24  1  0.60324500  0.30103200  0.94699200  1
  Ni  Ni25  1  0.10324500  0.69896800  0.55300800  1
  Ni  Ni26  1  0.39675500  0.69896800  0.05300800  1
  Ni  Ni27  1  0.89675500  0.30103200  0.44699200  1
  Ni  Ni28  1  0.57038300  0.48000800  0.83694900  1
  Ni  Ni29  1  0.07038300  0.51999200  0.66305100  1
  Ni  Ni30  1  0.42961700  0.51999200  0.16305100  1
  Ni  Ni31  1  0.92961700  0.48000800  0.33694900  1
  Ni  Ni32  1  0.52703200  0.17158500  0.56802700  1
  Ni  Ni33  1  0.02703200  0.82841500  0.93197300  1
  Ni  Ni34  1  0.47296800  0.82841500  0.43197300  1
  Ni  Ni35  1  0.97296800  0.17158500  0.06802700  1
  Ni  Ni36  1  0.53575700  0.23313200  0.73941600  1
  Ni  Ni37  1  0.03575700  0.76686800  0.76058400  1
  Ni  Ni38  1  0.46424300  0.76686800  0.26058400  1
  Ni  Ni39  1  0.96424300  0.23313200  0.23941600  1
  Cu  Cu40  1  0.77630700  0.87340700  0.40579600  1
  Cu  Cu41  1  0.27630700  0.12659300  0.09420400  1
  Cu  Cu42  1  0.22369300  0.12659300  0.59420400  1
  Cu  Cu43  1  0.72369300  0.87340700  0.90579600  1
  Cu  Cu44  1  0.57560800  0.30208600  0.27190100  1
  Cu  Cu45  1  0.07560800  0.69791400  0.22809900  1
  Cu  Cu46  1  0.42439200  0.69791400  0.72809900  1
  Cu  Cu47  1  0.92439200  0.30208600  0.77190100  1
  C  C48  1  0.65959800  0.91296100  0.80966400  1
  C  C49  1  0.15959800  0.08703900  0.69033600  1
  C  C50  1  0.34040200  0.08703900  0.19033600  1
  C  C51  1  0.84040200  0.91296100  0.30966400  1
  C  C52  1  0.79542300  0.86080200  0.57247100  1
  C  C53  1  0.29542300  0.13919800  0.92752900  1
  C  C54  1  0.20457700  0.13919800  0.42752900  1
  C  C55  1  0.70457700  0.86080200  0.07247100  1
  C  C56  1  0.77545600  0.04037000  0.87127800  1
  C  C57  1  0.27545600  0.95963000  0.62872200  1
  C  C58  1  0.22454400  0.95963000  0.12872200  1
  C  C59  1  0.72454400  0.04037000  0.37127800  1
  C  C60  1  0.75980100  0.68559000  0.87123100  1
  C  C61  1  0.25980100  0.31441000  0.62876900  1
  C  C62  1  0.24019900  0.31441000  0.12876900  1
  C  C63  1  0.74019900  0.68559000  0.37123100  1
  C  C64  1  0.88259300  0.48433100  0.79038300  1
  C  C65  1  0.38259300  0.51566900  0.70961700  1
  C  C66  1  0.11740700  0.51566900  0.20961700  1
  C  C67  1  0.61740700  0.48433100  0.29038300  1
  C  C68  1  0.50158300  0.35081800  0.23788400  1
  C  C69  1  0.00158300  0.64918200  0.26211600  1
  C  C70  1  0.49841700  0.64918200  0.76211600  1
  C  C71  1  0.99841700  0.35081800  0.73788400  1
  C  C72  1  0.89291500  0.19372300  0.64414200  1
  C  C73  1  0.39291500  0.80627700  0.85585800  1
  C  C74  1  0.10708500  0.80627700  0.35585800  1
  C  C75  1  0.60708500  0.19372300  0.14414200  1
  C  C76  1  0.91865200  0.15653400  0.91473200  1
  C  C77  1  0.41865200  0.84346600  0.58526800  1
  C  C78  1  0.08134800  0.84346600  0.08526800  1
  C  C79  1  0.58134800  0.15653400  0.41473200  1
  C  C80  1  0.93607800  0.81015300  0.53290100  1
  C  C81  1  0.43607800  0.18984700  0.96709900  1
  C  C82  1  0.06392200  0.18984700  0.46709900  1
  C  C83  1  0.56392200  0.81015300  0.03290100  1
  C  C84  1  0.61380200  0.73955900  0.56394000  1
  C  C85  1  0.11380200  0.26044100  0.93606000  1
  C  C86  1  0.38619800  0.26044100  0.43606000  1
  C  C87  1  0.88619800  0.73955900  0.06394000  1
  C  C88  1  0.59633600  0.35334800  0.83726200  1
  C  C89  1  0.09633600  0.64665200  0.66273800  1
  C  C90  1  0.40366400  0.64665200  0.16273800  1
  C  C91  1  0.90366400  0.35334800  0.33726200  1
  C  C92  1  0.50050400  0.18893300  0.66458000  1
  C  C93  1  0.00050400  0.81106700  0.83542000  1
  C  C94  1  0.49949600  0.81106700  0.33542000  1
  C  C95  1  0.99949600  0.18893300  0.16458000  1
