# generated using pymatgen
data_Cu5NiC5
_symmetry_space_group_name_H-M   'P 1'
_cell_length_a   12.98715082
_cell_length_b   13.02749784
_cell_length_c   19.45832816
_cell_angle_alpha   90.00000000
_cell_angle_beta   90.00000000
_cell_angle_gamma   118.53119551
_symmetry_Int_Tables_number   1
_chemical_formula_structural   Cu5NiC5
_chemical_formula_sum   'Cu80 Ni16 C80'
_cell_volume   2892.34738621
_cell_formula_units_Z   16
loop_
 _symmetry_equiv_pos_site_id
 _symmetry_equiv_pos_as_xyz
  1  'x, y, z'
loop_
 _atom_site_type_symbol
 _atom_site_label
 _atom_site_symmetry_multiplicity
 _atom_site_fract_x
 _atom_site_fract_y
 _atom_site_fract_z
 _atom_site_occupancy
  Ni  Ni0  1  0.67751353  0.57660892  0.60858006  1
  Ni  Ni1  1  0.31724149  0.93084152  0.10181180  1
  Ni  Ni2  1  0.81724149  0.93084152  0.39818820  1
  Ni  Ni3  1  0.17751353  0.57660892  0.89141994  1
  Ni  Ni4  1  0.56420434  0.67951297  0.10264500  1
  Ni  Ni5  1  0.06420434  0.67951297  0.39735500  1
  Ni  Ni6  1  0.68275851  0.06915848  0.89818820  1
  Ni  Ni7  1  0.93579566  0.32048703  0.60264500  1
  Ni  Ni8  1  0.56926400  0.17118957  0.39411840  1
  Ni  Ni9  1  0.82248647  0.42339108  0.10858006  1
  Ni  Ni10  1  0.32248647  0.42339108  0.39141994  1
  Ni  Ni11  1  0.18275851  0.06915848  0.60181180  1
  Ni  Ni12  1  0.43073600  0.82881043  0.60588160  1
  Ni  Ni13  1  0.06926400  0.17118957  0.10588160  1
  Ni  Ni14  1  0.93073600  0.82881043  0.89411840  1
  Ni  Ni15  1  0.43579566  0.32048703  0.89735500  1
  Cu  Cu16  1  0.58025886  0.92624230  0.75199723  1
  Cu  Cu17  1  0.50145269  0.33249509  0.29216753  1
  Cu  Cu18  1  0.55387817  0.70123144  0.39363048  1
  Cu  Cu19  1  0.05601178  0.94344097  0.46294787  1
  Cu  Cu20  1  0.94612183  0.29876856  0.89363048  1
  Cu  Cu21  1  0.55871495  0.94256616  0.46343511  1
  Cu  Cu22  1  0.44914121  0.57031710  0.53347934  1
  Cu  Cu23  1  0.07402192  0.43257151  0.74759599  1
  Cu  Cu24  1  0.33203925  0.20668403  0.05617640  1
  Cu  Cu25  1  0.04733800  0.42236671  0.45237733  1
  Cu  Cu26  1  0.45266200  0.57763329  0.95237733  1
  Cu  Cu27  1  0.18151634  0.80046124  0.96010245  1
  Cu  Cu28  1  0.31848366  0.19953876  0.46010245  1
  Cu  Cu29  1  0.08025886  0.92624230  0.74800277  1
  Cu  Cu30  1  0.19342325  0.25046205  0.25725858  1
  Cu  Cu31  1  0.81580118  0.45391479  0.70020364  1
  Cu  Cu32  1  0.94128505  0.05743384  0.96343511  1
  Cu  Cu33  1  0.18419882  0.54608521  0.29979636  1
  Cu  Cu34  1  0.69342325  0.25046205  0.24274142  1
  Cu  Cu35  1  0.68151634  0.80046124  0.53989755  1
  Cu  Cu36  1  0.45692315  0.83288197  0.19939355  1
  Cu  Cu37  1  0.29679973  0.94176464  0.39934551  1
  Cu  Cu38  1  0.79679973  0.94176464  0.10065449  1
  Cu  Cu39  1  0.44683218  0.80522492  0.90214758  1
  Cu  Cu40  1  0.70495175  0.30959233  0.53333587  1
  Cu  Cu41  1  0.42597808  0.56742849  0.24759599  1
  Cu  Cu42  1  0.35425674  0.00585963  0.70216041  1
  Cu  Cu43  1  0.05871495  0.94256616  0.03656489  1
  Cu  Cu44  1  0.73244533  0.80604617  0.24158646  1
  Cu  Cu45  1  0.04307685  0.16711803  0.69939355  1
  Cu  Cu46  1  0.00145269  0.33249509  0.20783247  1
  Cu  Cu47  1  0.44612183  0.29876856  0.60636952  1
  Cu  Cu48  1  0.76755467  0.19395383  0.74158646  1
  Cu  Cu49  1  0.55316782  0.19477508  0.09785242  1
  Cu  Cu50  1  0.57402192  0.43257151  0.75240401  1
  Cu  Cu51  1  0.20320027  0.05823536  0.89934551  1
  Cu  Cu52  1  0.99854731  0.66750491  0.79216753  1
  Cu  Cu53  1  0.49854731  0.66750491  0.70783247  1
  Cu  Cu54  1  0.79149924  0.44155136  0.39637095  1
  Cu  Cu55  1  0.79504825  0.69040767  0.03333587  1
  Cu  Cu56  1  0.31580118  0.45391479  0.79979636  1
  Cu  Cu57  1  0.95266200  0.57763329  0.54762267  1
  Cu  Cu58  1  0.66796075  0.79331697  0.94382360  1
  Cu  Cu59  1  0.23244533  0.80604617  0.25841354  1
  Cu  Cu60  1  0.76773402  0.66043483  0.44667588  1
  Cu  Cu61  1  0.05387817  0.70123144  0.10636952  1
  Cu  Cu62  1  0.29149924  0.44155136  0.10362905  1
  Cu  Cu63  1  0.91974114  0.07375770  0.25199723  1
  Cu  Cu64  1  0.41974114  0.07375770  0.24800277  1
  Cu  Cu65  1  0.68419882  0.54608521  0.20020364  1
  Cu  Cu66  1  0.30657675  0.74953795  0.75725858  1
  Cu  Cu67  1  0.05085879  0.42968290  0.03347934  1
  Cu  Cu68  1  0.16796075  0.79331697  0.55617640  1
  Cu  Cu69  1  0.55085879  0.42968290  0.46652066  1
  Cu  Cu70  1  0.14574326  0.99414037  0.20216041  1
  Cu  Cu71  1  0.55601178  0.94344097  0.03705213  1
  Cu  Cu72  1  0.05316782  0.19477508  0.40214758  1
  Cu  Cu73  1  0.54307685  0.16711803  0.80060645  1
  Cu  Cu74  1  0.83203925  0.20668403  0.44382360  1
  Cu  Cu75  1  0.95692315  0.83288197  0.30060645  1
  Cu  Cu76  1  0.80657675  0.74953795  0.74274142  1
  Cu  Cu77  1  0.54733800  0.42236671  0.04762267  1
  Cu  Cu78  1  0.23226598  0.33956517  0.55332412  1
  Cu  Cu79  1  0.26773402  0.66043483  0.05332412  1
  Cu  Cu80  1  0.20495175  0.30959233  0.96666413  1
  Cu  Cu81  1  0.85425674  0.00585963  0.79783959  1
  Cu  Cu82  1  0.20850076  0.55844864  0.60362905  1
  Cu  Cu83  1  0.94398822  0.05655903  0.53705213  1
  Cu  Cu84  1  0.70850076  0.55844864  0.89637095  1
  Cu  Cu85  1  0.94683218  0.80522492  0.59785242  1
  Cu  Cu86  1  0.29504825  0.69040767  0.46666413  1
  Cu  Cu87  1  0.81848366  0.19953876  0.03989755  1
  Cu  Cu88  1  0.70320027  0.05823536  0.60065449  1
  Cu  Cu89  1  0.44398822  0.05655903  0.96294787  1
  Cu  Cu90  1  0.26755467  0.19395383  0.75841354  1
  Cu  Cu91  1  0.92597808  0.56742849  0.25240401  1
  Cu  Cu92  1  0.44128505  0.05743384  0.53656489  1
  Cu  Cu93  1  0.64574326  0.99414037  0.29783959  1
  Cu  Cu94  1  0.73226598  0.33956517  0.94667588  1
  Cu  Cu95  1  0.94914121  0.57031710  0.96652066  1
  C  C96  1  0.90690391  0.80245029  0.17475375  1
  C  C97  1  0.67346557  0.07343115  0.17809345  1
  C  C98  1  0.82653443  0.92656885  0.67809345  1
  C  C99  1  0.32909196  0.42449830  0.67082046  1
  C  C100  1  0.93166183  0.34071750  0.32775379  1
  C  C101  1  0.56833817  0.65928250  0.82775379  1
  C  C102  1  0.59309609  0.19754971  0.67475375  1
  C  C103  1  0.32653443  0.92656885  0.82190655  1
  C  C104  1  0.17090804  0.57550170  0.17082046  1
  C  C105  1  0.43166183  0.34071750  0.17224621  1
  C  C106  1  0.17346557  0.07343115  0.32190655  1
  C  C107  1  0.06833817  0.65928250  0.67224621  1
  C  C108  1  0.09309609  0.19754971  0.82524625  1
  C  C109  1  0.40690391  0.80245029  0.32524625  1
  C  C110  1  0.82909196  0.42449830  0.82917954  1
  C  C111  1  0.67090804  0.57550170  0.32917954  1
  C  C112  1  0.93439930  0.60370877  0.43398800  1
  C  C113  1  0.59671033  0.64499703  0.60854821  1
  C  C114  1  0.36000380  0.39346726  0.90070726  1
  C  C115  1  0.70262288  0.34762015  0.06205222  1
  C  C116  1  0.09671033  0.64499703  0.89145179  1
  C  C117  1  0.69788856  0.85810976  0.35065826  1
  C  C118  1  0.30211144  0.14189024  0.64934174  1
  C  C119  1  0.14285574  0.09665345  0.10196358  1
  C  C120  1  0.89076954  0.55446285  0.07308440  1
  C  C121  1  0.19788856  0.85810976  0.14934174  1
  C  C122  1  0.29737712  0.65237985  0.93794778  1
  C  C123  1  0.86000380  0.39346726  0.59929274  1
  C  C124  1  0.43439930  0.60370877  0.06601200  1
  C  C125  1  0.79737712  0.65237985  0.56205222  1
  C  C126  1  0.14278789  0.29269557  0.15115686  1
  C  C127  1  0.63688016  0.80396419  0.05965731  1
  C  C128  1  0.71916715  0.04623061  0.97611374  1
  C  C129  1  0.06560070  0.39629123  0.56601200  1
  C  C130  1  0.86311984  0.19603581  0.55965731  1
  C  C131  1  0.60725628  0.94010485  0.86048800  1
  C  C132  1  0.20262288  0.34762015  0.43794778  1
  C  C133  1  0.54683523  0.20853176  0.47223017  1
  C  C134  1  0.89274372  0.05989515  0.36048800  1
  C  C135  1  0.78083285  0.95376939  0.47611374  1
  C  C136  1  0.05920306  0.90512499  0.85627242  1
  C  C137  1  0.04982962  0.70898775  0.31594596  1
  C  C138  1  0.39224298  0.85786956  0.09658139  1
  C  C139  1  0.10775702  0.14213044  0.59658139  1
  C  C140  1  0.55920306  0.90512499  0.64372758  1
  C  C141  1  0.36311984  0.19603581  0.94034269  1
  C  C142  1  0.35721211  0.70730443  0.65115686  1
  C  C143  1  0.71124199  0.56417692  0.68911829  1
  C  C144  1  0.60923046  0.44553715  0.57308440  1
  C  C145  1  0.54982962  0.70898775  0.18405404  1
  C  C146  1  0.13999620  0.60653274  0.40070726  1
  C  C147  1  0.28875801  0.43582308  0.31088171  1
  C  C148  1  0.04683523  0.20853176  0.02776983  1
  C  C149  1  0.45017038  0.29101225  0.81594596  1
  C  C150  1  0.21916715  0.04623061  0.52388626  1
  C  C151  1  0.10923046  0.44553715  0.92691560  1
  C  C152  1  0.39076954  0.55446285  0.42691560  1
  C  C153  1  0.78875801  0.43582308  0.18911829  1
  C  C154  1  0.64285574  0.09665345  0.39803642  1
  C  C155  1  0.85714426  0.90334655  0.89803642  1
  C  C156  1  0.45316477  0.79146824  0.52776983  1
  C  C157  1  0.63999620  0.60653274  0.09929274  1
  C  C158  1  0.95017038  0.29101225  0.68405404  1
  C  C159  1  0.60775702  0.14213044  0.90341861  1
  C  C160  1  0.44079694  0.09487501  0.35627242  1
  C  C161  1  0.94079694  0.09487501  0.14372758  1
  C  C162  1  0.35714426  0.90334655  0.60196358  1
  C  C163  1  0.28083285  0.95376939  0.02388626  1
  C  C164  1  0.90328967  0.35500297  0.10854821  1
  C  C165  1  0.21124199  0.56417692  0.81088171  1
  C  C166  1  0.85721211  0.70730443  0.84884314  1
  C  C167  1  0.80211144  0.14189024  0.85065826  1
  C  C168  1  0.64278789  0.29269557  0.34884314  1
  C  C169  1  0.39274372  0.05989515  0.13951200  1
  C  C170  1  0.56560070  0.39629123  0.93398800  1
  C  C171  1  0.89224298  0.85786956  0.40341861  1
  C  C172  1  0.10725628  0.94010485  0.63951200  1
  C  C173  1  0.95316477  0.79146824  0.97223017  1
  C  C174  1  0.13688016  0.80396419  0.44034269  1
  C  C175  1  0.40328967  0.35500297  0.39145179  1
