# generated using pymatgen
data_Cu3NiC2
_symmetry_space_group_name_H-M   'P 1'
_cell_length_a   7.21336600
_cell_length_b   7.39812000
_cell_length_c   9.10792900
_cell_angle_alpha   90.00000000
_cell_angle_beta   90.00000000
_cell_angle_gamma   90.00000000
_symmetry_Int_Tables_number   1
_chemical_formula_structural   Cu3NiC2
_chemical_formula_sum   'Cu12 Ni4 C8'
_cell_volume   486.04779401
_cell_formula_units_Z   4
loop_
 _symmetry_equiv_pos_site_id
 _symmetry_equiv_pos_as_xyz
  1  'x, y, z'
loop_
 _atom_site_type_symbol
 _atom_site_label
 _atom_site_symmetry_multiplicity
 _atom_site_fract_x
 _atom_site_fract_y
 _atom_site_fract_z
 _atom_site_occupancy
  C  C0  1  0.25000000  0.61072900  0.95921500  1
  C  C1  1  0.25000000  0.11072900  0.54078500  1
  C  C2  1  0.75000000  0.38927100  0.04078500  1
  C  C3  1  0.75000000  0.88927100  0.45921500  1
  C  C4  1  0.25000000  0.21112300  0.13143600  1
  C  C5  1  0.75000000  0.78887700  0.86856400  1
  C  C6  1  0.25000000  0.71112300  0.36856400  1
  C  C7  1  0.75000000  0.28887700  0.63143600  1
  Ni  Ni8  1  0.25000000  0.45009300  0.68018100  1
  Ni  Ni9  1  0.75000000  0.54990700  0.31981900  1
  Ni  Ni10  1  0.75000000  0.04990700  0.18018100  1
  Ni  Ni11  1  0.25000000  0.95009300  0.81981900  1
  Cu  Cu12  1  0.07478600  0.85355200  0.43155800  1
  Cu  Cu13  1  0.75000000  0.24625100  0.81579900  1
  Cu  Cu14  1  0.25000000  0.25374900  0.31579900  1
  Cu  Cu15  1  0.92521400  0.14644800  0.56844200  1
  Cu  Cu16  1  0.57478600  0.64644800  0.93155800  1
  Cu  Cu17  1  0.57478600  0.14644800  0.56844200  1
  Cu  Cu18  1  0.42521400  0.85355200  0.43155800  1
  Cu  Cu19  1  0.07478600  0.35355200  0.06844200  1
  Cu  Cu20  1  0.25000000  0.75374900  0.18420100  1
  Cu  Cu21  1  0.75000000  0.74625100  0.68420100  1
  Cu  Cu22  1  0.42521400  0.35355200  0.06844200  1
  Cu  Cu23  1  0.92521400  0.64644800  0.93155800  1
