# generated using pymatgen
data_CuNi5C6
_symmetry_space_group_name_H-M   'P 1'
_cell_length_a   4.94905300
_cell_length_b   5.52863474
_cell_length_c   18.69340859
_cell_angle_alpha   88.37224753
_cell_angle_beta   89.23364714
_cell_angle_gamma   68.15110480
_symmetry_Int_Tables_number   1
_chemical_formula_structural   CuNi5C6
_chemical_formula_sum   'Cu4 Ni20 C24'
_cell_volume   474.54575461
_cell_formula_units_Z   4
loop_
 _symmetry_equiv_pos_site_id
 _symmetry_equiv_pos_as_xyz
  1  'x, y, z'
loop_
 _atom_site_type_symbol
 _atom_site_label
 _atom_site_symmetry_multiplicity
 _atom_site_fract_x
 _atom_site_fract_y
 _atom_site_fract_z
 _atom_site_occupancy
  Ni  Ni0  1  0.26653600  0.03755900  0.48409500  1
  Ni  Ni1  1  0.86634500  0.75383900  0.04273500  1
  Ni  Ni2  1  0.62120600  0.71444600  0.55784900  1
  Ni  Ni3  1  0.32413800  0.37087300  0.99782700  1
  Ni  Ni4  1  0.84195600  0.86972600  0.47756500  1
  Ni  Ni5  1  0.46558400  0.24206300  0.11004800  1
  Ni  Ni6  1  0.05169000  0.23973100  0.61517900  1
  Ni  Ni7  1  0.65900000  0.63044600  0.96121100  1
  Ni  Ni8  1  0.58903400  0.37302600  0.47170500  1
  Ni  Ni9  1  0.94061100  0.15195200  0.95686500  1
  Ni  Ni10  1  0.67453200  0.11669100  0.27372500  1
  Ni  Ni11  1  0.95031800  0.85860800  0.16802900  1
  Ni  Ni12  1  0.45092100  0.85434900  0.69467900  1
  Ni  Ni13  1  0.92114900  0.38996000  0.80230400  1
  Ni  Ni14  1  0.23921000  0.40660900  0.32971100  1
  Ni  Ni15  1  0.52853400  0.90085600  0.86332000  1
  Ni  Ni16  1  0.17086400  0.89084500  0.26967100  1
  Ni  Ni17  1  0.81619300  0.53335300  0.20432700  1
  Ni  Ni18  1  0.74459700  0.08898900  0.70908700  1
  Ni  Ni19  1  0.25517600  0.64624600  0.77283300  1
  Cu  Cu20  1  0.96108900  0.16361300  0.37885900  1
  Cu  Cu21  1  0.43633200  0.71971200  0.11296400  1
  Cu  Cu22  1  0.06567600  0.76316800  0.62082500  1
  Cu  Cu23  1  0.51465800  0.34508700  0.87323300  1
  C  C24  1  0.27726200  0.13892100  0.44007100  1
  C  C25  1  0.73888600  0.65096400  0.03641600  1
  C  C26  1  0.77867800  0.79691400  0.54609100  1
  C  C27  1  0.23643200  0.37830600  0.94785200  1
  C  C28  1  0.90963300  0.87831600  0.42300000  1
  C  C29  1  0.39065600  0.40682700  0.07772300  1
  C  C30  1  0.05248300  0.09375500  0.58091400  1
  C  C31  1  0.61474000  0.62617900  0.90645300  1
  C  C32  1  0.68524400  0.43574700  0.43313700  1
  C  C33  1  0.14558700  0.91364000  0.05377900  1
  C  C34  1  0.38382700  0.60930100  0.56323600  1
  C  C35  1  0.81687800  0.08411600  0.92863100  1
  C  C36  1  0.63325200  0.23485000  0.31397100  1
  C  C37  1  0.14484800  0.75501200  0.19005900  1
  C  C38  1  0.27636700  0.80534600  0.70609600  1
  C  C39  1  0.75835700  0.33212100  0.79111200  1
  C  C40  1  0.02669700  0.44238100  0.32740200  1
  C  C41  1  0.56019400  0.96625200  0.15038800  1
  C  C42  1  0.04251900  0.46651300  0.65972400  1
  C  C43  1  0.44354300  0.06565700  0.83282200  1
  C  C44  1  0.24072300  0.91959000  0.31791300  1
  C  C45  1  0.70995000  0.45306800  0.17502300  1
  C  C46  1  0.71308300  0.95896600  0.67877300  1
  C  C47  1  0.19385300  0.57013300  0.81954000  1
