# generated using pymatgen
data_CuNi5C24
_symmetry_space_group_name_H-M   'P 1'
_cell_length_a   6.92269500
_cell_length_b   6.93605714
_cell_length_c   17.41465928
_cell_angle_alpha   97.59672447
_cell_angle_beta   97.61047576
_cell_angle_gamma   109.45816590
_symmetry_Int_Tables_number   1
_chemical_formula_structural   CuNi5C24
_chemical_formula_sum   'Cu2 Ni10 C48'
_cell_volume   767.44873792
_cell_formula_units_Z   2
loop_
 _symmetry_equiv_pos_site_id
 _symmetry_equiv_pos_as_xyz
  1  'x, y, z'
loop_
 _atom_site_type_symbol
 _atom_site_label
 _atom_site_symmetry_multiplicity
 _atom_site_fract_x
 _atom_site_fract_y
 _atom_site_fract_z
 _atom_site_occupancy
  C  C0  1  0.99777000  0.00069600  0.00191700  1
  C  C1  1  0.32993700  0.33251800  0.66487400  1
  Ni  Ni2  1  0.15975000  0.16917000  0.33436100  1
  Ni  Ni3  1  0.81174900  0.33072000  0.16189400  1
  Ni  Ni4  1  0.34041300  0.84059500  0.16632700  1
  Ni  Ni5  1  0.82508500  0.84262300  0.66821600  1
  Ni  Ni6  1  0.65551200  0.66787200  0.33319200  1
  Ni  Ni7  1  0.50631800  0.00114200  0.50154600  1
  Ni  Ni8  1  0.49270700  0.50898600  0.00296000  1
  Ni  Ni9  1  0.97487400  0.48597000  0.50208900  1
  Ni  Ni10  1  0.15106000  0.66643700  0.82854000  1
  Ni  Ni11  1  0.65248200  0.15773700  0.83455600  1
  Cu  Cu12  1  0.82998800  0.33406100  0.66655400  1
  Cu  Cu13  1  0.49654800  0.99977700  0.99966200  1
  C  C14  1  0.66134200  0.16749400  0.33267300  1
  C  C15  1  0.33225500  0.33649900  0.16964200  1
  C  C16  1  0.16238300  0.16754500  0.83386400  1
  C  C17  1  0.32849400  0.83249000  0.66531500  1
  C  C18  1  0.82700200  0.83379000  0.17038300  1
  C  C19  1  0.99086000  0.99532100  0.49689400  1
  C  C20  1  0.16023300  0.66585700  0.33305300  1
  C  C21  1  0.49610200  0.49979200  0.49623400  1
  C  C22  1  0.66152800  0.66639400  0.83396900  1
  C  C23  1  0.99470400  0.50009600  0.00122500  1
  C  C24  1  0.24777100  0.76508200  0.03096600  1
  C  C25  1  0.95368700  0.66762700  0.23751600  1
  C  C26  1  0.53613800  0.63347900  0.17470500  1
  C  C27  1  0.09568000  0.39113100  0.09944400  1
  C  C28  1  0.83442600  0.64244400  0.06814000  1
  C  C29  1  0.92507600  0.43559900  0.36557300  1
  C  C30  1  0.24333900  0.44380800  0.26901800  1
  C  C31  1  0.62232100  0.34332800  0.56665000  1
  C  C32  1  0.19933900  0.29857100  0.50116500  1
  C  C33  1  0.41685400  0.23044700  0.07032900  1
  C  C34  1  0.76095600  0.05723800  0.42855300  1
  C  C35  1  0.82175600  0.02645000  0.26910400  1
  C  C36  1  0.56342100  0.27355600  0.23750400  1
  C  C37  1  0.50257600  0.30953600  0.39762100  1
  C  C38  1  0.58121600  0.09685500  0.69579200  1
  C  C39  1  0.90800700  0.10739400  0.59578500  1
  C  C40  1  0.12539500  0.03529000  0.16579100  1
  C  C41  1  0.28516900  0.00733400  0.90135500  1
  C  C42  1  0.70311600  0.98779500  0.09881100  1
  C  C43  1  0.08355800  0.89174700  0.39878800  1
  C  C44  1  0.86611200  0.96663900  0.83753000  1
  C  C45  1  0.42754400  0.72436300  0.76303000  1
  C  C46  1  0.39921800  0.89689800  0.30243000  1
  C  C47  1  0.48809500  0.69044700  0.59835100  1
  C  C48  1  0.16899700  0.97585100  0.73136600  1
  C  C49  1  0.22880000  0.94210300  0.56754400  1
  C  C50  1  0.57983900  0.77582700  0.93188900  1
  C  C51  1  0.78750200  0.69984400  0.49231600  1
  C  C52  1  0.37001200  0.66389400  0.42912500  1
  C  C53  1  0.74746800  0.56240100  0.73464400  1
  C  C54  1  0.07769700  0.56568400  0.63696100  1
  C  C55  1  0.15514500  0.35593100  0.93535800  1
  C  C56  1  0.89623200  0.60950400  0.90346600  1
  C  C57  1  0.45748700  0.36621000  0.82871300  1
  C  C58  1  0.03787600  0.32224900  0.76340500  1
  C  C59  1  0.74387900  0.23386300  0.97132100  1
