# generated using pymatgen
data_CuNi3
_symmetry_space_group_name_H-M   'P 1'
_cell_length_a   3.72825800
_cell_length_b   3.72825800
_cell_length_c   25.82506400
_cell_angle_alpha   90.00000000
_cell_angle_beta   90.00000000
_cell_angle_gamma   90.00000000
_symmetry_Int_Tables_number   1
_chemical_formula_structural   CuNi3
_chemical_formula_sum   'Cu7 Ni21'
_cell_volume   358.96600632
_cell_formula_units_Z   7
loop_
 _symmetry_equiv_pos_site_id
 _symmetry_equiv_pos_as_xyz
  1  'x, y, z'
loop_
 _atom_site_type_symbol
 _atom_site_label
 _atom_site_symmetry_multiplicity
 _atom_site_fract_x
 _atom_site_fract_y
 _atom_site_fract_z
 _atom_site_occupancy
  Ni  Ni0  1  0.50000000  0.00000000  0.14289900  1
  Ni  Ni1  1  0.50000000  0.50000000  0.92863100  1
  Ni  Ni2  1  0.00000000  0.00000000  0.64294100  1
  Ni  Ni3  1  0.50000000  0.50000000  0.78568000  1
  Ni  Ni4  1  0.50000000  0.00000000  0.28571900  1
  Ni  Ni5  1  0.00000000  0.50000000  0.71428100  1
  Ni  Ni6  1  0.50000000  0.00000000  0.85710100  1
  Ni  Ni7  1  0.50000000  0.50000000  0.07136900  1
  Ni  Ni8  1  0.50000000  0.00000000  0.57142200  1
  Ni  Ni9  1  0.00000000  0.50000000  0.14289900  1
  Ni  Ni10  1  0.00000000  0.50000000  0.42857800  1
  Ni  Ni11  1  0.50000000  0.00000000  0.71428100  1
  Ni  Ni12  1  0.00000000  0.50000000  0.85710100  1
  Ni  Ni13  1  0.00000000  0.50000000  0.57142200  1
  Ni  Ni14  1  0.00000000  0.00000000  0.35705900  1
  Ni  Ni15  1  0.50000000  0.00000000  0.42857800  1
  Ni  Ni16  1  0.50000000  0.50000000  0.21432000  1
  Ni  Ni17  1  0.00000000  0.50000000  0.28571900  1
  Ni  Ni18  1  0.00000000  0.00000000  0.50000000  1
  Ni  Ni19  1  0.00000000  0.50000000  0.00000000  1
  Ni  Ni20  1  0.50000000  0.00000000  0.00000000  1
  Cu  Cu21  1  0.50000000  0.50000000  0.35706000  1
  Cu  Cu22  1  0.00000000  0.00000000  0.92850400  1
  Cu  Cu23  1  0.50000000  0.50000000  0.64294000  1
  Cu  Cu24  1  0.00000000  0.00000000  0.78561400  1
  Cu  Cu25  1  0.50000000  0.50000000  0.50000000  1
  Cu  Cu26  1  0.00000000  0.00000000  0.07149600  1
  Cu  Cu27  1  0.00000000  0.00000000  0.21438600  1
