# generated using pymatgen
data_CuNi4C15
_symmetry_space_group_name_H-M   'P 1'
_cell_length_a   5.99099934
_cell_length_b   5.99099913
_cell_length_c   30.02434551
_cell_angle_alpha   89.06964749
_cell_angle_beta   89.06964862
_cell_angle_gamma   60.07008568
_symmetry_Int_Tables_number   1
_chemical_formula_structural   CuNi4C15
_chemical_formula_sum   'Cu3 Ni12 C45'
_cell_volume   933.75424435
_cell_formula_units_Z   3
loop_
 _symmetry_equiv_pos_site_id
 _symmetry_equiv_pos_as_xyz
  1  'x, y, z'
loop_
 _atom_site_type_symbol
 _atom_site_label
 _atom_site_symmetry_multiplicity
 _atom_site_fract_x
 _atom_site_fract_y
 _atom_site_fract_z
 _atom_site_occupancy
  Ni  Ni0  1  0.99754800  0.99754800  0.71810100  1
  Ni  Ni1  1  0.00245200  0.00245200  0.28189900  1
  Ni  Ni2  1  0.00255100  0.00255100  0.13221500  1
  Ni  Ni3  1  0.99744900  0.99744900  0.86778500  1
  Ni  Ni4  1  0.33663700  0.33663700  0.61462000  1
  Ni  Ni5  1  0.66336300  0.66336300  0.38538000  1
  Ni  Ni6  1  0.33505000  0.33505000  0.20354100  1
  Ni  Ni7  1  0.66611000  0.66611000  0.53566400  1
  Ni  Ni8  1  0.33163300  0.33163300  0.05168500  1
  Ni  Ni9  1  0.33389000  0.33389000  0.46433600  1
  Ni  Ni10  1  0.66836700  0.66836700  0.94831500  1
  Ni  Ni11  1  0.66495000  0.66495000  0.79645900  1
  Cu  Cu12  1  0.33298700  0.33298700  0.33344700  1
  Cu  Cu13  1  0.66701300  0.66701300  0.66655300  1
  Cu  Cu14  1  0.00000000  0.00000000  0.00000000  1
  C  C15  1  0.66314600  0.66314600  0.08162600  1
  C  C16  1  0.33268600  0.33268600  0.83340400  1
  C  C17  1  0.99352900  0.99352900  0.41506100  1
  C  C18  1  0.66731400  0.66731400  0.16659600  1
  C  C19  1  0.00647100  0.00647100  0.58493900  1
  C  C20  1  0.00000000  0.00000000  0.50000000  1
  C  C21  1  0.33685400  0.33685400  0.91837400  1
  C  C22  1  0.67109900  0.67109900  0.25152900  1
  C  C23  1  0.32890100  0.32890100  0.74847100  1
  C  C24  1  0.15832300  0.15832300  0.53849800  1
  C  C25  1  0.50974500  0.97605800  0.12396800  1
  C  C26  1  0.85941900  0.85941900  0.62550700  1
  C  C27  1  0.49025500  0.02394200  0.87603200  1
  C  C28  1  0.17704200  0.17704200  0.79405700  1
  C  C29  1  0.01399700  0.48035600  0.71456500  1
  C  C30  1  0.51964400  0.98600300  0.28543500  1
  C  C31  1  0.65033800  0.18644400  0.95257700  1
  C  C32  1  0.64211300  0.17518200  0.79064100  1
  C  C33  1  0.47933400  0.47933400  0.70955600  1
  C  C34  1  0.17518200  0.64211300  0.79064100  1
  C  C35  1  0.81281600  0.81281600  0.04269500  1
  C  C36  1  0.32198300  0.85790000  0.61839700  1
  C  C37  1  0.82481800  0.35788700  0.20935900  1
  C  C38  1  0.52066600  0.52066600  0.29044400  1
  C  C39  1  0.69205300  0.15813300  0.54294000  1
  C  C40  1  0.84186700  0.30794700  0.45706000  1
  C  C41  1  0.98600300  0.51964400  0.28543500  1
  C  C42  1  0.14210000  0.67801700  0.38160300  1
  C  C43  1  0.18718400  0.18718400  0.95730500  1
  C  C44  1  0.02394200  0.49025500  0.87603200  1
  C  C45  1  0.97605800  0.50974500  0.12396800  1
  C  C46  1  0.51128900  0.51128900  0.12760200  1
  C  C47  1  0.34966200  0.81355600  0.04742300  1
  C  C48  1  0.35788700  0.82481800  0.20935900  1
  C  C49  1  0.15813300  0.69205300  0.54294000  1
  C  C50  1  0.85790000  0.32198300  0.61839700  1
  C  C51  1  0.14058100  0.14058100  0.37449300  1
  C  C52  1  0.48035600  0.01399700  0.71456500  1
  C  C53  1  0.18644400  0.65033800  0.95257700  1
  C  C54  1  0.82295800  0.82295800  0.20594300  1
  C  C55  1  0.81355600  0.34966200  0.04742300  1
  C  C56  1  0.48871100  0.48871100  0.87239800  1
  C  C57  1  0.67801700  0.14210000  0.38160300  1
  C  C58  1  0.84167700  0.84167700  0.46150200  1
  C  C59  1  0.30794700  0.84186700  0.45706000  1
