# generated using pymatgen
data_Cu7Ni3C13
_symmetry_space_group_name_H-M   'P 1'
_cell_length_a   7.00001200
_cell_length_b   7.14433460
_cell_length_c   7.15277733
_cell_angle_alpha   93.02308024
_cell_angle_beta   118.34847979
_cell_angle_gamma   112.84994418
_symmetry_Int_Tables_number   1
_chemical_formula_structural   Cu7Ni3C13
_chemical_formula_sum   'Cu7 Ni3 C13'
_cell_volume   277.43259124
_cell_formula_units_Z   1
loop_
 _symmetry_equiv_pos_site_id
 _symmetry_equiv_pos_as_xyz
  1  'x, y, z'
loop_
 _atom_site_type_symbol
 _atom_site_label
 _atom_site_symmetry_multiplicity
 _atom_site_fract_x
 _atom_site_fract_y
 _atom_site_fract_z
 _atom_site_occupancy
  C  C0  1  0.85674600  0.49708000  0.89904300  1
  C  C1  1  0.26733900  0.95142400  0.26360800  1
  C  C2  1  0.32509100  0.38739300  0.16422400  1
  C  C3  1  0.89471000  0.96070300  0.93100200  1
  C  C4  1  0.67819700  0.73723500  0.14957700  1
  C  C5  1  0.54410900  0.86058400  0.43432500  1
  C  C6  1  0.84360800  0.96825700  0.50486000  1
  C  C7  1  0.67139800  0.70062500  0.45137800  1
  C  C8  1  0.39610300  0.17982500  0.64372700  1
  C  C9  1  0.08784400  0.27431900  0.79208300  1
  C  C10  1  0.86585800  0.04950100  0.94973000  1
  C  C11  1  0.57266900  0.84905000  0.76672300  1
  C  C12  1  0.32847500  0.99672000  0.20243300  1
  Ni  Ni13  1  0.57254400  0.79604300  0.17123000  1
  Ni  Ni14  1  0.66607700  0.83626300  0.40618800  1
  Ni  Ni15  1  0.58077200  0.27639400  0.74199800  1
  Cu  Cu16  1  0.89247400  0.68430700  0.73469000  1
  Cu  Cu17  1  0.08095400  0.19978600  0.66777800  1
  Cu  Cu18  1  0.48351100  0.40372700  0.27692700  1
  Cu  Cu19  1  0.42622100  0.74125700  0.63904500  1
  Cu  Cu20  1  0.09501300  0.38939700  0.97314100  1
  Cu  Cu21  1  0.86270300  0.64701300  0.12720800  1
  Cu  Cu22  1  0.66506200  0.00580500  0.14925200  1
