# generated using pymatgen
data_CuNi3C10
_symmetry_space_group_name_H-M   'P 1'
_cell_length_a   6.35070400
_cell_length_b   12.09054600
_cell_length_c   15.33659200
_cell_angle_alpha   90.00000000
_cell_angle_beta   90.00000000
_cell_angle_gamma   90.00000000
_symmetry_Int_Tables_number   1
_chemical_formula_structural   CuNi3C10
_chemical_formula_sum   'Cu8 Ni24 C80'
_cell_volume   1177.59688738
_cell_formula_units_Z   8
loop_
 _symmetry_equiv_pos_site_id
 _symmetry_equiv_pos_as_xyz
  1  'x, y, z'
loop_
 _atom_site_type_symbol
 _atom_site_label
 _atom_site_symmetry_multiplicity
 _atom_site_fract_x
 _atom_site_fract_y
 _atom_site_fract_z
 _atom_site_occupancy
  C  C0  1  0.20025300  0.55433700  0.89056300  1
  C  C1  1  0.77835100  0.47387600  0.70075000  1
  C  C2  1  0.27835100  0.47387600  0.79925000  1
  C  C3  1  0.57696600  0.57395400  0.71387100  1
  C  C4  1  0.13290300  0.11639100  0.59108300  1
  C  C5  1  0.92499400  0.25550800  0.84587000  1
  C  C6  1  0.65188500  0.56511400  0.96585100  1
  C  C7  1  0.80355500  0.71226000  0.13743000  1
  C  C8  1  0.92120100  0.80891500  0.74326600  1
  C  C9  1  0.77835100  0.02612400  0.20075000  1
  C  C10  1  0.42303400  0.07395400  0.78612900  1
  C  C11  1  0.79974700  0.05433700  0.60943700  1
  C  C12  1  0.57500600  0.75550800  0.84587000  1
  C  C13  1  0.36709700  0.61639100  0.59108300  1
  C  C14  1  0.57879900  0.30891500  0.74326600  1
  C  C15  1  0.29974700  0.44566300  0.39056300  1
  C  C16  1  0.15188500  0.56511400  0.53414900  1
  C  C17  1  0.79974700  0.44566300  0.10943700  1
  C  C18  1  0.22164900  0.97387600  0.79925000  1
  C  C19  1  0.42120100  0.80891500  0.75673400  1
  C  C20  1  0.92303400  0.07395400  0.71387100  1
  C  C21  1  0.63290300  0.38360900  0.40891700  1
  C  C22  1  0.72164900  0.97387600  0.70075000  1
  C  C23  1  0.69644500  0.28774000  0.63743000  1
  C  C24  1  0.92303400  0.42604600  0.21387100  1
  C  C25  1  0.86709700  0.61639100  0.90891700  1
  C  C26  1  0.13290300  0.38360900  0.09108300  1
  C  C27  1  0.34811500  0.43488600  0.03414900  1
  C  C28  1  0.07500600  0.75550800  0.65413000  1
  C  C29  1  0.07879900  0.30891500  0.75673400  1
  C  C30  1  0.42499400  0.25550800  0.65413000  1
  C  C31  1  0.42499400  0.24449200  0.15413000  1
  C  C32  1  0.42120100  0.69108500  0.25673400  1
  C  C33  1  0.86709700  0.88360900  0.40891700  1
  C  C34  1  0.07696600  0.92604600  0.28612900  1
  C  C35  1  0.27835100  0.02612400  0.29925000  1
  C  C36  1  0.92120100  0.69108500  0.24326600  1
  C  C37  1  0.20025300  0.94566300  0.39056300  1
  C  C38  1  0.84811500  0.06511400  0.96585100  1
  C  C39  1  0.30355500  0.78774000  0.86257000  1
  C  C40  1  0.57879900  0.19108500  0.24326600  1
  C  C41  1  0.57500600  0.74449200  0.34587000  1
  C  C42  1  0.65188500  0.93488600  0.46585100  1
  C  C43  1  0.70025300  0.94566300  0.10943700  1
  C  C44  1  0.57696600  0.92604600  0.21387100  1
  C  C45  1  0.69644500  0.21226000  0.13743000  1
  C  C46  1  0.22164900  0.52612400  0.29925000  1
  C  C47  1  0.19644500  0.28774000  0.86257000  1
  C  C48  1  0.29974700  0.05433700  0.89056300  1
  C  C49  1  0.72164900  0.52612400  0.20075000  1
  C  C50  1  0.07500600  0.74449200  0.15413000  1
  C  C51  1  0.07879900  0.19108500  0.25673400  1
  C  C52  1  0.19644500  0.21226000  0.36257000  1
  C  C53  1  0.07696600  0.57395400  0.78612900  1
  C  C54  1  0.70025300  0.55433700  0.60943700  1
  C  C55  1  0.42303400  0.42604600  0.28612900  1
  C  C56  1  0.92499400  0.24449200  0.34587000  1
  C  C57  1  0.63290300  0.11639100  0.90891700  1
  C  C58  1  0.15188500  0.93488600  0.03414900  1
  C  C59  1  0.84811500  0.43488600  0.46585100  1
  C  C60  1  0.36709700  0.88360900  0.09108300  1
  C  C61  1  0.34811500  0.06511400  0.53414900  1
  C  C62  1  0.80355500  0.78774000  0.63743000  1
  C  C63  1  0.30355500  0.71226000  0.36257000  1
  Ni  Ni64  1  0.64296300  0.98779900  0.16858600  1
  Ni  Ni65  1  0.82065700  0.05485900  0.40241200  1
  Ni  Ni66  1  0.44792600  0.68774900  0.32772900  1
  Ni  Ni67  1  0.67934300  0.94514100  0.90241200  1
  Ni  Ni68  1  0.14296300  0.51220100  0.83141400  1
  Ni  Ni69  1  0.85703700  0.01220100  0.66858600  1
  Ni  Ni70  1  0.32065700  0.05485900  0.09758800  1
  Ni  Ni71  1  0.35703700  0.01220100  0.83141400  1
  Ni  Ni72  1  0.64296300  0.51220100  0.66858600  1
  Ni  Ni73  1  0.85703700  0.48779900  0.16858600  1
  Ni  Ni74  1  0.55207400  0.31225100  0.67227100  1
  Ni  Ni75  1  0.67934300  0.55485900  0.40241200  1
  Ni  Ni76  1  0.94792600  0.68774900  0.17227100  1
  Ni  Ni77  1  0.44792600  0.81225100  0.82772900  1
  Ni  Ni78  1  0.17934300  0.55485900  0.09758800  1
  Ni  Ni79  1  0.35703700  0.48779900  0.33141400  1
  Ni  Ni80  1  0.05207400  0.18774900  0.32772900  1
  Ni  Ni81  1  0.55207400  0.18774900  0.17227100  1
  Ni  Ni82  1  0.32065700  0.44514100  0.59758800  1
  Ni  Ni83  1  0.17934300  0.94514100  0.59758800  1
  Ni  Ni84  1  0.14296300  0.98779900  0.33141400  1
  Ni  Ni85  1  0.94792600  0.81225100  0.67227100  1
  Ni  Ni86  1  0.05207400  0.31225100  0.82772900  1
  Ni  Ni87  1  0.82065700  0.44514100  0.90241200  1
  Cu  Cu88  1  0.36760700  0.83632000  0.55619200  1
  Cu  Cu89  1  0.63239300  0.16368000  0.44380800  1
  Cu  Cu90  1  0.13239300  0.33632000  0.55619200  1
  Cu  Cu91  1  0.86760700  0.83632000  0.94380800  1
  Cu  Cu92  1  0.63239300  0.33632000  0.94380800  1
  Cu  Cu93  1  0.13239300  0.16368000  0.05619200  1
  Cu  Cu94  1  0.86760700  0.66368000  0.44380800  1
  Cu  Cu95  1  0.36760700  0.66368000  0.05619200  1
  C  C96  1  0.77711700  0.95020700  0.42487100  1
  C  C97  1  0.00794400  0.57559800  0.14704800  1
  C  C98  1  0.49205600  0.42440200  0.64704800  1
  C  C99  1  0.99205600  0.42440200  0.85295200  1
  C  C100  1  0.27711700  0.95020700  0.07512900  1
  C  C101  1  0.99205600  0.07559800  0.35295200  1
  C  C102  1  0.00794400  0.92440200  0.64704800  1
  C  C103  1  0.27711700  0.54979300  0.57512900  1
  C  C104  1  0.50794400  0.92440200  0.85295200  1
  C  C105  1  0.72288300  0.04979300  0.92487100  1
  C  C106  1  0.72288300  0.45020700  0.42487100  1
  C  C107  1  0.50794400  0.57559800  0.35295200  1
  C  C108  1  0.22288300  0.45020700  0.07512900  1
  C  C109  1  0.77711700  0.54979300  0.92487100  1
  C  C110  1  0.49205600  0.07559800  0.14704800  1
  C  C111  1  0.22288300  0.04979300  0.57512900  1
