# generated using pymatgen
data_Cu6NiC5
_symmetry_space_group_name_H-M   'P 1'
_cell_length_a   6.05347200
_cell_length_b   7.46962198
_cell_length_c   11.41885933
_cell_angle_alpha   89.87502798
_cell_angle_beta   89.94784158
_cell_angle_gamma   88.53039238
_symmetry_Int_Tables_number   1
_chemical_formula_structural   Cu6NiC5
_chemical_formula_sum   'Cu24 Ni4 C20'
_cell_volume   516.15699483
_cell_formula_units_Z   4
loop_
 _symmetry_equiv_pos_site_id
 _symmetry_equiv_pos_as_xyz
  1  'x, y, z'
loop_
 _atom_site_type_symbol
 _atom_site_label
 _atom_site_symmetry_multiplicity
 _atom_site_fract_x
 _atom_site_fract_y
 _atom_site_fract_z
 _atom_site_occupancy
  C  C0  1  0.99586600  0.70984600  0.24901400  1
  C  C1  1  0.18650200  0.70655600  0.74985200  1
  C  C2  1  0.49869400  0.25046400  0.05321600  1
  C  C3  1  0.01056300  0.23769000  0.46165000  1
  C  C4  1  0.53622400  0.78291300  0.96005300  1
  C  C5  1  0.50620000  0.26265700  0.44275000  1
  C  C6  1  0.01068300  0.23657800  0.03825400  1
  C  C7  1  0.51982500  0.80031000  0.09669100  1
  C  C8  1  0.98913700  0.74413100  0.52084300  1
  C  C9  1  0.97600700  0.54066300  0.48810400  1
  C  C10  1  0.46163900  0.21387300  0.57660300  1
  C  C11  1  0.50614600  0.02319600  0.48339700  1
  C  C12  1  0.99392500  0.27842200  0.90627300  1
  C  C13  1  0.50265900  0.00673300  0.01161900  1
  C  C14  1  0.46333800  0.20639100  0.91877900  1
  C  C15  1  0.99262300  0.27809400  0.59373600  1
  C  C16  1  0.51690300  0.80951400  0.39656000  1
  C  C17  1  0.52464900  0.79226100  0.53306400  1
  C  C18  1  0.97590100  0.53966400  0.01198000  1
  C  C19  1  0.99004400  0.74324500  0.97874500  1
  Ni  Ni20  1  0.58289500  0.49063900  0.24963400  1
  Ni  Ni21  1  0.06305900  0.99224400  0.24941000  1
  Ni  Ni22  1  0.43175100  0.49199700  0.74921700  1
  Ni  Ni23  1  0.91842500  0.99739700  0.75029100  1
  Cu  Cu24  1  0.60599300  0.68808700  0.24709000  1
  Cu  Cu25  1  0.13349500  0.78056600  0.24902600  1
  Cu  Cu26  1  0.39212700  0.30358100  0.74845600  1
  Cu  Cu27  1  0.89742600  0.19386200  0.74960300  1
  Cu  Cu28  1  0.79897600  0.40291100  0.25159700  1
  Cu  Cu29  1  0.27458900  0.07213600  0.24848900  1
  Cu  Cu30  1  0.17728900  0.57366100  0.75342000  1
  Cu  Cu31  1  0.69980400  0.92048600  0.75000000  1
  Cu  Cu32  1  0.45895100  0.43928400  0.14585100  1
  Cu  Cu33  1  0.93853300  0.02517000  0.35449300  1
  Cu  Cu34  1  0.52900100  0.55468700  0.64336000  1
  Cu  Cu35  1  0.04288700  0.93984000  0.85455200  1
  Cu  Cu36  1  0.53805200  0.54898000  0.85424900  1
  Cu  Cu37  1  0.04441100  0.93838700  0.64698200  1
  Cu  Cu38  1  0.45670400  0.44574900  0.35552300  1
  Cu  Cu39  1  0.93610700  0.02510300  0.14485200  1
  Cu  Cu40  1  0.46198700  0.85256800  0.02246200  1
  Cu  Cu41  1  0.90570200  0.66022900  0.47426700  1
  Cu  Cu42  1  0.54543600  0.17511200  0.50653800  1
  Cu  Cu43  1  0.06901100  0.31515600  0.97788700  1
  Cu  Cu44  1  0.54329100  0.16584700  0.98911800  1
  Cu  Cu45  1  0.06869200  0.31537600  0.52219800  1
  Cu  Cu46  1  0.45857200  0.86468800  0.46937500  1
  Cu  Cu47  1  0.90657600  0.65942700  0.02594900  1
