# generated using pymatgen
data_Cu10Ni6C
_symmetry_space_group_name_H-M   'P 1'
_cell_length_a   9.86967200
_cell_length_b   10.79759609
_cell_length_c   11.63180557
_cell_angle_alpha   87.19424321
_cell_angle_beta   87.31278213
_cell_angle_gamma   89.29426468
_symmetry_Int_Tables_number   1
_chemical_formula_structural   Cu10Ni6C
_chemical_formula_sum   'Cu20 Ni12 C2'
_cell_volume   1236.67691555
_cell_formula_units_Z   2
loop_
 _symmetry_equiv_pos_site_id
 _symmetry_equiv_pos_as_xyz
  1  'x, y, z'
loop_
 _atom_site_type_symbol
 _atom_site_label
 _atom_site_symmetry_multiplicity
 _atom_site_fract_x
 _atom_site_fract_y
 _atom_site_fract_z
 _atom_site_occupancy
  C  C0  1  0.55474200  0.88999000  0.82943600  1
  C  C1  1  0.82036100  0.40958300  0.05662100  1
  Ni  Ni2  1  0.43771200  0.21980900  0.04227000  1
  Ni  Ni3  1  0.26570200  0.96338800  0.21976400  1
  Ni  Ni4  1  0.79998400  0.12726000  0.56718800  1
  Ni  Ni5  1  0.82613800  0.38807400  0.41374100  1
  Ni  Ni6  1  0.70445900  0.82699700  0.50266100  1
  Ni  Ni7  1  0.80577900  0.03708200  0.21272000  1
  Ni  Ni8  1  0.94513500  0.50415000  0.66556200  1
  Ni  Ni9  1  0.83937800  0.72241700  0.68638500  1
  Ni  Ni10  1  0.91143300  0.70999300  0.15260200  1
  Ni  Ni11  1  0.97444500  0.74998000  0.47208400  1
  Ni  Ni12  1  0.01327600  0.83117500  0.89513100  1
  Ni  Ni13  1  0.23148900  0.55089300  0.94023600  1
  Cu  Cu14  1  0.06995600  0.38391000  0.84088100  1
  Cu  Cu15  1  0.03105200  0.93648600  0.09988500  1
  Cu  Cu16  1  0.09527300  0.53205500  0.14579200  1
  Cu  Cu17  1  0.22260700  0.74005500  0.78835400  1
  Cu  Cu18  1  0.18889200  0.88530800  0.43371500  1
  Cu  Cu19  1  0.24500700  0.23836400  0.70877200  1
  Cu  Cu20  1  0.31116400  0.19667800  0.24145300  1
  Cu  Cu21  1  0.31931100  0.06960200  0.89707900  1
  Cu  Cu22  1  0.47072400  0.44815300  0.95396800  1
  Cu  Cu23  1  0.41991600  0.84155400  0.08024400  1
  Cu  Cu24  1  0.58098000  0.67295700  0.65093500  1
  Cu  Cu25  1  0.56649300  0.03214900  0.53605800  1
  Cu  Cu26  1  0.66644600  0.48498800  0.27005700  1
  Cu  Cu27  1  0.73212500  0.35017000  0.63733900  1
  Cu  Cu28  1  0.70153200  0.14645200  0.03085400  1
  Cu  Cu29  1  0.79281100  0.68848100  0.94917200  1
  Cu  Cu30  1  0.70384700  0.81117900  0.27394700  1
  Cu  Cu31  1  0.86318700  0.96436400  0.74702500  1
  Cu  Cu32  1  0.05842600  0.50976800  0.45400700  1
  Cu  Cu33  1  0.94331800  0.16103500  0.37026000  1
