# generated using pymatgen
data_Cu4Ni3C5
_symmetry_space_group_name_H-M   'P 1'
_cell_length_a   7.02357800
_cell_length_b   9.51802300
_cell_length_c   13.66320800
_cell_angle_alpha   90.00000000
_cell_angle_beta   90.00000000
_cell_angle_gamma   90.00000000
_symmetry_Int_Tables_number   1
_chemical_formula_structural   Cu4Ni3C5
_chemical_formula_sum   'Cu16 Ni12 C20'
_cell_volume   913.39333774
_cell_formula_units_Z   4
loop_
 _symmetry_equiv_pos_site_id
 _symmetry_equiv_pos_as_xyz
  1  'x, y, z'
loop_
 _atom_site_type_symbol
 _atom_site_label
 _atom_site_symmetry_multiplicity
 _atom_site_fract_x
 _atom_site_fract_y
 _atom_site_fract_z
 _atom_site_occupancy
  C  C0  1  0.50000000  0.50000000  0.00000000  1
  C  C1  1  0.50000000  0.50000000  0.50000000  1
  C  C2  1  0.50000000  0.00000000  0.50000000  1
  C  C3  1  0.50000000  0.00000000  0.00000000  1
  C  C4  1  0.00000000  0.73991200  0.00000000  1
  C  C5  1  0.00000000  0.26008800  0.00000000  1
  C  C6  1  0.77667900  0.00000000  0.18942100  1
  C  C7  1  0.22332100  0.50000000  0.68942100  1
  C  C8  1  0.33076400  0.25000000  0.25000000  1
  C  C9  1  0.22332100  0.00000000  0.81057900  1
  C  C10  1  0.00000000  0.76008800  0.50000000  1
  C  C11  1  0.33076400  0.75000000  0.25000000  1
  C  C12  1  0.66923600  0.25000000  0.75000000  1
  C  C13  1  0.00000000  0.23991200  0.50000000  1
  C  C14  1  0.66923600  0.75000000  0.75000000  1
  C  C15  1  0.77667900  0.50000000  0.31057900  1
  C  C16  1  0.20772000  0.50000000  0.38876900  1
  C  C17  1  0.20772000  0.00000000  0.11123100  1
  C  C18  1  0.79228000  0.00000000  0.88876900  1
  C  C19  1  0.79228000  0.50000000  0.61123100  1
  Ni  Ni20  1  0.20188700  0.00000000  0.39519400  1
  Ni  Ni21  1  0.33450100  0.68266400  0.87338100  1
  Ni  Ni22  1  0.33450100  0.18266400  0.62661900  1
  Ni  Ni23  1  0.33450100  0.81733600  0.62661900  1
  Ni  Ni24  1  0.79811300  0.00000000  0.60480600  1
  Ni  Ni25  1  0.66549900  0.68266400  0.12661900  1
  Ni  Ni26  1  0.66549900  0.81733600  0.37338100  1
  Ni  Ni27  1  0.66549900  0.18266400  0.37338100  1
  Ni  Ni28  1  0.79811300  0.50000000  0.89519400  1
  Ni  Ni29  1  0.33450100  0.31733600  0.87338100  1
  Ni  Ni30  1  0.20188700  0.50000000  0.10480600  1
  Ni  Ni31  1  0.66549900  0.31733600  0.12661900  1
  Cu  Cu32  1  0.77403900  0.50000000  0.49115400  1
  Cu  Cu33  1  0.42261300  0.50000000  0.34039700  1
  Cu  Cu34  1  0.91227100  0.63914300  0.64898100  1
  Cu  Cu35  1  0.08772900  0.86085700  0.14898100  1
  Cu  Cu36  1  0.91227100  0.36085700  0.64898100  1
  Cu  Cu37  1  0.08772900  0.13914300  0.14898100  1
  Cu  Cu38  1  0.22596100  0.50000000  0.50884600  1
  Cu  Cu39  1  0.08772900  0.63914300  0.35101900  1
  Cu  Cu40  1  0.57738700  0.50000000  0.65960300  1
  Cu  Cu41  1  0.42261300  0.00000000  0.15960300  1
  Cu  Cu42  1  0.91227100  0.86085700  0.85101900  1
  Cu  Cu43  1  0.57738700  0.00000000  0.84039700  1
  Cu  Cu44  1  0.22596100  0.00000000  0.99115400  1
  Cu  Cu45  1  0.77403900  0.00000000  0.00884600  1
  Cu  Cu46  1  0.91227100  0.13914300  0.85101900  1
  Cu  Cu47  1  0.08772900  0.36085700  0.35101900  1
