# generated using pymatgen
data_Cu6NiC13
_symmetry_space_group_name_H-M   'P 1'
_cell_length_a   6.86950400
_cell_length_b   12.47840200
_cell_length_c   13.95289978
_cell_angle_alpha   71.63325615
_cell_angle_beta   90.00000000
_cell_angle_gamma   90.00000000
_symmetry_Int_Tables_number   1
_chemical_formula_structural   Cu6NiC13
_chemical_formula_sum   'Cu24 Ni4 C52'
_cell_volume   1135.12076731
_cell_formula_units_Z   4
loop_
 _symmetry_equiv_pos_site_id
 _symmetry_equiv_pos_as_xyz
  1  'x, y, z'
loop_
 _atom_site_type_symbol
 _atom_site_label
 _atom_site_symmetry_multiplicity
 _atom_site_fract_x
 _atom_site_fract_y
 _atom_site_fract_z
 _atom_site_occupancy
  C  C0  1  0.47805500  0.67168000  0.65723500  1
  C  C1  1  0.02194500  0.17168000  0.65723500  1
  C  C2  1  0.02496100  0.57042400  0.16008200  1
  C  C3  1  0.97503900  0.42957600  0.83991800  1
  C  C4  1  0.97805500  0.82832000  0.34276500  1
  C  C5  1  0.47503900  0.07042400  0.16008200  1
  C  C6  1  0.52194500  0.32832000  0.34276500  1
  C  C7  1  0.52496100  0.92957600  0.83991800  1
  Ni  Ni8  1  0.00000000  0.00000000  0.00000000  1
  Ni  Ni9  1  0.50000000  0.50000000  0.00000000  1
  Ni  Ni10  1  0.00000000  0.50000000  0.50000000  1
  Ni  Ni11  1  0.50000000  0.00000000  0.50000000  1
  Cu  Cu12  1  0.67126500  0.56323100  0.52423600  1
  Cu  Cu13  1  0.50776200  0.29902300  0.01778600  1
  Cu  Cu14  1  0.77214200  0.40589400  0.64413400  1
  Cu  Cu15  1  0.75327600  0.37615700  0.11186300  1
  Cu  Cu16  1  0.56652800  0.86879700  0.40271200  1
  Cu  Cu17  1  0.72785800  0.90589400  0.64413400  1
  Cu  Cu18  1  0.93347200  0.36879700  0.40271200  1
  Cu  Cu19  1  0.99223800  0.79902300  0.01778600  1
  Cu  Cu20  1  0.70680700  0.63032400  0.86398100  1
  Cu  Cu21  1  0.29319300  0.36967600  0.13601900  1
  Cu  Cu22  1  0.32873500  0.43676900  0.47576400  1
  Cu  Cu23  1  0.20680700  0.86967600  0.13601900  1
  Cu  Cu24  1  0.74672400  0.87615700  0.11186300  1
  Cu  Cu25  1  0.17126500  0.93676900  0.47576400  1
  Cu  Cu26  1  0.24672400  0.62384300  0.88813700  1
  Cu  Cu27  1  0.22785800  0.59410600  0.35586600  1
  Cu  Cu28  1  0.82873500  0.06323100  0.52423600  1
  Cu  Cu29  1  0.49223800  0.70097700  0.98221400  1
  Cu  Cu30  1  0.25327600  0.12384300  0.88813700  1
  Cu  Cu31  1  0.43347200  0.13120300  0.59728700  1
  Cu  Cu32  1  0.79319300  0.13032400  0.86398100  1
  Cu  Cu33  1  0.06652800  0.63120300  0.59728700  1
  Cu  Cu34  1  0.27214200  0.09410600  0.35586600  1
  Cu  Cu35  1  0.00776200  0.20097700  0.98221400  1
  C  C36  1  0.50816800  0.26452000  0.75006600  1
  C  C37  1  0.49183200  0.73548000  0.24993400  1
  C  C38  1  0.00816800  0.23548000  0.24993400  1
  C  C39  1  0.99183200  0.76452000  0.75006600  1
  C  C40  1  0.88552400  0.06424500  0.86660800  1
  C  C41  1  0.11447600  0.93575500  0.13339200  1
  C  C42  1  0.65099000  0.89632600  0.44929300  1
  C  C43  1  0.61447600  0.56424500  0.86660800  1
  C  C44  1  0.75860600  0.45052700  0.05574500  1
  C  C45  1  0.07921000  0.58593300  0.36363900  1
  C  C46  1  0.94899500  0.89694000  0.67393200  1
  C  C47  1  0.15099000  0.60367400  0.55070700  1
  C  C48  1  0.27830700  0.89588000  0.51816300  1
  C  C49  1  0.27748300  0.25062600  0.79151700  1
  C  C50  1  0.45009100  0.83099100  0.31018200  1
  C  C51  1  0.72169300  0.10412000  0.48183700  1
  C  C52  1  0.44899500  0.60306000  0.32606800  1
  C  C53  1  0.44995800  0.36220900  0.96543400  1
  C  C54  1  0.55004200  0.63779100  0.03456600  1
  C  C55  1  0.77748300  0.24937400  0.20848300  1
  C  C56  1  0.72251700  0.74937400  0.20848300  1
  C  C57  1  0.94995800  0.13779100  0.03456600  1
  C  C58  1  0.05004200  0.86220900  0.96543400  1
  C  C59  1  0.24139400  0.54947300  0.94425500  1
  C  C60  1  0.83362200  0.73661100  0.84665200  1
  C  C61  1  0.34901000  0.10367400  0.55070700  1
  C  C62  1  0.74139400  0.95052700  0.05574500  1
  C  C63  1  0.22169300  0.39588000  0.51816300  1
  C  C64  1  0.42079000  0.08593300  0.36363900  1
  C  C65  1  0.55100500  0.39694000  0.67393200  1
  C  C66  1  0.84901000  0.39632600  0.44929300  1
  C  C67  1  0.22251700  0.75062600  0.79151700  1
  C  C68  1  0.54990900  0.16900900  0.68981800  1
  C  C69  1  0.38552400  0.43575500  0.13339200  1
  C  C70  1  0.57921000  0.91406700  0.63636100  1
  C  C71  1  0.05100500  0.10306000  0.32606800  1
  C  C72  1  0.33362200  0.76338900  0.15334800  1
  C  C73  1  0.77830700  0.60412000  0.48183700  1
  C  C74  1  0.16637800  0.26338900  0.15334800  1
  C  C75  1  0.04990900  0.33099100  0.31018200  1
  C  C76  1  0.66637800  0.23661100  0.84665200  1
  C  C77  1  0.25860600  0.04947300  0.94425500  1
  C  C78  1  0.92079000  0.41406700  0.63636100  1
  C  C79  1  0.95009100  0.66900900  0.68981800  1
