# generated using pymatgen
data_Cu18NiC15
_symmetry_space_group_name_H-M   'P 1'
_cell_length_a   10.59294899
_cell_length_b   8.71641380
_cell_length_c   8.68372008
_cell_angle_alpha   75.00321149
_cell_angle_beta   52.63868458
_cell_angle_gamma   52.35810392
_symmetry_Int_Tables_number   1
_chemical_formula_structural   Cu18NiC15
_chemical_formula_sum   'Cu18 Ni1 C15'
_cell_volume   496.59540244
_cell_formula_units_Z   1
loop_
 _symmetry_equiv_pos_site_id
 _symmetry_equiv_pos_as_xyz
  1  'x, y, z'
loop_
 _atom_site_type_symbol
 _atom_site_label
 _atom_site_symmetry_multiplicity
 _atom_site_fract_x
 _atom_site_fract_y
 _atom_site_fract_z
 _atom_site_occupancy
  C  C0  1  0.29321900  0.45300200  0.96480600  1
  C  C1  1  0.71102700  0.03519400  0.54699800  1
  C  C2  1  0.54699800  0.70678100  0.71102700  1
  C  C3  1  0.00410500  0.99589500  0.00410500  1
  C  C4  1  0.03747000  0.70576500  0.70318000  1
  C  C5  1  0.96480600  0.28897300  0.29321900  1
  C  C6  1  0.44641500  0.29682000  0.29423500  1
  C  C7  1  0.29423500  0.96253000  0.44641500  1
  C  C8  1  0.00007400  0.50017600  0.49982400  1
  C  C9  1  0.70318000  0.55358500  0.03747000  1
  C  C10  1  0.49982400  0.99992600  0.00007400  1
  C  C11  1  0.21152900  0.78847100  0.21152900  1
  C  C12  1  0.78920300  0.21079700  0.78920300  1
  C  C13  1  0.21220700  0.21121100  0.78878900  1
  C  C14  1  0.78878900  0.78779300  0.21220700  1
  Ni  Ni15  1  0.49900600  0.50099400  0.49900600  1
  Cu  Cu16  1  0.63587800  0.18203900  0.81796100  1
  Cu  Cu17  1  0.75160400  0.74839600  0.75160400  1
  Cu  Cu18  1  0.00429600  0.70133700  0.99547200  1
  Cu  Cu19  1  0.36584100  0.18247200  0.81752800  1
  Cu  Cu20  1  0.29735400  0.70264600  0.97861100  1
  Cu  Cu21  1  0.81796100  0.36412200  0.63587800  1
  Cu  Cu22  1  0.29866300  0.99570400  0.70110500  1
  Cu  Cu23  1  0.81752800  0.63415900  0.36584100  1
  Cu  Cu24  1  0.18310200  0.36388100  0.63611900  1
  Cu  Cu25  1  0.70110500  0.00452800  0.29866300  1
  Cu  Cu26  1  0.97861100  0.02138900  0.29735400  1
  Cu  Cu27  1  0.00550000  0.99450000  0.70571300  1
  Cu  Cu28  1  0.17932200  0.62506500  0.37493500  1
  Cu  Cu29  1  0.63611900  0.81689800  0.18310200  1
  Cu  Cu30  1  0.99547200  0.29889500  0.00429600  1
  Cu  Cu31  1  0.25160400  0.24839600  0.25160400  1
  Cu  Cu32  1  0.37493500  0.82067800  0.17932200  1
  Cu  Cu33  1  0.70571300  0.29428700  0.00550000  1
