# generated using pymatgen
data_Cu19(NiC)6
_symmetry_space_group_name_H-M   'P 1'
_cell_length_a   11.22400918
_cell_length_b   11.22400918
_cell_length_c   11.22400918
_cell_angle_alpha   60.00000000
_cell_angle_beta   60.00000000
_cell_angle_gamma   60.00000000
_symmetry_Int_Tables_number   1
_chemical_formula_structural   Cu19(NiC)6
_chemical_formula_sum   'Cu38 Ni12 C12'
_cell_volume   999.83662492
_cell_formula_units_Z   2
loop_
 _symmetry_equiv_pos_site_id
 _symmetry_equiv_pos_as_xyz
  1  'x, y, z'
loop_
 _atom_site_type_symbol
 _atom_site_label
 _atom_site_symmetry_multiplicity
 _atom_site_fract_x
 _atom_site_fract_y
 _atom_site_fract_z
 _atom_site_occupancy
  C  C0  1  0.17113900  0.48658200  0.17113900  1
  C  C1  1  0.17113900  0.17113900  0.17113900  1
  C  C2  1  0.07886100  0.07886100  0.76341800  1
  C  C3  1  0.76341800  0.07886100  0.07886100  1
  C  C4  1  0.07886100  0.76341800  0.07886100  1
  C  C5  1  0.17113900  0.17113900  0.48658200  1
  C  C6  1  0.07886100  0.07886100  0.07886100  1
  C  C7  1  0.48658200  0.17113900  0.17113900  1
  C  C8  1  0.62500000  0.12500000  0.62500000  1
  C  C9  1  0.12500000  0.62500000  0.62500000  1
  C  C10  1  0.62500000  0.62500000  0.12500000  1
  C  C11  1  0.62500000  0.62500000  0.62500000  1
  Ni  Ni12  1  0.25957200  0.25957200  0.74042800  1
  Ni  Ni13  1  0.99042800  0.99042800  0.50957200  1
  Ni  Ni14  1  0.50957200  0.99042800  0.50957200  1
  Ni  Ni15  1  0.99042800  0.50957200  0.99042800  1
  Ni  Ni16  1  0.50957200  0.50957200  0.99042800  1
  Ni  Ni17  1  0.25957200  0.74042800  0.74042800  1
  Ni  Ni18  1  0.50957200  0.99042800  0.99042800  1
  Ni  Ni19  1  0.74042800  0.74042800  0.25957200  1
  Ni  Ni20  1  0.74042800  0.25957200  0.74042800  1
  Ni  Ni21  1  0.99042800  0.50957200  0.50957200  1
  Ni  Ni22  1  0.74042800  0.25957200  0.25957200  1
  Ni  Ni23  1  0.25957200  0.74042800  0.25957200  1
  Cu  Cu24  1  0.12189100  0.77996600  0.31817700  1
  Cu  Cu25  1  0.12189100  0.77996600  0.77996600  1
  Cu  Cu26  1  0.65978600  0.34021400  0.34021400  1
  Cu  Cu27  1  0.47003400  0.93182300  0.12810900  1
  Cu  Cu28  1  0.77996600  0.77996600  0.31817700  1
  Cu  Cu29  1  0.77996600  0.12189100  0.77996600  1
  Cu  Cu30  1  0.93182300  0.12810900  0.47003400  1
  Cu  Cu31  1  0.47003400  0.12810900  0.47003400  1
  Cu  Cu32  1  0.59021400  0.90978600  0.59021400  1
  Cu  Cu33  1  0.34021400  0.65978600  0.34021400  1
  Cu  Cu34  1  0.34021400  0.34021400  0.65978600  1
  Cu  Cu35  1  0.47003400  0.47003400  0.93182300  1
  Cu  Cu36  1  0.31817700  0.77996600  0.77996600  1
  Cu  Cu37  1  0.34021400  0.65978600  0.65978600  1
  Cu  Cu38  1  0.65978600  0.34021400  0.65978600  1
  Cu  Cu39  1  0.47003400  0.93182300  0.47003400  1
  Cu  Cu40  1  0.77996600  0.31817700  0.12189100  1
  Cu  Cu41  1  0.90978600  0.59021400  0.59021400  1
  Cu  Cu42  1  0.12810900  0.47003400  0.47003400  1
  Cu  Cu43  1  0.12189100  0.31817700  0.77996600  1
  Cu  Cu44  1  0.93182300  0.47003400  0.12810900  1
  Cu  Cu45  1  0.47003400  0.47003400  0.12810900  1
  Cu  Cu46  1  0.12810900  0.93182300  0.47003400  1
  Cu  Cu47  1  0.12810900  0.47003400  0.93182300  1
  Cu  Cu48  1  0.59021400  0.59021400  0.90978600  1
  Cu  Cu49  1  0.59021400  0.90978600  0.90978600  1
  Cu  Cu50  1  0.25000000  0.25000000  0.25000000  1
  Cu  Cu51  1  0.65978600  0.65978600  0.34021400  1
  Cu  Cu52  1  0.90978600  0.59021400  0.90978600  1
  Cu  Cu53  1  0.93182300  0.47003400  0.47003400  1
  Cu  Cu54  1  0.47003400  0.12810900  0.93182300  1
  Cu  Cu55  1  0.31817700  0.77996600  0.12189100  1
  Cu  Cu56  1  0.00000000  0.00000000  0.00000000  1
  Cu  Cu57  1  0.77996600  0.31817700  0.77996600  1
  Cu  Cu58  1  0.31817700  0.12189100  0.77996600  1
  Cu  Cu59  1  0.77996600  0.12189100  0.31817700  1
  Cu  Cu60  1  0.77996600  0.77996600  0.12189100  1
  Cu  Cu61  1  0.90978600  0.90978600  0.59021400  1
