# generated using pymatgen
data_Cu12Ni3C4
_symmetry_space_group_name_H-M   'P 1'
_cell_length_a   11.45363392
_cell_length_b   11.45363392
_cell_length_c   11.45363361
_cell_angle_alpha   114.75650216
_cell_angle_beta   114.75650216
_cell_angle_gamma   114.75649757
_symmetry_Int_Tables_number   1
_chemical_formula_structural   Cu12Ni3C4
_chemical_formula_sum   'Cu24 Ni6 C8'
_cell_volume   859.27507867
_cell_formula_units_Z   2
loop_
 _symmetry_equiv_pos_site_id
 _symmetry_equiv_pos_as_xyz
  1  'x, y, z'
loop_
 _atom_site_type_symbol
 _atom_site_label
 _atom_site_symmetry_multiplicity
 _atom_site_fract_x
 _atom_site_fract_y
 _atom_site_fract_z
 _atom_site_occupancy
  C  C0  1  0.97220200  0.43145200  0.20608600  1
  C  C1  1  0.43145200  0.20608600  0.97220200  1
  C  C2  1  0.47220200  0.70608600  0.93145200  1
  C  C3  1  0.99807700  0.99807700  0.99807700  1
  C  C4  1  0.93145200  0.47220200  0.70608600  1
  C  C5  1  0.49807700  0.49807700  0.49807700  1
  C  C6  1  0.70608600  0.93145200  0.47220200  1
  C  C7  1  0.20608600  0.97220200  0.43145200  1
  Ni  Ni8  1  0.35303300  0.96689100  0.13933500  1
  Ni  Ni9  1  0.85303300  0.63933500  0.46689100  1
  Ni  Ni10  1  0.96689100  0.13933500  0.35303300  1
  Ni  Ni11  1  0.46689100  0.85303300  0.63933500  1
  Ni  Ni12  1  0.63933500  0.46689100  0.85303300  1
  Ni  Ni13  1  0.13933500  0.35303300  0.96689100  1
  Cu  Cu14  1  0.30051000  0.62045600  0.58611400  1
  Cu  Cu15  1  0.61485300  0.07751400  0.34707100  1
  Cu  Cu16  1  0.12045600  0.80051000  0.08611400  1
  Cu  Cu17  1  0.89155200  0.28475300  0.81828100  1
  Cu  Cu18  1  0.18869200  0.37370500  0.18269900  1
  Cu  Cu19  1  0.81828100  0.89155200  0.28475300  1
  Cu  Cu20  1  0.31828100  0.78475300  0.39155200  1
  Cu  Cu21  1  0.28475300  0.81828100  0.89155200  1
  Cu  Cu22  1  0.11485300  0.84707100  0.57751400  1
  Cu  Cu23  1  0.68869200  0.68269900  0.87370500  1
  Cu  Cu24  1  0.07751400  0.34707100  0.61485300  1
  Cu  Cu25  1  0.08611400  0.12045600  0.80051000  1
  Cu  Cu26  1  0.87370500  0.68869200  0.68269900  1
  Cu  Cu27  1  0.68269900  0.87370500  0.68869200  1
  Cu  Cu28  1  0.84707100  0.57751400  0.11485300  1
  Cu  Cu29  1  0.34707100  0.61485300  0.07751400  1
  Cu  Cu30  1  0.80051000  0.08611400  0.12045600  1
  Cu  Cu31  1  0.18269900  0.18869200  0.37370500  1
  Cu  Cu32  1  0.37370500  0.18269900  0.18869200  1
  Cu  Cu33  1  0.57751400  0.11485300  0.84707100  1
  Cu  Cu34  1  0.58611400  0.30051000  0.62045600  1
  Cu  Cu35  1  0.39155200  0.31828100  0.78475300  1
  Cu  Cu36  1  0.78475300  0.39155200  0.31828100  1
  Cu  Cu37  1  0.62045600  0.58611400  0.30051000  1
