# generated using pymatgen
data_Cu5(NiC)2
_symmetry_space_group_name_H-M   'P 1'
_cell_length_a   26.23510900
_cell_length_b   8.21752300
_cell_length_c   8.47963186
_cell_angle_alpha   89.95291812
_cell_angle_beta   90.00000000
_cell_angle_gamma   90.00000000
_symmetry_Int_Tables_number   1
_chemical_formula_structural   Cu5(NiC)2
_chemical_formula_sum   'Cu40 Ni16 C16'
_cell_volume   1828.10296349
_cell_formula_units_Z   8
loop_
 _symmetry_equiv_pos_site_id
 _symmetry_equiv_pos_as_xyz
  1  'x, y, z'
loop_
 _atom_site_type_symbol
 _atom_site_label
 _atom_site_symmetry_multiplicity
 _atom_site_fract_x
 _atom_site_fract_y
 _atom_site_fract_z
 _atom_site_occupancy
  Ni  Ni0  1  0.45197400  0.55885800  0.44214600  1
  Ni  Ni1  1  0.34579900  0.27974000  0.63622400  1
  Ni  Ni2  1  0.96032200  0.43876700  0.11410500  1
  Ni  Ni3  1  0.36485000  0.89222800  0.37347800  1
  Ni  Ni4  1  0.46032200  0.56123300  0.88589500  1
  Ni  Ni5  1  0.64065500  0.05676700  0.82502800  1
  Ni  Ni6  1  0.95197400  0.44114200  0.55785400  1
  Ni  Ni7  1  0.86485000  0.10777200  0.62652200  1
  Ni  Ni8  1  0.35439100  0.88674700  0.96003700  1
  Ni  Ni9  1  0.84579900  0.72026000  0.36377600  1
  Ni  Ni10  1  0.85439100  0.11325300  0.03996300  1
  Ni  Ni11  1  0.63463900  0.05953800  0.36955900  1
  Ni  Ni12  1  0.14065500  0.94323300  0.17497200  1
  Ni  Ni13  1  0.23095100  0.63150600  0.11205300  1
  Ni  Ni14  1  0.13463900  0.94046200  0.63044100  1
  Ni  Ni15  1  0.73095100  0.36849400  0.88794700  1
  C  C16  1  0.59426600  0.46866100  0.62207300  1
  C  C17  1  0.22916100  0.21500800  0.39976500  1
  C  C18  1  0.99627100  0.03563500  0.36025400  1
  C  C19  1  0.72916100  0.78499200  0.60023500  1
  C  C20  1  0.09426600  0.53133900  0.37792700  1
  C  C21  1  0.72495900  0.80276000  0.12620700  1
  C  C22  1  0.49772700  0.96063400  0.13475000  1
  C  C23  1  0.59877300  0.46184500  0.12912000  1
  C  C24  1  0.25594200  0.64565700  0.65005300  1
  C  C25  1  0.75594200  0.35434300  0.34994700  1
  C  C26  1  0.99772700  0.03936600  0.86525000  1
  C  C27  1  0.37584100  0.30718900  0.13910200  1
  C  C28  1  0.49627100  0.96436500  0.63974600  1
  C  C29  1  0.22495900  0.19724000  0.87379300  1
  C  C30  1  0.09877300  0.53815500  0.87088000  1
  C  C31  1  0.87584100  0.69281100  0.86089800  1
  Cu  Cu32  1  0.98294700  0.59335200  0.34170400  1
  Cu  Cu33  1  0.48649100  0.39553500  0.07742700  1
  Cu  Cu34  1  0.80252400  0.96164300  0.88207400  1
  Cu  Cu35  1  0.61106700  0.90918000  0.60046700  1
  Cu  Cu36  1  0.10904100  0.10401700  0.82174700  1
  Cu  Cu37  1  0.29555400  0.05241700  0.63427400  1
  Cu  Cu38  1  0.60904100  0.89598300  0.17825300  1
  Cu  Cu39  1  0.52785900  0.73765700  0.88216200  1
  Cu  Cu40  1  0.90053600  0.25936600  0.83814200  1
  Cu  Cu41  1  0.81225900  0.57326400  0.57862100  1
  Cu  Cu42  1  0.91971600  0.89531100  0.62148700  1
  Cu  Cu43  1  0.18247900  0.41296000  0.62497100  1
  Cu  Cu44  1  0.91505400  0.92775900  0.09913100  1
  Cu  Cu45  1  0.69252300  0.22908600  0.67504800  1
  Cu  Cu46  1  0.41505400  0.07224100  0.90086900  1
  Cu  Cu47  1  0.02111200  0.28446800  0.60297800  1
  Cu  Cu48  1  0.18241800  0.40168600  0.12645700  1
  Cu  Cu49  1  0.40357300  0.74163000  0.58645100  1
  Cu  Cu50  1  0.56828600  0.24131900  0.37456500  1
  Cu  Cu51  1  0.30252400  0.03835700  0.11792600  1
  Cu  Cu52  1  0.80823700  0.57224400  0.15387400  1
  Cu  Cu53  1  0.68247900  0.58704000  0.37502900  1
  Cu  Cu54  1  0.40053600  0.74063400  0.16185800  1
  Cu  Cu55  1  0.19186900  0.76183800  0.91006600  1
  Cu  Cu56  1  0.31225900  0.42673600  0.42137900  1
  Cu  Cu57  1  0.11106700  0.09082000  0.39953300  1
  Cu  Cu58  1  0.07293400  0.78140900  0.13692500  1
  Cu  Cu59  1  0.57293400  0.21859100  0.86307500  1
  Cu  Cu60  1  0.79555400  0.94758300  0.36572600  1
  Cu  Cu61  1  0.41971600  0.10468900  0.37851300  1
  Cu  Cu62  1  0.68241800  0.59831400  0.87354300  1
  Cu  Cu63  1  0.19252300  0.77091400  0.32495200  1
  Cu  Cu64  1  0.48294700  0.40664800  0.65829600  1
  Cu  Cu65  1  0.30823700  0.42775600  0.84612600  1
  Cu  Cu66  1  0.06828600  0.75868100  0.62543500  1
  Cu  Cu67  1  0.02785900  0.26234300  0.11783800  1
  Cu  Cu68  1  0.52111200  0.71553200  0.39702200  1
  Cu  Cu69  1  0.90357300  0.25837000  0.41354900  1
  Cu  Cu70  1  0.69186900  0.23816200  0.08993400  1
  Cu  Cu71  1  0.98649100  0.60446500  0.92257300  1
