# generated using pymatgen
data_Cu6NiC4
_symmetry_space_group_name_H-M   'P 1'
_cell_length_a   5.89818100
_cell_length_b   7.07167633
_cell_length_c   7.34293145
_cell_angle_alpha   103.54632983
_cell_angle_beta   104.18049608
_cell_angle_gamma   88.46178417
_symmetry_Int_Tables_number   1
_chemical_formula_structural   Cu6NiC4
_chemical_formula_sum   'Cu6 Ni1 C4'
_cell_volume   288.52912531
_cell_formula_units_Z   1
loop_
 _symmetry_equiv_pos_site_id
 _symmetry_equiv_pos_as_xyz
  1  'x, y, z'
loop_
 _atom_site_type_symbol
 _atom_site_label
 _atom_site_symmetry_multiplicity
 _atom_site_fract_x
 _atom_site_fract_y
 _atom_site_fract_z
 _atom_site_occupancy
  C  C0  1  0.92685100  0.43123700  0.02012700  1
  C  C1  1  0.06677200  0.87289200  0.87008900  1
  C  C2  1  0.51491200  0.78811100  0.27201100  1
  C  C3  1  0.30710700  0.28191000  0.58680600  1
  Ni  Ni4  1  0.05586200  0.88455400  0.43903700  1
  Cu  Cu5  1  0.92379200  0.01262300  0.52073700  1
  Cu  Cu6  1  0.30382500  0.53924400  0.91351700  1
  Cu  Cu7  1  0.98970300  0.80379200  0.25344300  1
  Cu  Cu8  1  0.30702300  0.20426000  0.17195200  1
  Cu  Cu9  1  0.43143800  0.29762500  0.08905700  1
  Cu  Cu10  1  0.25360500  0.84045200  0.54342000  1
