# generated using pymatgen
data_Cu2Ni8C31
_symmetry_space_group_name_H-M   'P 1'
_cell_length_a   8.19035381
_cell_length_b   8.19035381
_cell_length_c   8.19035381
_cell_angle_alpha   119.91603695
_cell_angle_beta   119.91603695
_cell_angle_gamma   90.14548989
_symmetry_Int_Tables_number   1
_chemical_formula_structural   Cu2Ni8C31
_chemical_formula_sum   'Cu2 Ni8 C31'
_cell_volume   388.99345046
_cell_formula_units_Z   1
loop_
 _symmetry_equiv_pos_site_id
 _symmetry_equiv_pos_as_xyz
  1  'x, y, z'
loop_
 _atom_site_type_symbol
 _atom_site_label
 _atom_site_symmetry_multiplicity
 _atom_site_fract_x
 _atom_site_fract_y
 _atom_site_fract_z
 _atom_site_occupancy
  C  C0  1  0.31251300  0.51548800  0.29036800  1
  C  C1  1  0.22512000  0.02214500  0.70963200  1
  C  C2  1  0.02214500  0.31251300  0.79702500  1
  C  C3  1  0.51548800  0.22512000  0.20297500  1
  C  C4  1  0.68748700  0.48451200  0.70963200  1
  C  C5  1  0.77488000  0.97785500  0.29036800  1
  C  C6  1  0.97785500  0.68748700  0.20297500  1
  C  C7  1  0.48451200  0.77488000  0.79702500  1
  C  C8  1  0.30994900  0.72263400  0.26620200  1
  C  C9  1  0.45643300  0.04374800  0.73379800  1
  C  C10  1  0.04374800  0.30994900  0.58731500  1
  C  C11  1  0.72263400  0.45643300  0.41268500  1
  C  C12  1  0.69005100  0.27736600  0.73379800  1
  C  C13  1  0.54356700  0.95625200  0.26620200  1
  C  C14  1  0.95625200  0.69005100  0.41268500  1
  C  C15  1  0.27736600  0.54356700  0.58731500  1
  C  C16  1  0.51770800  0.74928000  0.51813600  1
  C  C17  1  0.23114300  0.99957200  0.48186400  1
  C  C18  1  0.99957200  0.51770800  0.76842900  1
  C  C19  1  0.74928000  0.23114400  0.23157100  1
  C  C20  1  0.48229200  0.25072000  0.48186400  1
  C  C21  1  0.76885600  0.00042800  0.51813600  1
  C  C22  1  0.00042800  0.48229200  0.23157100  1
  C  C23  1  0.25072000  0.76885700  0.76842900  1
  C  C24  1  0.00000000  0.00000000  0.00000000  1
  Ni  Ni25  1  0.35607300  0.67856400  0.38499500  1
  Ni  Ni26  1  0.29356900  0.97107800  0.61500500  1
  Ni  Ni27  1  0.97107800  0.35607300  0.67750800  1
  Ni  Ni28  1  0.67856400  0.29356900  0.32249200  1
  Ni  Ni29  1  0.64392700  0.32143600  0.61500500  1
  Ni  Ni30  1  0.70643100  0.02892200  0.38499500  1
  Ni  Ni31  1  0.02892200  0.64392700  0.32249200  1
  Ni  Ni32  1  0.32143600  0.70643100  0.67750800  1
  Cu  Cu33  1  0.25000000  0.75000000  0.50000000  1
  Cu  Cu34  1  0.75000000  0.25000000  0.50000000  1
  C  C35  1  0.82900500  0.82900500  0.00000000  1
  C  C36  1  0.17099500  0.17099500  0.00000000  1
  C  C37  1  0.20337700  0.87030100  0.07367800  1
  C  C38  1  0.79662300  0.12969900  0.92632200  1
  C  C39  1  0.12969900  0.20337700  0.33307600  1
  C  C40  1  0.87030100  0.79662300  0.66692400  1
