# generated using pymatgen
data_Cu6Ni6C
_symmetry_space_group_name_H-M   'P 1'
_cell_length_a   23.56039964
_cell_length_b   23.56039964
_cell_length_c   9.00048100
_cell_angle_alpha   90.00000000
_cell_angle_beta   90.00000000
_cell_angle_gamma   166.81988907
_symmetry_Int_Tables_number   1
_chemical_formula_structural   Cu6Ni6C
_chemical_formula_sum   'Cu30 Ni30 C5'
_cell_volume   1139.17498455
_cell_formula_units_Z   5
loop_
 _symmetry_equiv_pos_site_id
 _symmetry_equiv_pos_as_xyz
  1  'x, y, z'
loop_
 _atom_site_type_symbol
 _atom_site_label
 _atom_site_symmetry_multiplicity
 _atom_site_fract_x
 _atom_site_fract_y
 _atom_site_fract_z
 _atom_site_occupancy
  C  C0  1  0.39984500  0.60015500  0.50000000  1
  C  C1  1  0.60015500  0.39984500  0.50000000  1
  C  C2  1  0.19984500  0.80015500  0.00000000  1
  C  C3  1  0.80015500  0.19984500  0.00000000  1
  C  C4  1  0.00000000  0.00000000  0.50000000  1
  Ni  Ni5  1  0.39986500  0.09995200  0.75002900  1
  Ni  Ni6  1  0.69998700  0.30001300  0.24906400  1
  Ni  Ni7  1  0.60013500  0.90004800  0.24997100  1
  Ni  Ni8  1  0.69998700  0.30001300  0.75093600  1
  Ni  Ni9  1  0.50000000  0.00000000  0.75110100  1
  Ni  Ni10  1  0.90004800  0.60013500  0.24997100  1
  Ni  Ni11  1  0.60013500  0.90004800  0.75002900  1
  Ni  Ni12  1  0.80009900  0.70015000  0.74880100  1
  Ni  Ni13  1  0.29985000  0.19990100  0.74880100  1
  Ni  Ni14  1  0.70015000  0.80009900  0.25119900  1
  Ni  Ni15  1  0.30001300  0.69998700  0.75093600  1
  Ni  Ni16  1  0.19990100  0.29985000  0.74880100  1
  Ni  Ni17  1  0.10006100  0.89993900  0.74907600  1
  Ni  Ni18  1  0.10006100  0.89993900  0.25092400  1
  Ni  Ni19  1  0.50000000  0.50000000  0.25116400  1
  Ni  Ni20  1  0.80009900  0.70015000  0.25119900  1
  Ni  Ni21  1  0.00000000  0.50000000  0.24889900  1
  Ni  Ni22  1  0.00000000  0.50000000  0.75110100  1
  Ni  Ni23  1  0.90004800  0.60013500  0.75002900  1
  Ni  Ni24  1  0.39986500  0.09995200  0.24997100  1
  Ni  Ni25  1  0.70015000  0.80009900  0.74880100  1
  Ni  Ni26  1  0.89993900  0.10006100  0.74907600  1
  Ni  Ni27  1  0.89993900  0.10006100  0.25092400  1
  Ni  Ni28  1  0.19990100  0.29985000  0.25119900  1
  Ni  Ni29  1  0.09995200  0.39986500  0.75002900  1
  Ni  Ni30  1  0.29985000  0.19990100  0.25119900  1
  Ni  Ni31  1  0.50000000  0.00000000  0.24889900  1
  Ni  Ni32  1  0.30001300  0.69998700  0.24906400  1
  Ni  Ni33  1  0.50000000  0.50000000  0.74883600  1
  Ni  Ni34  1  0.09995200  0.39986500  0.24997100  1
  Cu  Cu35  1  0.06653400  0.93346600  0.00000000  1
  Cu  Cu36  1  0.79998700  0.20001300  0.66575300  1
  Cu  Cu37  1  0.06662300  0.93337700  0.50000000  1
  Cu  Cu38  1  0.33341500  0.66658500  0.00000000  1
  Cu  Cu39  1  0.13306700  0.86693300  0.00000000  1
  Cu  Cu40  1  0.66699900  0.33300100  0.50000000  1
  Cu  Cu41  1  0.66658500  0.33341500  0.00000000  1
  Cu  Cu42  1  0.53348300  0.46651700  0.00000000  1
  Cu  Cu43  1  0.93337700  0.06662300  0.50000000  1
  Cu  Cu44  1  0.40021600  0.59978400  0.83443200  1
  Cu  Cu45  1  0.59978400  0.40021600  0.83443200  1
  Cu  Cu46  1  0.33300100  0.66699900  0.50000000  1
  Cu  Cu47  1  0.20001300  0.79998700  0.66575300  1
  Cu  Cu48  1  0.20001300  0.79998700  0.33424700  1
  Cu  Cu49  1  0.40021600  0.59978400  0.16556800  1
  Cu  Cu50  1  0.26672700  0.73327300  0.00000000  1
  Cu  Cu51  1  0.93346600  0.06653400  0.00000000  1
  Cu  Cu52  1  0.73331200  0.26668800  0.50000000  1
  Cu  Cu53  1  0.86647200  0.13352800  0.50000000  1
  Cu  Cu54  1  0.13352800  0.86647200  0.50000000  1
  Cu  Cu55  1  0.00000000  0.00000000  0.83410400  1
  Cu  Cu56  1  0.79998700  0.20001300  0.33424700  1
  Cu  Cu57  1  0.00000000  0.00000000  0.16589600  1
  Cu  Cu58  1  0.73327300  0.26672700  0.00000000  1
  Cu  Cu59  1  0.26668800  0.73331200  0.50000000  1
  Cu  Cu60  1  0.59978400  0.40021600  0.16556800  1
  Cu  Cu61  1  0.46651700  0.53348300  0.00000000  1
  Cu  Cu62  1  0.53340100  0.46659900  0.50000000  1
  Cu  Cu63  1  0.46659900  0.53340100  0.50000000  1
  Cu  Cu64  1  0.86693300  0.13306700  0.00000000  1
