# generated using pymatgen
data_CuNi4C5
_symmetry_space_group_name_H-M   'P 1'
_cell_length_a   13.98503517
_cell_length_b   13.98503517
_cell_length_c   13.98503517
_cell_angle_alpha   106.11764781
_cell_angle_beta   106.11764781
_cell_angle_gamma   116.40919091
_symmetry_Int_Tables_number   1
_chemical_formula_structural   CuNi4C5
_chemical_formula_sum   'Cu8 Ni32 C40'
_cell_volume   2082.14066531
_cell_formula_units_Z   8
loop_
 _symmetry_equiv_pos_site_id
 _symmetry_equiv_pos_as_xyz
  1  'x, y, z'
loop_
 _atom_site_type_symbol
 _atom_site_label
 _atom_site_symmetry_multiplicity
 _atom_site_fract_x
 _atom_site_fract_y
 _atom_site_fract_z
 _atom_site_occupancy
  C  C0  1  0.02558200  0.52415900  0.00737700  1
  C  C1  1  0.47584100  0.48321800  0.50142300  1
  C  C2  1  0.98179500  0.97441800  0.49857700  1
  C  C3  1  0.22441800  0.22584100  0.49262300  1
  C  C4  1  0.26820500  0.77558200  0.00142300  1
  C  C5  1  0.73321800  0.73179500  0.50737700  1
  C  C6  1  0.77415900  0.26678200  0.99857700  1
  C  C7  1  0.51678200  0.01820500  0.99262300  1
  C  C8  1  0.12885600  0.48144000  0.42797200  1
  C  C9  1  0.68854400  0.03358900  0.43492600  1
  C  C10  1  0.95088400  0.87885600  0.14741600  1
  C  C11  1  0.32599100  0.47666600  0.06525100  1
  C  C12  1  0.90419900  0.75652100  0.92861200  1
  C  C13  1  0.22558800  0.65419900  0.64767800  1
  C  C14  1  0.82791000  0.97558800  0.07138800  1
  C  C15  1  0.41141500  0.26074100  0.93474900  1
  C  C16  1  0.12114400  0.26856000  0.07202800  1
  C  C17  1  0.42209000  0.77441200  0.42861200  1
  C  C18  1  0.29911600  0.87114400  0.35258400  1
  C  C19  1  0.34580100  0.99347900  0.57138800  1
  C  C20  1  0.02441200  0.09580100  0.85232200  1
  C  C21  1  0.59866300  0.25361800  0.56507400  1
  C  C22  1  0.19653200  0.04911600  0.92797200  1
  C  C23  1  0.52333400  0.58858500  0.84932500  1
  C  C24  1  0.05346800  0.70088400  0.57202800  1
  C  C25  1  0.92400900  0.27333400  0.43474900  1
  C  C26  1  0.00652100  0.57791000  0.35232200  1
  C  C27  1  0.28358900  0.34866300  0.84504500  1
  C  C28  1  0.83858500  0.48925900  0.56525100  1
  C  C29  1  0.24347900  0.17209000  0.14767800  1
  C  C30  1  0.74638200  0.31145600  0.34504500  1
  C  C31  1  0.65133700  0.49638200  0.93492600  1
  C  C32  1  0.51856000  0.94653200  0.64741600  1
  C  C33  1  0.56145600  0.71641100  0.06507400  1
  C  C34  1  0.51074100  0.07599100  0.34932500  1
  C  C35  1  0.72666600  0.16141500  0.65067500  1
  C  C36  1  0.96641100  0.40133700  0.65495500  1
  C  C37  1  0.73925900  0.67400900  0.15067500  1
  C  C38  1  0.50361800  0.43854400  0.15495500  1
  C  C39  1  0.73144000  0.80346800  0.85258400  1
  Ni  Ni40  1  0.89870900  0.28446200  0.17066100  1
  Ni  Ni41  1  0.79472900  0.11677000  0.89220700  1
  Ni  Ni42  1  0.40052800  0.80279900  0.17736500  1
  Ni  Ni43  1  0.84947200  0.94720100  0.32263500  1
  Ni  Ni44  1  0.62456600  0.52683700  0.67736500  1
  Ni  Ni45  1  0.87539100  0.47193800  0.82578800  1
  Ni  Ni46  1  0.62543400  0.22316300  0.82263500  1
  Ni  Ni47  1  0.77683700  0.59947200  0.40227100  1
  Ni  Ni48  1  0.22456300  0.90252200  0.10779300  1
  Ni  Ni49  1  0.19720100  0.37456600  0.59772900  1
  Ni  Ni50  1  0.09747800  0.20527100  0.32204100  1
  Ni  Ni51  1  0.52806200  0.35385000  0.40345300  1
  Ni  Ni52  1  0.60385000  0.70039700  0.32578800  1
  Ni  Ni53  1  0.36677000  0.97456300  0.82204100  1
  Ni  Ni54  1  0.27195200  0.10129100  0.38575200  1
  Ni  Ni55  1  0.95039700  0.12460900  0.59654700  1
  Ni  Ni56  1  0.88323000  0.77543700  0.67795900  1
  Ni  Ni57  1  0.13619900  0.02195200  0.67066100  1
  Ni  Ni58  1  0.72193800  0.39615000  0.09654700  1
  Ni  Ni59  1  0.71553800  0.88619900  0.61424800  1
  Ni  Ni60  1  0.37460900  0.27806200  0.67421200  1
  Ni  Ni61  1  0.11380100  0.72804800  0.82933900  1
  Ni  Ni62  1  0.45527100  0.63323000  0.60779300  1
  Ni  Ni63  1  0.29960300  0.62539100  0.90345300  1
  Ni  Ni64  1  0.53446200  0.86380100  0.88575200  1
  Ni  Ni65  1  0.05279900  0.37543400  0.90227100  1
  Ni  Ni66  1  0.02543700  0.84747800  0.39220700  1
  Ni  Ni67  1  0.47316300  0.15052800  0.09772900  1
  Ni  Ni68  1  0.97804800  0.64870900  0.11424800  1
  Ni  Ni69  1  0.35129100  0.46553800  0.32933900  1
  Ni  Ni70  1  0.64615000  0.04960300  0.17421200  1
  Ni  Ni71  1  0.15252200  0.54472900  0.17795900  1
  Cu  Cu72  1  0.36009300  0.36474500  0.49791700  1
  Cu  Cu73  1  0.88990700  0.38525500  0.00208300  1
  Cu  Cu74  1  0.38317300  0.88782400  0.99791700  1
  Cu  Cu75  1  0.86682700  0.86217600  0.50208300  1
  Cu  Cu76  1  0.61474500  0.61682700  0.50465100  1
  Cu  Cu77  1  0.11217600  0.11009300  0.49534900  1
  Cu  Cu78  1  0.63525500  0.13317300  0.99534900  1
  Cu  Cu79  1  0.13782400  0.63990700  0.00465100  1
