# generated using pymatgen
data_CuNiC5
_symmetry_space_group_name_H-M   'P 1'
_cell_length_a   6.92001400
_cell_length_b   6.92001400
_cell_length_c   6.92001400
_cell_angle_alpha   90.00000000
_cell_angle_beta   90.00000000
_cell_angle_gamma   90.00000000
_symmetry_Int_Tables_number   1
_chemical_formula_structural   CuNiC5
_chemical_formula_sum   'Cu4 Ni4 C20'
_cell_volume   331.37589923
_cell_formula_units_Z   4
loop_
 _symmetry_equiv_pos_site_id
 _symmetry_equiv_pos_as_xyz
  1  'x, y, z'
loop_
 _atom_site_type_symbol
 _atom_site_label
 _atom_site_symmetry_multiplicity
 _atom_site_fract_x
 _atom_site_fract_y
 _atom_site_fract_z
 _atom_site_occupancy
  C  C0  1  0.16200300  0.66200300  0.83799700  1
  C  C1  1  0.66200300  0.83799700  0.16200300  1
  C  C2  1  0.83799700  0.16200300  0.66200300  1
  C  C3  1  0.33799700  0.33799700  0.33799700  1
  Ni  Ni4  1  0.84829500  0.34829500  0.15170500  1
  Ni  Ni5  1  0.34829500  0.15170500  0.84829500  1
  Ni  Ni6  1  0.15170500  0.84829500  0.34829500  1
  Ni  Ni7  1  0.65170500  0.65170500  0.65170500  1
  Cu  Cu8  1  0.44049400  0.94049400  0.55950600  1
  Cu  Cu9  1  0.94049400  0.55950600  0.44049400  1
  Cu  Cu10  1  0.55950600  0.44049400  0.94049400  1
  Cu  Cu11  1  0.05950600  0.05950600  0.05950600  1
  C  C12  1  0.57410900  0.07410900  0.42589100  1
  C  C13  1  0.07410900  0.42589100  0.57410900  1
  C  C14  1  0.42589100  0.57410900  0.07410900  1
  C  C15  1  0.92589100  0.92589100  0.92589100  1
  C  C16  1  0.26462800  0.95561600  0.08137400  1
  C  C17  1  0.91862600  0.76462800  0.54438400  1
  C  C18  1  0.45561600  0.41862600  0.73537200  1
  C  C19  1  0.76462800  0.54438400  0.91862600  1
  C  C20  1  0.41862600  0.73537200  0.45561600  1
  C  C21  1  0.95561600  0.08137400  0.26462800  1
  C  C22  1  0.73537200  0.45561600  0.41862600  1
  C  C23  1  0.08137400  0.26462800  0.95561600  1
  C  C24  1  0.54438400  0.91862600  0.76462800  1
  C  C25  1  0.23537200  0.04438400  0.58137400  1
  C  C26  1  0.58137400  0.23537200  0.04438400  1
  C  C27  1  0.04438400  0.58137400  0.23537200  1
