# generated using pymatgen
data_Cu6Ni2C19
_symmetry_space_group_name_H-M   'P 1'
_cell_length_a   8.44958800
_cell_length_b   8.44958800
_cell_length_c   12.67142300
_cell_angle_alpha   90.00000000
_cell_angle_beta   90.00000000
_cell_angle_gamma   90.00000000
_symmetry_Int_Tables_number   1
_chemical_formula_structural   Cu6Ni2C19
_chemical_formula_sum   'Cu12 Ni4 C38'
_cell_volume   904.68305432
_cell_formula_units_Z   2
loop_
 _symmetry_equiv_pos_site_id
 _symmetry_equiv_pos_as_xyz
  1  'x, y, z'
loop_
 _atom_site_type_symbol
 _atom_site_label
 _atom_site_symmetry_multiplicity
 _atom_site_fract_x
 _atom_site_fract_y
 _atom_site_fract_z
 _atom_site_occupancy
  Ni  Ni0  1  0.50000000  0.00000000  0.75000000  1
  Ni  Ni1  1  0.00000000  0.50000000  0.75000000  1
  Ni  Ni2  1  0.50000000  0.00000000  0.25000000  1
  Ni  Ni3  1  0.00000000  0.50000000  0.25000000  1
  C  C4  1  0.50000000  0.50000000  0.50000000  1
  C  C5  1  0.00000000  0.00000000  0.00000000  1
  Cu  Cu6  1  0.62895800  0.70078300  0.50000000  1
  Cu  Cu7  1  0.37104200  0.29921700  0.50000000  1
  Cu  Cu8  1  0.00000000  0.00000000  0.15868400  1
  Cu  Cu9  1  0.50000000  0.50000000  0.34131600  1
  Cu  Cu10  1  0.00000000  0.00000000  0.84131600  1
  Cu  Cu11  1  0.50000000  0.50000000  0.65868400  1
  Cu  Cu12  1  0.20078300  0.12895800  0.00000000  1
  Cu  Cu13  1  0.87104200  0.20078300  0.00000000  1
  Cu  Cu14  1  0.12895800  0.79921700  0.00000000  1
  Cu  Cu15  1  0.70078300  0.37104200  0.50000000  1
  Cu  Cu16  1  0.29921700  0.62895800  0.50000000  1
  Cu  Cu17  1  0.79921700  0.87104200  0.00000000  1
  C  C18  1  0.70024800  0.81470800  0.50000000  1
  C  C19  1  0.29975200  0.18529200  0.50000000  1
  C  C20  1  0.00000000  0.00000000  0.24836000  1
  C  C21  1  0.50000000  0.50000000  0.25164000  1
  C  C22  1  0.00000000  0.00000000  0.75164000  1
  C  C23  1  0.50000000  0.50000000  0.74836000  1
  C  C24  1  0.31470800  0.20024800  0.00000000  1
  C  C25  1  0.79975200  0.31470800  0.00000000  1
  C  C26  1  0.20024800  0.68529200  0.00000000  1
  C  C27  1  0.81470800  0.29975200  0.50000000  1
  C  C28  1  0.18529200  0.70024800  0.50000000  1
  C  C29  1  0.68529200  0.79975200  0.00000000  1
  C  C30  1  0.33967500  0.16032500  0.75000000  1
  C  C31  1  0.16032500  0.66032500  0.25000000  1
  C  C32  1  0.83967500  0.33967500  0.75000000  1
  C  C33  1  0.39304800  0.88098300  0.35811600  1
  C  C34  1  0.16032500  0.66032500  0.75000000  1
  C  C35  1  0.66032500  0.83967500  0.75000000  1
  C  C36  1  0.61901700  0.10695200  0.14188400  1
  C  C37  1  0.89304800  0.61901700  0.14188400  1
  C  C38  1  0.10695200  0.38098300  0.14188400  1
  C  C39  1  0.11901700  0.39304800  0.35811600  1
  C  C40  1  0.88098300  0.60695200  0.35811600  1
  C  C41  1  0.38098300  0.89304800  0.14188400  1
  C  C42  1  0.60695200  0.11901700  0.35811600  1
  C  C43  1  0.83967500  0.33967500  0.25000000  1
  C  C44  1  0.38098300  0.89304800  0.85811600  1
  C  C45  1  0.10695200  0.38098300  0.85811600  1
  C  C46  1  0.89304800  0.61901700  0.85811600  1
  C  C47  1  0.88098300  0.60695200  0.64188400  1
  C  C48  1  0.11901700  0.39304800  0.64188400  1
  C  C49  1  0.61901700  0.10695200  0.85811600  1
  C  C50  1  0.39304800  0.88098300  0.64188400  1
  C  C51  1  0.60695200  0.11901700  0.64188400  1
  C  C52  1  0.33967500  0.16032500  0.25000000  1
  C  C53  1  0.66032500  0.83967500  0.25000000  1
