# generated using pymatgen
data_Cu2Ni8C
_symmetry_space_group_name_H-M   'P 1'
_cell_length_a   4.44349700
_cell_length_b   8.75880200
_cell_length_c   8.82430500
_cell_angle_alpha   90.00000000
_cell_angle_beta   90.00000000
_cell_angle_gamma   90.00000000
_symmetry_Int_Tables_number   1
_chemical_formula_structural   Cu2Ni8C
_chemical_formula_sum   'Cu8 Ni32 C4'
_cell_volume   343.43939517
_cell_formula_units_Z   4
loop_
 _symmetry_equiv_pos_site_id
 _symmetry_equiv_pos_as_xyz
  1  'x, y, z'
loop_
 _atom_site_type_symbol
 _atom_site_label
 _atom_site_symmetry_multiplicity
 _atom_site_fract_x
 _atom_site_fract_y
 _atom_site_fract_z
 _atom_site_occupancy
  Ni  Ni0  1  0.25000000  0.30031300  0.85346500  1
  Ni  Ni1  1  0.55026300  0.49835800  0.83101300  1
  Ni  Ni2  1  0.56541500  0.36964100  0.58753000  1
  Ni  Ni3  1  0.25000000  0.58435800  0.56845100  1
  Ni  Ni4  1  0.93458500  0.36964100  0.58753000  1
  Ni  Ni5  1  0.94973700  0.49835800  0.83101300  1
  Ni  Ni6  1  0.25000000  0.17114000  0.68183800  1
  Ni  Ni7  1  0.25000000  0.42619500  0.01953100  1
  Ni  Ni8  1  0.25000000  0.19968700  0.35346500  1
  Ni  Ni9  1  0.25000000  0.32886000  0.18183800  1
  Ni  Ni10  1  0.56541500  0.13035900  0.08753000  1
  Ni  Ni11  1  0.55026300  0.00164200  0.33101300  1
  Ni  Ni12  1  0.25000000  0.91564200  0.06845100  1
  Ni  Ni13  1  0.25000000  0.07380500  0.51953100  1
  Ni  Ni14  1  0.94973700  0.00164200  0.33101300  1
  Ni  Ni15  1  0.93458500  0.13035900  0.08753000  1
  Ni  Ni16  1  0.75000000  0.69968700  0.14653500  1
  Ni  Ni17  1  0.44973700  0.50164200  0.16898700  1
  Ni  Ni18  1  0.43458500  0.63035900  0.41247000  1
  Ni  Ni19  1  0.75000000  0.57380500  0.98046900  1
  Ni  Ni20  1  0.05026300  0.50164200  0.16898700  1
  Ni  Ni21  1  0.06541500  0.63035900  0.41247000  1
  Ni  Ni22  1  0.75000000  0.41564200  0.43154900  1
  Ni  Ni23  1  0.75000000  0.82886000  0.31816200  1
  Ni  Ni24  1  0.75000000  0.80031300  0.64653500  1
  Ni  Ni25  1  0.05026300  0.99835800  0.66898700  1
  Ni  Ni26  1  0.75000000  0.08435800  0.93154900  1
  Ni  Ni27  1  0.75000000  0.67114000  0.81816200  1
  Ni  Ni28  1  0.44973700  0.99835800  0.66898700  1
  Ni  Ni29  1  0.75000000  0.92619500  0.48046900  1
  Ni  Ni30  1  0.06541500  0.86964100  0.91247000  1
  Ni  Ni31  1  0.43458500  0.86964100  0.91247000  1
  Cu  Cu32  1  0.25000000  0.06217900  0.63635800  1
  Cu  Cu33  1  0.25000000  0.43782100  0.13635800  1
  Cu  Cu34  1  0.75000000  0.93782100  0.36364200  1
  Cu  Cu35  1  0.75000000  0.56217900  0.86364200  1
  Cu  Cu36  1  0.25000000  0.65763700  0.47800000  1
  Cu  Cu37  1  0.25000000  0.84236300  0.97800000  1
  Cu  Cu38  1  0.75000000  0.34236300  0.52200000  1
  Cu  Cu39  1  0.75000000  0.15763700  0.02200000  1
  C  C40  1  0.25000000  0.39386900  0.79308800  1
  C  C41  1  0.25000000  0.10613100  0.29308800  1
  C  C42  1  0.75000000  0.60613100  0.20691200  1
  C  C43  1  0.75000000  0.89386900  0.70691200  1
