# generated using pymatgen
data_Cu5NiC3
_symmetry_space_group_name_H-M   'P 1'
_cell_length_a   5.19919098
_cell_length_b   5.19919098
_cell_length_c   7.62209796
_cell_angle_alpha   73.49792394
_cell_angle_beta   73.49792394
_cell_angle_gamma   96.81948565
_symmetry_Int_Tables_number   1
_chemical_formula_structural   Cu5NiC3
_chemical_formula_sum   'Cu10 Ni2 C6'
_cell_volume   184.90296370
_cell_formula_units_Z   2
loop_
 _symmetry_equiv_pos_site_id
 _symmetry_equiv_pos_as_xyz
  1  'x, y, z'
loop_
 _atom_site_type_symbol
 _atom_site_label
 _atom_site_symmetry_multiplicity
 _atom_site_fract_x
 _atom_site_fract_y
 _atom_site_fract_z
 _atom_site_occupancy
  C  C0  1  0.00000000  0.50000000  0.50000000  1
  C  C1  1  0.50000000  0.00000000  0.00000000  1
  C  C2  1  0.62946000  0.54596400  0.79595600  1
  C  C3  1  0.45403600  0.37054000  0.70404400  1
  C  C4  1  0.37054000  0.45403600  0.20404400  1
  C  C5  1  0.54596400  0.62946000  0.29595600  1
  Ni  Ni6  1  0.09441100  0.90558900  0.75000000  1
  Ni  Ni7  1  0.90558900  0.09441100  0.25000000  1
  Cu  Cu8  1  0.22640600  0.81763800  0.89908400  1
  Cu  Cu9  1  0.18236200  0.77359400  0.60091600  1
  Cu  Cu10  1  0.77359400  0.18236200  0.10091600  1
  Cu  Cu11  1  0.81763800  0.22640600  0.39908400  1
  Cu  Cu12  1  0.17802500  0.21246800  0.65838100  1
  Cu  Cu13  1  0.78753200  0.82197500  0.84161900  1
  Cu  Cu14  1  0.82197500  0.78753200  0.34161900  1
  Cu  Cu15  1  0.21246800  0.17802500  0.15838100  1
  Cu  Cu16  1  0.61579700  0.38420300  0.75000000  1
  Cu  Cu17  1  0.38420300  0.61579700  0.25000000  1
