# generated using pymatgen
data_Cu3Ni3C13
_symmetry_space_group_name_H-M   'P 1'
_cell_length_a   27.97557400
_cell_length_b   9.09617100
_cell_length_c   11.23187708
_cell_angle_alpha   53.52090952
_cell_angle_beta   90.00000000
_cell_angle_gamma   90.00000000
_symmetry_Int_Tables_number   1
_chemical_formula_structural   Cu3Ni3C13
_chemical_formula_sum   'Cu24 Ni24 C104'
_cell_volume   2298.18994098
_cell_formula_units_Z   8
loop_
 _symmetry_equiv_pos_site_id
 _symmetry_equiv_pos_as_xyz
  1  'x, y, z'
loop_
 _atom_site_type_symbol
 _atom_site_label
 _atom_site_symmetry_multiplicity
 _atom_site_fract_x
 _atom_site_fract_y
 _atom_site_fract_z
 _atom_site_occupancy
  C  C0  1  0.14268200  0.24770200  0.14119200  1
  C  C1  1  0.13742100  0.22308600  0.67073000  1
  C  C2  1  0.35731800  0.24770200  0.64119200  1
  C  C3  1  0.36257900  0.22308600  0.17073000  1
  C  C4  1  0.64268200  0.75229800  0.35880800  1
  C  C5  1  0.63742100  0.77691400  0.82927000  1
  C  C6  1  0.85731800  0.75229800  0.85880800  1
  C  C7  1  0.86257900  0.77691400  0.32927000  1
  Ni  Ni8  1  0.31336100  0.69198000  0.21486900  1
  Ni  Ni9  1  0.68663900  0.30802000  0.78513100  1
  Ni  Ni10  1  0.24422600  0.22864300  0.41106200  1
  Ni  Ni11  1  0.81336100  0.30802000  0.28513100  1
  Ni  Ni12  1  0.56464700  0.99366400  0.97451100  1
  Ni  Ni13  1  0.05992800  0.51034800  0.78345300  1
  Ni  Ni14  1  0.43535300  0.00633600  0.02548900  1
  Ni  Ni15  1  0.57243200  0.52228000  0.19775000  1
  Ni  Ni16  1  0.74422600  0.77135700  0.08893800  1
  Ni  Ni17  1  0.07243200  0.47772000  0.30225000  1
  Ni  Ni18  1  0.75577400  0.77135700  0.58893800  1
  Ni  Ni19  1  0.68654200  0.24529000  0.33619200  1
  Ni  Ni20  1  0.55992800  0.48965200  0.71654700  1
  Ni  Ni21  1  0.06464700  0.00633600  0.52548900  1
  Ni  Ni22  1  0.44007200  0.51034800  0.28345300  1
  Ni  Ni23  1  0.25577400  0.22864300  0.91106200  1
  Ni  Ni24  1  0.94007200  0.48965200  0.21654700  1
  Ni  Ni25  1  0.18654200  0.75471000  0.16380800  1
  Ni  Ni26  1  0.81345800  0.24529000  0.83619200  1
  Ni  Ni27  1  0.18663900  0.69198000  0.71486900  1
  Ni  Ni28  1  0.93535300  0.99366400  0.47451100  1
  Ni  Ni29  1  0.42756800  0.47772000  0.80225000  1
  Ni  Ni30  1  0.31345800  0.75471000  0.66380800  1
  Ni  Ni31  1  0.92756800  0.52228000  0.69775000  1
  Cu  Cu32  1  0.49368900  0.24285100  0.16342500  1
  Cu  Cu33  1  0.99368900  0.75714900  0.33657500  1
  Cu  Cu34  1  0.75160900  0.05079700  0.19309200  1
  Cu  Cu35  1  0.25160900  0.94920300  0.30690800  1
  Cu  Cu36  1  0.10678700  0.74436700  0.43595500  1
  Cu  Cu37  1  0.01020700  0.18284500  0.15189300  1
  Cu  Cu38  1  0.24839100  0.94920300  0.80690800  1
  Cu  Cu39  1  0.39321300  0.74436700  0.93595500  1
  Cu  Cu40  1  0.75307500  0.48692100  0.47002500  1
  Cu  Cu41  1  0.40147100  0.72670100  0.44230200  1
  Cu  Cu42  1  0.09852900  0.72670100  0.94230200  1
  Cu  Cu43  1  0.89321300  0.25563300  0.56404500  1
  Cu  Cu44  1  0.74692500  0.48692100  0.97002500  1
  Cu  Cu45  1  0.74839100  0.05079700  0.69309200  1
  Cu  Cu46  1  0.90147100  0.27329900  0.05769800  1
  Cu  Cu47  1  0.48979300  0.18284500  0.65189300  1
  Cu  Cu48  1  0.00631100  0.24285100  0.66342500  1
  Cu  Cu49  1  0.51020700  0.81715500  0.34810700  1
  Cu  Cu50  1  0.25307500  0.51307900  0.02997500  1
  Cu  Cu51  1  0.98979300  0.81715500  0.84810700  1
  Cu  Cu52  1  0.24692500  0.51307900  0.52997500  1
  Cu  Cu53  1  0.60678700  0.25563300  0.06404500  1
  Cu  Cu54  1  0.50631100  0.75714900  0.83657500  1
  Cu  Cu55  1  0.59852900  0.27329900  0.55769800  1
  C  C56  1  0.80163400  0.53462200  0.88720600  1
  C  C57  1  0.67223100  0.75841700  0.49949800  1
  C  C58  1  0.39170000  0.24293400  0.30477000  1
  C  C59  1  0.60243900  0.06898000  0.72825600  1
  C  C60  1  0.88713100  0.74558800  0.71531000  1
  C  C61  1  0.74858800  0.07430900  0.83288200  1
  C  C62  1  0.05595500  0.25147200  0.57061700  1
  C  C63  1  0.62217200  0.45397100  0.03814900  1
  C  C64  1  0.43798700  0.26182800  0.55557700  1
  C  C65  1  0.88558100  0.28343900  0.90760600  1
  C  C66  1  0.38350300  0.75109600  0.08326600  1
  C  C67  1  0.49788600  0.02074300  0.33446700  1
  C  C68  1  0.50211400  0.97925700  0.66553300  1
  C  C69  1  0.95836100  0.24737900  0.55864300  1
  C  C70  1  0.00211400  0.02074300  0.83446700  1
  C  C71  1  0.33721800  0.20854900  0.02895800  1
  C  C72  1  0.61649700  0.24890400  0.91673400  1
  C  C73  1  0.11441900  0.71656100  0.09239400  1
  C  C74  1  0.61286900  0.74558800  0.21531000  1
  C  C75  1  0.54163900  0.24737900  0.05864300  1
  C  C76  1  0.49511400  0.16114900  0.81131400  1
  C  C77  1  0.93798700  0.73817200  0.94442300  1
  C  C78  1  0.29107800  0.09204700  0.79588700  1
  C  C79  1  0.37782800  0.54602900  0.96185100  1
  C  C80  1  0.39756100  0.93102000  0.27174400  1
  C  C81  1  0.61952600  0.44293300  0.56846400  1
  C  C82  1  0.10830000  0.24293400  0.80477000  1
  C  C83  1  0.00105600  0.39502100  0.70099200  1
  C  C84  1  0.66278200  0.79145100  0.97104200  1
  C  C85  1  0.87782800  0.45397100  0.53814900  1
  C  C86  1  0.69367400  0.00611800  0.65317900  1
  C  C87  1  0.19367400  0.99388200  0.84682100  1
  C  C88  1  0.38558100  0.71656100  0.59239400  1
  C  C89  1  0.83721800  0.79145100  0.47104200  1
  C  C90  1  0.75527100  0.47939300  0.62526700  1
  C  C91  1  0.30163400  0.46537800  0.61279400  1
  C  C92  1  0.20892200  0.09204700  0.29588700  1
  C  C93  1  0.61441900  0.28343900  0.40760600  1
  C  C94  1  0.88350300  0.24890400  0.41673400  1
  C  C95  1  0.38047400  0.55706700  0.43153600  1
  C  C96  1  0.00488600  0.16114900  0.31131400  1
  C  C97  1  0.24472900  0.52060700  0.37473300  1
  C  C98  1  0.75141200  0.07430900  0.33288200  1
  C  C99  1  0.32776900  0.24158300  0.50050200  1
  C  C100  1  0.11649700  0.75109600  0.58326600  1
  C  C101  1  0.12217200  0.54602900  0.46185100  1
  C  C102  1  0.46544200  0.66942100  0.47652700  1
  C  C103  1  0.25141200  0.92569100  0.16711800  1
  C  C104  1  0.99894400  0.60497900  0.29900800  1
  C  C105  1  0.38713100  0.25441200  0.78469000  1
  C  C106  1  0.70356300  0.61253100  0.83892100  1
  C  C107  1  0.88047400  0.44293300  0.06846400  1
  C  C108  1  0.89756100  0.06898000  0.22825600  1
  C  C109  1  0.70892200  0.90795300  0.20411300  1
  C  C110  1  0.62353900  0.06708000  0.23348000  1
  C  C111  1  0.25527100  0.52060700  0.87473300  1
  C  C112  1  0.10243900  0.93102000  0.77174400  1
  C  C113  1  0.99788600  0.97925700  0.16553300  1
  C  C114  1  0.23235700  0.73797100  0.47802200  1
  C  C115  1  0.16278200  0.20854900  0.52895800  1
  C  C116  1  0.55595500  0.74852800  0.92938300  1
  C  C117  1  0.74472900  0.47939300  0.12526700  1
  C  C118  1  0.11286900  0.25441200  0.28469000  1
  C  C119  1  0.30632600  0.99388200  0.34682100  1
  C  C120  1  0.19836600  0.46537800  0.11279400  1
  C  C121  1  0.60830000  0.75706600  0.69523000  1
  C  C122  1  0.73235700  0.26202900  0.02197800  1
  C  C123  1  0.24858800  0.92569100  0.66711800  1
  C  C124  1  0.82776900  0.75841700  0.99949800  1
  C  C125  1  0.11952600  0.55706700  0.93153600  1
  C  C126  1  0.76764300  0.26202900  0.52197800  1
  C  C127  1  0.49894400  0.39502100  0.20099200  1
  C  C128  1  0.56201300  0.73817200  0.44442300  1
  C  C129  1  0.79107800  0.90795300  0.70411300  1
  C  C130  1  0.94404500  0.74852800  0.42938300  1
  C  C131  1  0.04163900  0.75262100  0.44135700  1
  C  C132  1  0.53455800  0.33057900  0.52347300  1
  C  C133  1  0.89170000  0.75706600  0.19523000  1
  C  C134  1  0.96544200  0.33057900  0.02347300  1
  C  C135  1  0.17223100  0.24158300  0.00050200  1
  C  C136  1  0.03455800  0.66942100  0.97652700  1
  C  C137  1  0.45836100  0.75262100  0.94135700  1
  C  C138  1  0.20356300  0.38746900  0.66107900  1
  C  C139  1  0.99511400  0.83885100  0.68868600  1
  C  C140  1  0.29643700  0.38746900  0.16107900  1
  C  C141  1  0.87646100  0.06708000  0.73348000  1
  C  C142  1  0.80632600  0.00611800  0.15317900  1
  C  C143  1  0.37646100  0.93292000  0.76652000  1
  C  C144  1  0.12353900  0.93292000  0.26652000  1
  C  C145  1  0.79643700  0.61253100  0.33892100  1
  C  C146  1  0.50488600  0.83885100  0.18868600  1
  C  C147  1  0.44404500  0.25147200  0.07061700  1
  C  C148  1  0.06201300  0.26182800  0.05557700  1
  C  C149  1  0.50105600  0.60497900  0.79900800  1
  C  C150  1  0.69836600  0.53462200  0.38720600  1
  C  C151  1  0.26764300  0.73797100  0.97802200  1
