# generated using pymatgen
data_Cu4Ni2C7
_symmetry_space_group_name_H-M   'P 1'
_cell_length_a   8.30361200
_cell_length_b   8.30806224
_cell_length_c   8.39367385
_cell_angle_alpha   118.78244890
_cell_angle_beta   118.81053817
_cell_angle_gamma   91.14752852
_symmetry_Int_Tables_number   1
_chemical_formula_structural   Cu4Ni2C7
_chemical_formula_sum   'Cu12 Ni6 C21'
_cell_volume   420.05756460
_cell_formula_units_Z   3
loop_
 _symmetry_equiv_pos_site_id
 _symmetry_equiv_pos_as_xyz
  1  'x, y, z'
loop_
 _atom_site_type_symbol
 _atom_site_label
 _atom_site_symmetry_multiplicity
 _atom_site_fract_x
 _atom_site_fract_y
 _atom_site_fract_z
 _atom_site_occupancy
  C  C0  1  0.00875600  0.99845100  0.99764100  1
  C  C1  1  0.75240800  0.24930200  0.50026000  1
  C  C2  1  0.25262700  0.74827700  0.49964300  1
  C  C3  1  0.88281800  0.70342600  0.00857000  1
  C  C4  1  0.69352700  0.75461800  0.87690200  1
  C  C5  1  0.73573000  0.17711100  0.85366300  1
  C  C6  1  0.82861900  0.88626900  0.14586800  1
  C  C7  1  0.87174300  0.31312100  0.12337800  1
  C  C8  1  0.69322800  0.11662500  0.99216100  1
  C  C9  1  0.24888400  0.12689400  0.40584200  1
  C  C10  1  0.84400600  0.86694700  0.59004500  1
  C  C11  1  0.12451100  0.27815900  0.39576200  1
  C  C12  1  0.73054600  0.71145900  0.60101600  1
  C  C13  1  0.30891000  0.81793000  0.97333100  1
  C  C14  1  0.31522300  0.17399800  0.03057800  1
  C  C15  1  0.11794200  0.11503800  0.80097400  1
  C  C16  1  0.94977900  0.72316600  0.65471500  1
  C  C17  1  0.32875400  0.87997800  0.19980000  1
  C  C18  1  0.29629200  0.28010900  0.35238900  1
  C  C19  1  0.17062100  0.67296600  0.97262600  1
  C  C20  1  0.17445100  0.31090900  0.02977600  1
  Ni  Ni21  1  0.83471200  0.81624100  0.01074700  1
  Ni  Ni22  1  0.80157000  0.17217700  0.98934100  1
  Ni  Ni23  1  0.86264800  0.80562100  0.67538200  1
  Ni  Ni24  1  0.18543700  0.19014800  0.32296100  1
  Ni  Ni25  1  0.17302200  0.17000200  0.96216900  1
  Ni  Ni26  1  0.22985000  0.81526400  0.03512000  1
  Cu  Cu27  1  0.87897000  0.09938800  0.49236700  1
  Cu  Cu28  1  0.89707100  0.37880400  0.49464700  1
  Cu  Cu29  1  0.61158900  0.11594200  0.23027800  1
  Cu  Cu30  1  0.89282800  0.38283100  0.76990600  1
  Cu  Cu31  1  0.62378500  0.39661800  0.50539300  1
  Cu  Cu32  1  0.60899200  0.11947100  0.50758800  1
  Cu  Cu33  1  0.38574700  0.89744000  0.50231100  1
  Cu  Cu34  1  0.40217000  0.62154600  0.50629000  1
  Cu  Cu35  1  0.12269800  0.61052700  0.22963000  1
  Cu  Cu36  1  0.38255100  0.88291000  0.76993000  1
  Cu  Cu37  1  0.10357600  0.87440600  0.49294600  1
  Cu  Cu38  1  0.11921000  0.59910900  0.49804900  1
