# generated using pymatgen
data_Cu2Ni4C
_symmetry_space_group_name_H-M   'P 1'
_cell_length_a   7.69583830
_cell_length_b   7.69583830
_cell_length_c   7.69583906
_cell_angle_alpha   50.30117005
_cell_angle_beta   50.30117005
_cell_angle_gamma   50.30117424
_symmetry_Int_Tables_number   1
_chemical_formula_structural   Cu2Ni4C
_chemical_formula_sum   'Cu6 Ni12 C3'
_cell_volume   248.48649077
_cell_formula_units_Z   3
loop_
 _symmetry_equiv_pos_site_id
 _symmetry_equiv_pos_as_xyz
  1  'x, y, z'
loop_
 _atom_site_type_symbol
 _atom_site_label
 _atom_site_symmetry_multiplicity
 _atom_site_fract_x
 _atom_site_fract_y
 _atom_site_fract_z
 _atom_site_occupancy
  C  C0  1  0.18045000  0.18045000  0.18045000  1
  C  C1  1  0.81955000  0.81955000  0.81955000  1
  C  C2  1  0.00000000  0.00000000  0.00000000  1
  Ni  Ni3  1  0.28318900  0.25824000  0.68537400  1
  Ni  Ni4  1  0.25824000  0.68537400  0.28318900  1
  Ni  Ni5  1  0.68537400  0.28318900  0.25824000  1
  Ni  Ni6  1  0.71681100  0.74176000  0.31462600  1
  Ni  Ni7  1  0.74176000  0.31462600  0.71681100  1
  Ni  Ni8  1  0.31462600  0.71681100  0.74176000  1
  Ni  Ni9  1  0.45743500  0.99127100  0.67118000  1
  Ni  Ni10  1  0.99127100  0.67118000  0.45743500  1
  Ni  Ni11  1  0.67118000  0.45743500  0.99127100  1
  Ni  Ni12  1  0.54256500  0.00872900  0.32882000  1
  Ni  Ni13  1  0.00872900  0.32882000  0.54256500  1
  Ni  Ni14  1  0.32882000  0.54256500  0.00872900  1
  Cu  Cu15  1  0.33406100  0.07369500  0.79499900  1
  Cu  Cu16  1  0.07369500  0.79499900  0.33406100  1
  Cu  Cu17  1  0.79499900  0.33406100  0.07369500  1
  Cu  Cu18  1  0.66593900  0.92630500  0.20500100  1
  Cu  Cu19  1  0.92630500  0.20500100  0.66593900  1
  Cu  Cu20  1  0.20500100  0.66593900  0.92630500  1
