# generated using pymatgen
data_Cu2Ni2C11
_symmetry_space_group_name_H-M   'P 1'
_cell_length_a   7.16556584
_cell_length_b   7.16556584
_cell_length_c   12.77665500
_cell_angle_alpha   90.00000000
_cell_angle_beta   90.00000000
_cell_angle_gamma   119.99999849
_symmetry_Int_Tables_number   1
_chemical_formula_structural   Cu2Ni2C11
_chemical_formula_sum   'Cu6 Ni6 C33'
_cell_volume   568.13139293
_cell_formula_units_Z   3
loop_
 _symmetry_equiv_pos_site_id
 _symmetry_equiv_pos_as_xyz
  1  'x, y, z'
loop_
 _atom_site_type_symbol
 _atom_site_label
 _atom_site_symmetry_multiplicity
 _atom_site_fract_x
 _atom_site_fract_y
 _atom_site_fract_z
 _atom_site_occupancy
  C  C0  1  0.00070900  0.47501300  0.83403600  1
  C  C1  1  0.52498700  0.52569600  0.50070200  1
  C  C2  1  0.47430400  0.99929100  0.16736900  1
  C  C3  1  0.99866700  0.44023700  0.33394400  1
  C  C4  1  0.55976300  0.55843000  0.00061100  1
  C  C5  1  0.44157000  0.00133300  0.66727800  1
  Ni  Ni6  1  0.03470800  0.92321200  0.96370600  1
  Ni  Ni7  1  0.07678800  0.11149600  0.63037200  1
  Ni  Ni8  1  0.09468000  0.05964500  0.36994400  1
  Ni  Ni9  1  0.88850400  0.96529200  0.29703900  1
  Ni  Ni10  1  0.96496500  0.90532000  0.70327800  1
  Ni  Ni11  1  0.94035500  0.03503500  0.03661100  1
  Cu  Cu12  1  0.00270100  0.43998000  0.08197000  1
  Cu  Cu13  1  0.43727900  0.99729900  0.41530300  1
  Cu  Cu14  1  0.56002000  0.56272100  0.74863600  1
  Cu  Cu15  1  0.55891800  0.55780500  0.25397100  1
  Cu  Cu16  1  0.44219500  0.00111300  0.92063800  1
  Cu  Cu17  1  0.99888700  0.44108200  0.58730400  1
  C  C18  1  0.13410400  0.62692500  0.65727000  1
  C  C19  1  0.12260300  0.62179900  0.15712500  1
  C  C20  1  0.24308700  0.86633500  0.85846600  1
  C  C21  1  0.25161700  0.84750700  0.34864700  1
  C  C22  1  0.13366500  0.37675200  0.52513300  1
  C  C23  1  0.15249300  0.40411000  0.01531400  1
  C  C24  1  0.49282100  0.86589600  0.99060300  1
  C  C25  1  0.49919600  0.87739700  0.49045900  1
  C  C26  1  0.10217200  0.01252400  0.67263600  1
  C  C27  1  0.37820100  0.50080400  0.82379200  1
  C  C28  1  0.37307500  0.50717900  0.32393700  1
  C  C29  1  0.59589000  0.74838300  0.68198000  1
  C  C30  1  0.62324800  0.75691300  0.19180000  1
  C  C31  1  0.51552600  0.38112200  0.67737000  1
  C  C32  1  0.49920800  0.38015300  0.17644400  1
  C  C33  1  0.37605300  0.13069800  0.48119000  1
  C  C34  1  0.41203400  0.15293800  0.98827800  1
  C  C35  1  0.75464500  0.62394700  0.81452300  1
  C  C36  1  0.74090400  0.58796600  0.32161200  1
  C  C37  1  0.91035200  0.89782800  0.00596900  1
  C  C38  1  0.61887800  0.13440400  0.34403700  1
  C  C39  1  0.61984700  0.11905500  0.84311100  1
  C  C40  1  0.88094500  0.50079200  0.50977700  1
  C  C41  1  0.86559600  0.48447400  0.01070400  1
  C  C42  1  0.84706200  0.25909600  0.65494500  1
  C  C43  1  0.86930200  0.24535500  0.14785600  1
  C  C44  1  0.98747600  0.08964800  0.33930200  1
