# generated using pymatgen
data_Cu4Ni10C27
_symmetry_space_group_name_H-M   'P 1'
_cell_length_a   6.55222200
_cell_length_b   6.59120171
_cell_length_c   13.12394041
_cell_angle_alpha   99.03935442
_cell_angle_beta   99.10774614
_cell_angle_gamma   99.42435149
_symmetry_Int_Tables_number   1
_chemical_formula_structural   Cu4Ni10C27
_chemical_formula_sum   'Cu4 Ni10 C27'
_cell_volume   542.25020344
_cell_formula_units_Z   1
loop_
 _symmetry_equiv_pos_site_id
 _symmetry_equiv_pos_as_xyz
  1  'x, y, z'
loop_
 _atom_site_type_symbol
 _atom_site_label
 _atom_site_symmetry_multiplicity
 _atom_site_fract_x
 _atom_site_fract_y
 _atom_site_fract_z
 _atom_site_occupancy
  Ni  Ni0  1  0.70063200  0.85284200  0.21060500  1
  Ni  Ni1  1  0.14419000  0.57282200  0.14186600  1
  Ni  Ni2  1  0.69589700  0.85220500  0.71296600  1
  Ni  Ni3  1  0.42208700  0.70324100  0.43012800  1
  Ni  Ni4  1  0.14336500  0.60601000  0.64795000  1
  Ni  Ni5  1  0.57480900  0.28729000  0.07177600  1
  Ni  Ni6  1  0.60683600  0.30255500  0.57741400  1
  Ni  Ni7  1  0.28829200  0.13463200  0.28251300  1
  Ni  Ni8  1  0.85154000  0.42340400  0.84862400  1
  Ni  Ni9  1  0.29763100  0.14563100  0.80036800  1
  Cu  Cu10  1  0.98267800  0.98602100  0.49120100  1
  Cu  Cu11  1  0.00059600  0.00915800  0.00191900  1
  Cu  Cu12  1  0.42718700  0.70221200  0.92616400  1
  Cu  Cu13  1  0.85283600  0.42432900  0.34821100  1
  C  C14  1  0.02715800  0.90356300  0.14558500  1
  C  C15  1  0.67620600  0.96052400  0.04295600  1
  C  C16  1  0.06903200  0.94965300  0.64849700  1
  C  C17  1  0.38156500  0.82060300  0.27195800  1
  C  C18  1  0.68865500  0.95404300  0.54061400  1
  C  C19  1  0.07445200  0.67338100  0.47519600  1
  C  C20  1  0.45782700  0.61895300  0.07687000  1
  C  C21  1  0.39034700  0.81856400  0.78302400  1
  C  C22  1  0.75084400  0.73346700  0.37031700  1
  C  C23  1  0.82314800  0.53756900  0.20007500  1
  C  C24  1  0.10746800  0.68654800  0.97206500  1
  C  C25  1  0.44492100  0.58610100  0.58909100  1
  C  C26  1  0.73324800  0.74519800  0.88143400  1
  C  C27  1  0.15155800  0.44924000  0.31025000  1
  C  C28  1  0.83252700  0.55797600  0.69666900  1
  C  C29  1  0.25262500  0.25155700  0.12671100  1
  C  C30  1  0.56877900  0.38506800  0.40667000  1
  C  C31  1  0.90643600  0.30543600  0.01828700  1
  C  C32  1  0.19398000  0.45707400  0.80012800  1
  C  C33  1  0.62976400  0.19005700  0.23498100  1
  C  C34  1  0.53713700  0.40203200  0.91454800  1
  C  C35  1  0.94091700  0.30468500  0.52599800  1
  C  C36  1  0.29213900  0.05814400  0.47358500  1
  C  C37  1  0.58670000  0.17714100  0.72352000  1
  C  C38  1  0.95159800  0.09365500  0.34192300  1
  C  C39  1  0.31614400  0.02804100  0.95564400  1
  C  C40  1  0.96124800  0.08437600  0.84920100  1
