# generated using pymatgen
data_Cu3Ni5C32
_symmetry_space_group_name_H-M   'P 1'
_cell_length_a   5.38879400
_cell_length_b   5.61958070
_cell_length_c   15.28738043
_cell_angle_alpha   90.09851640
_cell_angle_beta   90.16211621
_cell_angle_gamma   90.48664849
_symmetry_Int_Tables_number   1
_chemical_formula_structural   Cu3Ni5C32
_chemical_formula_sum   'Cu3 Ni5 C32'
_cell_volume   462.92485955
_cell_formula_units_Z   1
loop_
 _symmetry_equiv_pos_site_id
 _symmetry_equiv_pos_as_xyz
  1  'x, y, z'
loop_
 _atom_site_type_symbol
 _atom_site_label
 _atom_site_symmetry_multiplicity
 _atom_site_fract_x
 _atom_site_fract_y
 _atom_site_fract_z
 _atom_site_occupancy
  C  C0  1  0.01288700  0.05099300  0.62385700  1
  C  C1  1  0.01279500  0.05728300  0.12800300  1
  C  C2  1  0.49082200  0.55289800  0.62369900  1
  C  C3  1  0.51066200  0.45352200  0.87253700  1
  C  C4  1  0.99116200  0.95381600  0.87237800  1
  C  C5  1  0.48524300  0.56834100  0.12880600  1
  C  C6  1  0.51670100  0.43033300  0.37415400  1
  C  C7  1  0.97995800  0.93005600  0.37452500  1
  Ni  Ni8  1  0.01261600  0.50292200  0.74818300  1
  Ni  Ni9  1  0.00756800  0.49656600  0.50105300  1
  Ni  Ni10  1  0.51401300  0.99694700  0.74925200  1
  Ni  Ni11  1  0.50515700  0.02218500  0.00098400  1
  Ni  Ni12  1  0.99170000  0.51644900  0.00072100  1
  Cu  Cu13  1  0.00238700  0.49608800  0.24990000  1
  Cu  Cu14  1  0.49685400  0.00055100  0.25033000  1
  Cu  Cu15  1  0.49348200  0.99505900  0.50008400  1
  C  C16  1  0.07848200  0.52087200  0.87600400  1
  C  C17  1  0.10807400  0.53204500  0.37487100  1
  C  C18  1  0.20269700  0.78793700  0.72886800  1
  C  C19  1  0.18730100  0.79944200  0.52097400  1
  C  C20  1  0.21229100  0.80699500  0.22523600  1
  C  C21  1  0.21003000  0.78112500  0.02605900  1
  C  C22  1  0.30172000  0.31778900  0.22681100  1
  C  C23  1  0.28505500  0.29280000  0.72921700  1
  C  C24  1  0.29402500  0.31677100  0.52050000  1
  C  C25  1  0.30431300  0.29426100  0.02717300  1
  C  C26  1  0.41590400  0.02176600  0.87651300  1
  C  C27  1  0.39139500  0.03018000  0.37805500  1
  C  C28  1  0.58037600  0.97443200  0.62491100  1
  C  C29  1  0.59209100  0.96626000  0.12225500  1
  C  C30  1  0.70729800  0.70043100  0.98013500  1
  C  C31  1  0.70484200  0.71462100  0.77179300  1
  C  C32  1  0.71248500  0.68828700  0.46771900  1
  C  C33  1  0.70876000  0.68495700  0.27536300  1
  C  C34  1  0.79596900  0.20210600  0.97779600  1
  C  C35  1  0.78388100  0.20980800  0.77174300  1
  C  C36  1  0.80022600  0.20231500  0.47095100  1
  C  C37  1  0.78945500  0.18684200  0.27988100  1
  C  C38  1  0.91243600  0.47365200  0.62519100  1
  C  C39  1  0.89688700  0.47029700  0.12351700  1
