# generated using pymatgen
data_Cu4Ni3C13
_symmetry_space_group_name_H-M   'P 1'
_cell_length_a   5.97315829
_cell_length_b   5.97315829
_cell_length_c   11.25222485
_cell_angle_alpha   81.73221553
_cell_angle_beta   81.73221553
_cell_angle_gamma   104.29351742
_symmetry_Int_Tables_number   1
_chemical_formula_structural   Cu4Ni3C13
_chemical_formula_sum   'Cu8 Ni6 C26'
_cell_volume   378.20331134
_cell_formula_units_Z   2
loop_
 _symmetry_equiv_pos_site_id
 _symmetry_equiv_pos_as_xyz
  1  'x, y, z'
loop_
 _atom_site_type_symbol
 _atom_site_label
 _atom_site_symmetry_multiplicity
 _atom_site_fract_x
 _atom_site_fract_y
 _atom_site_fract_z
 _atom_site_occupancy
  C  C0  1  0.03654800  0.96345200  0.75000000  1
  C  C1  1  0.96345200  0.03654800  0.25000000  1
  Ni  Ni2  1  0.58854300  0.41145700  0.75000000  1
  Ni  Ni3  1  0.41145700  0.58854300  0.25000000  1
  Ni  Ni4  1  0.30522000  0.80478100  0.47175600  1
  Ni  Ni5  1  0.19521900  0.69478000  0.02824400  1
  Ni  Ni6  1  0.69478000  0.19521900  0.52824400  1
  Ni  Ni7  1  0.80478100  0.30522000  0.97175600  1
  Cu  Cu8  1  0.71972300  0.77703400  0.00568400  1
  Cu  Cu9  1  0.22296600  0.28027700  0.49431600  1
  Cu  Cu10  1  0.28027700  0.22296600  0.99431600  1
  Cu  Cu11  1  0.77703400  0.71972300  0.50568400  1
  Cu  Cu12  1  0.50751800  0.87911600  0.77777400  1
  Cu  Cu13  1  0.12088400  0.49248200  0.72222600  1
  Cu  Cu14  1  0.49248200  0.12088400  0.22222600  1
  Cu  Cu15  1  0.87911600  0.50751800  0.27777400  1
  C  C16  1  0.73023600  0.64491600  0.25773100  1
  C  C17  1  0.35508400  0.26976400  0.24226900  1
  C  C18  1  0.26976400  0.35508400  0.74226900  1
  C  C19  1  0.64491600  0.73023600  0.75773100  1
  C  C20  1  0.82059600  0.30403300  0.36265800  1
  C  C21  1  0.69596700  0.17940400  0.13734200  1
  C  C22  1  0.17940400  0.69596700  0.63734200  1
  C  C23  1  0.30403300  0.82059600  0.86265800  1
  C  C24  1  0.00279900  0.80678500  0.43845900  1
  C  C25  1  0.19321500  0.99720100  0.06154100  1
  C  C26  1  0.99720100  0.19321500  0.56154100  1
  C  C27  1  0.80678500  0.00279900  0.93845900  1
  C  C28  1  0.30218300  0.50665600  0.42571000  1
  C  C29  1  0.49334400  0.69781700  0.07429000  1
  C  C30  1  0.69781700  0.49334400  0.57429000  1
  C  C31  1  0.50665600  0.30218300  0.92571000  1
  C  C32  1  0.63063400  0.86939200  0.49670300  1
  C  C33  1  0.13060800  0.36936600  0.00329700  1
  C  C34  1  0.36936600  0.13060800  0.50329700  1
  C  C35  1  0.86939200  0.63063400  0.99670300  1
  C  C36  1  0.10376800  0.57721600  0.20499300  1
  C  C37  1  0.42278400  0.89623200  0.29500700  1
  C  C38  1  0.89623200  0.42278400  0.79500700  1
  C  C39  1  0.57721600  0.10376800  0.70499300  1
