# generated using pymatgen
data_CuNi11C60
_symmetry_space_group_name_H-M   'P 1'
_cell_length_a   5.62992764
_cell_length_b   5.62992764
_cell_length_c   57.03107300
_cell_angle_alpha   90.00000000
_cell_angle_beta   90.00000000
_cell_angle_gamma   115.25570417
_symmetry_Int_Tables_number   1
_chemical_formula_structural   CuNi11C60
_chemical_formula_sum   'Cu2 Ni22 C120'
_cell_volume   1634.87219861
_cell_formula_units_Z   2
loop_
 _symmetry_equiv_pos_site_id
 _symmetry_equiv_pos_as_xyz
  1  'x, y, z'
loop_
 _atom_site_type_symbol
 _atom_site_label
 _atom_site_symmetry_multiplicity
 _atom_site_fract_x
 _atom_site_fract_y
 _atom_site_fract_z
 _atom_site_occupancy
  C  C0  1  0.50000000  0.00000000  0.04185400  1
  C  C1  1  0.00000000  0.50000000  0.95814600  1
  C  C2  1  0.50000000  0.00000000  0.87486100  1
  C  C3  1  0.00000000  0.50000000  0.79166400  1
  C  C4  1  0.50000000  0.50000000  0.08398400  1
  C  C5  1  0.50000000  0.00000000  0.70833100  1
  C  C6  1  0.00000000  0.00000000  0.00000000  1
  C  C7  1  0.00000000  0.50000000  0.62499900  1
  C  C8  1  0.50000000  0.50000000  0.91601600  1
  C  C9  1  0.50000000  0.00000000  0.54166700  1
  C  C10  1  0.00000000  0.00000000  0.83333800  1
  C  C11  1  0.00000000  0.50000000  0.45833300  1
  C  C12  1  0.50000000  0.50000000  0.74999700  1
  C  C13  1  0.50000000  0.00000000  0.37500100  1
  C  C14  1  0.00000000  0.00000000  0.66666500  1
  C  C15  1  0.00000000  0.50000000  0.29166900  1
  C  C16  1  0.50000000  0.50000000  0.58333300  1
  C  C17  1  0.50000000  0.00000000  0.20833600  1
  C  C18  1  0.00000000  0.00000000  0.50000000  1
  C  C19  1  0.00000000  0.50000000  0.12513900  1
  C  C20  1  0.50000000  0.50000000  0.41666700  1
  C  C21  1  0.00000000  0.00000000  0.33333500  1
  C  C22  1  0.50000000  0.50000000  0.25000300  1
  C  C23  1  0.00000000  0.00000000  0.16666200  1
  Ni  Ni24  1  0.00000000  0.00000000  0.08387800  1
  Ni  Ni25  1  0.50000000  0.50000000  0.00000000  1
  Ni  Ni26  1  0.00000000  0.00000000  0.91612200  1
  Ni  Ni27  1  0.50000000  0.50000000  0.83329600  1
  Ni  Ni28  1  0.00000000  0.50000000  0.87502900  1
  Ni  Ni29  1  0.00000000  0.00000000  0.74999800  1
  Ni  Ni30  1  0.50000000  0.00000000  0.79167000  1
  Ni  Ni31  1  0.50000000  0.50000000  0.66666600  1
  Ni  Ni32  1  0.00000000  0.50000000  0.70833100  1
  Ni  Ni33  1  0.00000000  0.00000000  0.58333200  1
  Ni  Ni34  1  0.50000000  0.00000000  0.62500000  1
  Ni  Ni35  1  0.50000000  0.50000000  0.50000000  1
  Ni  Ni36  1  0.00000000  0.50000000  0.54166700  1
  Ni  Ni37  1  0.00000000  0.00000000  0.41666800  1
  Ni  Ni38  1  0.50000000  0.00000000  0.45833300  1
  Ni  Ni39  1  0.50000000  0.50000000  0.33333400  1
  Ni  Ni40  1  0.00000000  0.50000000  0.37500000  1
  Ni  Ni41  1  0.00000000  0.00000000  0.25000200  1
  Ni  Ni42  1  0.50000000  0.00000000  0.29166900  1
  Ni  Ni43  1  0.50000000  0.50000000  0.16670400  1
  Ni  Ni44  1  0.00000000  0.50000000  0.20833000  1
  Ni  Ni45  1  0.50000000  0.00000000  0.12497100  1
  Cu  Cu46  1  0.00000000  0.50000000  0.04163900  1
  Cu  Cu47  1  0.50000000  0.00000000  0.95836100  1
  C  C48  1  0.08621000  0.27305200  0.09910900  1
  C  C49  1  0.72708200  0.90186900  0.06900200  1
  C  C50  1  0.27291800  0.09813100  0.06900200  1
  C  C51  1  0.59609600  0.77474500  0.01490900  1
  C  C52  1  0.91379000  0.72694800  0.09910900  1
  C  C53  1  0.22525500  0.40390400  0.98509100  1
  C  C54  1  0.07010800  0.75004200  0.02663200  1
  C  C55  1  0.77474500  0.59609600  0.98509100  1
  C  C56  1  0.09813100  0.27291800  0.93099800  1
  C  C57  1  0.75070800  0.43093600  0.05670500  1
  C  C58  1  0.40390400  0.22525500  0.01490900  1
  C  C59  1  0.24929200  0.56906400  0.05670500  1
  C  C60  1  0.72694800  0.91379000  0.90089100  1
  C  C61  1  0.56906400  0.24929200  0.94329500  1
  C  C62  1  0.27305200  0.08621000  0.90089100  1
  C  C63  1  0.58855800  0.77137000  0.84855400  1
  C  C64  1  0.92989200  0.24995800  0.02663200  1
  C  C65  1  0.24995800  0.92989200  0.97336800  1
  C  C66  1  0.90186900  0.72708200  0.93099800  1
  C  C67  1  0.75004200  0.07010800  0.97336800  1
  C  C68  1  0.22826600  0.41148900  0.81805500  1
  C  C69  1  0.08800000  0.77112800  0.85975700  1
  C  C70  1  0.77173400  0.58851100  0.81805500  1
  C  C71  1  0.08852600  0.27167400  0.76525800  1
  C  C72  1  0.43093600  0.75070800  0.94329500  1
  C  C73  1  0.72807900  0.41152800  0.89028500  1
  C  C74  1  0.41144200  0.22863000  0.84855400  1
  C  C75  1  0.27192100  0.58847200  0.89028500  1
  C  C76  1  0.72835600  0.91151800  0.73473700  1
  C  C77  1  0.58851300  0.27165800  0.77641000  1
  C  C78  1  0.27164400  0.08848200  0.73473700  1
  C  C79  1  0.58853000  0.77168900  0.68192500  1
  C  C80  1  0.91200000  0.22887200  0.85975700  1
  C  C81  1  0.22836600  0.91153900  0.80693500  1
  C  C82  1  0.91147400  0.72832600  0.76525800  1
  C  C83  1  0.77163400  0.08846100  0.80693500  1
  C  C84  1  0.22836300  0.41150300  0.65140500  1
  C  C85  1  0.08853400  0.77166600  0.69307100  1
  C  C86  1  0.77163700  0.58849700  0.65140500  1
  C  C87  1  0.08853200  0.27166200  0.59859300  1
  C  C88  1  0.41148700  0.72834200  0.77641000  1
  C  C89  1  0.72835500  0.41152100  0.72359200  1
  C  C90  1  0.41147000  0.22831100  0.68192500  1
  C  C91  1  0.27164500  0.58847900  0.72359200  1
  C  C92  1  0.72836300  0.91150100  0.56807200  1
  C  C93  1  0.58854100  0.27168600  0.60974000  1
  C  C94  1  0.27163700  0.08849900  0.56807200  1
  C  C95  1  0.58853400  0.77168000  0.51525900  1
  C  C96  1  0.91146600  0.22833400  0.69307100  1
  C  C97  1  0.22837400  0.91150500  0.64026100  1
  C  C98  1  0.91146800  0.72833800  0.59859300  1
  C  C99  1  0.77162600  0.08849500  0.64026100  1
  C  C100  1  0.22832000  0.41146600  0.48474100  1
  C  C101  1  0.08853000  0.77168400  0.52640800  1
  C  C102  1  0.77168000  0.58853400  0.48474100  1
  C  C103  1  0.08849900  0.27163700  0.43192800  1
  C  C104  1  0.41145900  0.72831400  0.60974000  1
  C  C105  1  0.72836000  0.41150800  0.55692700  1
  C  C106  1  0.41146600  0.22832000  0.51525900  1
  C  C107  1  0.27164000  0.58849200  0.55692700  1
  C  C108  1  0.72833800  0.91146800  0.40140700  1
  C  C109  1  0.58849200  0.27164000  0.44307300  1
  C  C110  1  0.27166200  0.08853200  0.40140700  1
  C  C111  1  0.58849700  0.77163700  0.34859500  1
  C  C112  1  0.91147000  0.22831600  0.52640800  1
  C  C113  1  0.22831600  0.91147000  0.47359200  1
  C  C114  1  0.91150100  0.72836300  0.43192800  1
  C  C115  1  0.77168400  0.08853000  0.47359200  1
  C  C116  1  0.22831100  0.41147000  0.31807500  1
  C  C117  1  0.08849500  0.77162600  0.35973900  1
  C  C118  1  0.77168900  0.58853000  0.31807500  1
  C  C119  1  0.08848200  0.27164400  0.26526300  1
  C  C120  1  0.41150800  0.72836000  0.44307300  1
  C  C121  1  0.72831400  0.41145900  0.39026000  1
  C  C122  1  0.41150300  0.22836300  0.34859500  1
  C  C123  1  0.27168600  0.58854100  0.39026000  1
  C  C124  1  0.72832600  0.91147400  0.23474200  1
  C  C125  1  0.58847900  0.27164500  0.27640800  1
  C  C126  1  0.27167400  0.08852600  0.23474200  1
  C  C127  1  0.58851100  0.77173400  0.18194500  1
  C  C128  1  0.91150500  0.22837400  0.35973900  1
  C  C129  1  0.22833400  0.91146600  0.30692900  1
  C  C130  1  0.91151800  0.72835600  0.26526300  1
  C  C131  1  0.77166600  0.08853400  0.30692900  1
  C  C132  1  0.22863000  0.41144200  0.15144600  1
  C  C133  1  0.08846100  0.77163400  0.19306500  1
  C  C134  1  0.77137000  0.58855800  0.15144600  1
  C  C135  1  0.41152100  0.72835500  0.27640800  1
  C  C136  1  0.72834200  0.41148700  0.22359000  1
  C  C137  1  0.41148900  0.22826600  0.18194500  1
  C  C138  1  0.27165800  0.58851300  0.22359000  1
  C  C139  1  0.58847200  0.27192100  0.10971500  1
  C  C140  1  0.91153900  0.22836600  0.19306500  1
  C  C141  1  0.22887200  0.91200000  0.14024300  1
  C  C142  1  0.77112800  0.08800000  0.14024300  1
  C  C143  1  0.41152800  0.72807900  0.10971500  1
