# generated using pymatgen
data_Cu7Ni7C10
_symmetry_space_group_name_H-M   'P 1'
_cell_length_a   6.83529000
_cell_length_b   6.97112249
_cell_length_c   19.97813888
_cell_angle_alpha   92.43837821
_cell_angle_beta   96.87940167
_cell_angle_gamma   90.34241454
_symmetry_Int_Tables_number   1
_chemical_formula_structural   Cu7Ni7C10
_chemical_formula_sum   'Cu21 Ni21 C30'
_cell_volume   944.18303604
_cell_formula_units_Z   3
loop_
 _symmetry_equiv_pos_site_id
 _symmetry_equiv_pos_as_xyz
  1  'x, y, z'
loop_
 _atom_site_type_symbol
 _atom_site_label
 _atom_site_symmetry_multiplicity
 _atom_site_fract_x
 _atom_site_fract_y
 _atom_site_fract_z
 _atom_site_occupancy
  C  C0  1  0.29702200  0.37561700  0.72519600  1
  C  C1  1  0.36051900  0.39047800  0.42102100  1
  C  C2  1  0.62637200  0.44041500  0.88898200  1
  C  C3  1  0.77392700  0.36933600  0.60975500  1
  C  C4  1  0.23865400  0.39194800  0.06531700  1
  C  C5  1  0.66412800  0.37061200  0.25956400  1
  C  C6  1  0.12541300  0.59820600  0.91474600  1
  C  C7  1  0.19064200  0.64363800  0.56720600  1
  C  C8  1  0.24774900  0.61378000  0.24519900  1
  C  C9  1  0.81641600  0.68325600  0.40746600  1
  C  C10  1  0.79178400  0.65701700  0.75274000  1
  C  C11  1  0.71116700  0.59766600  0.08868300  1
  C  C12  1  0.96280000  0.96979900  0.67130900  1
  C  C13  1  0.33893900  0.79043100  0.38879200  1
  C  C14  1  0.39486600  0.86979300  0.01133000  1
  C  C15  1  0.00780700  0.92856300  0.05100700  1
  C  C16  1  0.52008400  0.03426400  0.82952300  1
  C  C17  1  0.93234400  0.02992800  0.34402100  1
  C  C18  1  0.41125100  0.00551200  0.17377100  1
  C  C19  1  0.72856400  0.90449400  0.97406800  1
  C  C20  1  0.33751800  0.85124300  0.70299700  1
  C  C21  1  0.55804800  0.82644700  0.62046400  1
  C  C22  1  0.73072600  0.82981300  0.26494500  1
  C  C23  1  0.13275600  0.12068200  0.89541100  1
  C  C24  1  0.12401400  0.16869200  0.55244100  1
  C  C25  1  0.87238500  0.20681500  0.78987400  1
  C  C26  1  0.12097100  0.15962900  0.26448700  1
  C  C27  1  0.90356800  0.24673000  0.45973000  1
  C  C28  1  0.83550600  0.19827800  0.13568900  1
  C  C29  1  0.51664500  0.06338800  0.49551800  1
  Ni  Ni30  1  0.56102600  0.58983200  0.64607200  1
  Ni  Ni31  1  0.49678100  0.63695100  0.33875000  1
  Ni  Ni32  1  0.61761500  0.21068900  0.78950900  1
  Ni  Ni33  1  0.42184000  0.25912600  0.16143400  1
  Ni  Ni34  1  0.67460800  0.24913400  0.48959000  1
  Ni  Ni35  1  0.59258900  0.29054900  0.12336300  1
  Ni  Ni36  1  0.15762900  0.66686700  0.69423200  1
  Ni  Ni37  1  0.52550700  0.82991700  0.52740100  1
  Ni  Ni38  1  0.95970500  0.68799000  0.65600400  1
  Ni  Ni39  1  0.00811100  0.67899900  0.03065300  1
  Ni  Ni40  1  0.46776000  0.63010100  0.81602500  1
  Ni  Ni41  1  0.46705900  0.81513200  0.78512400  1
  Ni  Ni42  1  0.83231500  0.66316900  0.97443000  1
  Ni  Ni43  1  0.07220300  0.77717500  0.34209700  1
  Ni  Ni44  1  0.60176400  0.67195500  0.20139400  1
  Ni  Ni45  1  0.43590500  0.68102600  0.47827600  1
  Ni  Ni46  1  0.44962600  0.75465900  0.15076600  1
  Ni  Ni47  1  0.94457600  0.67857100  0.28524900  1
  Ni  Ni48  1  0.91730900  0.44058800  0.83631100  1
  Ni  Ni49  1  0.03045400  0.47063800  0.46347100  1
  Ni  Ni50  1  0.96845500  0.28678100  0.20852900  1
  Cu  Cu51  1  0.41759400  0.61000700  0.00546900  1
  Cu  Cu52  1  0.16324400  0.29498700  0.95617200  1
  Cu  Cu53  1  0.93020700  0.29571400  0.71584200  1
  Cu  Cu54  1  0.34171600  0.17009200  0.85843700  1
  Cu  Cu55  1  0.13059400  0.34798900  0.61074500  1
  Cu  Cu56  1  0.82386800  0.26094700  0.36337100  1
  Cu  Cu57  1  0.35788300  0.19159100  0.53553400  1
  Cu  Cu58  1  0.29573500  0.30989900  0.30062800  1
  Cu  Cu59  1  0.91430000  0.31032000  0.07295000  1
  Cu  Cu60  1  0.94662300  0.00534900  0.43024400  1
  Cu  Cu61  1  0.89855500  0.96646900  0.76076500  1
  Cu  Cu62  1  0.88736200  0.96103000  0.12050800  1
  Cu  Cu63  1  0.08278300  0.96353900  0.58592100  1
  Cu  Cu64  1  0.22222900  0.92004800  0.93674200  1
  Cu  Cu65  1  0.23314600  0.97897600  0.22466500  1
  Cu  Cu66  1  0.67330300  0.97899000  0.89698700  1
  Cu  Cu67  1  0.71149000  0.01768900  0.62988200  1
  Cu  Cu68  1  0.62905700  0.02866900  0.22692100  1
  Cu  Cu69  1  0.21900100  0.05459800  0.70942800  1
  Cu  Cu70  1  0.39984500  0.03013500  0.41662700  1
  Cu  Cu71  1  0.24604400  0.99664500  0.07223600  1
