# generated using pymatgen
data_CuNiC9
_symmetry_space_group_name_H-M   'P 1'
_cell_length_a   6.82147555
_cell_length_b   6.82147555
_cell_length_c   6.82147529
_cell_angle_alpha   91.09970372
_cell_angle_beta   91.09970372
_cell_angle_gamma   91.09971071
_symmetry_Int_Tables_number   1
_chemical_formula_structural   CuNiC9
_chemical_formula_sum   'Cu2 Ni2 C18'
_cell_volume   317.24282042
_cell_formula_units_Z   2
loop_
 _symmetry_equiv_pos_site_id
 _symmetry_equiv_pos_as_xyz
  1  'x, y, z'
loop_
 _atom_site_type_symbol
 _atom_site_label
 _atom_site_symmetry_multiplicity
 _atom_site_fract_x
 _atom_site_fract_y
 _atom_site_fract_z
 _atom_site_occupancy
  C  C0  1  0.88127000  0.25000000  0.61873000  1
  C  C1  1  0.25000000  0.61873000  0.88127000  1
  C  C2  1  0.38127000  0.11873000  0.75000000  1
  C  C3  1  0.75000000  0.38127000  0.11873000  1
  C  C4  1  0.11873000  0.75000000  0.38127000  1
  C  C5  1  0.61873000  0.88127000  0.25000000  1
  Ni  Ni6  1  0.25000000  0.25000000  0.25000000  1
  Ni  Ni7  1  0.75000000  0.75000000  0.75000000  1
  Cu  Cu8  1  0.50000000  0.50000000  0.50000000  1
  Cu  Cu9  1  0.00000000  0.00000000  0.00000000  1
  C  C10  1  0.71018100  0.04022500  0.90555600  1
  C  C11  1  0.95977500  0.09444400  0.28981900  1
  C  C12  1  0.78981900  0.59444400  0.45977500  1
  C  C13  1  0.59444400  0.45977500  0.78981900  1
  C  C14  1  0.45977500  0.78981900  0.59444400  1
  C  C15  1  0.04022500  0.90555600  0.71018100  1
  C  C16  1  0.40555600  0.54022500  0.21018100  1
  C  C17  1  0.28981900  0.95977500  0.09444400  1
  C  C18  1  0.21018100  0.40555600  0.54022500  1
  C  C19  1  0.54022500  0.21018100  0.40555600  1
  C  C20  1  0.90555600  0.71018100  0.04022500  1
  C  C21  1  0.09444400  0.28981900  0.95977500  1
