# generated using pymatgen
data_CuNiC4
_symmetry_space_group_name_H-M   'P 1'
_cell_length_a   4.29224600
_cell_length_b   8.74748600
_cell_length_c   11.28014100
_cell_angle_alpha   90.00000000
_cell_angle_beta   90.00000000
_cell_angle_gamma   90.00000000
_symmetry_Int_Tables_number   1
_chemical_formula_structural   CuNiC4
_chemical_formula_sum   'Cu4 Ni4 C16'
_cell_volume   423.52825507
_cell_formula_units_Z   4
loop_
 _symmetry_equiv_pos_site_id
 _symmetry_equiv_pos_as_xyz
  1  'x, y, z'
loop_
 _atom_site_type_symbol
 _atom_site_label
 _atom_site_symmetry_multiplicity
 _atom_site_fract_x
 _atom_site_fract_y
 _atom_site_fract_z
 _atom_site_occupancy
  C  C0  1  0.75000000  0.69163500  0.43967900  1
  C  C1  1  0.75000000  0.19163500  0.06032100  1
  C  C2  1  0.25000000  0.30836500  0.56032100  1
  C  C3  1  0.25000000  0.80836500  0.93967900  1
  C  C4  1  0.75000000  0.36274300  0.39581900  1
  C  C5  1  0.75000000  0.86274300  0.10418100  1
  C  C6  1  0.25000000  0.63725700  0.60418100  1
  C  C7  1  0.25000000  0.13725700  0.89581900  1
  C  C8  1  0.75000000  0.05348300  0.62489000  1
  C  C9  1  0.75000000  0.55348300  0.87511000  1
  C  C10  1  0.25000000  0.94651700  0.37511000  1
  C  C11  1  0.25000000  0.44651700  0.12489000  1
  C  C12  1  0.75000000  0.92122500  0.72723900  1
  C  C13  1  0.75000000  0.42122500  0.77276100  1
  C  C14  1  0.25000000  0.07877500  0.27276100  1
  C  C15  1  0.25000000  0.57877500  0.22723900  1
  Ni  Ni16  1  0.75000000  0.15334200  0.55377000  1
  Ni  Ni17  1  0.75000000  0.65334200  0.94623000  1
  Ni  Ni18  1  0.25000000  0.84665800  0.44623000  1
  Ni  Ni19  1  0.25000000  0.34665800  0.05377000  1
  Cu  Cu20  1  0.75000000  0.60712200  0.49604400  1
  Cu  Cu21  1  0.75000000  0.10712200  0.00395600  1
  Cu  Cu22  1  0.25000000  0.39287800  0.50395600  1
  Cu  Cu23  1  0.25000000  0.89287800  0.99604400  1
