# generated using pymatgen
data_Cu5Ni6
_symmetry_space_group_name_H-M   'P 1'
_cell_length_a   6.30166754
_cell_length_b   6.30166754
_cell_length_c   7.79789335
_cell_angle_alpha   74.68624363
_cell_angle_beta   74.68624363
_cell_angle_gamma   76.65132412
_symmetry_Int_Tables_number   1
_chemical_formula_structural   Cu5Ni6
_chemical_formula_sum   'Cu10 Ni12'
_cell_volume   283.70900005
_cell_formula_units_Z   2
loop_
 _symmetry_equiv_pos_site_id
 _symmetry_equiv_pos_as_xyz
  1  'x, y, z'
loop_
 _atom_site_type_symbol
 _atom_site_label
 _atom_site_symmetry_multiplicity
 _atom_site_fract_x
 _atom_site_fract_y
 _atom_site_fract_z
 _atom_site_occupancy
  Ni  Ni0  1  0.12365600  0.12365600  0.98271000  1
  Ni  Ni1  1  0.97624700  0.45561600  0.17554800  1
  Ni  Ni2  1  0.42129100  0.42129100  0.27883000  1
  Ni  Ni3  1  0.25234300  0.74765700  0.50000000  1
  Ni  Ni4  1  0.57870900  0.57870900  0.72117000  1
  Ni  Ni5  1  0.02375300  0.54438400  0.82445200  1
  Ni  Ni6  1  0.87634400  0.87634400  0.01729000  1
  Ni  Ni7  1  0.45561600  0.97624700  0.17554800  1
  Ni  Ni8  1  0.74765700  0.25234300  0.50000000  1
  Ni  Ni9  1  0.54438400  0.02375300  0.82445200  1
  Ni  Ni10  1  0.50000000  0.00000000  0.50000000  1
  Ni  Ni11  1  0.00000000  0.50000000  0.50000000  1
  Cu  Cu12  1  0.34356100  0.34356100  0.62741600  1
  Cu  Cu13  1  0.36415500  0.36415500  0.99400900  1
  Cu  Cu14  1  0.24270900  0.84711000  0.78729200  1
  Cu  Cu15  1  0.14942600  0.14942600  0.39925700  1
  Cu  Cu16  1  0.84711000  0.24270900  0.78729200  1
  Cu  Cu17  1  0.63584500  0.63584500  0.00599100  1
  Cu  Cu18  1  0.15289000  0.75729100  0.21270800  1
  Cu  Cu19  1  0.85057400  0.85057400  0.60074300  1
  Cu  Cu20  1  0.65643900  0.65643900  0.37258400  1
  Cu  Cu21  1  0.75729100  0.15289000  0.21270800  1
