# generated using pymatgen
data_Cu9Ni3C
_symmetry_space_group_name_H-M   'P 1'
_cell_length_a   11.84670700
_cell_length_b   11.87128166
_cell_length_c   13.19741595
_cell_angle_alpha   107.11557489
_cell_angle_beta   107.42382013
_cell_angle_gamma   98.24994474
_symmetry_Int_Tables_number   1
_chemical_formula_structural   Cu9Ni3C
_chemical_formula_sum   'Cu36 Ni12 C4'
_cell_volume   1636.93168972
_cell_formula_units_Z   4
loop_
 _symmetry_equiv_pos_site_id
 _symmetry_equiv_pos_as_xyz
  1  'x, y, z'
loop_
 _atom_site_type_symbol
 _atom_site_label
 _atom_site_symmetry_multiplicity
 _atom_site_fract_x
 _atom_site_fract_y
 _atom_site_fract_z
 _atom_site_occupancy
  C  C0  1  0.35760100  0.15517500  0.75640600  1
  C  C1  1  0.91420500  0.60781200  0.75227700  1
  C  C2  1  0.08517600  0.37082100  0.22841500  1
  C  C3  1  0.65511700  0.84766300  0.25334600  1
  Ni  Ni4  1  0.45756900  0.07758000  0.57966600  1
  Ni  Ni5  1  0.42419600  0.04589400  0.92600400  1
  Ni  Ni6  1  0.65183200  0.51768600  0.61135600  1
  Ni  Ni7  1  0.00057700  0.09955900  0.06170600  1
  Ni  Ni8  1  0.23280800  0.28242400  0.75271400  1
  Ni  Ni9  1  0.03170900  0.45334600  0.75223900  1
  Ni  Ni10  1  0.93927200  0.55566400  0.24888800  1
  Ni  Ni11  1  0.78453200  0.72700300  0.25298100  1
  Ni  Ni12  1  0.98178100  0.86932800  0.89339800  1
  Ni  Ni13  1  0.42120100  0.52074500  0.44667100  1
  Ni  Ni14  1  0.57192200  0.94967900  0.07856900  1
  Ni  Ni15  1  0.55012200  0.92745500  0.42517500  1
  Cu  Cu16  1  0.28247900  0.07969200  0.55352400  1
  Cu  Cu17  1  0.68060900  0.04680800  0.23970900  1
  Cu  Cu18  1  0.52569100  0.10727600  0.45674900  1
  Cu  Cu19  1  0.48828900  0.38479600  0.52214900  1
  Cu  Cu20  1  0.12146100  0.02812500  0.96843400  1
  Cu  Cu21  1  0.99107400  0.15066200  0.31735000  1
  Cu  Cu22  1  0.55426900  0.18964300  0.74081100  1
  Cu  Cu23  1  0.60283600  0.01891700  0.95695500  1
  Cu  Cu24  1  0.43109200  0.22321800  0.95848300  1
  Cu  Cu25  1  0.79227300  0.49218600  0.55793000  1
  Cu  Cu26  1  0.96935900  0.29003000  0.60806600  1
  Cu  Cu27  1  0.72865600  0.55548100  0.78072100  1
  Cu  Cu28  1  0.13763300  0.28916800  0.59488500  1
  Cu  Cu29  1  0.95786900  0.25189400  0.03703900  1
  Cu  Cu30  1  0.79542300  0.58058400  0.12151500  1
  Cu  Cu31  1  0.09982600  0.59552700  0.71768900  1
  Cu  Cu32  1  0.91328300  0.40400300  0.28320400  1
  Cu  Cu33  1  0.18172300  0.41300000  0.86532900  1
  Cu  Cu34  1  0.00809200  0.73344500  0.95148100  1
  Cu  Cu35  1  0.32545300  0.45526100  0.14886400  1
  Cu  Cu36  1  0.08867300  0.56622700  0.20780100  1
  Cu  Cu37  1  0.92600100  0.70189600  0.38099000  1
  Cu  Cu38  1  0.27541700  0.56013000  0.47456600  1
  Cu  Cu39  1  0.57620700  0.77476700  0.05077700  1
  Cu  Cu40  1  0.98368800  0.97987000  0.24612900  1
  Cu  Cu41  1  0.39049100  0.97062900  0.04318800  1
  Cu  Cu42  1  0.45635200  0.81299000  0.26580100  1
  Cu  Cu43  1  0.93023900  0.79056300  0.72229500  1
  Cu  Cu44  1  0.25895400  0.31974700  0.19613800  1
  Cu  Cu45  1  0.84774400  0.95314800  0.93032800  1
  Cu  Cu46  1  0.58195500  0.66027100  0.57851200  1
  Cu  Cu47  1  0.47924400  0.89692800  0.54552200  1
  Cu  Cu48  1  0.31023600  0.95710900  0.76401100  1
  Cu  Cu49  1  0.15462700  0.25696100  0.34012400  1
  Cu  Cu50  1  0.49738900  0.51258700  0.24537600  1
  Cu  Cu51  1  0.72727400  0.92872300  0.45554600  1
