# generated using pymatgen
data_Cu2Ni3C
_symmetry_space_group_name_H-M   'P 1'
_cell_length_a   8.46708200
_cell_length_b   8.52115900
_cell_length_c   8.53562300
_cell_angle_alpha   90.00000000
_cell_angle_beta   90.00000000
_cell_angle_gamma   90.00000000
_symmetry_Int_Tables_number   1
_chemical_formula_structural   Cu2Ni3C
_chemical_formula_sum   'Cu8 Ni12 C4'
_cell_volume   615.83966826
_cell_formula_units_Z   4
loop_
 _symmetry_equiv_pos_site_id
 _symmetry_equiv_pos_as_xyz
  1  'x, y, z'
loop_
 _atom_site_type_symbol
 _atom_site_label
 _atom_site_symmetry_multiplicity
 _atom_site_fract_x
 _atom_site_fract_y
 _atom_site_fract_z
 _atom_site_occupancy
  C  C0  1  0.00000000  0.26699400  0.56927000  1
  C  C1  1  0.50000000  0.76699400  0.93073000  1
  C  C2  1  0.00000000  0.73300600  0.43073000  1
  C  C3  1  0.50000000  0.23300600  0.06927000  1
  Ni  Ni4  1  0.00000000  0.38058600  0.81250400  1
  Ni  Ni5  1  0.50000000  0.73647200  0.19761900  1
  Ni  Ni6  1  0.50000000  0.26352800  0.80238100  1
  Ni  Ni7  1  0.19017800  0.50000000  0.50000000  1
  Ni  Ni8  1  0.50000000  0.11941400  0.31250400  1
  Ni  Ni9  1  0.30982200  0.00000000  0.00000000  1
  Ni  Ni10  1  0.00000000  0.76352800  0.69761900  1
  Ni  Ni11  1  0.80982200  0.50000000  0.50000000  1
  Ni  Ni12  1  0.00000000  0.61941400  0.18749600  1
  Ni  Ni13  1  0.00000000  0.23647200  0.30238100  1
  Ni  Ni14  1  0.69017800  0.00000000  0.00000000  1
  Ni  Ni15  1  0.50000000  0.88058600  0.68749600  1
  Cu  Cu16  1  0.83851100  0.15031200  0.60224400  1
  Cu  Cu17  1  0.66148900  0.65031200  0.89775600  1
  Cu  Cu18  1  0.66148900  0.34968800  0.10224400  1
  Cu  Cu19  1  0.33851100  0.34968800  0.10224400  1
  Cu  Cu20  1  0.33851100  0.65031200  0.89775600  1
  Cu  Cu21  1  0.16148900  0.84968800  0.39775600  1
  Cu  Cu22  1  0.83851100  0.84968800  0.39775600  1
  Cu  Cu23  1  0.16148900  0.15031200  0.60224400  1
