# generated using pymatgen
data_Cu2Ni4C13
_symmetry_space_group_name_H-M   'P 1'
_cell_length_a   6.57199800
_cell_length_b   7.46552309
_cell_length_c   10.79970610
_cell_angle_alpha   72.90134198
_cell_angle_beta   73.86646694
_cell_angle_gamma   69.75505440
_symmetry_Int_Tables_number   1
_chemical_formula_structural   Cu2Ni4C13
_chemical_formula_sum   'Cu4 Ni8 C26'
_cell_volume   465.90660761
_cell_formula_units_Z   2
loop_
 _symmetry_equiv_pos_site_id
 _symmetry_equiv_pos_as_xyz
  1  'x, y, z'
loop_
 _atom_site_type_symbol
 _atom_site_label
 _atom_site_symmetry_multiplicity
 _atom_site_fract_x
 _atom_site_fract_y
 _atom_site_fract_z
 _atom_site_occupancy
  C  C0  1  0.29192300  0.24856600  0.89958900  1
  C  C1  1  0.23998700  0.76098300  0.57782000  1
  C  C2  1  0.70807700  0.75143400  0.10041100  1
  C  C3  1  0.76001300  0.23901700  0.42218000  1
  C  C4  1  0.75309800  0.52161300  0.75115600  1
  C  C5  1  0.24690200  0.47838700  0.24884400  1
  Ni  Ni6  1  0.77370100  0.15237900  0.85932800  1
  Ni  Ni7  1  0.86723400  0.17777500  0.70396600  1
  Ni  Ni8  1  0.86348900  0.81948800  0.79590400  1
  Ni  Ni9  1  0.66521400  0.91577600  0.71408900  1
  Ni  Ni10  1  0.22629900  0.84762100  0.14067200  1
  Ni  Ni11  1  0.13276600  0.82222500  0.29603400  1
  Ni  Ni12  1  0.13651100  0.18051200  0.20409600  1
  Ni  Ni13  1  0.33478600  0.08422400  0.28591100  1
  Cu  Cu14  1  0.24956200  0.72142700  0.92734600  1
  Cu  Cu15  1  0.23088900  0.26981800  0.58415400  1
  Cu  Cu16  1  0.75043800  0.27857300  0.07265400  1
  Cu  Cu17  1  0.76911100  0.73018200  0.41584600  1
  C  C18  1  0.19292800  0.56929500  0.04740700  1
  C  C19  1  0.04285000  0.84408400  0.87889500  1
  C  C20  1  0.35603900  0.84225400  0.96049300  1
  C  C21  1  0.40268000  0.61760700  0.82084700  1
  C  C22  1  0.10464400  0.40696600  0.67699200  1
  C  C23  1  0.08237200  0.16466100  0.57392200  1
  C  C24  1  0.42748900  0.13187600  0.63569400  1
  C  C25  1  0.30576600  0.39109500  0.45211400  1
  C  C26  1  0.73706000  0.22641500  0.77237200  1
  C  C27  1  0.79209800  0.80126500  0.73228300  1
  C  C28  1  0.80707200  0.43070500  0.95259300  1
  C  C29  1  0.95715000  0.15591600  0.12110500  1
  C  C30  1  0.64396100  0.15774600  0.03950700  1
  C  C31  1  0.59732000  0.38239300  0.17915300  1
  C  C32  1  0.89535600  0.59303400  0.32300800  1
  C  C33  1  0.91762800  0.83533900  0.42607800  1
  C  C34  1  0.57251100  0.86812400  0.36430600  1
  C  C35  1  0.69423400  0.60890500  0.54788600  1
  C  C36  1  0.26294000  0.77358500  0.22762800  1
  C  C37  1  0.20790200  0.19873500  0.26771700  1
