# generated using pymatgen
data_Cu5Ni5C
_symmetry_space_group_name_H-M   'P 1'
_cell_length_a   6.85732219
_cell_length_b   6.85732219
_cell_length_c   9.41567283
_cell_angle_alpha   74.47757805
_cell_angle_beta   74.47757805
_cell_angle_gamma   59.90726394
_symmetry_Int_Tables_number   1
_chemical_formula_structural   Cu5Ni5C
_chemical_formula_sum   'Cu10 Ni10 C2'
_cell_volume   364.34466433
_cell_formula_units_Z   2
loop_
 _symmetry_equiv_pos_site_id
 _symmetry_equiv_pos_as_xyz
  1  'x, y, z'
loop_
 _atom_site_type_symbol
 _atom_site_label
 _atom_site_symmetry_multiplicity
 _atom_site_fract_x
 _atom_site_fract_y
 _atom_site_fract_z
 _atom_site_occupancy
  C  C0  1  0.16686400  0.83313600  0.25000000  1
  C  C1  1  0.83313600  0.16686400  0.75000000  1
  Ni  Ni2  1  0.96472800  0.29301700  0.81681800  1
  Ni  Ni3  1  0.90456700  0.09543300  0.25000000  1
  Ni  Ni4  1  0.77976400  0.38475800  0.58819800  1
  Ni  Ni5  1  0.09543300  0.90456700  0.75000000  1
  Ni  Ni6  1  0.38475800  0.77976400  0.08819800  1
  Ni  Ni7  1  0.70698300  0.03527200  0.68318200  1
  Ni  Ni8  1  0.29301700  0.96472800  0.31681800  1
  Ni  Ni9  1  0.03527200  0.70698300  0.18318200  1
  Ni  Ni10  1  0.61524200  0.22023600  0.91180200  1
  Ni  Ni11  1  0.22023600  0.61524200  0.41180200  1
  Cu  Cu12  1  0.95046200  0.62883300  0.14062500  1
  Cu  Cu13  1  0.25565400  0.47326500  0.51602200  1
  Cu  Cu14  1  0.74434600  0.52673500  0.48397800  1
  Cu  Cu15  1  0.37116700  0.04953800  0.35937500  1
  Cu  Cu16  1  0.62883300  0.95046200  0.64062500  1
  Cu  Cu17  1  0.47326500  0.25565400  0.01602200  1
  Cu  Cu18  1  0.04953800  0.37116700  0.85937500  1
  Cu  Cu19  1  0.73499400  0.26500600  0.25000000  1
  Cu  Cu20  1  0.52673500  0.74434600  0.98397800  1
  Cu  Cu21  1  0.26500600  0.73499400  0.75000000  1
