# generated using pymatgen
data_Cu2Ni8C13
_symmetry_space_group_name_H-M   'P 1'
_cell_length_a   9.43416400
_cell_length_b   11.39856800
_cell_length_c   19.22408700
_cell_angle_alpha   90.00000000
_cell_angle_beta   90.00000000
_cell_angle_gamma   90.00000000
_symmetry_Int_Tables_number   1
_chemical_formula_structural   Cu2Ni8C13
_chemical_formula_sum   'Cu16 Ni64 C104'
_cell_volume   2067.28064831
_cell_formula_units_Z   8
loop_
 _symmetry_equiv_pos_site_id
 _symmetry_equiv_pos_as_xyz
  1  'x, y, z'
loop_
 _atom_site_type_symbol
 _atom_site_label
 _atom_site_symmetry_multiplicity
 _atom_site_fract_x
 _atom_site_fract_y
 _atom_site_fract_z
 _atom_site_occupancy
  C  C0  1  0.00282700  0.80493300  0.47693600  1
  C  C1  1  0.79806800  0.63015500  0.11367700  1
  C  C2  1  0.99717300  0.19506700  0.52306400  1
  C  C3  1  0.99128300  0.00169500  0.26704600  1
  C  C4  1  0.99128300  0.50169500  0.23295400  1
  C  C5  1  0.49128300  0.99830500  0.23295400  1
  C  C6  1  0.00282700  0.30493300  0.02306400  1
  C  C7  1  0.50282700  0.19506700  0.02306400  1
  C  C8  1  0.50282700  0.69506700  0.47693600  1
  C  C9  1  0.70193200  0.13015500  0.88632300  1
  C  C10  1  0.49717300  0.80493300  0.97693600  1
  C  C11  1  0.70193200  0.63015500  0.61367700  1
  C  C12  1  0.50871700  0.00169500  0.76704600  1
  C  C13  1  0.00871700  0.99830500  0.73295400  1
  C  C14  1  0.20193200  0.86984500  0.61367700  1
  C  C15  1  0.00871700  0.49830500  0.76704600  1
  C  C16  1  0.20193200  0.36984500  0.88632300  1
  C  C17  1  0.29806800  0.86984500  0.11367700  1
  C  C18  1  0.99717300  0.69506700  0.97693600  1
  C  C19  1  0.49128300  0.49830500  0.26704600  1
  C  C20  1  0.49717300  0.30493300  0.52306400  1
  C  C21  1  0.50871700  0.50169500  0.73295400  1
  C  C22  1  0.79806800  0.13015500  0.38632300  1
  C  C23  1  0.29806800  0.36984500  0.38632300  1
  Ni  Ni24  1  0.28758500  0.06200600  0.45829500  1
  Ni  Ni25  1  0.69986700  0.21394000  0.69217700  1
  Ni  Ni26  1  0.85463000  0.77501700  0.78227200  1
  Ni  Ni27  1  0.20894300  0.04064800  0.87117200  1
  Ni  Ni28  1  0.21241500  0.56200600  0.54170500  1
  Ni  Ni29  1  0.76191600  0.85453700  0.32932100  1
  Ni  Ni30  1  0.40341800  0.46405800  0.07659200  1
  Ni  Ni31  1  0.59658200  0.03594200  0.57659200  1
  Ni  Ni32  1  0.29105700  0.04064800  0.37117200  1
  Ni  Ni33  1  0.71241500  0.43799400  0.95829500  1
  Ni  Ni34  1  0.30013300  0.28606000  0.19217700  1
  Ni  Ni35  1  0.59658200  0.53594200  0.92340800  1
  Ni  Ni36  1  0.73808400  0.85453700  0.82932100  1
  Ni  Ni37  1  0.07329500  0.10905900  0.91122500  1
  Ni  Ni38  1  0.92670500  0.89094100  0.08877500  1
  Ni  Ni39  1  0.70894300  0.45935200  0.87117200  1
  Ni  Ni40  1  0.42670500  0.10905900  0.41122500  1
  Ni  Ni41  1  0.78758500  0.93799400  0.04170500  1
  Ni  Ni42  1  0.80013300  0.21394000  0.19217700  1
  Ni  Ni43  1  0.07329500  0.60905900  0.58877500  1
  Ni  Ni44  1  0.92670500  0.39094100  0.41122500  1
  Ni  Ni45  1  0.76191600  0.35453700  0.17067900  1
  Ni  Ni46  1  0.64537000  0.27501700  0.21772800  1
  Ni  Ni47  1  0.28758500  0.56200600  0.04170500  1
  Ni  Ni48  1  0.23808400  0.14546300  0.67067900  1
  Ni  Ni49  1  0.80013300  0.71394000  0.30782300  1
  Ni  Ni50  1  0.82810000  0.24334000  0.63332400  1
  Ni  Ni51  1  0.09658200  0.46405800  0.57659200  1
  Ni  Ni52  1  0.09658200  0.96405800  0.92340800  1
  Ni  Ni53  1  0.67190000  0.74334000  0.36667600  1
  Ni  Ni54  1  0.26191600  0.14546300  0.17067900  1
  Ni  Ni55  1  0.21241500  0.06200600  0.95829500  1
  Ni  Ni56  1  0.32810000  0.25666000  0.63332400  1
  Ni  Ni57  1  0.90341800  0.53594200  0.42340800  1
  Ni  Ni58  1  0.35463000  0.22498300  0.71772800  1
  Ni  Ni59  1  0.78758500  0.43799400  0.45829500  1
  Ni  Ni60  1  0.17190000  0.25666000  0.13332400  1
  Ni  Ni61  1  0.67190000  0.24334000  0.13332400  1
  Ni  Ni62  1  0.26191600  0.64546300  0.32932100  1
  Ni  Ni63  1  0.64537000  0.77501700  0.28227200  1
  Ni  Ni64  1  0.32810000  0.75666000  0.86667600  1
  Ni  Ni65  1  0.90341800  0.03594200  0.07659200  1
  Ni  Ni66  1  0.19986700  0.78606000  0.80782300  1
  Ni  Ni67  1  0.20894300  0.54064800  0.62882800  1
  Ni  Ni68  1  0.85463000  0.27501700  0.71772800  1
  Ni  Ni69  1  0.19986700  0.28606000  0.69217700  1
  Ni  Ni70  1  0.29105700  0.54064800  0.12882800  1
  Ni  Ni71  1  0.57329500  0.89094100  0.58877500  1
  Ni  Ni72  1  0.30013300  0.78606000  0.30782300  1
  Ni  Ni73  1  0.14537000  0.72498300  0.28227200  1
  Ni  Ni74  1  0.79105700  0.45935200  0.37117200  1
  Ni  Ni75  1  0.23808400  0.64546300  0.82932100  1
  Ni  Ni76  1  0.70894300  0.95935200  0.62882800  1
  Ni  Ni77  1  0.57329500  0.39094100  0.91122500  1
  Ni  Ni78  1  0.35463000  0.72498300  0.78227200  1
  Ni  Ni79  1  0.17190000  0.75666000  0.36667600  1
  Ni  Ni80  1  0.14537000  0.22498300  0.21772800  1
  Ni  Ni81  1  0.42670500  0.60905900  0.08877500  1
  Ni  Ni82  1  0.71241500  0.93799400  0.54170500  1
  Ni  Ni83  1  0.82810000  0.74334000  0.86667600  1
  Ni  Ni84  1  0.79105700  0.95935200  0.12882800  1
  Ni  Ni85  1  0.73808400  0.35453700  0.67067900  1
  Ni  Ni86  1  0.69986700  0.71394000  0.80782300  1
  Ni  Ni87  1  0.40341800  0.96405800  0.42340800  1
  Cu  Cu88  1  0.14799500  0.04374900  0.91600000  1
  Cu  Cu89  1  0.72004500  0.27179800  0.17855200  1
  Cu  Cu90  1  0.77995500  0.27179800  0.67855200  1
  Cu  Cu91  1  0.64799500  0.95625100  0.58400000  1
  Cu  Cu92  1  0.64799500  0.45625100  0.91600000  1
  Cu  Cu93  1  0.77995500  0.77179800  0.82144800  1
  Cu  Cu94  1  0.27995500  0.22820200  0.67855200  1
  Cu  Cu95  1  0.14799500  0.54374900  0.58400000  1
  Cu  Cu96  1  0.27995500  0.72820200  0.82144800  1
  Cu  Cu97  1  0.22004500  0.72820200  0.32144800  1
  Cu  Cu98  1  0.72004500  0.77179800  0.32144800  1
  Cu  Cu99  1  0.22004500  0.22820200  0.17855200  1
  Cu  Cu100  1  0.35200500  0.54374900  0.08400000  1
  Cu  Cu101  1  0.85200500  0.95625100  0.08400000  1
  Cu  Cu102  1  0.85200500  0.45625100  0.41600000  1
  Cu  Cu103  1  0.35200500  0.04374900  0.41600000  1
  C  C104  1  0.47427800  0.62911300  0.23533000  1
  C  C105  1  0.67378400  0.58244100  0.06447000  1
  C  C106  1  0.76635600  0.72440400  0.66641700  1
  C  C107  1  0.02572200  0.12911300  0.76467000  1
  C  C108  1  0.60040200  0.60630300  0.43167700  1
  C  C109  1  0.86656900  0.51151300  0.16045900  1
  C  C110  1  0.01210500  0.17462100  0.05793600  1
  C  C111  1  0.10040200  0.89369700  0.43167700  1
  C  C112  1  0.95310300  0.10093300  0.20856000  1
  C  C113  1  0.92931700  0.20097300  0.43432300  1
  C  C114  1  0.67378400  0.08244100  0.43553000  1
  C  C115  1  0.32621600  0.41755900  0.93553000  1
  C  C116  1  0.73364400  0.72440400  0.16641700  1
  C  C117  1  0.97427800  0.87088700  0.23533000  1
  C  C118  1  0.13343100  0.48848700  0.83954100  1
  C  C119  1  0.42931700  0.29902700  0.43432300  1
  C  C120  1  0.39959800  0.39369700  0.56832300  1
  C  C121  1  0.17378400  0.41755900  0.43553000  1
  C  C122  1  0.54689700  0.60093300  0.79144000  1
  C  C123  1  0.52572200  0.37088700  0.76467000  1
  C  C124  1  0.97427800  0.37088700  0.26467000  1
  C  C125  1  0.65231300  0.97877500  0.20554000  1
  C  C126  1  0.89959800  0.10630300  0.56832300  1
  C  C127  1  0.76635600  0.22440400  0.83358300  1
  C  C128  1  0.89959800  0.60630300  0.93167700  1
  C  C129  1  0.07068300  0.29902700  0.93432300  1
  C  C130  1  0.17378400  0.91755900  0.06447000  1
  C  C131  1  0.26635600  0.27559600  0.83358300  1
  C  C132  1  0.54689700  0.10093300  0.70856000  1
  C  C133  1  0.15231300  0.02122500  0.29446000  1
  C  C134  1  0.98789500  0.82537900  0.94206400  1
  C  C135  1  0.52572200  0.87088700  0.73533000  1
  C  C136  1  0.66039400  0.84986200  0.97862300  1
  C  C137  1  0.36656900  0.98848700  0.16045900  1
  C  C138  1  0.65231300  0.47877500  0.29446000  1
  C  C139  1  0.32621600  0.91755900  0.56447000  1
  C  C140  1  0.83960600  0.34986200  0.02137700  1
  C  C141  1  0.04689700  0.89906700  0.79144000  1
  C  C142  1  0.15231300  0.52122500  0.20554000  1
  C  C143  1  0.01210500  0.67462100  0.44206400  1
  C  C144  1  0.36656900  0.48848700  0.33954100  1
  C  C145  1  0.57068300  0.70097300  0.56567700  1
  C  C146  1  0.73364400  0.22440400  0.33358300  1
  C  C147  1  0.02572200  0.62911300  0.73533000  1
  C  C148  1  0.66039400  0.34986200  0.52137700  1
  C  C149  1  0.23364400  0.27559600  0.33358300  1
  C  C150  1  0.16039400  0.65013800  0.97862300  1
  C  C151  1  0.16039400  0.15013800  0.52137700  1
  C  C152  1  0.45310300  0.89906700  0.29144000  1
  C  C153  1  0.10040200  0.39369700  0.06832300  1
  C  C154  1  0.13343100  0.98848700  0.66045900  1
  C  C155  1  0.26635600  0.77559600  0.66641700  1
  C  C156  1  0.57068300  0.20097300  0.93432300  1
  C  C157  1  0.45310300  0.39906700  0.20856000  1
  C  C158  1  0.48789500  0.17462100  0.55793600  1
  C  C159  1  0.84768700  0.47877500  0.79446000  1
  C  C160  1  0.82621600  0.08244100  0.93553000  1
  C  C161  1  0.82621600  0.58244100  0.56447000  1
  C  C162  1  0.83960600  0.84986200  0.47862300  1
  C  C163  1  0.07068300  0.79902700  0.56567700  1
  C  C164  1  0.47427800  0.12911300  0.26467000  1
  C  C165  1  0.84768700  0.97877500  0.70554000  1
  C  C166  1  0.39959800  0.89369700  0.93167700  1
  C  C167  1  0.51210500  0.82537900  0.44206400  1
  C  C168  1  0.92931700  0.70097300  0.06567700  1
  C  C169  1  0.60040200  0.10630300  0.06832300  1
  C  C170  1  0.04689700  0.39906700  0.70856000  1
  C  C171  1  0.51210500  0.32537900  0.05793600  1
  C  C172  1  0.63343100  0.01151300  0.83954100  1
  C  C173  1  0.95310300  0.60093300  0.29144000  1
  C  C174  1  0.42931700  0.79902700  0.06567700  1
  C  C175  1  0.63343100  0.51151300  0.66045900  1
  C  C176  1  0.34768700  0.52122500  0.70554000  1
  C  C177  1  0.86656900  0.01151300  0.33954100  1
  C  C178  1  0.34768700  0.02122500  0.79446000  1
  C  C179  1  0.48789500  0.67462100  0.94206400  1
  C  C180  1  0.98789500  0.32537900  0.55793600  1
  C  C181  1  0.23364400  0.77559600  0.16641700  1
  C  C182  1  0.33960600  0.15013800  0.02137700  1
  C  C183  1  0.33960600  0.65013800  0.47862300  1
