# generated using pymatgen
data_Cu2Ni2C31
_symmetry_space_group_name_H-M   'P 1'
_cell_length_a   8.55371100
_cell_length_b   8.62729900
_cell_length_c   12.13833167
_cell_angle_alpha   89.38834031
_cell_angle_beta   90.00000000
_cell_angle_gamma   90.00000000
_symmetry_Int_Tables_number   1
_chemical_formula_structural   Cu2Ni2C31
_chemical_formula_sum   'Cu4 Ni4 C62'
_cell_volume   895.70227021
_cell_formula_units_Z   2
loop_
 _symmetry_equiv_pos_site_id
 _symmetry_equiv_pos_as_xyz
  1  'x, y, z'
loop_
 _atom_site_type_symbol
 _atom_site_label
 _atom_site_symmetry_multiplicity
 _atom_site_fract_x
 _atom_site_fract_y
 _atom_site_fract_z
 _atom_site_occupancy
  C  C0  1  0.50000000  0.50000000  0.00000000  1
  C  C1  1  0.00000000  0.00000000  0.00000000  1
  Ni  Ni2  1  0.50113000  0.21039000  0.85813600  1
  Ni  Ni3  1  0.00113000  0.28961000  0.14186400  1
  Ni  Ni4  1  0.49887000  0.78961000  0.14186400  1
  Ni  Ni5  1  0.99887000  0.71039000  0.85813600  1
  Cu  Cu6  1  0.49916900  0.78380800  0.64373100  1
  Cu  Cu7  1  0.99916900  0.71619200  0.35626900  1
  Cu  Cu8  1  0.00083100  0.28380800  0.64373100  1
  Cu  Cu9  1  0.50083100  0.21619200  0.35626900  1
  C  C10  1  0.35827700  0.85121900  0.39013900  1
  C  C11  1  0.28894300  0.50322400  0.75739600  1
  C  C12  1  0.14172300  0.35121900  0.39013900  1
  C  C13  1  0.85295800  0.35919400  0.89987900  1
  C  C14  1  0.35295800  0.14080600  0.10012100  1
  C  C15  1  0.78894300  0.99677600  0.24260400  1
  C  C16  1  0.21105700  0.00322400  0.75739600  1
  C  C17  1  0.64704200  0.85919400  0.89987900  1
  C  C18  1  0.14704200  0.64080600  0.10012100  1
  C  C19  1  0.85827700  0.64878100  0.60986100  1
  C  C20  1  0.71105700  0.49677600  0.24260400  1
  C  C21  1  0.64172300  0.14878100  0.60986100  1
  C  C22  1  0.30318000  0.89103500  0.68107800  1
  C  C23  1  0.17871000  0.84110500  0.40210200  1
  C  C24  1  0.43185700  0.76339500  0.48895400  1
  C  C25  1  0.42334800  0.78490100  0.28541900  1
  C  C26  1  0.39253900  0.58690100  0.66980300  1
  C  C27  1  0.11440300  0.52859500  0.40152000  1
  C  C28  1  0.39623100  0.41445900  0.83855600  1
  C  C29  1  0.10602300  0.47015200  0.10134600  1
  C  C30  1  0.19682000  0.39103500  0.68107800  1
  C  C31  1  0.81615100  0.38950000  0.17885300  1
  C  C32  1  0.32129000  0.34110500  0.40210200  1
  C  C33  1  0.67196000  0.34605600  0.90648800  1
  C  C34  1  0.06814300  0.26339500  0.48895400  1
  C  C35  1  0.07665200  0.28490100  0.28541900  1
  C  C36  1  0.92951400  0.26070200  0.99299700  1
  C  C37  1  0.91685500  0.27464900  0.79500100  1
  C  C38  1  0.41685500  0.22535100  0.20499900  1
  C  C39  1  0.42951400  0.23929800  0.00700300  1
  C  C40  1  0.17196000  0.15394400  0.09351200  1
  C  C41  1  0.89623100  0.08554100  0.16144400  1
  C  C42  1  0.31615100  0.11050000  0.82114700  1
  C  C43  1  0.38559700  0.02859500  0.40152000  1
  C  C44  1  0.10746100  0.08690100  0.66980300  1
  C  C45  1  0.60602300  0.02984800  0.89865400  1
  C  C46  1  0.39397700  0.97015200  0.10134600  1
  C  C47  1  0.89253900  0.91309900  0.33019700  1
  C  C48  1  0.61440300  0.97140500  0.59848000  1
  C  C49  1  0.68384900  0.88950000  0.17885300  1
  C  C50  1  0.10376900  0.91445900  0.83855600  1
  C  C51  1  0.82804000  0.84605600  0.90648800  1
  C  C52  1  0.57048600  0.76070200  0.99299700  1
  C  C53  1  0.58314500  0.77464900  0.79500100  1
  C  C54  1  0.08314500  0.72535100  0.20499900  1
  C  C55  1  0.07048600  0.73929800  0.00700300  1
  C  C56  1  0.92334800  0.71509900  0.71458100  1
  C  C57  1  0.93185700  0.73660500  0.51104600  1
  C  C58  1  0.32804000  0.65394400  0.09351200  1
  C  C59  1  0.67871000  0.65889500  0.59789800  1
  C  C60  1  0.18384900  0.61050000  0.82114700  1
  C  C61  1  0.80318000  0.60896500  0.31892200  1
  C  C62  1  0.89397700  0.52984800  0.89865400  1
  C  C63  1  0.60376900  0.58554100  0.16144400  1
  C  C64  1  0.88559700  0.47140500  0.59848000  1
  C  C65  1  0.60746100  0.41309900  0.33019700  1
  C  C66  1  0.57665200  0.21509900  0.71458100  1
  C  C67  1  0.56814300  0.23660500  0.51104600  1
  C  C68  1  0.82129000  0.15889500  0.59789800  1
  C  C69  1  0.69682000  0.10896500  0.31892200  1
