# generated using pymatgen
data_Cu3Ni2C3
_symmetry_space_group_name_H-M   'P 1'
_cell_length_a   7.83619200
_cell_length_b   10.67811500
_cell_length_c   16.26008300
_cell_angle_alpha   90.00000000
_cell_angle_beta   90.00000000
_cell_angle_gamma   90.00000000
_symmetry_Int_Tables_number   1
_chemical_formula_structural   Cu3Ni2C3
_chemical_formula_sum   'Cu24 Ni16 C24'
_cell_volume   1360.57479193
_cell_formula_units_Z   8
loop_
 _symmetry_equiv_pos_site_id
 _symmetry_equiv_pos_as_xyz
  1  'x, y, z'
loop_
 _atom_site_type_symbol
 _atom_site_label
 _atom_site_symmetry_multiplicity
 _atom_site_fract_x
 _atom_site_fract_y
 _atom_site_fract_z
 _atom_site_occupancy
  C  C0  1  0.89420700  0.77116000  0.53676300  1
  C  C1  1  0.39420700  0.77116000  0.96323700  1
  C  C2  1  0.10579300  0.22884000  0.46323700  1
  C  C3  1  0.60579300  0.22884000  0.03676300  1
  C  C4  1  0.34514800  0.00709800  0.39884500  1
  C  C5  1  0.10579300  0.27116000  0.03676300  1
  C  C6  1  0.84514800  0.49290200  0.39884500  1
  C  C7  1  0.15485200  0.50709800  0.60115500  1
  C  C8  1  0.60579300  0.27116000  0.46323700  1
  C  C9  1  0.65485200  0.99290200  0.60115500  1
  C  C10  1  0.65485200  0.50709800  0.89884500  1
  C  C11  1  0.84514800  0.00709800  0.10115500  1
  C  C12  1  0.39420700  0.72884000  0.53676300  1
  C  C13  1  0.15485200  0.99290200  0.89884500  1
  C  C14  1  0.89420700  0.72884000  0.96323700  1
  C  C15  1  0.34514800  0.49290200  0.10115500  1
  C  C16  1  0.71116900  0.52665600  0.59804400  1
  C  C17  1  0.28883100  0.02665600  0.09804400  1
  C  C18  1  0.21116900  0.97334400  0.59804400  1
  C  C19  1  0.71116900  0.97334400  0.90195600  1
  C  C20  1  0.78883100  0.02665600  0.40195600  1
  C  C21  1  0.78883100  0.47334400  0.09804400  1
  C  C22  1  0.21116900  0.52665600  0.90195600  1
  C  C23  1  0.28883100  0.47334400  0.40195600  1
  Ni  Ni24  1  0.05812600  0.20867600  0.88294500  1
  Ni  Ni25  1  0.15715700  0.41085000  0.20516000  1
  Ni  Ni26  1  0.34284300  0.58915000  0.70516000  1
  Ni  Ni27  1  0.84284300  0.58915000  0.79484000  1
  Ni  Ni28  1  0.05812600  0.29132400  0.61705500  1
  Ni  Ni29  1  0.44187400  0.70867600  0.11705500  1
  Ni  Ni30  1  0.44187400  0.79132400  0.38294500  1
  Ni  Ni31  1  0.94187400  0.79132400  0.11705500  1
  Ni  Ni32  1  0.84284300  0.91085000  0.70516000  1
  Ni  Ni33  1  0.65715700  0.41085000  0.29484000  1
  Ni  Ni34  1  0.15715700  0.08915000  0.29484000  1
  Ni  Ni35  1  0.65715700  0.08915000  0.20516000  1
  Ni  Ni36  1  0.55812600  0.29132400  0.88294500  1
  Ni  Ni37  1  0.94187400  0.70867600  0.38294500  1
  Ni  Ni38  1  0.34284300  0.91085000  0.79484000  1
  Ni  Ni39  1  0.55812600  0.20867600  0.61705500  1
  Cu  Cu40  1  0.56308000  0.41090400  0.08173000  1
  Cu  Cu41  1  0.69339600  0.44504000  0.49185700  1
  Cu  Cu42  1  0.56308000  0.08909600  0.41827000  1
  Cu  Cu43  1  0.35661500  0.18808100  0.06039300  1
  Cu  Cu44  1  0.85661500  0.31191900  0.06039300  1
  Cu  Cu45  1  0.19339600  0.44504000  0.00814300  1
  Cu  Cu46  1  0.69339600  0.05496000  0.00814300  1
  Cu  Cu47  1  0.06308000  0.08909600  0.08173000  1
  Cu  Cu48  1  0.80660400  0.55496000  0.99185700  1
  Cu  Cu49  1  0.64338500  0.81191900  0.93960700  1
  Cu  Cu50  1  0.19339600  0.05496000  0.49185700  1
  Cu  Cu51  1  0.43692000  0.58909600  0.91827000  1
  Cu  Cu52  1  0.30660400  0.55496000  0.50814300  1
  Cu  Cu53  1  0.14338500  0.81191900  0.56039300  1
  Cu  Cu54  1  0.64338500  0.68808100  0.56039300  1
  Cu  Cu55  1  0.80660400  0.94504000  0.50814300  1
  Cu  Cu56  1  0.14338500  0.68808100  0.93960700  1
  Cu  Cu57  1  0.85661500  0.18808100  0.43960700  1
  Cu  Cu58  1  0.06308000  0.41090400  0.41827000  1
  Cu  Cu59  1  0.35661500  0.31191900  0.43960700  1
  Cu  Cu60  1  0.43692000  0.91090400  0.58173000  1
  Cu  Cu61  1  0.93692000  0.91090400  0.91827000  1
  Cu  Cu62  1  0.30660400  0.94504000  0.99185700  1
  Cu  Cu63  1  0.93692000  0.58909600  0.58173000  1
