# generated using pymatgen
data_Cu3Ni45C38
_symmetry_space_group_name_H-M   'P 1'
_cell_length_a   7.89791000
_cell_length_b   7.92473089
_cell_length_c   17.23592894
_cell_angle_alpha   89.95963104
_cell_angle_beta   90.18236958
_cell_angle_gamma   119.64100739
_symmetry_Int_Tables_number   1
_chemical_formula_structural   Cu3Ni45C38
_chemical_formula_sum   'Cu3 Ni45 C38'
_cell_volume   937.60369734
_cell_formula_units_Z   1
loop_
 _symmetry_equiv_pos_site_id
 _symmetry_equiv_pos_as_xyz
  1  'x, y, z'
loop_
 _atom_site_type_symbol
 _atom_site_label
 _atom_site_symmetry_multiplicity
 _atom_site_fract_x
 _atom_site_fract_y
 _atom_site_fract_z
 _atom_site_occupancy
  C  C0  1  0.32277100  0.65229700  0.61066200  1
  C  C1  1  0.34247200  0.67307500  0.26565900  1
  C  C2  1  0.90331100  0.48125100  0.61825100  1
  C  C3  1  0.58636900  0.09698000  0.28086500  1
  C  C4  1  0.42917600  0.50417700  0.10894400  1
  C  C5  1  0.08122200  0.56425500  0.78308600  1
  C  C6  1  0.07200100  0.56040200  0.44560100  1
  C  C7  1  0.07935200  0.57227300  0.10696900  1
  C  C8  1  0.07674200  0.24567000  0.34749500  1
  C  C9  1  0.07630900  0.24411800  0.68329800  1
  C  C10  1  0.08745700  0.25594200  0.01038500  1
  C  C11  1  0.83283700  0.76123600  0.85260500  1
  C  C12  1  0.83022900  0.75478200  0.51806500  1
  C  C13  1  0.82482800  0.76344300  0.18209400  1
  C  C14  1  0.91511200  0.48657100  0.94664100  1
  C  C15  1  0.90966100  0.48684500  0.28035200  1
  C  C16  1  0.91069400  0.17314300  0.84653000  1
  C  C17  1  0.91918400  0.17386800  0.51508500  1
  C  C18  1  0.91553900  0.17472300  0.17653700  1
  C  C19  1  0.51242600  0.43255900  0.94399200  1
  C  C20  1  0.51385400  0.41870900  0.61420500  1
  C  C21  1  0.51667200  0.42612700  0.28095700  1
  C  C22  1  0.56980200  0.08304400  0.94439400  1
  C  C23  1  0.57246200  0.08268100  0.61394500  1
  C  C24  1  0.75410500  0.82711100  0.68576100  1
  C  C25  1  0.75014800  0.82550600  0.35301300  1
  C  C26  1  0.74936500  0.83316100  0.01583800  1
  C  C27  1  0.48580400  0.91487600  0.78237000  1
  C  C28  1  0.48921200  0.91524500  0.44856700  1
  C  C29  1  0.49107300  0.92488700  0.10983000  1
  C  C30  1  0.25609600  0.09163900  0.84928400  1
  C  C31  1  0.25103800  0.07942000  0.51588500  1
  C  C32  1  0.25296500  0.08369800  0.18297800  1
  C  C33  1  0.16799200  0.91318600  0.68519900  1
  C  C34  1  0.16278900  0.91553200  0.01284200  1
  C  C35  1  0.16715700  0.91232200  0.34775000  1
  C  C36  1  0.43957200  0.51590500  0.78025300  1
  C  C37  1  0.43493200  0.50936900  0.44707100  1
  Ni  Ni38  1  0.99688300  0.98374400  0.67932500  1
  Ni  Ni39  1  0.99453600  0.98194600  0.35011300  1
  Ni  Ni40  1  0.68458900  0.68274900  0.93265100  1
  Ni  Ni41  1  0.67580300  0.67394500  0.60068600  1
  Ni  Ni42  1  0.66957900  0.68334000  0.26673100  1
  Ni  Ni43  1  0.99583800  0.32858100  0.92425700  1
  Ni  Ni44  1  0.01738900  0.33460600  0.59225300  1
  Ni  Ni45  1  0.00474500  0.33727500  0.25948400  1
  Ni  Ni46  1  0.66741300  0.33465200  0.95773000  1
  Ni  Ni47  1  0.65144100  0.31749300  0.63595100  1
  Ni  Ni48  1  0.67491700  0.34996100  0.30653400  1
  Ni  Ni49  1  0.39616400  0.34560800  0.85107600  1
  Ni  Ni50  1  0.39062100  0.33900900  0.52287600  1
  Ni  Ni51  1  0.38746000  0.33699000  0.19597800  1
  Ni  Ni52  1  0.65308400  0.03915600  0.85496800  1
  Ni  Ni53  1  0.65545800  0.03837300  0.52539400  1
  Ni  Ni54  1  0.65924700  0.04131800  0.18627600  1
  Ni  Ni55  1  0.59869300  0.93605500  0.68606200  1
  Ni  Ni56  1  0.59667300  0.92823400  0.35843500  1
  Ni  Ni57  1  0.60597900  0.95247000  0.01968900  1
  Ni  Ni58  1  0.69199200  0.68298700  0.76793000  1
  Ni  Ni59  1  0.68533300  0.67730100  0.43655800  1
  Ni  Ni60  1  0.69273600  0.69435900  0.10028800  1
  Ni  Ni61  1  0.32049300  0.00820400  0.93208100  1
  Ni  Ni62  1  0.31809700  0.98758300  0.59873300  1
  Ni  Ni63  1  0.31408600  0.98644700  0.26596700  1
  Ni  Ni64  1  0.31750900  0.99845300  0.76728100  1
  Ni  Ni65  1  0.31217800  0.98854400  0.43463200  1
  Ni  Ni66  1  0.31037800  0.99620000  0.09955200  1
  Ni  Ni67  1  0.34633400  0.66864500  0.79554400  1
  Ni  Ni68  1  0.34012100  0.68150500  0.13821000  1
  Ni  Ni69  1  0.34110200  0.66524000  0.47459500  1
  Ni  Ni70  1  0.00329500  0.00634700  0.84714100  1
  Ni  Ni71  1  0.00082100  0.99954500  0.51705500  1
  Ni  Ni72  1  0.00248400  0.00593300  0.18577100  1
  Ni  Ni73  1  0.99435000  0.99078300  0.01183200  1
  Ni  Ni74  1  0.35436200  0.41388600  0.35453000  1
  Ni  Ni75  1  0.35598300  0.41095500  0.68559000  1
  Ni  Ni76  1  0.35312300  0.39164800  0.01502800  1
  Ni  Ni77  1  0.07288600  0.66652900  0.68436400  1
  Ni  Ni78  1  0.06759700  0.65879500  0.34729400  1
  Ni  Ni79  1  0.04628300  0.66277200  0.01401300  1
  Ni  Ni80  1  0.97637800  0.30651900  0.76437700  1
  Ni  Ni81  1  0.99739800  0.31664400  0.09879100  1
  Ni  Ni82  1  0.98148500  0.30382100  0.43296000  1
  Cu  Cu83  1  0.95095500  0.62444900  0.85803300  1
  Cu  Cu84  1  0.94857400  0.62347100  0.52307000  1
  Cu  Cu85  1  0.94109300  0.62024500  0.19458600  1
