# generated using pymatgen
data_Cu6Ni4C
_symmetry_space_group_name_H-M   'P 1'
_cell_length_a   4.33084200
_cell_length_b   11.59074200
_cell_length_c   16.09384500
_cell_angle_alpha   90.00000000
_cell_angle_beta   90.00000000
_cell_angle_gamma   90.00000000
_symmetry_Int_Tables_number   1
_chemical_formula_structural   Cu6Ni4C
_chemical_formula_sum   'Cu24 Ni16 C4'
_cell_volume   807.87355679
_cell_formula_units_Z   4
loop_
 _symmetry_equiv_pos_site_id
 _symmetry_equiv_pos_as_xyz
  1  'x, y, z'
loop_
 _atom_site_type_symbol
 _atom_site_label
 _atom_site_symmetry_multiplicity
 _atom_site_fract_x
 _atom_site_fract_y
 _atom_site_fract_z
 _atom_site_occupancy
  C  C0  1  0.25000000  0.36878800  0.21412700  1
  C  C1  1  0.25000000  0.13121200  0.71412700  1
  C  C2  1  0.75000000  0.86878800  0.28587300  1
  C  C3  1  0.75000000  0.63121200  0.78587300  1
  Ni  Ni4  1  0.25000000  0.86867900  0.54423900  1
  Ni  Ni5  1  0.25000000  0.37398000  0.56497000  1
  Ni  Ni6  1  0.25000000  0.25060800  0.43776200  1
  Ni  Ni7  1  0.75000000  0.74939200  0.56223800  1
  Ni  Ni8  1  0.25000000  0.12602000  0.06497000  1
  Ni  Ni9  1  0.75000000  0.62602000  0.43503000  1
  Ni  Ni10  1  0.25000000  0.83819000  0.67840100  1
  Ni  Ni11  1  0.75000000  0.87398000  0.93503000  1
  Ni  Ni12  1  0.75000000  0.36867900  0.95576100  1
  Ni  Ni13  1  0.75000000  0.16181000  0.32159900  1
  Ni  Ni14  1  0.75000000  0.75060800  0.06223800  1
  Ni  Ni15  1  0.75000000  0.33819000  0.82159900  1
  Ni  Ni16  1  0.75000000  0.13132100  0.45576100  1
  Ni  Ni17  1  0.25000000  0.24939200  0.93776200  1
  Ni  Ni18  1  0.25000000  0.63132100  0.04423900  1
  Ni  Ni19  1  0.25000000  0.66181000  0.17840100  1
  Cu  Cu20  1  0.25000000  0.58333000  0.12202400  1
  Cu  Cu21  1  0.75000000  0.38874500  0.03054800  1
  Cu  Cu22  1  0.75000000  0.93136300  0.87442300  1
  Cu  Cu23  1  0.25000000  0.43136300  0.62557700  1
  Cu  Cu24  1  0.75000000  0.81569100  0.00291300  1
  Cu  Cu25  1  0.25000000  0.31569100  0.49708700  1
  Cu  Cu26  1  0.75000000  0.68430900  0.50291300  1
  Cu  Cu27  1  0.25000000  0.87622700  0.39382500  1
  Cu  Cu28  1  0.75000000  0.41667000  0.87797600  1
  Cu  Cu29  1  0.25000000  0.18430900  0.99708700  1
  Cu  Cu30  1  0.75000000  0.12377300  0.60617500  1
  Cu  Cu31  1  0.75000000  0.23152300  0.26679000  1
  Cu  Cu32  1  0.25000000  0.88874500  0.46945200  1
  Cu  Cu33  1  0.75000000  0.08333000  0.37797600  1
  Cu  Cu34  1  0.25000000  0.91667000  0.62202400  1
  Cu  Cu35  1  0.25000000  0.73152300  0.23321000  1
  Cu  Cu36  1  0.25000000  0.76847700  0.73321000  1
  Cu  Cu37  1  0.75000000  0.37622700  0.10617500  1
  Cu  Cu38  1  0.25000000  0.61125500  0.96945200  1
  Cu  Cu39  1  0.75000000  0.26847700  0.76679000  1
  Cu  Cu40  1  0.25000000  0.62377300  0.89382500  1
  Cu  Cu41  1  0.75000000  0.56863700  0.37442300  1
  Cu  Cu42  1  0.75000000  0.11125500  0.53054800  1
  Cu  Cu43  1  0.25000000  0.06863700  0.12557700  1
