# generated using pymatgen
data_Cu13(Ni3C2)2
_symmetry_space_group_name_H-M   'P 1'
_cell_length_a   4.33408200
_cell_length_b   17.59451400
_cell_length_c   18.94102342
_cell_angle_alpha   89.36222912
_cell_angle_beta   90.00000000
_cell_angle_gamma   90.00000000
_symmetry_Int_Tables_number   1
_chemical_formula_structural   Cu13(Ni3C2)2
_chemical_formula_sum   'Cu26 Ni12 C8'
_cell_volume   1444.27845970
_cell_formula_units_Z   2
loop_
 _symmetry_equiv_pos_site_id
 _symmetry_equiv_pos_as_xyz
  1  'x, y, z'
loop_
 _atom_site_type_symbol
 _atom_site_label
 _atom_site_symmetry_multiplicity
 _atom_site_fract_x
 _atom_site_fract_y
 _atom_site_fract_z
 _atom_site_occupancy
  C  C0  1  0.25000000  0.25223100  0.73381200  1
  C  C1  1  0.75000000  0.26671100  0.17592200  1
  C  C2  1  0.75000000  0.74776900  0.26618800  1
  C  C3  1  0.25000000  0.51755700  0.65581900  1
  C  C4  1  0.75000000  0.48244300  0.34418100  1
  C  C5  1  0.25000000  0.73328900  0.82407800  1
  Ni  Ni6  1  0.75000000  0.08120600  0.57729800  1
  Ni  Ni7  1  0.25000000  0.91879400  0.42270200  1
  Ni  Ni8  1  0.25000000  0.67316400  0.47503300  1
  Ni  Ni9  1  0.25000000  0.89693700  0.02288800  1
  Ni  Ni10  1  0.25000000  0.49005400  0.11806800  1
  Ni  Ni11  1  0.75000000  0.10306300  0.97711200  1
  Ni  Ni12  1  0.25000000  0.17171400  0.38168800  1
  Ni  Ni13  1  0.75000000  0.50994600  0.88193200  1
  Ni  Ni14  1  0.75000000  0.68797600  0.04257900  1
  Ni  Ni15  1  0.75000000  0.82828600  0.61831200  1
  Ni  Ni16  1  0.75000000  0.32683600  0.52496700  1
  Ni  Ni17  1  0.25000000  0.31202400  0.95742100  1
  C  C18  1  0.75000000  0.01324500  0.24857400  1
  C  C19  1  0.25000000  0.98675500  0.75142600  1
  Cu  Cu20  1  0.25000000  0.42632600  0.48777400  1
  Cu  Cu21  1  0.25000000  0.19546800  0.55468400  1
  Cu  Cu22  1  0.75000000  0.80453200  0.44531600  1
  Cu  Cu23  1  0.75000000  0.27589600  0.36327000  1
  Cu  Cu24  1  0.75000000  0.37453300  0.66424800  1
  Cu  Cu25  1  0.25000000  0.89195400  0.27888300  1
  Cu  Cu26  1  0.25000000  0.18913100  0.05567900  1
  Cu  Cu27  1  0.25000000  0.13768400  0.23977800  1
  Cu  Cu28  1  0.25000000  0.60418600  0.96547200  1
  Cu  Cu29  1  0.25000000  0.96085400  0.58779800  1
  Cu  Cu30  1  0.75000000  0.57367400  0.51222600  1
  Cu  Cu31  1  0.25000000  0.39483300  0.23386500  1
  Cu  Cu32  1  0.75000000  0.10804600  0.72111700  1
  Cu  Cu33  1  0.25000000  0.42153300  0.82688600  1
  Cu  Cu34  1  0.25000000  0.72410400  0.63673000  1
  Cu  Cu35  1  0.75000000  0.81086900  0.94432100  1
  Cu  Cu36  1  0.75000000  0.57846700  0.17311400  1
  Cu  Cu37  1  0.75000000  0.23535400  0.87730500  1
  Cu  Cu38  1  0.75000000  0.86231600  0.76022200  1
  Cu  Cu39  1  0.75000000  0.60516700  0.76613500  1
  Cu  Cu40  1  0.25000000  0.62546700  0.33575200  1
  Cu  Cu41  1  0.75000000  0.98174800  0.08925300  1
  Cu  Cu42  1  0.75000000  0.39581400  0.03452800  1
  Cu  Cu43  1  0.25000000  0.01825200  0.91074700  1
  Cu  Cu44  1  0.25000000  0.76464600  0.12269500  1
  Cu  Cu45  1  0.75000000  0.03914600  0.41220200  1
