# generated using pymatgen
data_Cu(NiC2)3
_symmetry_space_group_name_H-M   'P 1'
_cell_length_a   7.51273000
_cell_length_b   8.04184271
_cell_length_c   31.10441037
_cell_angle_alpha   94.61939458
_cell_angle_beta   89.96072019
_cell_angle_gamma   117.82765399
_symmetry_Int_Tables_number   1
_chemical_formula_structural   Cu(NiC2)3
_chemical_formula_sum   'Cu5 Ni15 C30'
_cell_volume   1655.03909271
_cell_formula_units_Z   5
loop_
 _symmetry_equiv_pos_site_id
 _symmetry_equiv_pos_as_xyz
  1  'x, y, z'
loop_
 _atom_site_type_symbol
 _atom_site_label
 _atom_site_symmetry_multiplicity
 _atom_site_fract_x
 _atom_site_fract_y
 _atom_site_fract_z
 _atom_site_occupancy
  Ni  Ni0  1  0.56608600  0.13410500  0.93866000  1
  Ni  Ni1  1  0.29151300  0.57995500  0.89931900  1
  Ni  Ni2  1  0.16645200  0.33308300  0.73850800  1
  Ni  Ni3  1  0.89135900  0.78081300  0.69916400  1
  Ni  Ni4  1  0.86948900  0.73944200  0.83881100  1
  Ni  Ni5  1  0.76638500  0.53305800  0.53851700  1
  Ni  Ni6  1  0.49112900  0.98085300  0.49925600  1
  Ni  Ni7  1  0.46915500  0.93898500  0.63880700  1
  Ni  Ni8  1  0.36861700  0.73379400  0.33867300  1
  Ni  Ni9  1  0.13386600  0.25761900  0.15979000  1
  Ni  Ni10  1  0.09175500  0.17942500  0.30008300  1
  Ni  Ni11  1  0.06916600  0.13902800  0.43888000  1
  Ni  Ni12  1  0.69584000  0.40089200  0.09675100  1
  Ni  Ni13  1  0.66611500  0.33853100  0.23967400  1
  Ni  Ni14  1  0.27261500  0.53717800  0.03630600  1
  Cu  Cu15  1  0.98964000  0.98502100  0.00025500  1
  Cu  Cu16  1  0.79418200  0.58871700  0.39954000  1
  Cu  Cu17  1  0.59419500  0.18882500  0.79945900  1
  Cu  Cu18  1  0.19412300  0.38877300  0.59940300  1
  Cu  Cu19  1  0.40348200  0.80245700  0.19812000  1
  C  C20  1  0.31988300  0.91373700  0.85241600  1
  C  C21  1  0.21977200  0.79099400  0.97796400  1
  C  C22  1  0.73631200  0.84687100  0.92286400  1
  C  C23  1  0.84874800  0.38136300  0.87560400  1
  C  C24  1  0.41992700  0.43774600  0.81927400  1
  C  C25  1  0.91961200  0.11356400  0.65231200  1
  C  C26  1  0.28727300  0.29675700  0.95588300  1
  C  C27  1  0.81897400  0.98951000  0.77742800  1
  C  C28  1  0.33517100  0.04473500  0.72273900  1
  C  C29  1  0.44849400  0.58102100  0.67557100  1
  C  C30  1  0.01970100  0.63761700  0.61923000  1
  C  C31  1  0.51942400  0.31346000  0.45236900  1
  C  C32  1  0.89116000  0.50015900  0.75592000  1
  C  C33  1  0.41911500  0.18941900  0.57749700  1
  C  C34  1  0.93491300  0.24474500  0.52271500  1
  C  C35  1  0.04875500  0.78075300  0.47564300  1
  C  C36  1  0.62065300  0.83836900  0.41946400  1
  C  C37  1  0.11913500  0.50754100  0.24908700  1
  C  C38  1  0.49097500  0.70045800  0.55596200  1
  C  C39  1  0.01929600  0.38970600  0.37738500  1
  C  C40  1  0.53465200  0.44582800  0.32315000  1
  C  C41  1  0.65020700  0.98204700  0.27615000  1
  C  C42  1  0.21556000  0.03723000  0.22104900  1
  C  C43  1  0.71041700  0.70744600  0.04984400  1
  C  C44  1  0.09172200  0.89892300  0.35595400  1
  C  C45  1  0.58313200  0.56147800  0.17957200  1
  C  C46  1  0.14018600  0.61350300  0.12450500  1
  C  C47  1  0.25547200  0.18091300  0.07565800  1
  C  C48  1  0.82167100  0.23918900  0.01999400  1
  C  C49  1  0.69268400  0.11068600  0.15570300  1
