# generated using pymatgen
data_Cu2NiC8
_symmetry_space_group_name_H-M   'P 1'
_cell_length_a   5.11962300
_cell_length_b   5.11962300
_cell_length_c   20.23939000
_cell_angle_alpha   90.00000000
_cell_angle_beta   90.00000000
_cell_angle_gamma   90.00000000
_symmetry_Int_Tables_number   1
_chemical_formula_structural   Cu2NiC8
_chemical_formula_sum   'Cu8 Ni4 C32'
_cell_volume   530.48533433
_cell_formula_units_Z   4
loop_
 _symmetry_equiv_pos_site_id
 _symmetry_equiv_pos_as_xyz
  1  'x, y, z'
loop_
 _atom_site_type_symbol
 _atom_site_label
 _atom_site_symmetry_multiplicity
 _atom_site_fract_x
 _atom_site_fract_y
 _atom_site_fract_z
 _atom_site_occupancy
  Ni  Ni0  1  0.50440000  0.49560000  0.75000000  1
  Ni  Ni1  1  0.49560000  0.50440000  0.25000000  1
  Ni  Ni2  1  0.99560000  0.99560000  0.50000000  1
  Ni  Ni3  1  0.00440000  0.00440000  0.00000000  1
  Cu  Cu4  1  0.99365600  0.56487300  0.67866700  1
  Cu  Cu5  1  0.00634400  0.43512700  0.17866700  1
  Cu  Cu6  1  0.06487300  0.50634400  0.42866700  1
  Cu  Cu7  1  0.93512700  0.49365600  0.92866700  1
  Cu  Cu8  1  0.43512700  0.00634400  0.82133300  1
  Cu  Cu9  1  0.56487300  0.99365600  0.32133300  1
  Cu  Cu10  1  0.50634400  0.06487300  0.57133300  1
  Cu  Cu11  1  0.49365600  0.93512700  0.07133300  1
  C  C12  1  0.04973700  0.52533300  0.61114900  1
  C  C13  1  0.95026300  0.47466700  0.11114900  1
  C  C14  1  0.02533300  0.45026300  0.36114900  1
  C  C15  1  0.97466700  0.54973700  0.86114900  1
  C  C16  1  0.47466700  0.95026300  0.88885100  1
  C  C17  1  0.52533300  0.04973700  0.38885100  1
  C  C18  1  0.45026300  0.02533300  0.63885100  1
  C  C19  1  0.54973700  0.97466700  0.13885100  1
  C  C20  1  0.99230100  0.83864500  0.68784300  1
  C  C21  1  0.00769900  0.16135500  0.18784300  1
  C  C22  1  0.33864500  0.50769900  0.43784300  1
  C  C23  1  0.66135500  0.49230100  0.93784300  1
  C  C24  1  0.16135500  0.00769900  0.81215700  1
  C  C25  1  0.83864500  0.99230100  0.31215700  1
  C  C26  1  0.50769900  0.33864500  0.56215700  1
  C  C27  1  0.49230100  0.66135500  0.06215700  1
  C  C28  1  0.72120000  0.45475700  0.69103300  1
  C  C29  1  0.27880000  0.54524300  0.19103300  1
  C  C30  1  0.95475700  0.77880000  0.44103300  1
  C  C31  1  0.04524300  0.22120000  0.94103300  1
  C  C32  1  0.54524300  0.27880000  0.80896700  1
  C  C33  1  0.45475700  0.72120000  0.30896700  1
  C  C34  1  0.77880000  0.95475700  0.55896700  1
  C  C35  1  0.22120000  0.04524300  0.05896700  1
  C  C36  1  0.21359700  0.44783000  0.71978900  1
  C  C37  1  0.78640300  0.55217000  0.21978900  1
  C  C38  1  0.94783000  0.28640300  0.46978900  1
  C  C39  1  0.05217000  0.71359700  0.96978900  1
  C  C40  1  0.55217000  0.78640300  0.78021100  1
  C  C41  1  0.44783000  0.21359700  0.28021100  1
  C  C42  1  0.28640300  0.94783000  0.53021100  1
  C  C43  1  0.71359700  0.05217000  0.03021100  1
