# generated using pymatgen
data_Cu2NiC10
_symmetry_space_group_name_H-M   'P 1'
_cell_length_a   12.04845808
_cell_length_b   12.04845808
_cell_length_c   13.74727562
_cell_angle_alpha   55.14479775
_cell_angle_beta   55.14479775
_cell_angle_gamma   70.53640327
_symmetry_Int_Tables_number   1
_chemical_formula_structural   Cu2NiC10
_chemical_formula_sum   'Cu16 Ni8 C80'
_cell_volume   1343.75691768
_cell_formula_units_Z   8
loop_
 _symmetry_equiv_pos_site_id
 _symmetry_equiv_pos_as_xyz
  1  'x, y, z'
loop_
 _atom_site_type_symbol
 _atom_site_label
 _atom_site_symmetry_multiplicity
 _atom_site_fract_x
 _atom_site_fract_y
 _atom_site_fract_z
 _atom_site_occupancy
  C  C0  1  0.43284300  0.90984800  0.82943100  1
  C  C1  1  0.06766900  0.93233100  0.25000000  1
  C  C2  1  0.09015200  0.56715700  0.67056900  1
  C  C3  1  0.42614600  0.57385400  0.75000000  1
  C  C4  1  0.57385400  0.42614600  0.25000000  1
  C  C5  1  0.90984800  0.43284300  0.32943100  1
  C  C6  1  0.93233100  0.06766900  0.75000000  1
  C  C7  1  0.56715700  0.09015200  0.17056900  1
  Ni  Ni8  1  0.97625100  0.78343900  0.77461300  1
  Ni  Ni9  1  0.78343900  0.97625100  0.27461300  1
  Ni  Ni10  1  0.53893100  0.72614000  0.03442600  1
  Ni  Ni11  1  0.27386000  0.46106900  0.46557400  1
  Ni  Ni12  1  0.72614000  0.53893100  0.53442600  1
  Ni  Ni13  1  0.46106900  0.27386000  0.96557400  1
  Ni  Ni14  1  0.21656100  0.02374900  0.72538700  1
  Ni  Ni15  1  0.02374900  0.21656100  0.22538700  1
  Cu  Cu16  1  0.25365800  0.91560700  0.54267800  1
  Cu  Cu17  1  0.72750300  0.97383900  0.73585400  1
  Cu  Cu18  1  0.53425500  0.78721500  0.43303800  1
  Cu  Cu19  1  0.78721500  0.53425500  0.93303800  1
  Cu  Cu20  1  0.39879900  0.73758200  0.31539000  1
  Cu  Cu21  1  0.08439300  0.74634200  0.95732200  1
  Cu  Cu22  1  0.73758200  0.39879900  0.81539000  1
  Cu  Cu23  1  0.97383900  0.72750300  0.23585400  1
  Cu  Cu24  1  0.02616100  0.27249700  0.76414600  1
  Cu  Cu25  1  0.26241800  0.60120100  0.18461000  1
  Cu  Cu26  1  0.91560700  0.25365800  0.04267800  1
  Cu  Cu27  1  0.60120100  0.26241800  0.68461000  1
  Cu  Cu28  1  0.21278500  0.46574500  0.06696200  1
  Cu  Cu29  1  0.46574500  0.21278500  0.56696200  1
  Cu  Cu30  1  0.27249700  0.02616100  0.26414600  1
  Cu  Cu31  1  0.74634200  0.08439300  0.45732200  1
  C  C32  1  0.78405400  0.94927400  0.02322300  1
  C  C33  1  0.24698700  0.64723700  0.66774200  1
  C  C34  1  0.94927400  0.78405400  0.52322300  1
  C  C35  1  0.46520200  0.66797500  0.87138400  1
  C  C36  1  0.23701100  0.89281300  0.05594200  1
  C  C37  1  0.33202500  0.53479800  0.62861600  1
  C  C38  1  0.35276300  0.75301300  0.83225800  1
  C  C39  1  0.10718700  0.76298900  0.44405800  1
  C  C40  1  0.89281300  0.23701100  0.55594200  1
  C  C41  1  0.64723700  0.24698700  0.16774200  1
  C  C42  1  0.66797500  0.46520200  0.37138400  1
  C  C43  1  0.76298900  0.10718700  0.94405800  1
  C  C44  1  0.53479800  0.33202500  0.12861600  1
  C  C45  1  0.05072600  0.21594600  0.47677700  1
  C  C46  1  0.75301300  0.35276300  0.33225800  1
  C  C47  1  0.21594600  0.05072600  0.97677700  1
  C  C48  1  0.99154600  0.78991100  0.89045900  1
  C  C49  1  0.87515400  0.92489700  0.72355600  1
  C  C50  1  0.63793900  0.91353200  0.32354500  1
  C  C51  1  0.60474600  0.87620500  0.87758400  1
  C  C52  1  0.39352200  0.82987400  0.53954000  1
  C  C53  1  0.13953200  0.80109700  0.63164400  1
  C  C54  1  0.72039000  0.98352900  0.61476600  1
  C  C55  1  0.73684300  0.01833400  0.97432400  1
  C  C56  1  0.19890300  0.86046800  0.86835600  1
  C  C57  1  0.29302500  0.86875400  0.29023400  1
  C  C58  1  0.78991100  0.99154600  0.39045900  1
  C  C59  1  0.91353200  0.63793900  0.82354500  1
  C  C60  1  0.49488000  0.76499000  0.34907000  1
  C  C61  1  0.44890900  0.72439000  0.79448300  1
  C  C62  1  0.27561000  0.55109100  0.70551700  1
  C  C63  1  0.01833400  0.73684300  0.47432400  1
  C  C64  1  0.49328800  0.71853300  0.18352800  1
  C  C65  1  0.76499000  0.49488000  0.84907000  1
  C  C66  1  0.30061500  0.60808600  0.45012800  1
  C  C67  1  0.92489700  0.87515400  0.22355600  1
  C  C68  1  0.17012600  0.60647800  0.96046000  1
  C  C69  1  0.59019500  0.65032200  0.52414500  1
  C  C70  1  0.01647100  0.27961000  0.88523400  1
  C  C71  1  0.12379500  0.39525400  0.62241600  1
  C  C72  1  0.71853300  0.49328800  0.68352800  1
  C  C73  1  0.13124600  0.70697500  0.20976600  1
  C  C74  1  0.39191400  0.69938500  0.04987200  1
  C  C75  1  0.65032200  0.59019500  0.02414500  1
  C  C76  1  0.34967800  0.40980500  0.97585500  1
  C  C77  1  0.60808600  0.30061500  0.95012800  1
  C  C78  1  0.86875400  0.29302500  0.79023400  1
  C  C79  1  0.28146700  0.50671200  0.31647200  1
  C  C80  1  0.87620500  0.60474600  0.37758400  1
  C  C81  1  0.98352900  0.72039000  0.11476600  1
  C  C82  1  0.40980500  0.34967800  0.47585500  1
  C  C83  1  0.82987400  0.39352200  0.03954000  1
  C  C84  1  0.07510300  0.12484600  0.77644400  1
  C  C85  1  0.69938500  0.39191400  0.54987200  1
  C  C86  1  0.23501000  0.50512000  0.15093000  1
  C  C87  1  0.50671200  0.28146700  0.81647200  1
  C  C88  1  0.98166600  0.26315700  0.52567600  1
  C  C89  1  0.72439000  0.44890900  0.29448300  1
  C  C90  1  0.55109100  0.27561000  0.20551700  1
  C  C91  1  0.50512000  0.23501000  0.65093000  1
  C  C92  1  0.08646800  0.36206100  0.17645500  1
  C  C93  1  0.21008900  0.00845400  0.60954100  1
  C  C94  1  0.70697500  0.13124600  0.70976600  1
  C  C95  1  0.80109700  0.13953200  0.13164400  1
  C  C96  1  0.26315700  0.98166600  0.02567600  1
  C  C97  1  0.27961000  0.01647100  0.38523400  1
  C  C98  1  0.86046800  0.19890300  0.36835600  1
  C  C99  1  0.60647800  0.17012600  0.46046000  1
  C  C100  1  0.39525400  0.12379500  0.12241600  1
  C  C101  1  0.36206100  0.08646800  0.67645500  1
  C  C102  1  0.12484600  0.07510300  0.27644400  1
  C  C103  1  0.00845400  0.21008900  0.10954100  1
