# generated using pymatgen
data_Cu7Ni11C65
_symmetry_space_group_name_H-M   'P 1'
_cell_length_a   12.08672600
_cell_length_b   12.45522932
_cell_length_c   12.79279253
_cell_angle_alpha   90.17142058
_cell_angle_beta   91.25661537
_cell_angle_gamma   90.04184286
_symmetry_Int_Tables_number   1
_chemical_formula_structural   Cu7Ni11C65
_chemical_formula_sum   'Cu7 Ni11 C65'
_cell_volume   1925.39225559
_cell_formula_units_Z   1
loop_
 _symmetry_equiv_pos_site_id
 _symmetry_equiv_pos_as_xyz
  1  'x, y, z'
loop_
 _atom_site_type_symbol
 _atom_site_label
 _atom_site_symmetry_multiplicity
 _atom_site_fract_x
 _atom_site_fract_y
 _atom_site_fract_z
 _atom_site_occupancy
  C  C0  1  0.44446700  0.00255200  0.60524300  1
  C  C1  1  0.00405100  0.39459600  0.57084900  1
  C  C2  1  0.97937600  0.60431100  0.57427300  1
  C  C3  1  0.18891200  0.80120900  0.78519200  1
  Ni  Ni4  1  0.99845900  0.18885700  0.36680500  1
  Ni  Ni5  1  0.20364100  0.00140800  0.37729000  1
  Ni  Ni6  1  0.00360900  0.81129800  0.37045500  1
  Ni  Ni7  1  0.78883000  0.99711500  0.61127900  1
  Ni  Ni8  1  0.99443700  0.18422400  0.61462100  1
  Ni  Ni9  1  0.19767700  0.00097200  0.61973500  1
  Ni  Ni10  1  0.99461400  0.81607400  0.61772700  1
  Ni  Ni11  1  0.63481600  0.00204500  0.82596100  1
  Ni  Ni12  1  0.99585300  0.37053300  0.81844700  1
  Ni  Ni13  1  0.00039600  0.62808200  0.81845600  1
  Ni  Ni14  1  0.35768100  0.99761100  0.83991400  1
  C  C15  1  0.63530600  0.18417400  0.00100400  1
  C  C16  1  0.81273300  0.37165300  0.99911300  1
  C  C17  1  0.18659900  0.37149000  0.00688300  1
  C  C18  1  0.63440200  0.81612900  0.99943700  1
  C  C19  1  0.18792700  0.62712100  0.00630200  1
  C  C20  1  0.36868500  0.81402500  0.00522000  1
  C  C21  1  0.63736100  0.00134500  0.17213500  1
  C  C22  1  0.00147100  0.37241100  0.17850000  1
  C  C23  1  0.00232900  0.62610000  0.17805500  1
  C  C24  1  0.37721800  0.00124900  0.17867300  1
  C  C25  1  0.81323700  0.00177000  0.36387200  1
  C  C26  1  0.36874300  0.18543300  0.00487700  1
  C  C27  1  0.81312500  0.62603100  0.99680100  1
  Cu  Cu28  1  0.19246900  0.81544400  0.20417600  1
  Cu  Cu29  1  0.19099500  0.18894400  0.20815000  1
  Cu  Cu30  1  0.81247800  0.80209100  0.20005800  1
  Cu  Cu31  1  0.16772300  0.17553300  0.80216400  1
  Cu  Cu32  1  0.82692100  0.17238900  0.79975700  1
  Cu  Cu33  1  0.82505500  0.82764800  0.79942200  1
  Cu  Cu34  1  0.99323600  0.00387200  0.76803600  1
  C  C35  1  0.50115200  0.21076500  0.99528800  1
  C  C36  1  0.30095400  0.29946100  0.01642200  1
  C  C37  1  0.21927400  0.49934600  0.01371400  1
  C  C38  1  0.30151900  0.69981100  0.02047500  1
  C  C39  1  0.34787100  0.11340600  0.11250500  1
  C  C40  1  0.88973200  0.64862400  0.10438400  1
  C  C41  1  0.11318800  0.65857800  0.11008800  1
  C  C42  1  0.34518600  0.89068800  0.10952800  1
  C  C43  1  0.66054400  0.10866100  0.10400200  1
  C  C44  1  0.89405500  0.35528100  0.10144700  1
  C  C45  1  0.11578800  0.34141200  0.11277700  1
  C  C46  1  0.66521200  0.88892500  0.10577200  1
  C  C47  1  0.50828900  0.99732300  0.20177800  1
  C  C48  1  0.00962100  0.50013200  0.21000800  1
  C  C49  1  0.31056300  0.00074800  0.28373000  1
  C  C50  1  0.99569300  0.70266000  0.27807700  1
  C  C51  1  0.70833800  0.99612300  0.27794700  1
  C  C52  1  0.99894800  0.30037800  0.28063700  1
  C  C53  1  0.88539700  0.10624300  0.33830400  1
  C  C54  1  0.12343700  0.11734800  0.34986800  1
  C  C55  1  0.88302500  0.88930900  0.34117300  1
  C  C56  1  0.12453400  0.88392200  0.34776300  1
  C  C57  1  0.75807400  0.00003200  0.47785900  1
  C  C58  1  0.99011900  0.24425500  0.49222300  1
  C  C59  1  0.99658900  0.75489400  0.49461500  1
  C  C60  1  0.26584500  0.99834500  0.50183100  1
  C  C61  1  0.87800000  0.10642500  0.64486100  1
  C  C62  1  0.11861700  0.11730600  0.64279400  1
  C  C63  1  0.86866500  0.88091300  0.64171800  1
  C  C64  1  0.10548400  0.89771200  0.65307200  1
  C  C65  1  0.29923600  0.99113000  0.71731400  1
  C  C66  1  0.00798700  0.71186700  0.71093800  1
  C  C67  1  0.68051200  0.00034200  0.69875700  1
  C  C68  1  0.99659000  0.28792800  0.70926100  1
  C  C69  1  0.99466200  0.49945800  0.76455200  1
  C  C70  1  0.49577600  0.00385600  0.83010600  1
  C  C71  1  0.31309900  0.11662800  0.90911700  1
  C  C72  1  0.88181400  0.66182000  0.89500800  1
  C  C73  1  0.12106500  0.65652900  0.89918500  1
  C  C74  1  0.31737400  0.87572800  0.90462600  1
  C  C75  1  0.68106200  0.11956700  0.89969500  1
  C  C76  1  0.87698700  0.33738100  0.89377000  1
  C  C77  1  0.11547400  0.34322600  0.90159700  1
  C  C78  1  0.67769500  0.88178000  0.89884700  1
  C  C79  1  0.70105600  0.29870500  0.01346600  1
  C  C80  1  0.77725300  0.49968800  0.99391800  1
  C  C81  1  0.70303600  0.70226400  0.01072400  1
  C  C82  1  0.50177800  0.78774400  0.00028000  1
