# generated using pymatgen
data_Cu19Ni8C7
_symmetry_space_group_name_H-M   'P 1'
_cell_length_a   9.14923690
_cell_length_b   9.14923690
_cell_length_c   22.05846383
_cell_angle_alpha   88.33633112
_cell_angle_beta   88.33633112
_cell_angle_gamma   81.81620982
_symmetry_Int_Tables_number   1
_chemical_formula_structural   Cu19Ni8C7
_chemical_formula_sum   'Cu38 Ni16 C14'
_cell_volume   1826.32909537
_cell_formula_units_Z   2
loop_
 _symmetry_equiv_pos_site_id
 _symmetry_equiv_pos_as_xyz
  1  'x, y, z'
loop_
 _atom_site_type_symbol
 _atom_site_label
 _atom_site_symmetry_multiplicity
 _atom_site_fract_x
 _atom_site_fract_y
 _atom_site_fract_z
 _atom_site_occupancy
  Ni  Ni0  1  0.09605900  0.72527200  0.32229500  1
  Ni  Ni1  1  0.77963400  0.97403300  0.00251500  1
  Ni  Ni2  1  0.46985300  0.23559400  0.10506000  1
  Ni  Ni3  1  0.76440600  0.53014700  0.39494000  1
  Ni  Ni4  1  0.39868900  0.36937400  0.44691800  1
  Ni  Ni5  1  0.27472800  0.90394100  0.17770500  1
  Ni  Ni6  1  0.02596700  0.22036600  0.49748500  1
  Ni  Ni7  1  0.90394100  0.27472800  0.67770500  1
  Ni  Ni8  1  0.36937400  0.39868900  0.94691800  1
  Ni  Ni9  1  0.97403300  0.77963400  0.50251500  1
  Ni  Ni10  1  0.72527200  0.09605900  0.82229500  1
  Ni  Ni11  1  0.53014700  0.76440600  0.89494000  1
  Ni  Ni12  1  0.63062600  0.60131100  0.05308200  1
  Ni  Ni13  1  0.22036600  0.02596700  0.99748500  1
  Ni  Ni14  1  0.60131100  0.63062600  0.55308200  1
  Ni  Ni15  1  0.23559400  0.46985300  0.60506000  1
  C  C16  1  0.92603000  0.37301900  0.93015400  1
  C  C17  1  0.07397000  0.62698100  0.06984600  1
  C  C18  1  0.49609400  0.50390600  0.25000000  1
  C  C19  1  0.90522300  0.25515000  0.12753200  1
  C  C20  1  0.25515000  0.90522300  0.62753200  1
  C  C21  1  0.62698100  0.07397000  0.56984600  1
  C  C22  1  0.12778400  0.26773500  0.31172600  1
  C  C23  1  0.50390600  0.49609400  0.75000000  1
  C  C24  1  0.26773500  0.12778400  0.81172600  1
  C  C25  1  0.87221600  0.73226500  0.68827400  1
  C  C26  1  0.74485000  0.09477700  0.37246800  1
  C  C27  1  0.09477700  0.74485000  0.87246800  1
  C  C28  1  0.37301900  0.92603000  0.43015400  1
  C  C29  1  0.73226500  0.87221600  0.18827400  1
  Cu  Cu30  1  0.67668600  0.87307200  0.47798300  1
  Cu  Cu31  1  0.03562800  0.05030500  0.91783000  1
  Cu  Cu32  1  0.82416300  0.74624600  0.32206900  1
  Cu  Cu33  1  0.27234500  0.72531200  0.97352000  1
  Cu  Cu34  1  0.72531200  0.27234500  0.47352000  1
  Cu  Cu35  1  0.59142700  0.49082400  0.88144700  1
  Cu  Cu36  1  0.05030500  0.03562800  0.41783000  1
  Cu  Cu37  1  0.49082400  0.59142700  0.38144700  1
  Cu  Cu38  1  0.12692800  0.32331400  0.02201700  1
  Cu  Cu39  1  0.43037200  0.11028400  0.92680000  1
  Cu  Cu40  1  0.63895400  0.18949500  0.19000500  1
  Cu  Cu41  1  0.46309600  0.82549000  0.25255100  1
  Cu  Cu42  1  0.94969500  0.96437200  0.58217000  1
  Cu  Cu43  1  0.17451000  0.53690400  0.24744900  1
  Cu  Cu44  1  0.05674500  0.94325500  0.25000000  1
  Cu  Cu45  1  0.11028400  0.43037200  0.42680000  1
  Cu  Cu46  1  0.94325500  0.05674500  0.75000000  1
  Cu  Cu47  1  0.32331400  0.12692800  0.52201700  1
  Cu  Cu48  1  0.74624600  0.82416300  0.82206900  1
  Cu  Cu49  1  0.81050500  0.36104600  0.30999500  1
  Cu  Cu50  1  0.88971600  0.56962800  0.57320000  1
  Cu  Cu51  1  0.96437200  0.94969500  0.08217000  1
  Cu  Cu52  1  0.82549000  0.46309600  0.75255100  1
  Cu  Cu53  1  0.40857300  0.50917600  0.11855300  1
  Cu  Cu54  1  0.72765500  0.27468800  0.02648000  1
  Cu  Cu55  1  0.56626600  0.78780200  0.64119100  1
  Cu  Cu56  1  0.21219800  0.43373400  0.85880900  1
  Cu  Cu57  1  0.18949500  0.63895400  0.69000500  1
  Cu  Cu58  1  0.36104600  0.81050500  0.80999500  1
  Cu  Cu59  1  0.50917600  0.40857300  0.61855300  1
  Cu  Cu60  1  0.43373400  0.21219800  0.35880900  1
  Cu  Cu61  1  0.56962800  0.88971600  0.07320000  1
  Cu  Cu62  1  0.27468800  0.72765500  0.52648000  1
  Cu  Cu63  1  0.87307200  0.67668600  0.97798300  1
  Cu  Cu64  1  0.78780200  0.56626600  0.14119100  1
  Cu  Cu65  1  0.53690400  0.17451000  0.74744900  1
  Cu  Cu66  1  0.25375400  0.17583700  0.17793100  1
  Cu  Cu67  1  0.17583700  0.25375400  0.67793100  1
