# generated using pymatgen
data_Cu6Ni6C43
_symmetry_space_group_name_H-M   'P 1'
_cell_length_a   3.88043100
_cell_length_b   3.88043100
_cell_length_c   52.81969000
_cell_angle_alpha   90.00000000
_cell_angle_beta   90.00000000
_cell_angle_gamma   90.00000000
_symmetry_Int_Tables_number   1
_chemical_formula_structural   Cu6Ni6C43
_chemical_formula_sum   'Cu6 Ni6 C43'
_cell_volume   795.34540957
_cell_formula_units_Z   1
loop_
 _symmetry_equiv_pos_site_id
 _symmetry_equiv_pos_as_xyz
  1  'x, y, z'
loop_
 _atom_site_type_symbol
 _atom_site_label
 _atom_site_symmetry_multiplicity
 _atom_site_fract_x
 _atom_site_fract_y
 _atom_site_fract_z
 _atom_site_occupancy
  Ni  Ni0  1  0.50000000  0.50000000  0.74888600  1
  Ni  Ni1  1  0.50000000  0.50000000  0.05107500  1
  Ni  Ni2  1  0.50000000  0.50000000  0.25111400  1
  Ni  Ni3  1  0.50000000  0.50000000  0.94892500  1
  Ni  Ni4  1  0.00000000  0.00000000  0.59875900  1
  Ni  Ni5  1  0.00000000  0.00000000  0.40124100  1
  Cu  Cu6  1  0.00000000  0.00000000  0.46872000  1
  Cu  Cu7  1  0.00000000  0.00000000  0.53128000  1
  Cu  Cu8  1  0.50000000  0.50000000  0.81607900  1
  Cu  Cu9  1  0.50000000  0.50000000  0.87859400  1
  Cu  Cu10  1  0.50000000  0.50000000  0.18392100  1
  Cu  Cu11  1  0.50000000  0.50000000  0.12140600  1
  C  C12  1  0.50000000  0.50000000  0.34771300  1
  C  C13  1  0.50000000  0.50000000  0.65228700  1
  C  C14  1  0.00000000  0.00000000  0.30435700  1
  C  C15  1  0.00000000  0.00000000  0.00000000  1
  C  C16  1  0.00000000  0.00000000  0.69564300  1
  C  C17  1  0.00000000  0.00000000  0.21428500  1
  C  C18  1  0.00000000  0.00000000  0.84638300  1
  C  C19  1  0.50000000  0.50000000  0.43806200  1
  C  C20  1  0.00000000  0.00000000  0.15361700  1
  C  C21  1  0.50000000  0.50000000  0.56193800  1
  C  C22  1  0.00000000  0.00000000  0.09085300  1
  C  C23  1  0.00000000  0.00000000  0.90914700  1
  C  C24  1  0.00000000  0.00000000  0.78571500  1
  C  C25  1  0.50000000  0.50000000  0.50000000  1
  C  C26  1  0.00000000  0.50000000  0.78593000  1
  C  C27  1  0.50000000  0.00000000  0.15388000  1
  C  C28  1  0.00000000  0.50000000  0.21407000  1
  C  C29  1  0.50000000  0.50000000  0.61369300  1
  C  C30  1  0.00000000  0.50000000  0.56132500  1
  C  C31  1  0.00000000  0.50000000  0.90629900  1
  C  C32  1  0.50000000  0.00000000  0.78593000  1
  C  C33  1  0.50000000  0.50000000  0.69175300  1
  C  C34  1  0.00000000  0.00000000  0.26585200  1
  C  C35  1  0.00000000  0.00000000  0.96016800  1
  C  C36  1  0.50000000  0.00000000  0.43867500  1
  C  C37  1  0.50000000  0.00000000  0.90629900  1
  C  C38  1  0.50000000  0.50000000  0.30824700  1
  C  C39  1  0.00000000  0.50000000  0.15388000  1
  C  C40  1  0.50000000  0.00000000  0.56132500  1
  C  C41  1  0.00000000  0.00000000  0.34382900  1
  C  C42  1  0.50000000  0.50000000  0.38630700  1
  C  C43  1  0.50000000  0.00000000  0.09370100  1
  C  C44  1  0.50000000  0.00000000  0.21407000  1
  C  C45  1  0.50000000  0.00000000  0.50000000  1
  C  C46  1  0.00000000  0.00000000  0.73414800  1
  C  C47  1  0.00000000  0.50000000  0.84612000  1
  C  C48  1  0.00000000  0.00000000  0.03983200  1
  C  C49  1  0.00000000  0.00000000  0.65617100  1
  C  C50  1  0.00000000  0.50000000  0.43867500  1
  C  C51  1  0.50000000  0.00000000  0.84612000  1
  C  C52  1  0.00000000  0.50000000  0.09370100  1
  C  C53  1  0.00000000  0.50000000  0.50000000  1
  C  C54  1  0.50000000  0.50000000  0.00000000  1
