# generated using pymatgen
data_Cu2NiC5
_symmetry_space_group_name_H-M   'P 1'
_cell_length_a   6.97044800
_cell_length_b   7.92684821
_cell_length_c   12.19507807
_cell_angle_alpha   94.59187261
_cell_angle_beta   97.52035318
_cell_angle_gamma   107.87197957
_symmetry_Int_Tables_number   1
_chemical_formula_structural   Cu2NiC5
_chemical_formula_sum   'Cu8 Ni4 C20'
_cell_volume   630.60915971
_cell_formula_units_Z   4
loop_
 _symmetry_equiv_pos_site_id
 _symmetry_equiv_pos_as_xyz
  1  'x, y, z'
loop_
 _atom_site_type_symbol
 _atom_site_label
 _atom_site_symmetry_multiplicity
 _atom_site_fract_x
 _atom_site_fract_y
 _atom_site_fract_z
 _atom_site_occupancy
  C  C0  1  0.51801700  0.69782100  0.37459300  1
  C  C1  1  0.48198300  0.30217900  0.62540700  1
  C  C2  1  0.12376800  0.70773500  0.15530900  1
  C  C3  1  0.87623200  0.29226500  0.84469100  1
  C  C4  1  0.10975800  0.70512300  0.58185600  1
  C  C5  1  0.89024200  0.29487700  0.41814400  1
  C  C6  1  0.72931900  0.68222000  0.63507300  1
  C  C7  1  0.27068100  0.31778000  0.36492700  1
  C  C8  1  0.07873000  0.71654300  0.72265800  1
  C  C9  1  0.92127000  0.28345700  0.27734200  1
  C  C10  1  0.88673100  0.67046900  0.90127300  1
  C  C11  1  0.11326900  0.32953100  0.09872700  1
  C  C12  1  0.54626300  0.70631200  0.82476900  1
  C  C13  1  0.45373700  0.29368800  0.17523100  1
  C  C14  1  0.53195200  0.71441800  0.96825400  1
  C  C15  1  0.46804800  0.28558200  0.03174600  1
  Ni  Ni16  1  0.14679700  0.95520400  0.65895500  1
  Ni  Ni17  1  0.85320300  0.04479600  0.34104500  1
  Ni  Ni18  1  0.68202500  0.95141200  0.91795400  1
  Ni  Ni19  1  0.31797500  0.04858800  0.08204600  1
  Cu  Cu20  1  0.47514900  0.35849500  0.36871000  1
  Cu  Cu21  1  0.52485100  0.64150500  0.63129000  1
  Cu  Cu22  1  0.15902900  0.67595500  0.36789500  1
  Cu  Cu23  1  0.84097100  0.32404500  0.63210500  1
  Cu  Cu24  1  0.46583000  0.68070400  0.16226500  1
  Cu  Cu25  1  0.53417000  0.31929600  0.83773500  1
  Cu  Cu26  1  0.93324600  0.35977700  0.10307500  1
  Cu  Cu27  1  0.06675400  0.64022300  0.89692500  1
  C  C28  1  0.10764400  0.78546500  0.65339500  1
  C  C29  1  0.89235600  0.21453500  0.34660500  1
  C  C30  1  0.58384800  0.78376300  0.90297800  1
  C  C31  1  0.41615200  0.21623700  0.09702200  1
