# generated using pymatgen
data_Cu25NiC40
_symmetry_space_group_name_H-M   'P 1'
_cell_length_a   8.97603890
_cell_length_b   8.97603853
_cell_length_c   53.84457858
_cell_angle_alpha   109.48157051
_cell_angle_beta   109.46903305
_cell_angle_gamma   109.47182109
_symmetry_Int_Tables_number   1
_chemical_formula_structural   Cu25NiC40
_chemical_formula_sum   'Cu75 Ni3 C120'
_cell_volume   3339.20088091
_cell_formula_units_Z   3
loop_
 _symmetry_equiv_pos_site_id
 _symmetry_equiv_pos_as_xyz
  1  'x, y, z'
loop_
 _atom_site_type_symbol
 _atom_site_label
 _atom_site_symmetry_multiplicity
 _atom_site_fract_x
 _atom_site_fract_y
 _atom_site_fract_z
 _atom_site_occupancy
  Ni  Ni0  1  0.99976600  0.99977341  0.33332749  1
  Ni  Ni1  1  -0.00011267  -0.00011267  0.16666700  1
  Ni  Ni2  1  -0.00019351  -0.00020093  0.00000551  1
  Cu  Cu3  1  0.16622880  0.86530453  0.94550558  1
  Cu  Cu4  1  0.13830446  0.30441002  0.96818124  1
  Cu  Cu5  1  0.19487060  0.50335210  0.88967966  1
  Cu  Cu6  1  0.30975105  0.80786873  0.85732641  1
  Cu  Cu7  1  0.16597166  0.85872285  0.77768676  1
  Cu  Cu8  1  0.50419628  0.69800471  0.97298215  1
  Cu  Cu9  1  0.00049296  0.00046600  0.83343740  1
  Cu  Cu10  1  0.33643010  0.19624936  0.91757799  1
  Cu  Cu11  1  0.14172780  0.30750501  0.80132110  1
  Cu  Cu12  1  0.19256078  0.50044199  0.72238159  1
  Cu  Cu13  1  0.69920112  0.83702897  0.91809329  1
  Cu  Cu14  1  0.30785423  0.80742992  0.69030808  1
  Cu  Cu15  1  0.50174383  0.33588992  0.86602523  1
  Cu  Cu16  1  0.16615445  0.85827323  0.61095241  1
  Cu  Cu17  1  0.67032623  0.16541773  0.97757446  1
  Cu  Cu18  1  0.49966340  0.69184151  0.80560632  1
  Cu  Cu19  1  0.00006195  0.00006195  0.66666700  1
  Cu  Cu20  1  0.33438034  0.19255473  0.75008749  1
  Cu  Cu21  1  0.14174049  0.30791650  0.63453507  1
  Cu  Cu22  1  0.83644100  0.50559478  0.94989314  1
  Cu  Cu23  1  0.86142660  0.66806052  0.86164805  1
  Cu  Cu24  1  0.69220255  0.83385314  0.74993093  1
  Cu  Cu25  1  0.19260032  0.49984913  0.55564624  1
  Cu  Cu26  1  0.16527212  0.85679061  0.44365334  1
  Cu  Cu27  1  0.50070407  0.33452806  0.69879793  1
  Cu  Cu28  1  0.30653427  0.80599700  0.52332699  1
  Cu  Cu29  1  0.80709875  0.14148815  0.88499849  1
  Cu  Cu30  1  0.49955042  0.69222851  0.63899721  1
  Cu  Cu31  1  0.66603709  0.16657436  0.81000701  1
  Cu  Cu32  1  0.99983963  0.99986659  0.49989560  1
  Cu  Cu33  1  0.33426557  0.19261499  0.58340207  1
  Cu  Cu34  1  0.13974055  0.30559445  0.46730877  1
  Cu  Cu35  1  0.83428012  0.49985556  0.78223451  1
  Cu  Cu36  1  0.85824722  0.66556914  0.69433679  1
  Cu  Cu37  1  0.19227104  0.49319531  0.38782742  1
  Cu  Cu38  1  0.69203180  0.83385741  0.58324651  1
  Cu  Cu39  1  0.29996899  0.80487749  0.35575854  1
  Cu  Cu40  1  0.49957842  0.33380122  0.53201190  1
  Cu  Cu41  1  0.16595672  0.86304783  0.27810596  1
  Cu  Cu42  1  0.80752647  0.14184514  0.71799035  1
  Cu  Cu43  1  0.66557943  0.16600374  0.64302492  1
  Cu  Cu44  1  0.49817025  0.69153633  0.47168495  1
  Cu  Cu45  1  0.32846922  0.19064137  0.41523971  1
  Cu  Cu46  1  0.13665784  0.30305336  0.30088483  1
  Cu  Cu47  1  0.83390103  0.49958237  0.61534265  1
  Cu  Cu48  1  0.85820160  0.66602349  0.52772668  1
  Cu  Cu49  1  0.19487219  0.49743405  0.22192106  1
  Cu  Cu50  1  0.69077945  0.83096019  0.41575501  1
  Cu  Cu51  1  0.49532460  0.32921904  0.36515276  1
  Cu  Cu52  1  0.30274290  0.80545711  0.18946394  1
  Cu  Cu53  1  0.16590966  0.86334781  0.11141294  1
  Cu  Cu54  1  0.80645051  0.14087507  0.55109949  1
  Cu  Cu55  1  0.66391029  0.16579261  0.47600659  1
  Cu  Cu56  1  0.50305111  0.69839543  0.30585909  1
  Cu  Cu57  1  0.33123139  0.19462079  0.24950712  1
  Cu  Cu58  1  0.83149718  0.49710778  0.44833451  1
  Cu  Cu59  1  0.13694137  0.30280599  0.13428743  1
  Cu  Cu60  1  0.19441004  0.49731893  0.05522704  1
  Cu  Cu61  1  0.86011180  0.66630338  0.36035085  1
  Cu  Cu62  1  0.69769236  0.83434735  0.25054611  1
  Cu  Cu63  1  0.49707940  0.33121478  0.19904557  1
  Cu  Cu64  1  0.30359824  0.80680906  0.02309264  1
  Cu  Cu65  1  0.80623396  0.13708018  0.38343986  1
  Cu  Cu66  1  0.66825521  0.16504438  0.31024136  1
  Cu  Cu67  1  0.50293570  0.69725858  0.13905905  1
  Cu  Cu68  1  0.33106872  0.19441372  0.08278689  1
  Cu  Cu69  1  0.83367868  0.50254646  0.28267331  1
  Cu  Cu70  1  0.86290626  0.66858338  0.19427495  1
  Cu  Cu71  1  0.69758006  0.83419066  0.08382688  1
  Cu  Cu72  1  0.49774439  0.33134887  0.03244817  1
  Cu  Cu73  1  0.80556611  0.13673186  0.21712932  1
  Cu  Cu74  1  0.66867146  0.16595725  0.14386906  1
  Cu  Cu75  1  0.83395391  0.50278816  0.11620368  1
  Cu  Cu76  1  0.86323889  0.66789457  0.02747391  1
  Cu  Cu77  1  0.80650858  0.13764079  0.05066069  1
  C  C78  1  0.25812394  0.64625128  0.97946377  1
  C  C79  1  0.12377910  0.76298047  0.89749759  1
  C  C80  1  0.00068719  0.62610129  0.83390090  1
  C  C81  1  0.00283084  0.00307238  0.93557358  1
  C  C82  1  0.23976630  0.36226934  0.93727117  1
  C  C83  1  0.00017980  0.24062877  0.83349032  1
  C  C84  1  0.00151401  0.00031469  0.87352952  1
  C  C85  1  0.39405043  0.74835693  0.93733901  1
  C  C86  1  0.25603204  0.64070305  0.81321595  1
  C  C87  1  0.38435540  0.12695829  0.96200040  1
  C  C88  1  0.12328437  0.76306624  0.72973173  1
  C  C89  1  0.36103398  0.61597019  0.87328406  1
  C  C90  1  0.37685407  0.37687781  0.89664752  1
  C  C91  1  0.00011664  0.00020661  0.77077801  1
  C  C92  1  -0.00001117  0.62508148  0.66664279  1
  C  C93  1  0.24128456  0.00199232  0.83348598  1
  C  C94  1  0.62300740  0.39392334  0.95836524  1
  C  C95  1  0.23744289  0.36060427  0.76929528  1
  C  C96  1  0.79867436  0.79729925  0.96633881  1
  C  C97  1  0.99985852  0.23938749  0.66667761  1
  C  C98  1  0.99990947  0.99998037  0.70653107  1
  C  C99  1  0.38574011  0.74543420  0.77053791  1
  C  C100  1  0.64100784  0.87901986  0.87712535  1
  C  C101  1  0.25489546  0.64003717  0.64615717  1
  C  C102  1  0.61631709  0.23812782  0.89378337  1
  C  C103  1  0.37794167  0.12317724  0.79387670  1
  C  C104  1  0.74871633  0.62287983  0.89916712  1
  C  C105  1  0.12220677  0.76251267  0.56279509  1
  C  C106  1  0.36008364  0.61500438  0.70619619  1
  C  C107  1  0.37485769  0.37485104  0.72917373  1
  C  C108  1  -0.00019334  0.99981331  0.60415927  1
  C  C109  1  0.99722849  0.62275023  0.49948223  1
  C  C110  1  0.23932382  0.99979486  0.66665639  1
  C  C111  1  0.62244281  0.38506929  0.79094613  1
  C  C112  1  0.23697709  0.35968696  0.60241315  1
  C  C113  1  0.87631412  0.25869789  0.94103117  1
  C  C114  1  0.76020842  0.76013454  0.79340474  1
  C  C115  1  0.00107446  0.24036670  0.49984702  1
  C  C116  1  0.99970411  0.99977800  0.53992826  1
  C  C117  1  0.62585688  0.00033514  0.83385077  1
  C  C118  1  0.38467584  0.74489397  0.60360127  1
  C  C119  1  0.76264213  0.37896770  0.85413868  1
  C  C120  1  0.63995006  0.87710892  0.70918022  1
  C  C121  1  0.25413764  0.63781207  0.47919532  1
  C  C122  1  0.61568238  0.23789349  0.72682274  1
  C  C123  1  0.37782924  0.12290850  0.62713781  1
  C  C124  1  0.74520604  0.62249616  0.73091985  1
  C  C125  1  0.12432489  0.77001839  0.39599499  1
  C  C126  1  0.35991505  0.61467948  0.53945630  1
  C  C127  1  0.37554055  0.37545057  0.56255599  1
  C  C128  1  0.99699269  0.99696895  0.43668548  1
  C  C129  1  0.99908463  0.60689064  0.33276898  1
  C  C130  1  0.23968487  0.99923589  0.49984268  1
  C  C131  1  0.62202957  0.38487071  0.62415378  1
  C  C132  1  0.22787911  0.35371561  0.43416688  1
  C  C133  1  0.87755310  0.25521941  0.77347791  1
  C  C134  1  0.76079597  0.76072507  0.62680293  1
  C  C135  1  0.00020059  0.20256750  0.33327654  1
  C  C136  1  0.99926641  0.00064152  0.36699419  1
  C  C137  1  0.62522674  0.00013409  0.66669121  1
  C  C138  1  0.37799692  0.73879555  0.43583641  1
  C  C139  1  0.76309213  0.37795043  0.68717583  1
  C  C140  1  0.63939051  0.87676403  0.54238687  1
  C  C141  1  0.25624676  0.64330942  0.31211591  1
  C  C142  1  0.37626382  0.12132760  0.46004894  1
  C  C143  1  0.61435195  0.23668564  0.55985509  1
  C  C144  1  0.74483261  0.62167123  0.56403772  1
  C  C145  1  0.35495587  0.61235297  0.37133260  1
  C  C146  1  0.12483992  0.76892829  0.23035234  1
  C  C147  1  0.38962891  0.38938738  0.39775942  1
  C  C148  1  -0.00011550  -0.00022691  0.26815231  1
  C  C149  1  0.00022274  0.60929054  0.16670234  1
  C  C150  1  0.20201297  0.99837205  0.33335279  1
  C  C151  1  0.61626573  0.37825372  0.45620765  1
  C  C152  1  0.23059561  0.35556299  0.26879143  1
  C  C153  1  0.87695704  0.25474593  0.60651026  1
  C  C154  1  0.75913559  0.76033491  0.45980348  1
  C  C155  1  0.99990835  0.20150004  0.16661940  1
  C  C156  1  -0.00002498  0.00009070  0.20025398  1
  C  C157  1  0.62269387  0.99727976  0.49943210  1
  C  C158  1  0.38548827  0.74212521  0.26936488  1
  C  C159  1  0.76140735  0.37673633  0.52011705  1
  C  C160  1  0.64373189  0.87281595  0.37496776  1
  C  C161  1  0.25780954  0.64411467  0.14584200  1
  C  C162  1  0.38239125  0.12500464  0.29474038  1
  C  C163  1  0.61251289  0.23012913  0.39230283  1
  C  C164  1  0.73864433  0.61614129  0.39606283  1
  C  C165  1  0.12593590  0.76929897  0.06396812  1
  C  C166  1  0.35598009  0.61378173  0.20511832  1
  C  C167  1  0.39080599  0.39088394  0.23176615  1
  C  C168  1  0.00284158  0.61023011  0.00048987  1
  C  C169  1  0.00028505  0.00020711  0.10156685  1
  C  C170  1  0.20178565  0.00019396  0.16671460  1
  C  C171  1  0.61684359  0.38589834  0.29028024  1
  C  C172  1  0.23123377  0.35653947  0.10239544  1
  C  C173  1  0.87542959  0.25361886  0.43955063  1
  C  C174  1  0.79692831  0.79702787  0.29947671  1
  C  C175  1  0.99825331  0.20189423  0.99998021  1
  C  C176  1  0.00016559  0.00006602  0.03385629  1
  C  C177  1  0.60729087  -0.00009765  0.33284313  1
  C  C178  1  0.38681427  0.74272590  0.10298066  1
  C  C179  1  0.76947067  0.38134333  0.35387023  1
  C  C180  1  0.64394013  0.87502542  0.20954007  1
  C  C181  1  0.38307380  0.12527217  0.12821568  1
  C  C182  1  0.61335244  0.23045320  0.22589961  1
  C  C183  1  0.74216482  0.61685912  0.23093756  1
  C  C184  1  0.35656035  0.61394696  0.03859262  1
  C  C185  1  0.39086122  0.39097262  0.06518169  1
  C  C186  1  0.20290627  0.00053936  0.00005646  1
  C  C187  1  0.61778703  0.38670174  0.12379393  1
  C  C188  1  0.87426002  0.25693314  0.27375571  1
  C  C189  1  0.79856881  0.79845312  0.13308002  1
  C  C190  1  0.60907847  0.00001067  0.16663166  1
  C  C191  1  0.76906065  0.38275552  0.18749100  1
  C  C192  1  0.64421491  0.87516016  0.04305276  1
  C  C193  1  0.61439888  0.23172576  0.05957729  1
  C  C194  1  0.74281443  0.61784705  0.06454157  1
  C  C195  1  0.87505553  0.25795477  0.10743339  1
  C  C196  1  0.61027477  0.00246876  0.00056402  1
  C  C197  1  0.77061397  0.38355130  0.02121709  1
