# generated using pymatgen
data_CuNiC5
_symmetry_space_group_name_H-M   'P 1'
_cell_length_a   5.21371866
_cell_length_b   5.21371866
_cell_length_c   8.81856400
_cell_angle_alpha   90.00000000
_cell_angle_beta   90.00000000
_cell_angle_gamma   120.00000839
_symmetry_Int_Tables_number   1
_chemical_formula_structural   CuNiC5
_chemical_formula_sum   'Cu2 Ni2 C10'
_cell_volume   207.59823217
_cell_formula_units_Z   2
loop_
 _symmetry_equiv_pos_site_id
 _symmetry_equiv_pos_as_xyz
  1  'x, y, z'
loop_
 _atom_site_type_symbol
 _atom_site_label
 _atom_site_symmetry_multiplicity
 _atom_site_fract_x
 _atom_site_fract_y
 _atom_site_fract_z
 _atom_site_occupancy
  Ni  Ni0  1  0.00000000  0.00000000  0.98991000  1
  Ni  Ni1  1  0.00000000  0.00000000  0.48991000  1
  Cu  Cu2  1  0.33333300  0.66666700  0.80266800  1
  Cu  Cu3  1  0.66666700  0.33333300  0.30266800  1
  C  C4  1  0.33333300  0.66666700  0.19233900  1
  C  C5  1  0.66666700  0.33333300  0.69233900  1
  C  C6  1  0.60069500  0.66037100  0.24727400  1
  C  C7  1  0.66037100  0.05967600  0.74727400  1
  C  C8  1  0.33333300  0.66666700  0.02326000  1
  C  C9  1  0.05967600  0.39930500  0.24727400  1
  C  C10  1  0.66666700  0.33333300  0.52326000  1
  C  C11  1  0.33962900  0.94032400  0.24727400  1
  C  C12  1  0.39930500  0.33962900  0.74727400  1
  C  C13  1  0.94032400  0.60069500  0.74727400  1
