# generated using pymatgen
data_Cu2Ni4C3
_symmetry_space_group_name_H-M   'P 1'
_cell_length_a   6.84534900
_cell_length_b   8.37404400
_cell_length_c   8.72801800
_cell_angle_alpha   90.00000000
_cell_angle_beta   90.00000000
_cell_angle_gamma   90.00000000
_symmetry_Int_Tables_number   1
_chemical_formula_structural   Cu2Ni4C3
_chemical_formula_sum   'Cu8 Ni16 C12'
_cell_volume   500.31839030
_cell_formula_units_Z   4
loop_
 _symmetry_equiv_pos_site_id
 _symmetry_equiv_pos_as_xyz
  1  'x, y, z'
loop_
 _atom_site_type_symbol
 _atom_site_label
 _atom_site_symmetry_multiplicity
 _atom_site_fract_x
 _atom_site_fract_y
 _atom_site_fract_z
 _atom_site_occupancy
  Ni  Ni0  1  0.98568300  0.43812900  0.23118700  1
  Ni  Ni1  1  0.47742300  0.93912200  0.84412200  1
  Ni  Ni2  1  0.59215800  0.09144200  0.87707200  1
  Ni  Ni3  1  0.48568300  0.56187100  0.76881300  1
  Ni  Ni4  1  0.97742300  0.06087800  0.15587800  1
  Ni  Ni5  1  0.09215800  0.90855800  0.12292800  1
  Ni  Ni6  1  0.97742300  0.43912200  0.65587800  1
  Ni  Ni7  1  0.09215800  0.59144200  0.62292800  1
  Ni  Ni8  1  0.48568300  0.93812900  0.26881300  1
  Ni  Ni9  1  0.47742300  0.56087800  0.34412200  1
  Ni  Ni10  1  0.59215800  0.40855800  0.37707200  1
  Ni  Ni11  1  0.98568300  0.06187100  0.73118700  1
  Ni  Ni12  1  0.19763300  0.94419600  0.44819500  1
  Ni  Ni13  1  0.19763300  0.55580400  0.94819500  1
  Ni  Ni14  1  0.69763300  0.05580400  0.55180500  1
  Ni  Ni15  1  0.69763300  0.44419600  0.05180500  1
  Cu  Cu16  1  0.15613100  0.28890200  0.33044100  1
  Cu  Cu17  1  0.15613100  0.21109800  0.83044100  1
  Cu  Cu18  1  0.65613100  0.71109800  0.66955900  1
  Cu  Cu19  1  0.65613100  0.78890200  0.16955900  1
  Cu  Cu20  1  0.74031600  0.17342500  0.52790200  1
  Cu  Cu21  1  0.74031600  0.32657500  0.02790200  1
  Cu  Cu22  1  0.24031600  0.82657500  0.47209800  1
  Cu  Cu23  1  0.24031600  0.67342500  0.97209800  1
  C  C24  1  0.01961400  0.42139300  0.33930800  1
  C  C25  1  0.52851900  0.03414400  0.79363300  1
  C  C26  1  0.51961400  0.57860700  0.66069200  1
  C  C27  1  0.02851900  0.96585600  0.20636700  1
  C  C28  1  0.02851900  0.53414400  0.70636700  1
  C  C29  1  0.51961400  0.92139300  0.16069200  1
  C  C30  1  0.52851900  0.46585600  0.29363300  1
  C  C31  1  0.01961400  0.07860700  0.83930800  1
  C  C32  1  0.20546700  0.24902100  0.45526500  1
  C  C33  1  0.20546700  0.25097900  0.95526500  1
  C  C34  1  0.70546700  0.75097900  0.54473500  1
  C  C35  1  0.70546700  0.74902100  0.04473500  1
