# generated using pymatgen
data_Cu5NiC33
_symmetry_space_group_name_H-M   'P 1'
_cell_length_a   9.94712500
_cell_length_b   9.94712500
_cell_length_c   20.79878100
_cell_angle_alpha   90.00000000
_cell_angle_beta   90.00000000
_cell_angle_gamma   90.00000000
_symmetry_Int_Tables_number   1
_chemical_formula_structural   Cu5NiC33
_chemical_formula_sum   'Cu20 Ni4 C132'
_cell_volume   2057.94153761
_cell_formula_units_Z   4
loop_
 _symmetry_equiv_pos_site_id
 _symmetry_equiv_pos_as_xyz
  1  'x, y, z'
loop_
 _atom_site_type_symbol
 _atom_site_label
 _atom_site_symmetry_multiplicity
 _atom_site_fract_x
 _atom_site_fract_y
 _atom_site_fract_z
 _atom_site_occupancy
  C  C0  1  0.50000000  0.50000000  0.75000000  1
  C  C1  1  0.50000000  0.50000000  0.25000000  1
  C  C2  1  0.00000000  0.00000000  0.75000000  1
  C  C3  1  0.00000000  0.00000000  0.25000000  1
  C  C4  1  0.76626500  0.47609700  0.10491400  1
  C  C5  1  0.00000000  0.50000000  0.80079200  1
  C  C6  1  0.47609700  0.23373500  0.89508600  1
  C  C7  1  0.25000000  0.75000000  0.00000000  1
  C  C8  1  0.52390300  0.76626500  0.89508600  1
  C  C9  1  0.00000000  0.50000000  0.30079200  1
  C  C10  1  0.50000000  0.00000000  0.69920800  1
  C  C11  1  0.23373500  0.52390300  0.10491400  1
  C  C12  1  0.75000000  0.25000000  0.50000000  1
  C  C13  1  0.47609700  0.76626500  0.39508600  1
  C  C14  1  0.25000000  0.25000000  0.50000000  1
  C  C15  1  0.02390300  0.26626500  0.10491400  1
  C  C16  1  0.26626500  0.02390300  0.39508600  1
  C  C17  1  0.23373500  0.47609700  0.60491400  1
  C  C18  1  0.75000000  0.75000000  0.00000000  1
  C  C19  1  0.73373500  0.97609700  0.39508600  1
  C  C20  1  0.25000000  0.75000000  0.50000000  1
  C  C21  1  0.52390300  0.23373500  0.39508600  1
  C  C22  1  0.02390300  0.73373500  0.60491400  1
  C  C23  1  0.75000000  0.25000000  0.00000000  1
  C  C24  1  0.26626500  0.97609700  0.89508600  1
  C  C25  1  0.50000000  0.00000000  0.19920800  1
  C  C26  1  0.75000000  0.75000000  0.50000000  1
  C  C27  1  0.25000000  0.25000000  0.00000000  1
  C  C28  1  0.97609700  0.73373500  0.10491400  1
  C  C29  1  0.97609700  0.26626500  0.60491400  1
  C  C30  1  0.76626500  0.52390300  0.60491400  1
  C  C31  1  0.73373500  0.02390300  0.89508600  1
  Ni  Ni32  1  0.00000000  0.50000000  0.00242300  1
  Ni  Ni33  1  0.00000000  0.50000000  0.50242300  1
  Ni  Ni34  1  0.50000000  0.00000000  0.99757700  1
  Ni  Ni35  1  0.50000000  0.00000000  0.49757700  1
  Cu  Cu36  1  0.81725100  0.25660800  0.35273600  1
  Cu  Cu37  1  0.68274900  0.24339200  0.64726400  1
  Cu  Cu38  1  0.24339200  0.31725100  0.35273600  1
  Cu  Cu39  1  0.74339200  0.81725100  0.64726400  1
  Cu  Cu40  1  0.75660800  0.31725100  0.85273600  1
  Cu  Cu41  1  0.75660800  0.68274900  0.35273600  1
  Cu  Cu42  1  0.25660800  0.81725100  0.14726400  1
  Cu  Cu43  1  0.50000000  0.50000000  0.00000000  1
  Cu  Cu44  1  0.24339200  0.68274900  0.85273600  1
  Cu  Cu45  1  0.31725100  0.75660800  0.64726400  1
  Cu  Cu46  1  0.50000000  0.50000000  0.50000000  1
  Cu  Cu47  1  0.74339200  0.18274900  0.14726400  1
  Cu  Cu48  1  0.18274900  0.25660800  0.85273600  1
  Cu  Cu49  1  0.25660800  0.18274900  0.64726400  1
  Cu  Cu50  1  0.00000000  0.00000000  0.00000000  1
  Cu  Cu51  1  0.68274900  0.75660800  0.14726400  1
  Cu  Cu52  1  0.00000000  0.00000000  0.50000000  1
  Cu  Cu53  1  0.18274900  0.74339200  0.35273600  1
  Cu  Cu54  1  0.81725100  0.74339200  0.85273600  1
  Cu  Cu55  1  0.31725100  0.24339200  0.14726400  1
  C  C56  1  0.50000000  0.00000000  0.82256500  1
  C  C57  1  0.50000000  0.00000000  0.32256500  1
  C  C58  1  0.00000000  0.50000000  0.17743500  1
  C  C59  1  0.00000000  0.50000000  0.67743500  1
  C  C60  1  0.85317000  0.29526500  0.42056100  1
  C  C61  1  0.66511000  0.60822300  0.15618600  1
  C  C62  1  0.33489000  0.39177700  0.15618600  1
  C  C63  1  0.59510300  0.42101100  0.04043600  1
  C  C64  1  0.41318800  0.82012200  0.69233500  1
  C  C65  1  0.29526500  0.14683000  0.57943900  1
  C  C66  1  0.17683800  0.20324900  0.16213300  1
  C  C67  1  0.58681200  0.82012200  0.19233500  1
  C  C68  1  0.67683800  0.29675100  0.33786700  1
  C  C69  1  0.35317000  0.20473500  0.07943900  1
  C  C70  1  0.16511000  0.89177700  0.34381400  1
  C  C71  1  0.09510300  0.92101100  0.95956400  1
  C  C72  1  0.83489000  0.89177700  0.84381400  1
  C  C73  1  0.70473500  0.14683000  0.07943900  1
  C  C74  1  0.17683800  0.79675100  0.66213300  1
  C  C75  1  0.17987800  0.58681200  0.80766500  1
  C  C76  1  0.70473500  0.85317000  0.57943900  1
  C  C77  1  0.82316200  0.79675100  0.16213300  1
  C  C78  1  0.85910600  0.61494300  0.04940900  1
  C  C79  1  0.90489700  0.07898900  0.95956400  1
  C  C80  1  0.35910600  0.11494300  0.95059100  1
  C  C81  1  0.29675100  0.67683800  0.16213300  1
  C  C82  1  0.14089400  0.61494300  0.54940900  1
  C  C83  1  0.64683000  0.20473500  0.57943900  1
  C  C84  1  0.61494300  0.14089400  0.95059100  1
  C  C85  1  0.08681200  0.67987800  0.30766500  1
  C  C86  1  0.40489700  0.42101100  0.54043600  1
  C  C87  1  0.89177700  0.16511000  0.15618600  1
  C  C88  1  0.32012200  0.08681200  0.69233500  1
  C  C89  1  0.16511000  0.10822300  0.84381400  1
  C  C90  1  0.39177700  0.66511000  0.84381400  1
  C  C91  1  0.70324900  0.67683800  0.66213300  1
  C  C92  1  0.79526500  0.35317000  0.92056100  1
  C  C93  1  0.07898900  0.90489700  0.54043600  1
  C  C94  1  0.33489000  0.60822300  0.65618600  1
  C  C95  1  0.20473500  0.64683000  0.92056100  1
  C  C96  1  0.82012200  0.41318800  0.80766500  1
  C  C97  1  0.08681200  0.32012200  0.80766500  1
  C  C98  1  0.79675100  0.82316200  0.33786700  1
  C  C99  1  0.10822300  0.83489000  0.15618600  1
  C  C100  1  0.82012200  0.58681200  0.30766500  1
  C  C101  1  0.20473500  0.35317000  0.42056100  1
  C  C102  1  0.88505700  0.35910600  0.04940900  1
  C  C103  1  0.32316200  0.29675100  0.83786700  1
  C  C104  1  0.79675100  0.17683800  0.83786700  1
  C  C105  1  0.11494300  0.64089400  0.04940900  1
  C  C106  1  0.67987800  0.08681200  0.19233500  1
  C  C107  1  0.58681200  0.17987800  0.69233500  1
  C  C108  1  0.29526500  0.85317000  0.07943900  1
  C  C109  1  0.61494300  0.85910600  0.45059100  1
  C  C110  1  0.79526500  0.64683000  0.42056100  1
  C  C111  1  0.40489700  0.57898900  0.04043600  1
  C  C112  1  0.35910600  0.88505700  0.45059100  1
  C  C113  1  0.64683000  0.79526500  0.07943900  1
  C  C114  1  0.10822300  0.16511000  0.65618600  1
  C  C115  1  0.38505700  0.14089400  0.45059100  1
  C  C116  1  0.67987800  0.91318800  0.69233500  1
  C  C117  1  0.14683000  0.70473500  0.42056100  1
  C  C118  1  0.17987800  0.41318800  0.30766500  1
  C  C119  1  0.14683000  0.29526500  0.92056100  1
  C  C120  1  0.60822300  0.33489000  0.84381400  1
  C  C121  1  0.85910600  0.38505700  0.54940900  1
  C  C122  1  0.11494300  0.35910600  0.54940900  1
  C  C123  1  0.38505700  0.85910600  0.95059100  1
  C  C124  1  0.64089400  0.11494300  0.45059100  1
  C  C125  1  0.60822300  0.66511000  0.34381400  1
  C  C126  1  0.14089400  0.38505700  0.04940900  1
  C  C127  1  0.20324900  0.82316200  0.83786700  1
  C  C128  1  0.90489700  0.92101100  0.45956400  1
  C  C129  1  0.20324900  0.17683800  0.33786700  1
  C  C130  1  0.32316200  0.70324900  0.33786700  1
  C  C131  1  0.39177700  0.33489000  0.34381400  1
  C  C132  1  0.57898900  0.59510300  0.95956400  1
  C  C133  1  0.59510300  0.57898900  0.54043600  1
  C  C134  1  0.83489000  0.10822300  0.34381400  1
  C  C135  1  0.42101100  0.40489700  0.95956400  1
  C  C136  1  0.82316200  0.20324900  0.66213300  1
  C  C137  1  0.64089400  0.88505700  0.95059100  1
  C  C138  1  0.91318800  0.67987800  0.80766500  1
  C  C139  1  0.89177700  0.83489000  0.65618600  1
  C  C140  1  0.57898900  0.40489700  0.45956400  1
  C  C141  1  0.35317000  0.79526500  0.57943900  1
  C  C142  1  0.42101100  0.59510300  0.45956400  1
  C  C143  1  0.91318800  0.32012200  0.30766500  1
  C  C144  1  0.67683800  0.70324900  0.83786700  1
  C  C145  1  0.70324900  0.32316200  0.16213300  1
  C  C146  1  0.92101100  0.90489700  0.04043600  1
  C  C147  1  0.92101100  0.09510300  0.54043600  1
  C  C148  1  0.41318800  0.17987800  0.19233500  1
  C  C149  1  0.29675100  0.32316200  0.66213300  1
  C  C150  1  0.85317000  0.70473500  0.92056100  1
  C  C151  1  0.66511000  0.39177700  0.65618600  1
  C  C152  1  0.32012200  0.91318800  0.19233500  1
  C  C153  1  0.88505700  0.64089400  0.54940900  1
  C  C154  1  0.09510300  0.07898900  0.45956400  1
  C  C155  1  0.07898900  0.09510300  0.04043600  1
