# generated using pymatgen
data_CuNiC2
_symmetry_space_group_name_H-M   'P 1'
_cell_length_a   6.46626800
_cell_length_b   8.12298500
_cell_length_c   9.81677600
_cell_angle_alpha   90.00000000
_cell_angle_beta   90.00000000
_cell_angle_gamma   90.00000000
_symmetry_Int_Tables_number   1
_chemical_formula_structural   CuNiC2
_chemical_formula_sum   'Cu12 Ni12 C24'
_cell_volume   515.63006618
_cell_formula_units_Z   12
loop_
 _symmetry_equiv_pos_site_id
 _symmetry_equiv_pos_as_xyz
  1  'x, y, z'
loop_
 _atom_site_type_symbol
 _atom_site_label
 _atom_site_symmetry_multiplicity
 _atom_site_fract_x
 _atom_site_fract_y
 _atom_site_fract_z
 _atom_site_occupancy
  Ni  Ni0  1  0.75000000  0.99989900  0.67381500  1
  Ni  Ni1  1  0.75000000  0.50010100  0.17381500  1
  Ni  Ni2  1  0.25000000  0.00010100  0.32618500  1
  Ni  Ni3  1  0.25000000  0.49989900  0.82618500  1
  Ni  Ni4  1  0.75000000  0.99861700  0.91786500  1
  Ni  Ni5  1  0.75000000  0.50138300  0.41786500  1
  Ni  Ni6  1  0.25000000  0.00138300  0.08213500  1
  Ni  Ni7  1  0.25000000  0.49861700  0.58213500  1
  Ni  Ni8  1  0.75000000  0.74429100  0.79464200  1
  Ni  Ni9  1  0.75000000  0.75570900  0.29464200  1
  Ni  Ni10  1  0.25000000  0.25570900  0.20535800  1
  Ni  Ni11  1  0.25000000  0.24429100  0.70535800  1
  Cu  Cu12  1  0.75000000  0.02410000  0.47025700  1
  Cu  Cu13  1  0.75000000  0.47590000  0.97025700  1
  Cu  Cu14  1  0.25000000  0.97590000  0.52974300  1
  Cu  Cu15  1  0.25000000  0.52410000  0.02974300  1
  Cu  Cu16  1  0.75000000  0.19830400  0.04001900  1
  Cu  Cu17  1  0.75000000  0.30169600  0.54001900  1
  Cu  Cu18  1  0.25000000  0.80169600  0.95998100  1
  Cu  Cu19  1  0.25000000  0.69830400  0.45998100  1
  Cu  Cu20  1  0.75000000  0.52333900  0.70712000  1
  Cu  Cu21  1  0.75000000  0.97666100  0.20712000  1
  Cu  Cu22  1  0.25000000  0.47666100  0.29288000  1
  Cu  Cu23  1  0.25000000  0.02333900  0.79288000  1
  C  C24  1  0.75000000  0.08911700  0.55563200  1
  C  C25  1  0.75000000  0.41088300  0.05563200  1
  C  C26  1  0.25000000  0.91088300  0.44436800  1
  C  C27  1  0.25000000  0.58911700  0.94436800  1
  C  C28  1  0.75000000  0.08644900  0.79615000  1
  C  C29  1  0.75000000  0.41355100  0.29615000  1
  C  C30  1  0.25000000  0.91355100  0.20385000  1
  C  C31  1  0.25000000  0.58644900  0.70385000  1
  C  C32  1  0.75000000  0.07556300  0.04189700  1
  C  C33  1  0.75000000  0.42443700  0.54189700  1
  C  C34  1  0.25000000  0.92443700  0.95810300  1
  C  C35  1  0.25000000  0.57556300  0.45810300  1
  C  C36  1  0.75000000  0.83003400  0.67279000  1
  C  C37  1  0.75000000  0.66996600  0.17279000  1
  C  C38  1  0.25000000  0.16996600  0.32721000  1
  C  C39  1  0.25000000  0.33003400  0.82721000  1
  C  C40  1  0.75000000  0.82889400  0.91629100  1
  C  C41  1  0.75000000  0.67110600  0.41629100  1
  C  C42  1  0.25000000  0.17110600  0.08370900  1
  C  C43  1  0.25000000  0.32889400  0.58370900  1
  C  C44  1  0.75000000  0.57561600  0.79860200  1
  C  C45  1  0.75000000  0.92438400  0.29860200  1
  C  C46  1  0.25000000  0.42438400  0.20139800  1
  C  C47  1  0.25000000  0.07561600  0.70139800  1
