# generated using pymatgen
data_Cu8Ni8C5
_symmetry_space_group_name_H-M   'P 1'
_cell_length_a   7.86332400
_cell_length_b   7.86332400
_cell_length_c   7.02780900
_cell_angle_alpha   90.00000000
_cell_angle_beta   90.00000000
_cell_angle_gamma   90.00000000
_symmetry_Int_Tables_number   1
_chemical_formula_structural   Cu8Ni8C5
_chemical_formula_sum   'Cu8 Ni8 C5'
_cell_volume   434.54253262
_cell_formula_units_Z   1
loop_
 _symmetry_equiv_pos_site_id
 _symmetry_equiv_pos_as_xyz
  1  'x, y, z'
loop_
 _atom_site_type_symbol
 _atom_site_label
 _atom_site_symmetry_multiplicity
 _atom_site_fract_x
 _atom_site_fract_y
 _atom_site_fract_z
 _atom_site_occupancy
  C  C0  1  0.50000000  0.00000000  0.50000000  1
  C  C1  1  0.00000000  0.50000000  0.50000000  1
  C  C2  1  0.50000000  0.50000000  0.00000000  1
  C  C3  1  0.00000000  0.00000000  0.75705000  1
  C  C4  1  0.00000000  0.00000000  0.24295000  1
  Ni  Ni5  1  0.17897800  0.17897800  0.75985000  1
  Ni  Ni6  1  0.82102200  0.82102200  0.24015000  1
  Ni  Ni7  1  0.82102200  0.17897800  0.75985000  1
  Ni  Ni8  1  0.17897800  0.82102200  0.75985000  1
  Ni  Ni9  1  0.17897800  0.17897800  0.24015000  1
  Ni  Ni10  1  0.82102200  0.82102200  0.75985000  1
  Ni  Ni11  1  0.82102200  0.17897800  0.24015000  1
  Ni  Ni12  1  0.17897800  0.82102200  0.24015000  1
  Cu  Cu13  1  0.28484200  0.71515800  0.76288900  1
  Cu  Cu14  1  0.28484200  0.28484200  0.23711100  1
  Cu  Cu15  1  0.28484200  0.28484200  0.76288900  1
  Cu  Cu16  1  0.71515800  0.71515800  0.23711100  1
  Cu  Cu17  1  0.71515800  0.28484200  0.76288900  1
  Cu  Cu18  1  0.71515800  0.71515800  0.76288900  1
  Cu  Cu19  1  0.28484200  0.71515800  0.23711100  1
  Cu  Cu20  1  0.71515800  0.28484200  0.23711100  1
