# generated using pymatgen
data_Cu10Ni6C
_symmetry_space_group_name_H-M   'P 1'
_cell_length_a   10.47037423
_cell_length_b   10.47037423
_cell_length_c   10.42566612
_cell_angle_alpha   89.94906243
_cell_angle_beta   89.94906243
_cell_angle_gamma   89.17878680
_symmetry_Int_Tables_number   1
_chemical_formula_structural   Cu10Ni6C
_chemical_formula_sum   'Cu20 Ni12 C2'
_cell_volume   1142.83431621
_cell_formula_units_Z   2
loop_
 _symmetry_equiv_pos_site_id
 _symmetry_equiv_pos_as_xyz
  1  'x, y, z'
loop_
 _atom_site_type_symbol
 _atom_site_label
 _atom_site_symmetry_multiplicity
 _atom_site_fract_x
 _atom_site_fract_y
 _atom_site_fract_z
 _atom_site_occupancy
  C  C0  1  0.99628500  0.74197900  0.74482700  1
  C  C1  1  0.25802100  0.00371500  0.25517300  1
  Ni  Ni2  1  0.90864200  0.99824400  0.16924300  1
  Ni  Ni3  1  0.82417500  0.61698700  0.16072100  1
  Ni  Ni4  1  0.68402800  0.90444400  0.87708600  1
  Ni  Ni5  1  0.59591100  0.91378900  0.25337800  1
  Ni  Ni6  1  0.50955600  0.57549200  0.33703400  1
  Ni  Ni7  1  0.42450800  0.49044400  0.66296600  1
  Ni  Ni8  1  0.41826400  0.87125300  0.57405100  1
  Ni  Ni9  1  0.38301300  0.17582500  0.83927900  1
  Ni  Ni10  1  0.12874700  0.58173600  0.42594900  1
  Ni  Ni11  1  0.09555600  0.31597200  0.12291400  1
  Ni  Ni12  1  0.08621100  0.40408900  0.74662200  1
  Ni  Ni13  1  0.00175600  0.09135800  0.83075700  1
  Cu  Cu14  1  0.93588900  0.49796800  0.56572500  1
  Cu  Cu15  1  0.92563200  0.31707300  0.93128200  1
  Cu  Cu16  1  0.82405000  0.81420700  0.32719800  1
  Cu  Cu17  1  0.82415000  0.99346400  0.68394500  1
  Cu  Cu18  1  0.75456900  0.66333600  0.91769000  1
  Cu  Cu19  1  0.69308100  0.42842300  0.25329600  1
  Cu  Cu20  1  0.68292700  0.07436800  0.06871800  1
  Cu  Cu21  1  0.58064700  0.67410000  0.56918900  1
  Cu  Cu22  1  0.57157700  0.30691900  0.74670400  1
  Cu  Cu23  1  0.50203200  0.06411100  0.43427500  1
  Cu  Cu24  1  0.42788300  0.91888900  0.82938800  1
  Cu  Cu25  1  0.42787200  0.74973100  0.16878800  1
  Cu  Cu26  1  0.33666400  0.24543100  0.08231000  1
  Cu  Cu27  1  0.32590000  0.41935300  0.43081100  1
  Cu  Cu28  1  0.25026900  0.57212800  0.83121200  1
  Cu  Cu29  1  0.18579300  0.17595000  0.67280200  1
  Cu  Cu30  1  0.17447400  0.82552600  0.50000000  1
  Cu  Cu31  1  0.08346300  0.91653700  0.00000000  1
  Cu  Cu32  1  0.08111100  0.57211700  0.17061200  1
  Cu  Cu33  1  0.00653600  0.17585000  0.31605500  1
