# generated using pymatgen
data_Cu15Ni39C43
_symmetry_space_group_name_H-M   'P 1'
_cell_length_a   11.76759991
_cell_length_b   11.76759991
_cell_length_c   11.76760010
_cell_angle_alpha   109.53735808
_cell_angle_beta   109.53735808
_cell_angle_gamma   109.53736277
_symmetry_Int_Tables_number   1
_chemical_formula_structural   Cu15Ni39C43
_chemical_formula_sum   'Cu15 Ni39 C43'
_cell_volume   1251.33546481
_cell_formula_units_Z   1
loop_
 _symmetry_equiv_pos_site_id
 _symmetry_equiv_pos_as_xyz
  1  'x, y, z'
loop_
 _atom_site_type_symbol
 _atom_site_label
 _atom_site_symmetry_multiplicity
 _atom_site_fract_x
 _atom_site_fract_y
 _atom_site_fract_z
 _atom_site_occupancy
  C  C0  1  0.99263400  0.42002600  0.67709000  1
  C  C1  1  0.99263400  0.67709000  0.42002600  1
  C  C2  1  0.32457400  0.74756000  0.32457400  1
  C  C3  1  0.25951400  0.58976000  0.58976000  1
  C  C4  1  0.99220400  0.99220400  0.99220400  1
  C  C5  1  0.42002600  0.99263400  0.67709000  1
  C  C6  1  0.42002600  0.67709000  0.99263400  1
  C  C7  1  0.32457400  0.32457400  0.74756000  1
  C  C8  1  0.67709000  0.42002600  0.99263400  1
  C  C9  1  0.67709000  0.99263400  0.42002600  1
  C  C10  1  0.74756000  0.32457400  0.32457400  1
  C  C11  1  0.58976000  0.25951400  0.58976000  1
  C  C12  1  0.58976000  0.58976000  0.25951400  1
  C  C13  1  0.00032100  0.75373100  0.16085000  1
  C  C14  1  0.00032100  0.16085000  0.75373100  1
  C  C15  1  0.24561000  0.40718900  0.24561000  1
  C  C16  1  0.16085000  0.75373100  0.00032100  1
  C  C17  1  0.16085000  0.00032100  0.75373100  1
  C  C18  1  0.24561000  0.24561000  0.40718900  1
  C  C19  1  0.59038400  0.83808800  0.83808800  1
  C  C20  1  0.75373100  0.00032100  0.16085000  1
  C  C21  1  0.75373100  0.16085000  0.00032100  1
  C  C22  1  0.40718900  0.24561000  0.24561000  1
  C  C23  1  0.83808800  0.59038400  0.83808800  1
  C  C24  1  0.83808800  0.83808800  0.59038400  1
  C  C25  1  0.00103600  0.30098000  0.30098000  1
  C  C26  1  0.99946000  0.15955700  0.45936800  1
  C  C27  1  0.99946000  0.45936800  0.15955700  1
  C  C28  1  0.15955700  0.45936800  0.99946000  1
  C  C29  1  0.15955700  0.99946000  0.45936800  1
  C  C30  1  0.54010200  0.69782900  0.54010200  1
  C  C31  1  0.30185200  0.84078100  0.84078100  1
  C  C32  1  0.30098000  0.00103600  0.30098000  1
  C  C33  1  0.30098000  0.30098000  0.00103600  1
  C  C34  1  0.45936800  0.99946000  0.15955700  1
  C  C35  1  0.45936800  0.15955700  0.99946000  1
  C  C36  1  0.54010200  0.54010200  0.69782900  1
  C  C37  1  0.84078100  0.30185200  0.84078100  1
  C  C38  1  0.70240200  0.99876600  0.70240200  1
  C  C39  1  0.70240200  0.70240200  0.99876600  1
  C  C40  1  0.69782900  0.54010200  0.54010200  1
  C  C41  1  0.84078100  0.84078100  0.30185200  1
  C  C42  1  0.99876600  0.70240200  0.70240200  1
  Ni  Ni43  1  0.00025100  0.44914300  0.30336600  1
  Ni  Ni44  1  0.00025100  0.30336600  0.44914300  1
  Ni  Ni45  1  0.14992600  0.47624400  0.14992600  1
  Ni  Ni46  1  0.14882100  0.30264000  0.30264000  1
  Ni  Ni47  1  0.15667100  0.84836300  0.15667100  1
  Ni  Ni48  1  0.00113500  0.85154100  0.32307500  1
  Ni  Ni49  1  0.00113500  0.32307500  0.85154100  1
  Ni  Ni50  1  0.14177000  0.69727500  0.69727500  1
  Ni  Ni51  1  0.00015300  0.70042100  0.84822800  1
  Ni  Ni52  1  0.00015300  0.84822800  0.70042100  1
  Ni  Ni53  1  0.30336600  0.00025100  0.44914300  1
  Ni  Ni54  1  0.30336600  0.44914300  0.00025100  1
  Ni  Ni55  1  0.14992600  0.14992600  0.47624400  1
  Ni  Ni56  1  0.30264000  0.14882100  0.30264000  1
  Ni  Ni57  1  0.52713400  0.67380100  0.67380100  1
  Ni  Ni58  1  0.42117600  0.81064300  0.81064300  1
  Ni  Ni59  1  0.15667100  0.15667100  0.84836300  1
  Ni  Ni60  1  0.32307500  0.85154100  0.00113500  1
  Ni  Ni61  1  0.32307500  0.00113500  0.85154100  1
  Ni  Ni62  1  0.69727500  0.14177000  0.69727500  1
  Ni  Ni63  1  0.70042100  0.00015300  0.84822800  1
  Ni  Ni64  1  0.70042100  0.84822800  0.00015300  1
  Ni  Ni65  1  0.44914300  0.30336600  0.00025100  1
  Ni  Ni66  1  0.44914300  0.00025100  0.30336600  1
  Ni  Ni67  1  0.47624400  0.14992600  0.14992600  1
  Ni  Ni68  1  0.30264000  0.30264000  0.14882100  1
  Ni  Ni69  1  0.55239500  0.85280500  0.55239500  1
  Ni  Ni70  1  0.55239500  0.55239500  0.85280500  1
  Ni  Ni71  1  0.81064300  0.42117600  0.81064300  1
  Ni  Ni72  1  0.84836300  0.15667100  0.15667100  1
  Ni  Ni73  1  0.85154100  0.32307500  0.00113500  1
  Ni  Ni74  1  0.85154100  0.00113500  0.32307500  1
  Ni  Ni75  1  0.69727500  0.69727500  0.14177000  1
  Ni  Ni76  1  0.84822800  0.00015300  0.70042100  1
  Ni  Ni77  1  0.84822800  0.70042100  0.00015300  1
  Ni  Ni78  1  0.67380100  0.52713400  0.67380100  1
  Ni  Ni79  1  0.67380100  0.67380100  0.52713400  1
  Ni  Ni80  1  0.85280500  0.55239500  0.55239500  1
  Ni  Ni81  1  0.81064300  0.81064300  0.42117600  1
  Cu  Cu82  1  0.24919400  0.75379800  0.49692100  1
  Cu  Cu83  1  0.24919400  0.49692100  0.75379800  1
  Cu  Cu84  1  0.18374200  0.99796100  0.60752600  1
  Cu  Cu85  1  0.18374200  0.60752600  0.99796100  1
  Cu  Cu86  1  0.39059300  0.57588500  0.39059300  1
  Cu  Cu87  1  0.39059300  0.39059300  0.57588500  1
  Cu  Cu88  1  0.49692100  0.75379800  0.24919400  1
  Cu  Cu89  1  0.49692100  0.24919400  0.75379800  1
  Cu  Cu90  1  0.60752600  0.18374200  0.99796100  1
  Cu  Cu91  1  0.60752600  0.99796100  0.18374200  1
  Cu  Cu92  1  0.57588500  0.39059300  0.39059300  1
  Cu  Cu93  1  0.75379800  0.49692100  0.24919400  1
  Cu  Cu94  1  0.75379800  0.24919400  0.49692100  1
  Cu  Cu95  1  0.99796100  0.60752600  0.18374200  1
  Cu  Cu96  1  0.99796100  0.18374200  0.60752600  1
