# generated using pymatgen
data_CuNiC3
_symmetry_space_group_name_H-M   'P 1'
_cell_length_a   5.16703100
_cell_length_b   8.86343200
_cell_length_c   9.53587800
_cell_angle_alpha   90.00000000
_cell_angle_beta   90.00000000
_cell_angle_gamma   90.00000000
_symmetry_Int_Tables_number   1
_chemical_formula_structural   CuNiC3
_chemical_formula_sum   'Cu8 Ni8 C24'
_cell_volume   436.72059244
_cell_formula_units_Z   8
loop_
 _symmetry_equiv_pos_site_id
 _symmetry_equiv_pos_as_xyz
  1  'x, y, z'
loop_
 _atom_site_type_symbol
 _atom_site_label
 _atom_site_symmetry_multiplicity
 _atom_site_fract_x
 _atom_site_fract_y
 _atom_site_fract_z
 _atom_site_occupancy
  Ni  Ni0  1  0.82523700  0.84724000  0.50069900  1
  Ni  Ni1  1  0.18552000  0.83906100  0.80685800  1
  Ni  Ni2  1  0.32523700  0.65276000  0.50069900  1
  Ni  Ni3  1  0.31448000  0.33906100  0.30685800  1
  Ni  Ni4  1  0.81448000  0.16093900  0.30685800  1
  Ni  Ni5  1  0.67476300  0.34724000  0.00069900  1
  Ni  Ni6  1  0.17476300  0.15276000  0.00069900  1
  Ni  Ni7  1  0.68552000  0.66093900  0.80685800  1
  Cu  Cu8  1  0.32497200  0.96848600  0.29859800  1
  Cu  Cu9  1  0.19123800  0.15193100  0.58280900  1
  Cu  Cu10  1  0.69123800  0.34806900  0.58280900  1
  Cu  Cu11  1  0.80876200  0.84806900  0.08280900  1
  Cu  Cu12  1  0.82497200  0.53151400  0.29859800  1
  Cu  Cu13  1  0.17502800  0.46848600  0.79859800  1
  Cu  Cu14  1  0.67502800  0.03151400  0.79859800  1
  Cu  Cu15  1  0.30876200  0.65193100  0.08280900  1
  C  C16  1  0.51346200  0.16952500  0.94047900  1
  C  C17  1  0.15313800  0.16140800  0.19810500  1
  C  C18  1  0.52454000  0.82262000  0.92399500  1
  C  C19  1  0.48691300  0.51154200  0.93258300  1
  C  C20  1  0.51308700  0.48845800  0.43258300  1
  C  C21  1  0.65313800  0.33859200  0.19810500  1
  C  C22  1  0.15289800  0.83030300  0.17243400  1
  C  C23  1  0.84368100  0.50165800  0.70320000  1
  C  C24  1  0.34368100  0.99834200  0.70320000  1
  C  C25  1  0.15631900  0.49834200  0.20320000  1
  C  C26  1  0.34710200  0.33030300  0.67243400  1
  C  C27  1  0.34686200  0.66140800  0.69810500  1
  C  C28  1  0.65289800  0.66969700  0.17243400  1
  C  C29  1  0.98691300  0.98845800  0.93258300  1
  C  C30  1  0.84710200  0.16969700  0.67243400  1
  C  C31  1  0.48653800  0.83047500  0.44047900  1
  C  C32  1  0.47546000  0.17738000  0.42399500  1
  C  C33  1  0.84686200  0.83859200  0.69810500  1
  C  C34  1  0.65631900  0.00165800  0.20320000  1
  C  C35  1  0.97546000  0.32262000  0.42399500  1
  C  C36  1  0.01308700  0.01154200  0.43258300  1
  C  C37  1  0.98653800  0.66952500  0.44047900  1
  C  C38  1  0.01346200  0.33047500  0.94047900  1
  C  C39  1  0.02453900  0.67738000  0.92399500  1
