# generated using pymatgen
data_Cu7(Ni2C3)3
_symmetry_space_group_name_H-M   'P 1'
_cell_length_a   12.11108100
_cell_length_b   9.39527300
_cell_length_c   17.09306751
_cell_angle_alpha   79.77938877
_cell_angle_beta   90.00000000
_cell_angle_gamma   90.00000000
_symmetry_Int_Tables_number   1
_chemical_formula_structural   Cu7(Ni2C3)3
_chemical_formula_sum   'Cu28 Ni24 C36'
_cell_volume   1914.10432285
_cell_formula_units_Z   4
loop_
 _symmetry_equiv_pos_site_id
 _symmetry_equiv_pos_as_xyz
  1  'x, y, z'
loop_
 _atom_site_type_symbol
 _atom_site_label
 _atom_site_symmetry_multiplicity
 _atom_site_fract_x
 _atom_site_fract_y
 _atom_site_fract_z
 _atom_site_occupancy
  C  C0  1  0.85978500  0.63633600  0.37701400  1
  C  C1  1  0.35978500  0.36366400  0.12298600  1
  C  C2  1  0.14021500  0.36366400  0.62298600  1
  C  C3  1  0.64021500  0.63633600  0.87701400  1
  C  C4  1  0.53747900  0.86750000  0.08941700  1
  C  C5  1  0.96252100  0.86750000  0.58941700  1
  C  C6  1  0.46252100  0.13250000  0.91058300  1
  C  C7  1  0.53729000  0.19392300  0.47335800  1
  C  C8  1  0.03747900  0.13250000  0.41058300  1
  C  C9  1  0.46271000  0.80607700  0.52664200  1
  C  C10  1  0.96271000  0.19392300  0.97335800  1
  C  C11  1  0.03729000  0.80607700  0.02664200  1
  Ni  Ni12  1  0.36519500  0.85307100  0.60696600  1
  Ni  Ni13  1  0.96952900  0.19962800  0.30964900  1
  Ni  Ni14  1  0.35940500  0.68874100  0.48437900  1
  Ni  Ni15  1  0.34353600  0.26535800  0.89028800  1
  Ni  Ni16  1  0.84353600  0.73464200  0.60971200  1
  Ni  Ni17  1  0.15646400  0.26535800  0.39028800  1
  Ni  Ni18  1  0.48294800  0.35834700  0.40295800  1
  Ni  Ni19  1  0.64059500  0.31125900  0.51562100  1
  Ni  Ni20  1  0.63480500  0.14692900  0.39303400  1
  Ni  Ni21  1  0.38393600  0.98540200  0.86913400  1
  Ni  Ni22  1  0.51705200  0.64165300  0.59704200  1
  Ni  Ni23  1  0.46952900  0.80037200  0.19035100  1
  Ni  Ni24  1  0.88393600  0.01459800  0.63086600  1
  Ni  Ni25  1  0.98294800  0.64165300  0.09704200  1
  Ni  Ni26  1  0.86519500  0.14692900  0.89303400  1
  Ni  Ni27  1  0.85940500  0.31125900  0.01562100  1
  Ni  Ni28  1  0.03047100  0.80037200  0.69035100  1
  Ni  Ni29  1  0.14059500  0.68874100  0.98437900  1
  Ni  Ni30  1  0.53047100  0.19962800  0.80964900  1
  Ni  Ni31  1  0.65646400  0.73464200  0.10971200  1
  Ni  Ni32  1  0.11606400  0.98540200  0.36913400  1
  Ni  Ni33  1  0.13480500  0.85307100  0.10696600  1
  Ni  Ni34  1  0.01705200  0.35834700  0.90295800  1
  Ni  Ni35  1  0.61606400  0.01459800  0.13086600  1
  Cu  Cu36  1  0.05991300  0.69231900  0.52605700  1
  Cu  Cu37  1  0.40200200  0.02292100  0.43092600  1
  Cu  Cu38  1  0.25216000  0.51726200  0.68850400  1
  Cu  Cu39  1  0.90340000  0.75244000  0.93047500  1
  Cu  Cu40  1  0.59660000  0.75244000  0.43047500  1
  Cu  Cu41  1  0.17383000  0.15539600  0.72520000  1
  Cu  Cu42  1  0.24784000  0.51726200  0.18850400  1
  Cu  Cu43  1  0.96965200  0.40741200  0.68506500  1
  Cu  Cu44  1  0.46965200  0.59258800  0.81493500  1
  Cu  Cu45  1  0.09660000  0.24756000  0.06952500  1
  Cu  Cu46  1  0.82617000  0.84460400  0.27480000  1
  Cu  Cu47  1  0.55991300  0.30768100  0.97394300  1
  Cu  Cu48  1  0.67383000  0.84460400  0.77480000  1
  Cu  Cu49  1  0.03034800  0.59258800  0.31493500  1
  Cu  Cu50  1  0.94008700  0.30768100  0.47394300  1
  Cu  Cu51  1  0.75216000  0.48273800  0.81149600  1
  Cu  Cu52  1  0.61526600  0.96119400  0.95646800  1
  Cu  Cu53  1  0.44008700  0.69231900  0.02605700  1
  Cu  Cu54  1  0.74784000  0.48273800  0.31149600  1
  Cu  Cu55  1  0.11526600  0.03880600  0.54353200  1
  Cu  Cu56  1  0.40340000  0.24756000  0.56952500  1
  Cu  Cu57  1  0.38473400  0.03880600  0.04353200  1
  Cu  Cu58  1  0.88473400  0.96119400  0.45646800  1
  Cu  Cu59  1  0.09799800  0.02292100  0.93092600  1
  Cu  Cu60  1  0.59799800  0.97707900  0.56907400  1
  Cu  Cu61  1  0.90200200  0.97707900  0.06907400  1
  Cu  Cu62  1  0.53034800  0.40741200  0.18506500  1
  Cu  Cu63  1  0.32617000  0.15539600  0.22520000  1
  C  C64  1  0.27129900  0.34608800  0.88216400  1
  C  C65  1  0.22870100  0.34608800  0.38216400  1
  C  C66  1  0.29890500  0.61568700  0.45764800  1
  C  C67  1  0.07150400  0.76380300  0.75122600  1
  C  C68  1  0.33442700  0.89971200  0.84354900  1
  C  C69  1  0.95204600  0.54040400  0.13925500  1
  C  C70  1  0.70109500  0.38431300  0.54235200  1
  C  C71  1  0.68912600  0.12217500  0.34182100  1
  C  C72  1  0.57150400  0.23619700  0.74877400  1
  C  C73  1  0.45204600  0.45959600  0.36074500  1
  C  C74  1  0.79890500  0.38431300  0.04235200  1
  C  C75  1  0.54795400  0.54040400  0.63925500  1
  C  C76  1  0.20109500  0.61568700  0.95764800  1
  C  C77  1  0.04795400  0.45959600  0.86074500  1
  C  C78  1  0.92849600  0.23619700  0.24877400  1
  C  C79  1  0.18912600  0.87782500  0.15817900  1
  C  C80  1  0.31087400  0.87782500  0.65817900  1
  C  C81  1  0.77129900  0.65391200  0.61783600  1
  C  C82  1  0.42849600  0.76380300  0.25122600  1
  C  C83  1  0.66557300  0.10028800  0.15645100  1
  C  C84  1  0.81087400  0.12217500  0.84182100  1
  C  C85  1  0.16557300  0.89971200  0.34354900  1
  C  C86  1  0.72870100  0.65391200  0.11783600  1
  C  C87  1  0.83442700  0.10028800  0.65645100  1
