# generated using pymatgen
data_Cu4Ni3C17
_symmetry_space_group_name_H-M   'P 1'
_cell_length_a   13.70993200
_cell_length_b   5.57192600
_cell_length_c   9.67392809
_cell_angle_alpha   82.48715611
_cell_angle_beta   90.00000000
_cell_angle_gamma   90.00000000
_symmetry_Int_Tables_number   1
_chemical_formula_structural   Cu4Ni3C17
_chemical_formula_sum   'Cu8 Ni6 C34'
_cell_volume   732.65452081
_cell_formula_units_Z   2
loop_
 _symmetry_equiv_pos_site_id
 _symmetry_equiv_pos_as_xyz
  1  'x, y, z'
loop_
 _atom_site_type_symbol
 _atom_site_label
 _atom_site_symmetry_multiplicity
 _atom_site_fract_x
 _atom_site_fract_y
 _atom_site_fract_z
 _atom_site_occupancy
  C  C0  1  0.75000000  0.45950800  0.63942700  1
  C  C1  1  0.25000000  0.54049200  0.36057300  1
  C  C2  1  0.58869900  0.78150000  0.23864000  1
  C  C3  1  0.91130100  0.78150000  0.23864000  1
  C  C4  1  0.08869900  0.21850000  0.76136000  1
  C  C5  1  0.41130100  0.21850000  0.76136000  1
  Ni  Ni6  1  0.80481300  0.85915300  0.86695700  1
  Ni  Ni7  1  0.75000000  0.06255900  0.13673700  1
  Ni  Ni8  1  0.25000000  0.93744100  0.86326300  1
  Ni  Ni9  1  0.19518700  0.14084700  0.13304300  1
  Ni  Ni10  1  0.30481300  0.14084700  0.13304300  1
  Ni  Ni11  1  0.69518700  0.85915300  0.86695700  1
  Cu  Cu12  1  0.04864200  0.48407500  0.03962800  1
  Cu  Cu13  1  0.95135800  0.51592500  0.96037200  1
  Cu  Cu14  1  0.94844300  0.03708100  0.52005200  1
  Cu  Cu15  1  0.45135800  0.48407500  0.03962800  1
  Cu  Cu16  1  0.05155700  0.96291900  0.47994800  1
  Cu  Cu17  1  0.44844300  0.96291900  0.47994800  1
  Cu  Cu18  1  0.55155700  0.03708100  0.52005200  1
  Cu  Cu19  1  0.54864200  0.51592500  0.96037200  1
  C  C20  1  0.44613700  0.57046200  0.15375000  1
  C  C21  1  0.62706600  0.49891600  0.33593900  1
  C  C22  1  0.44651400  0.93228900  0.85787900  1
  C  C23  1  0.05675100  0.83322300  0.38223700  1
  C  C24  1  0.87293400  0.49891600  0.33593900  1
  C  C25  1  0.75000000  0.90634400  0.19515900  1
  C  C26  1  0.62138200  0.96057200  0.45239000  1
  C  C27  1  0.88387300  0.62642000  0.01628700  1
  C  C28  1  0.94613700  0.42953800  0.84625000  1
  C  C29  1  0.75000000  0.94426300  0.81815000  1
  C  C30  1  0.05386300  0.57046200  0.15375000  1
  C  C31  1  0.94651400  0.06771100  0.14212100  1
  C  C32  1  0.55675100  0.16677700  0.61776300  1
  C  C33  1  0.37861800  0.03942800  0.54761000  1
  C  C34  1  0.38387300  0.37358000  0.98371300  1
  C  C35  1  0.11612700  0.37358000  0.98371300  1
  C  C36  1  0.12138200  0.03942800  0.54761000  1
  C  C37  1  0.05348600  0.93228900  0.85787900  1
  C  C38  1  0.25000000  0.09365600  0.80484100  1
  C  C39  1  0.94324900  0.16677700  0.61776300  1
  C  C40  1  0.12706600  0.50108400  0.66406100  1
  C  C41  1  0.55386300  0.42953800  0.84625000  1
  C  C42  1  0.61612700  0.62642000  0.01628700  1
  C  C43  1  0.25000000  0.05573700  0.18185000  1
  C  C44  1  0.87861800  0.96057200  0.45239000  1
  C  C45  1  0.55348600  0.06771100  0.14212100  1
  C  C46  1  0.44324900  0.83322300  0.38223700  1
  C  C47  1  0.37293400  0.50108400  0.66406100  1
