# generated using pymatgen
data_Cu3(NiC2)2
_symmetry_space_group_name_H-M   'P 1'
_cell_length_a   4.99073700
_cell_length_b   5.45861000
_cell_length_c   5.80418500
_cell_angle_alpha   90.00000000
_cell_angle_beta   90.00000000
_cell_angle_gamma   90.00000000
_symmetry_Int_Tables_number   1
_chemical_formula_structural   Cu3(NiC2)2
_chemical_formula_sum   'Cu6 Ni4 C8'
_cell_volume   158.12043380
_cell_formula_units_Z   2
loop_
 _symmetry_equiv_pos_site_id
 _symmetry_equiv_pos_as_xyz
  1  'x, y, z'
loop_
 _atom_site_type_symbol
 _atom_site_label
 _atom_site_symmetry_multiplicity
 _atom_site_fract_x
 _atom_site_fract_y
 _atom_site_fract_z
 _atom_site_occupancy
  C  C0  1  0.80367100  0.50000000  0.85075400  1
  C  C1  1  0.80367100  0.50000000  0.14924600  1
  C  C2  1  0.19632900  0.00000000  0.64924600  1
  C  C3  1  0.19632900  0.00000000  0.35075400  1
  C  C4  1  0.03840400  0.34595900  0.00000000  1
  C  C5  1  0.03840400  0.65404100  0.00000000  1
  C  C6  1  0.96159600  0.15404100  0.50000000  1
  C  C7  1  0.96159600  0.84595900  0.50000000  1
  Ni  Ni8  1  0.91864400  0.50000000  0.00000000  1
  Ni  Ni9  1  0.08135600  0.00000000  0.50000000  1
  Ni  Ni10  1  0.50549800  0.50000000  0.50000000  1
  Ni  Ni11  1  0.49450200  0.00000000  0.00000000  1
  Cu  Cu12  1  0.76505000  0.50000000  0.50000000  1
  Cu  Cu13  1  0.23495000  0.00000000  0.00000000  1
  Cu  Cu14  1  0.38295500  0.50000000  0.68965100  1
  Cu  Cu15  1  0.38295500  0.50000000  0.31034900  1
  Cu  Cu16  1  0.61704500  0.00000000  0.81034900  1
  Cu  Cu17  1  0.61704500  0.00000000  0.18965100  1
