# generated using pymatgen
data_Cu3NiC
_symmetry_space_group_name_H-M   'P 1'
_cell_length_a   7.29463600
_cell_length_b   7.30192394
_cell_length_c   7.30896454
_cell_angle_alpha   87.77943299
_cell_angle_beta   88.27086094
_cell_angle_gamma   87.96063604
_symmetry_Int_Tables_number   1
_chemical_formula_structural   Cu3NiC
_chemical_formula_sum   'Cu12 Ni4 C4'
_cell_volume   388.61069038
_cell_formula_units_Z   4
loop_
 _symmetry_equiv_pos_site_id
 _symmetry_equiv_pos_as_xyz
  1  'x, y, z'
loop_
 _atom_site_type_symbol
 _atom_site_label
 _atom_site_symmetry_multiplicity
 _atom_site_fract_x
 _atom_site_fract_y
 _atom_site_fract_z
 _atom_site_occupancy
  C  C0  1  0.40934200  0.53682000  0.97387800  1
  C  C1  1  0.47670600  0.90983300  0.53811500  1
  C  C2  1  0.95019600  0.45137400  0.44665800  1
  C  C3  1  0.04271700  0.97878600  0.90191400  1
  Ni  Ni4  1  0.01029000  0.69937700  0.15555300  1
  Ni  Ni5  1  0.66104000  0.51245400  0.68725700  1
  Ni  Ni6  1  0.19344300  0.16250300  0.51490300  1
  Ni  Ni7  1  0.38064000  0.87978200  0.87839200  1
  Cu  Cu8  1  0.72183000  0.10091200  0.73725200  1
  Cu  Cu9  1  0.99645500  0.36157700  0.83542900  1
  Cu  Cu10  1  0.23229500  0.21482300  0.10873000  1
  Cu  Cu11  1  0.71023300  0.11809000  0.90495500  1
  Cu  Cu12  1  0.86357600  0.83269900  0.50274400  1
  Cu  Cu13  1  0.31791300  0.60724900  0.48280500  1
  Cu  Cu14  1  0.60534800  0.89883300  0.21370800  1
  Cu  Cu15  1  0.33135000  0.49965600  0.35556400  1
  Cu  Cu16  1  0.98208300  0.80678100  0.61990800  1
  Cu  Cu17  1  0.60553000  0.72911800  0.22072700  1
  Cu  Cu18  1  0.40194600  0.21342000  0.10986400  1
  Cu  Cu19  1  0.10706500  0.48591300  0.81164400  1
