# generated using pymatgen
data_Cu3NiC
_symmetry_space_group_name_H-M   'P 1'
_cell_length_a   5.82140587
_cell_length_b   5.82140587
_cell_length_c   6.89594738
_cell_angle_alpha   81.97374968
_cell_angle_beta   81.97374968
_cell_angle_gamma   120.02109060
_symmetry_Int_Tables_number   1
_chemical_formula_structural   Cu3NiC
_chemical_formula_sum   'Cu6 Ni2 C2'
_cell_volume   194.28794120
_cell_formula_units_Z   2
loop_
 _symmetry_equiv_pos_site_id
 _symmetry_equiv_pos_as_xyz
  1  'x, y, z'
loop_
 _atom_site_type_symbol
 _atom_site_label
 _atom_site_symmetry_multiplicity
 _atom_site_fract_x
 _atom_site_fract_y
 _atom_site_fract_z
 _atom_site_occupancy
  C  C0  1  0.66686800  0.33313200  0.00000000  1
  C  C1  1  0.33313200  0.66686800  0.00000000  1
  Ni  Ni2  1  0.94478600  0.94478600  0.16488100  1
  Ni  Ni3  1  0.05521400  0.05521400  0.83511900  1
  Cu  Cu4  1  0.92370900  0.57795200  0.22923100  1
  Cu  Cu5  1  0.42204800  0.07629100  0.77076900  1
  Cu  Cu6  1  0.73047900  0.73047900  0.77065400  1
  Cu  Cu7  1  0.26952100  0.26952100  0.22934600  1
  Cu  Cu8  1  0.57795200  0.92370900  0.22923100  1
  Cu  Cu9  1  0.07629100  0.42204800  0.77076900  1
