# generated using pymatgen
data_Cu6Ni2C9
_symmetry_space_group_name_H-M   'P 1'
_cell_length_a   7.30469872
_cell_length_b   7.30469872
_cell_length_c   7.30469872
_cell_angle_alpha   60.00000000
_cell_angle_beta   60.00000000
_cell_angle_gamma   60.00000000
_symmetry_Int_Tables_number   1
_chemical_formula_structural   Cu6Ni2C9
_chemical_formula_sum   'Cu6 Ni2 C9'
_cell_volume   275.60806831
_cell_formula_units_Z   1
loop_
 _symmetry_equiv_pos_site_id
 _symmetry_equiv_pos_as_xyz
  1  'x, y, z'
loop_
 _atom_site_type_symbol
 _atom_site_label
 _atom_site_symmetry_multiplicity
 _atom_site_fract_x
 _atom_site_fract_y
 _atom_site_fract_z
 _atom_site_occupancy
  C  C0  1  0.00000000  0.00000000  0.00000000  1
  C  C1  1  0.80772500  0.80772500  0.57682500  1
  C  C2  1  0.80772500  0.57682500  0.80772500  1
  C  C3  1  0.57682500  0.80772500  0.80772500  1
  C  C4  1  0.80772500  0.80772500  0.80772500  1
  C  C5  1  0.19227500  0.19227500  0.42317500  1
  C  C6  1  0.19227500  0.42317500  0.19227500  1
  C  C7  1  0.42317500  0.19227500  0.19227500  1
  C  C8  1  0.19227500  0.19227500  0.19227500  1
  Ni  Ni9  1  0.75000000  0.75000000  0.75000000  1
  Ni  Ni10  1  0.25000000  0.25000000  0.25000000  1
  Cu  Cu11  1  0.76110000  0.76110000  0.23890000  1
  Cu  Cu12  1  0.23890000  0.76110000  0.23890000  1
  Cu  Cu13  1  0.76110000  0.23890000  0.23890000  1
  Cu  Cu14  1  0.23890000  0.23890000  0.76110000  1
  Cu  Cu15  1  0.76110000  0.23890000  0.76110000  1
  Cu  Cu16  1  0.23890000  0.76110000  0.76110000  1
