# generated using pymatgen
data_Cu5Ni3
_symmetry_space_group_name_H-M   'P 1'
_cell_length_a   4.04134500
_cell_length_b   5.49922200
_cell_length_c   10.49367700
_cell_angle_alpha   90.00000000
_cell_angle_beta   90.00000000
_cell_angle_gamma   90.00000000
_symmetry_Int_Tables_number   1
_chemical_formula_structural   Cu5Ni3
_chemical_formula_sum   'Cu10 Ni6'
_cell_volume   233.21413605
_cell_formula_units_Z   2
loop_
 _symmetry_equiv_pos_site_id
 _symmetry_equiv_pos_as_xyz
  1  'x, y, z'
loop_
 _atom_site_type_symbol
 _atom_site_label
 _atom_site_symmetry_multiplicity
 _atom_site_fract_x
 _atom_site_fract_y
 _atom_site_fract_z
 _atom_site_occupancy
  Ni  Ni0  1  0.50000000  0.89200800  0.34862700  1
  Ni  Ni1  1  0.00000000  0.50000000  0.50000000  1
  Ni  Ni2  1  0.50000000  0.39200800  0.15137300  1
  Ni  Ni3  1  0.50000000  0.10799200  0.65137300  1
  Ni  Ni4  1  0.50000000  0.60799200  0.84862700  1
  Ni  Ni5  1  0.00000000  0.00000000  0.00000000  1
  Cu  Cu6  1  0.00000000  0.34980600  0.71779100  1
  Cu  Cu7  1  0.00000000  0.15019400  0.21779100  1
  Cu  Cu8  1  0.00000000  0.84980600  0.78220900  1
  Cu  Cu9  1  0.50000000  0.82881000  0.10670100  1
  Cu  Cu10  1  0.50000000  0.17119000  0.89329900  1
  Cu  Cu11  1  0.50000000  0.67119000  0.60670100  1
  Cu  Cu12  1  0.00000000  0.00000000  0.50000000  1
  Cu  Cu13  1  0.50000000  0.32881000  0.39329900  1
  Cu  Cu14  1  0.00000000  0.50000000  0.00000000  1
  Cu  Cu15  1  0.00000000  0.65019400  0.28220900  1
