# generated using pymatgen
data_Cu6NiC6
_symmetry_space_group_name_H-M   'P 1'
_cell_length_a   5.56750000
_cell_length_b   5.58280735
_cell_length_c   5.69873289
_cell_angle_alpha   92.19482024
_cell_angle_beta   118.29675629
_cell_angle_gamma   117.14917498
_symmetry_Int_Tables_number   1
_chemical_formula_structural   Cu6NiC6
_chemical_formula_sum   'Cu6 Ni1 C6'
_cell_volume   131.24756094
_cell_formula_units_Z   1
loop_
 _symmetry_equiv_pos_site_id
 _symmetry_equiv_pos_as_xyz
  1  'x, y, z'
loop_
 _atom_site_type_symbol
 _atom_site_label
 _atom_site_symmetry_multiplicity
 _atom_site_fract_x
 _atom_site_fract_y
 _atom_site_fract_z
 _atom_site_occupancy
  Ni  Ni0  1  0.01166800  0.00411400  0.00028700  1
  Cu  Cu1  1  0.97099800  0.37424400  0.78024100  1
  Cu  Cu2  1  0.59650400  0.18306800  0.22102500  1
  Cu  Cu3  1  0.95146400  0.76548700  0.57709200  1
  Cu  Cu4  1  0.01039000  0.60963400  0.20515900  1
  Cu  Cu5  1  0.42574400  0.79827700  0.81477800  1
  Cu  Cu6  1  0.17343700  0.34061500  0.42609200  1
  C  C7  1  0.00286100  0.22138900  0.74223600  1
  C  C8  1  0.47777300  0.25217900  0.25447700  1
  C  C9  1  0.04982400  0.76484400  0.77438500  1
  C  C10  1  0.00712500  0.77953300  0.25366500  1
  C  C11  1  0.54268200  0.75220200  0.75284100  1
  C  C12  1  0.98808600  0.25869200  0.22566100  1
