# generated using pymatgen
data_Cu21Ni39C20
_symmetry_space_group_name_H-M   'P 1'
_cell_length_a   3.88634500
_cell_length_b   4.13265000
_cell_length_c   80.30905100
_cell_angle_alpha   90.00000000
_cell_angle_beta   90.00000000
_cell_angle_gamma   90.00000000
_symmetry_Int_Tables_number   1
_chemical_formula_structural   Cu21Ni39C20
_chemical_formula_sum   'Cu21 Ni39 C20'
_cell_volume   1289.83593148
_cell_formula_units_Z   1
loop_
 _symmetry_equiv_pos_site_id
 _symmetry_equiv_pos_as_xyz
  1  'x, y, z'
loop_
 _atom_site_type_symbol
 _atom_site_label
 _atom_site_symmetry_multiplicity
 _atom_site_fract_x
 _atom_site_fract_y
 _atom_site_fract_z
 _atom_site_occupancy
  C  C0  1  0.00000000  0.00000000  0.00000000  1
  C  C1  1  0.00000000  0.00000000  0.05257300  1
  C  C2  1  0.00000000  0.00000000  0.10248900  1
  C  C3  1  0.00000000  0.00000000  0.15243200  1
  C  C4  1  0.00000000  0.00000000  0.20245500  1
  C  C5  1  0.00000000  0.00000000  0.25230000  1
  C  C6  1  0.00000000  0.00000000  0.30217100  1
  C  C7  1  0.00000000  0.00000000  0.35205600  1
  C  C8  1  0.00000000  0.00000000  0.40186100  1
  C  C9  1  0.00000000  0.00000000  0.45132500  1
  C  C10  1  0.00000000  0.00000000  0.50000000  1
  C  C11  1  0.00000000  0.00000000  0.54867500  1
  C  C12  1  0.00000000  0.00000000  0.59813900  1
  C  C13  1  0.00000000  0.00000000  0.64794400  1
  C  C14  1  0.00000000  0.00000000  0.69782900  1
  C  C15  1  0.00000000  0.00000000  0.74770000  1
  C  C16  1  0.00000000  0.00000000  0.79754500  1
  C  C17  1  0.00000000  0.00000000  0.84756800  1
  C  C18  1  0.00000000  0.00000000  0.89751100  1
  C  C19  1  0.00000000  0.00000000  0.94742700  1
  Ni  Ni20  1  0.00000000  0.00000000  0.07491200  1
  Ni  Ni21  1  0.00000000  0.00000000  0.12500000  1
  Ni  Ni22  1  0.00000000  0.00000000  0.17489100  1
  Ni  Ni23  1  0.50000000  0.00000000  0.14921900  1
  Ni  Ni24  1  0.00000000  0.00000000  0.22476300  1
  Ni  Ni25  1  0.50000000  0.00000000  0.24907100  1
  Ni  Ni26  1  0.00000000  0.00000000  0.27471800  1
  Ni  Ni27  1  0.50000000  0.00000000  0.29908800  1
  Ni  Ni28  1  0.00000000  0.00000000  0.32466900  1
  Ni  Ni29  1  0.50000000  0.00000000  0.34915700  1
  Ni  Ni30  1  0.00000000  0.00000000  0.37463500  1
  Ni  Ni31  1  0.50000000  0.00000000  0.39930500  1
  Ni  Ni32  1  0.00000000  0.00000000  0.42471500  1
  Ni  Ni33  1  0.50000000  0.00000000  0.44956800  1
  Ni  Ni34  1  0.00000000  0.00000000  0.47490000  1
  Ni  Ni35  1  0.50000000  0.00000000  0.50000000  1
  Ni  Ni36  1  0.00000000  0.00000000  0.52510000  1
  Ni  Ni37  1  0.00000000  0.00000000  0.57528500  1
  Ni  Ni38  1  0.50000000  0.00000000  0.55043200  1
  Ni  Ni39  1  0.50000000  0.00000000  0.60069500  1
  Ni  Ni40  1  0.00000000  0.00000000  0.62536500  1
  Ni  Ni41  1  0.00000000  0.00000000  0.67533100  1
  Ni  Ni42  1  0.50000000  0.00000000  0.65084300  1
  Ni  Ni43  1  0.00000000  0.00000000  0.72528200  1
  Ni  Ni44  1  0.50000000  0.00000000  0.70091200  1
  Ni  Ni45  1  0.50000000  0.00000000  0.75092900  1
  Ni  Ni46  1  0.00000000  0.00000000  0.77523700  1
  Ni  Ni47  1  0.00000000  0.00000000  0.82510900  1
  Ni  Ni48  1  0.50000000  0.00000000  0.85078100  1
  Ni  Ni49  1  0.00000000  0.00000000  0.87500000  1
  Ni  Ni50  1  0.00000000  0.00000000  0.92508800  1
  Ni  Ni51  1  0.50000000  0.00000000  0.95078200  1
  Ni  Ni52  1  0.00000000  0.50000000  0.00000000  1
  Ni  Ni53  1  0.50000000  0.00000000  0.00000000  1
  Ni  Ni54  1  0.50000000  0.00000000  0.04921800  1
  Ni  Ni55  1  0.50000000  0.00000000  0.09931000  1
  Ni  Ni56  1  0.50000000  0.00000000  0.19907900  1
  Ni  Ni57  1  0.50000000  0.00000000  0.80092100  1
  Ni  Ni58  1  0.50000000  0.00000000  0.90069000  1
  Cu  Cu59  1  0.00000000  0.00000000  0.97463400  1
  Cu  Cu60  1  0.00000000  0.50000000  0.05013100  1
  Cu  Cu61  1  0.00000000  0.50000000  0.10006900  1
  Cu  Cu62  1  0.00000000  0.50000000  0.14992800  1
  Cu  Cu63  1  0.00000000  0.50000000  0.19982800  1
  Cu  Cu64  1  0.00000000  0.50000000  0.24979300  1
  Cu  Cu65  1  0.00000000  0.50000000  0.29975800  1
  Cu  Cu66  1  0.00000000  0.50000000  0.34975900  1
  Cu  Cu67  1  0.00000000  0.50000000  0.44998200  1
  Cu  Cu68  1  0.00000000  0.50000000  0.39983900  1
  Cu  Cu69  1  0.00000000  0.50000000  0.50000000  1
  Cu  Cu70  1  0.00000000  0.50000000  0.55001800  1
  Cu  Cu71  1  0.00000000  0.50000000  0.60016100  1
  Cu  Cu72  1  0.00000000  0.50000000  0.65024100  1
  Cu  Cu73  1  0.00000000  0.50000000  0.70024200  1
  Cu  Cu74  1  0.00000000  0.50000000  0.75020700  1
  Cu  Cu75  1  0.00000000  0.50000000  0.80017200  1
  Cu  Cu76  1  0.00000000  0.50000000  0.85007200  1
  Cu  Cu77  1  0.00000000  0.50000000  0.89993100  1
  Cu  Cu78  1  0.00000000  0.50000000  0.94986900  1
  Cu  Cu79  1  0.00000000  0.00000000  0.02536600  1
