# generated using pymatgen
data_CuNi6C
_symmetry_space_group_name_H-M   'P 1'
_cell_length_a   7.61632984
_cell_length_b   7.61632984
_cell_length_c   14.08103975
_cell_angle_alpha   75.19839614
_cell_angle_beta   75.19839614
_cell_angle_gamma   68.62744406
_symmetry_Int_Tables_number   1
_chemical_formula_structural   CuNi6C
_chemical_formula_sum   'Cu4 Ni24 C4'
_cell_volume   723.34799245
_cell_formula_units_Z   4
loop_
 _symmetry_equiv_pos_site_id
 _symmetry_equiv_pos_as_xyz
  1  'x, y, z'
loop_
 _atom_site_type_symbol
 _atom_site_label
 _atom_site_symmetry_multiplicity
 _atom_site_fract_x
 _atom_site_fract_y
 _atom_site_fract_z
 _atom_site_occupancy
  C  C0  1  0.16859900  0.62922400  0.52452300  1
  C  C1  1  0.83140100  0.37077600  0.47547700  1
  C  C2  1  0.62922400  0.16859900  0.02452300  1
  C  C3  1  0.37077600  0.83140100  0.97547700  1
  Ni  Ni4  1  0.46701400  0.27508800  0.33630600  1
  Ni  Ni5  1  0.84205100  0.86171300  0.79624100  1
  Ni  Ni6  1  0.64391000  0.67326500  0.11693200  1
  Ni  Ni7  1  0.15136100  0.17865400  0.27546200  1
  Ni  Ni8  1  0.82134600  0.84863900  0.22453800  1
  Ni  Ni9  1  0.35609000  0.32673500  0.88306800  1
  Ni  Ni10  1  0.56168200  0.82682600  0.06791000  1
  Ni  Ni11  1  0.13828700  0.15794900  0.70375900  1
  Ni  Ni12  1  0.17865400  0.15136100  0.77546200  1
  Ni  Ni13  1  0.96352900  0.99190800  0.96988200  1
  Ni  Ni14  1  0.17317400  0.43831800  0.43209000  1
  Ni  Ni15  1  0.72491200  0.53298600  0.16369400  1
  Ni  Ni16  1  0.86171300  0.84205100  0.29624100  1
  Ni  Ni17  1  0.43831800  0.17317400  0.93209000  1
  Ni  Ni18  1  0.27508800  0.46701400  0.83630600  1
  Ni  Ni19  1  0.15794900  0.13828700  0.20375900  1
  Ni  Ni20  1  0.03647100  0.00809200  0.03011800  1
  Ni  Ni21  1  0.84863900  0.82134600  0.72453800  1
  Ni  Ni22  1  0.82682600  0.56168200  0.56791000  1
  Ni  Ni23  1  0.67326500  0.64391000  0.61693200  1
  Ni  Ni24  1  0.00809200  0.03647100  0.53011800  1
  Ni  Ni25  1  0.32673500  0.35609000  0.38306800  1
  Ni  Ni26  1  0.53298600  0.72491200  0.66369400  1
  Ni  Ni27  1  0.99190800  0.96352900  0.46988200  1
  Cu  Cu28  1  0.43807000  0.71601100  0.40983900  1
  Cu  Cu29  1  0.56193000  0.28398900  0.59016100  1
  Cu  Cu30  1  0.71601100  0.43807000  0.90983900  1
  Cu  Cu31  1  0.28398900  0.56193000  0.09016100  1
