# generated using pymatgen
data_Cu(Ni4C3)5
_symmetry_space_group_name_H-M   'P 1'
_cell_length_a   7.79079546
_cell_length_b   7.79079546
_cell_length_c   12.60564566
_cell_angle_alpha   69.02768321
_cell_angle_beta   69.02768321
_cell_angle_gamma   69.72871944
_symmetry_Int_Tables_number   1
_chemical_formula_structural   Cu(Ni4C3)5
_chemical_formula_sum   'Cu2 Ni40 C30'
_cell_volume   645.84353717
_cell_formula_units_Z   2
loop_
 _symmetry_equiv_pos_site_id
 _symmetry_equiv_pos_as_xyz
  1  'x, y, z'
loop_
 _atom_site_type_symbol
 _atom_site_label
 _atom_site_symmetry_multiplicity
 _atom_site_fract_x
 _atom_site_fract_y
 _atom_site_fract_z
 _atom_site_occupancy
  C  C0  1  0.83406400  0.89792100  0.62785500  1
  C  C1  1  0.89792100  0.83406400  0.12785500  1
  C  C2  1  0.16660100  0.09694900  0.37406700  1
  C  C3  1  0.09694900  0.16660100  0.87406700  1
  Ni  Ni4  1  0.42957200  0.93779000  0.18034700  1
  Ni  Ni5  1  0.93779000  0.42957200  0.68034700  1
  Ni  Ni6  1  0.37968100  0.16277000  0.12852000  1
  Ni  Ni7  1  0.16277000  0.37968100  0.62852000  1
  Ni  Ni8  1  0.61943800  0.84643200  0.87912000  1
  Ni  Ni9  1  0.84643200  0.61943800  0.37912000  1
  Ni  Ni10  1  0.56821400  0.06752700  0.81235200  1
  Ni  Ni11  1  0.06752700  0.56821400  0.31235200  1
  Ni  Ni12  1  0.84989500  0.30338300  0.52047700  1
  Ni  Ni13  1  0.30338300  0.84989500  0.02047700  1
  Ni  Ni14  1  0.99258100  0.21361200  0.59768600  1
  Ni  Ni15  1  0.21361200  0.99258100  0.09768600  1
  Ni  Ni16  1  0.02318300  0.76916300  0.40189800  1
  Ni  Ni17  1  0.76916300  0.02318300  0.90189800  1
  Ni  Ni18  1  0.16804700  0.70116600  0.47862900  1
  Ni  Ni19  1  0.70116600  0.16804700  0.97862900  1
  Ni  Ni20  1  0.36399400  0.40515900  0.34910300  1
  Ni  Ni21  1  0.40515900  0.36399400  0.84910300  1
  Ni  Ni22  1  0.36672600  0.38829500  0.22721300  1
  Ni  Ni23  1  0.38829500  0.36672600  0.72721300  1
  Ni  Ni24  1  0.68162600  0.59651100  0.61720000  1
  Ni  Ni25  1  0.59651100  0.68162600  0.11720000  1
  Ni  Ni26  1  0.63409900  0.58786600  0.75263700  1
  Ni  Ni27  1  0.58786600  0.63409900  0.25263700  1
  Ni  Ni28  1  0.20454200  0.66433400  0.65954200  1
  Ni  Ni29  1  0.66433400  0.20454200  0.15954200  1
  Ni  Ni30  1  0.14946300  0.80823600  0.73635100  1
  Ni  Ni31  1  0.80823600  0.14946300  0.23635100  1
  Ni  Ni32  1  0.77580100  0.34213100  0.32824100  1
  Ni  Ni33  1  0.34213100  0.77580100  0.82824100  1
  Ni  Ni34  1  0.95666700  0.36340900  0.21730200  1
  Ni  Ni35  1  0.36340900  0.95666700  0.71730200  1
  Ni  Ni36  1  0.54254600  0.81165100  0.43970900  1
  Ni  Ni37  1  0.81165100  0.54254600  0.93970900  1
  Ni  Ni38  1  0.57018700  0.00391700  0.34094900  1
  Ni  Ni39  1  0.00391700  0.57018700  0.84094900  1
  Ni  Ni40  1  0.48384000  0.19340600  0.56344500  1
  Ni  Ni41  1  0.19340600  0.48384000  0.06344500  1
  Ni  Ni42  1  0.51183000  0.01531300  0.52221000  1
  Ni  Ni43  1  0.01531300  0.51183100  0.02221000  1
  Cu  Cu44  1  0.51462100  0.50269500  0.48558400  1
  Cu  Cu45  1  0.50269500  0.51462100  0.98558400  1
  C  C46  1  0.32216000  0.05483700  0.17627800  1
  C  C47  1  0.05483700  0.32216000  0.67627800  1
  C  C48  1  0.67544400  0.95282900  0.82252200  1
  C  C49  1  0.95282900  0.67544400  0.32252200  1
  C  C50  1  0.93979200  0.18379600  0.54703100  1
  C  C51  1  0.18379600  0.93979200  0.04703100  1
  C  C52  1  0.06873100  0.80973700  0.45179400  1
  C  C53  1  0.80973700  0.06873100  0.95179400  1
  C  C54  1  0.28597800  0.38669900  0.30850700  1
  C  C55  1  0.38669900  0.28597800  0.80850700  1
  C  C56  1  0.73093800  0.60967800  0.67586800  1
  C  C57  1  0.60967800  0.73093800  0.17586800  1
  C  C58  1  0.09633100  0.73189200  0.71238300  1
  C  C59  1  0.73189200  0.09633100  0.21238300  1
  C  C60  1  0.89925600  0.26949900  0.28708800  1
  C  C61  1  0.26949900  0.89925600  0.78708800  1
  C  C62  1  0.48400500  0.94967700  0.41773300  1
  C  C63  1  0.94967700  0.48400500  0.91773300  1
  C  C64  1  0.52502900  0.05436700  0.58621300  1
  C  C65  1  0.05436700  0.52502900  0.08621300  1
  C  C66  1  0.64861600  0.55758300  0.49410700  1
  C  C67  1  0.55758300  0.64861600  0.99410700  1
  C  C68  1  0.53574000  0.45649500  0.39176800  1
  C  C69  1  0.45649500  0.53574000  0.89176800  1
  C  C70  1  0.36001400  0.49303900  0.57199800  1
  C  C71  1  0.49303900  0.36001400  0.07199800  1
