# generated using pymatgen
data_Cu2Ni7C12
_symmetry_space_group_name_H-M   'P 1'
_cell_length_a   6.15823107
_cell_length_b   6.15823107
_cell_length_c   13.56915894
_cell_angle_alpha   77.89837624
_cell_angle_beta   77.89837624
_cell_angle_gamma   90.38004916
_symmetry_Int_Tables_number   1
_chemical_formula_structural   Cu2Ni7C12
_chemical_formula_sum   'Cu4 Ni14 C24'
_cell_volume   491.28786375
_cell_formula_units_Z   2
loop_
 _symmetry_equiv_pos_site_id
 _symmetry_equiv_pos_as_xyz
  1  'x, y, z'
loop_
 _atom_site_type_symbol
 _atom_site_label
 _atom_site_symmetry_multiplicity
 _atom_site_fract_x
 _atom_site_fract_y
 _atom_site_fract_z
 _atom_site_occupancy
  Ni  Ni0  1  0.29787100  0.02035300  0.92114400  1
  Ni  Ni1  1  0.97964700  0.70212900  0.57885600  1
  Ni  Ni2  1  0.02035300  0.29787100  0.42114400  1
  Ni  Ni3  1  0.64151300  0.35848700  0.25000000  1
  Ni  Ni4  1  0.66433900  0.18052500  0.66068200  1
  Ni  Ni5  1  0.70212900  0.97964700  0.07885600  1
  Ni  Ni6  1  0.33566100  0.81947500  0.33931800  1
  Ni  Ni7  1  0.18052500  0.66433900  0.16068200  1
  Ni  Ni8  1  0.50000000  0.50000000  0.00000000  1
  Ni  Ni9  1  0.35848700  0.64151300  0.75000000  1
  Ni  Ni10  1  0.00000000  0.50000000  0.00000000  1
  Ni  Ni11  1  0.81947500  0.33566100  0.83931800  1
  Ni  Ni12  1  0.50000000  0.50000000  0.50000000  1
  Ni  Ni13  1  0.50000000  0.00000000  0.50000000  1
  Cu  Cu14  1  0.17997100  0.16575300  0.16433000  1
  Cu  Cu15  1  0.82002900  0.83424700  0.83567000  1
  Cu  Cu16  1  0.16575300  0.17997100  0.66433000  1
  Cu  Cu17  1  0.83424700  0.82002900  0.33567000  1
  C  C18  1  0.71876600  0.24957500  0.50513300  1
  C  C19  1  0.08100100  0.06486200  0.32491300  1
  C  C20  1  0.39327300  0.92176700  0.17333200  1
  C  C21  1  0.75553400  0.75595900  0.48944800  1
  C  C22  1  0.07823300  0.60672700  0.32666800  1
  C  C23  1  0.24957500  0.71876600  0.00513300  1
  C  C24  1  0.75595900  0.75553400  0.98944800  1
  C  C25  1  0.04660200  0.60111200  0.83555600  1
  C  C26  1  0.59883900  0.60185700  0.83185300  1
  C  C27  1  0.40116100  0.39814300  0.16814700  1
  C  C28  1  0.24404100  0.24446600  0.01055200  1
  C  C29  1  0.75042500  0.28123400  0.99486700  1
  C  C30  1  0.92176700  0.39327300  0.67333200  1
  C  C31  1  0.39814300  0.40116100  0.66814700  1
  C  C32  1  0.24446600  0.24404100  0.51055200  1
  C  C33  1  0.60672700  0.07823300  0.82666800  1
  C  C34  1  0.06486200  0.08100100  0.82491300  1
  C  C35  1  0.91899900  0.93513800  0.67508700  1
  C  C36  1  0.39888800  0.95339800  0.66444400  1
  C  C37  1  0.60111200  0.04660200  0.33555600  1
  C  C38  1  0.93513800  0.91899900  0.17508700  1
  C  C39  1  0.28123400  0.75042500  0.49486700  1
  C  C40  1  0.60185700  0.59883900  0.33185300  1
  C  C41  1  0.95339800  0.39888800  0.16444400  1
