# generated using pymatgen
data_Cu(NiC4)3
_symmetry_space_group_name_H-M   'P 1'
_cell_length_a   9.50763574
_cell_length_b   9.50763574
_cell_length_c   18.11366400
_cell_angle_alpha   90.00000000
_cell_angle_beta   90.00000000
_cell_angle_gamma   119.99999816
_symmetry_Int_Tables_number   1
_chemical_formula_structural   Cu(NiC4)3
_chemical_formula_sum   'Cu6 Ni18 C72'
_cell_volume   1418.01888866
_cell_formula_units_Z   6
loop_
 _symmetry_equiv_pos_site_id
 _symmetry_equiv_pos_as_xyz
  1  'x, y, z'
loop_
 _atom_site_type_symbol
 _atom_site_label
 _atom_site_symmetry_multiplicity
 _atom_site_fract_x
 _atom_site_fract_y
 _atom_site_fract_z
 _atom_site_occupancy
  Ni  Ni0  1  0.33333300  0.66666700  0.27810200  1
  Ni  Ni1  1  0.00000000  0.65130900  0.13211700  1
  Ni  Ni2  1  0.65130900  0.00000000  0.13211700  1
  Ni  Ni3  1  0.34869100  0.00000000  0.63211700  1
  Ni  Ni4  1  0.00000000  0.34869100  0.63211700  1
  Ni  Ni5  1  0.34869100  0.34869100  0.13211700  1
  Ni  Ni6  1  0.65130900  0.65130900  0.63211700  1
  Ni  Ni7  1  0.66666700  0.33333300  0.77810200  1
  Ni  Ni8  1  0.33333300  0.66666700  0.77810200  1
  Ni  Ni9  1  0.66666700  0.33333300  0.27810200  1
  Ni  Ni10  1  0.00000000  0.00000000  0.71707800  1
  Ni  Ni11  1  0.00000000  0.00000000  0.21707800  1
  Ni  Ni12  1  0.31700100  0.31700100  0.36925800  1
  Ni  Ni13  1  0.00000000  0.31700100  0.86925800  1
  Ni  Ni14  1  0.31700100  0.00000000  0.86925800  1
  Ni  Ni15  1  0.68299900  0.00000000  0.36925800  1
  Ni  Ni16  1  0.00000000  0.68299900  0.36925800  1
  Ni  Ni17  1  0.68299900  0.68299900  0.86925800  1
  Cu  Cu18  1  0.00000000  0.00000000  0.00359600  1
  Cu  Cu19  1  0.00000000  0.00000000  0.50359600  1
  Cu  Cu20  1  0.66666700  0.33333300  0.99768700  1
  Cu  Cu21  1  0.33333300  0.66666700  0.49768700  1
  Cu  Cu22  1  0.66666700  0.33333300  0.49768700  1
  Cu  Cu23  1  0.33333300  0.66666700  0.99768700  1
  C  C24  1  0.65967000  0.65967000  0.42107100  1
  C  C25  1  0.00000000  0.65967000  0.92107100  1
  C  C26  1  0.65967000  0.00000000  0.92107100  1
  C  C27  1  0.34033000  0.00000000  0.42107100  1
  C  C28  1  0.00000000  0.34033000  0.42107100  1
  C  C29  1  0.34033000  0.34033000  0.92107100  1
  C  C30  1  0.66739900  0.66739900  0.24983700  1
  C  C31  1  0.00000000  0.66739900  0.74983700  1
  C  C32  1  0.66739900  0.00000000  0.74983700  1
  C  C33  1  0.33260100  0.00000000  0.24983700  1
  C  C34  1  0.00000000  0.33260100  0.24983700  1
  C  C35  1  0.33260100  0.33260100  0.74983700  1
  C  C36  1  0.67397400  0.67397400  0.07513200  1
  C  C37  1  0.00000000  0.67397400  0.57513200  1
  C  C38  1  0.67397400  0.00000000  0.57513200  1
  C  C39  1  0.32602600  0.00000000  0.07513200  1
  C  C40  1  0.00000000  0.32602600  0.07513200  1
  C  C41  1  0.32602600  0.32602600  0.57513200  1
  C  C42  1  0.85313700  0.66728500  0.75028900  1
  C  C43  1  0.00000000  0.80538200  0.93093000  1
  C  C44  1  0.80538200  0.00000000  0.93093000  1
  C  C45  1  0.19461800  0.00000000  0.43093000  1
  C  C46  1  0.00000000  0.19461800  0.43093000  1
  C  C47  1  0.66084000  0.14660000  0.91571800  1
  C  C48  1  0.18110400  0.18110400  0.58511400  1
  C  C49  1  0.00000000  0.18110400  0.08511400  1
  C  C50  1  0.18110400  0.00000000  0.08511400  1
  C  C51  1  0.81889600  0.00000000  0.58511400  1
  C  C52  1  0.00000000  0.81889600  0.58511400  1
  C  C53  1  0.81889600  0.81889600  0.08511400  1
  C  C54  1  0.32584100  0.47184500  0.57042000  1
  C  C55  1  0.85399500  0.32584100  0.07042000  1
  C  C56  1  0.47184500  0.14600500  0.07042000  1
  C  C57  1  0.52815500  0.85399500  0.57042000  1
  C  C58  1  0.14600500  0.67415900  0.57042000  1
  C  C59  1  0.67415900  0.52815500  0.07042000  1
  C  C60  1  0.14600500  0.47184500  0.07042000  1
  C  C61  1  0.32584100  0.85399500  0.07042000  1
  C  C62  1  0.52815500  0.67415900  0.07042000  1
  C  C63  1  0.47184500  0.32584100  0.57042000  1
  C  C64  1  0.85399500  0.52815500  0.57042000  1
  C  C65  1  0.67415900  0.14600500  0.57042000  1
  C  C66  1  0.18585200  0.33271500  0.75028900  1
  C  C67  1  0.85313700  0.18585200  0.25028900  1
  C  C68  1  0.33271500  0.14686300  0.25028900  1
  C  C69  1  0.66728500  0.85313700  0.75028900  1
  C  C70  1  0.14686300  0.81414800  0.75028900  1
  C  C71  1  0.81414800  0.66728500  0.25028900  1
  C  C72  1  0.14686300  0.33271500  0.25028900  1
  C  C73  1  0.18585200  0.85313700  0.25028900  1
  C  C74  1  0.66728500  0.81414800  0.25028900  1
  C  C75  1  0.33271500  0.18585200  0.75028900  1
  C  C76  1  0.80538200  0.80538200  0.43093000  1
  C  C77  1  0.81414800  0.14686300  0.75028900  1
  C  C78  1  0.47946700  0.47946700  0.74963400  1
  C  C79  1  0.00000000  0.47946700  0.24963400  1
  C  C80  1  0.47946700  0.00000000  0.24963400  1
  C  C81  1  0.52053300  0.00000000  0.74963400  1
  C  C82  1  0.00000000  0.52053300  0.74963400  1
  C  C83  1  0.52053300  0.52053300  0.24963400  1
  C  C84  1  0.33916000  0.48576000  0.91571800  1
  C  C85  1  0.85340000  0.33916000  0.41571800  1
  C  C86  1  0.48576000  0.14660000  0.41571800  1
  C  C87  1  0.51424000  0.85340000  0.91571800  1
  C  C88  1  0.14660000  0.66084000  0.91571800  1
  C  C89  1  0.66084000  0.51424000  0.41571800  1
  C  C90  1  0.14660000  0.48576000  0.41571800  1
  C  C91  1  0.33916000  0.85340000  0.41571800  1
  C  C92  1  0.51424000  0.66084000  0.41571800  1
  C  C93  1  0.48576000  0.33916000  0.91571800  1
  C  C94  1  0.85340000  0.51424000  0.91571800  1
  C  C95  1  0.19461800  0.19461800  0.93093000  1
