# generated using pymatgen
data_Cu6Ni14C45
_symmetry_space_group_name_H-M   'P 1'
_cell_length_a   6.83017945
_cell_length_b   6.83017945
_cell_length_c   28.08326007
_cell_angle_alpha   83.18932620
_cell_angle_beta   83.18932620
_cell_angle_gamma   59.73603405
_symmetry_Int_Tables_number   1
_chemical_formula_structural   Cu6Ni14C45
_chemical_formula_sum   'Cu6 Ni14 C45'
_cell_volume   1120.93809173
_cell_formula_units_Z   1
loop_
 _symmetry_equiv_pos_site_id
 _symmetry_equiv_pos_as_xyz
  1  'x, y, z'
loop_
 _atom_site_type_symbol
 _atom_site_label
 _atom_site_symmetry_multiplicity
 _atom_site_fract_x
 _atom_site_fract_y
 _atom_site_fract_z
 _atom_site_occupancy
  C  C0  1  0.59995400  0.59995400  0.19979100  1
  C  C1  1  0.00045700  0.00045700  0.99985500  1
  C  C2  1  0.40032800  0.40032800  0.79999500  1
  C  C3  1  0.80025900  0.80025900  0.60004800  1
  C  C4  1  0.20035400  0.20035400  0.39993600  1
  Ni  Ni5  1  0.42885900  0.84533700  0.87917200  1
  Ni  Ni6  1  0.67873400  0.67873400  0.96246800  1
  Ni  Ni7  1  0.84533700  0.42885900  0.87917200  1
  Ni  Ni8  1  0.82875500  0.24529900  0.67929700  1
  Ni  Ni9  1  0.07869100  0.07869100  0.76253400  1
  Ni  Ni10  1  0.24529900  0.82875500  0.67929700  1
  Ni  Ni11  1  0.22889400  0.64526800  0.47929200  1
  Ni  Ni12  1  0.64526800  0.22889400  0.47929200  1
  Ni  Ni13  1  0.47869300  0.47869300  0.56256300  1
  Ni  Ni14  1  0.62998200  0.04451400  0.27963000  1
  Ni  Ni15  1  0.04451400  0.62998200  0.27963000  1
  Ni  Ni16  1  0.87866500  0.87866500  0.36267300  1
  Ni  Ni17  1  0.02926000  0.44539700  0.07872500  1
  Ni  Ni18  1  0.44539700  0.02926000  0.07872500  1
  Cu  Cu19  1  0.84451200  0.84451200  0.87930100  1
  Cu  Cu20  1  0.24445300  0.24445300  0.67944900  1
  Cu  Cu21  1  0.64440700  0.64440700  0.47942200  1
  Cu  Cu22  1  0.04381500  0.04381500  0.27966900  1
  Cu  Cu23  1  0.27925100  0.27925100  0.16140600  1
  Cu  Cu24  1  0.44445500  0.44445500  0.07891100  1
  C  C25  1  0.51140000  0.51140000  0.92691600  1
  C  C26  1  0.72560500  0.72560500  0.81891200  1
  C  C27  1  0.50877600  0.05082200  0.92728600  1
  C  C28  1  0.91143100  0.91143100  0.72697400  1
  C  C29  1  0.75266400  0.21383000  0.82652100  1
  C  C30  1  0.05082200  0.50877600  0.92728600  1
  C  C31  1  0.02936400  0.02936400  0.91878200  1
  C  C32  1  0.12554700  0.12554700  0.61908900  1
  C  C33  1  0.21383000  0.75266400  0.82652100  1
  C  C34  1  0.90876900  0.45074400  0.72734500  1
  C  C35  1  0.21000800  0.21000800  0.82705800  1
  C  C36  1  0.31153000  0.31153000  0.52698700  1
  C  C37  1  0.15280900  0.61367600  0.62665400  1
  C  C38  1  0.45074400  0.90876900  0.72734500  1
  C  C39  1  0.42932200  0.42932200  0.71890900  1
  C  C40  1  0.52551400  0.52551400  0.41909100  1
  C  C41  1  0.30885500  0.85051400  0.52736500  1
  C  C42  1  0.61367600  0.15280900  0.62665400  1
  C  C43  1  0.60983000  0.60983000  0.62721400  1
  C  C44  1  0.71137700  0.71137700  0.32718200  1
  C  C45  1  0.55265300  0.01380400  0.42662600  1
  C  C46  1  0.85051400  0.30885500  0.52736500  1
  C  C47  1  0.82932600  0.82932600  0.51891200  1
  C  C48  1  0.92531300  0.92531300  0.21908000  1
  C  C49  1  0.70887300  0.25043200  0.32755200  1
  C  C50  1  0.01380400  0.55265300  0.42662600  1
  C  C51  1  0.00995200  0.00995200  0.42719400  1
  C  C52  1  0.11084400  0.11084400  0.12601200  1
  C  C53  1  0.94993500  0.41513500  0.22763800  1
  C  C54  1  0.25043200  0.70887300  0.32755200  1
  C  C55  1  0.22940700  0.22940700  0.31845200  1
  C  C56  1  0.32550000  0.32550000  0.01870300  1
  C  C57  1  0.10839900  0.65256200  0.12650900  1
  C  C58  1  0.41513500  0.94993500  0.22763800  1
  C  C59  1  0.41017900  0.41017900  0.22846000  1
  C  C60  1  0.35300800  0.81359700  0.02658800  1
  C  C61  1  0.65256200  0.10839900  0.12650900  1
  C  C62  1  0.63029100  0.63029100  0.11850900  1
  C  C63  1  0.81359700  0.35300800  0.02658800  1
  C  C64  1  0.80980700  0.80980700  0.02714300  1
