# generated using pymatgen
data_Cu3Ni45C37
_symmetry_space_group_name_H-M   'P 1'
_cell_length_a   7.86778100
_cell_length_b   7.88304542
_cell_length_c   17.12646181
_cell_angle_alpha   90.28235966
_cell_angle_beta   89.90191460
_cell_angle_gamma   119.55043271
_symmetry_Int_Tables_number   1
_chemical_formula_structural   Cu3Ni45C37
_chemical_formula_sum   'Cu3 Ni45 C37'
_cell_volume   924.03579269
_cell_formula_units_Z   1
loop_
 _symmetry_equiv_pos_site_id
 _symmetry_equiv_pos_as_xyz
  1  'x, y, z'
loop_
 _atom_site_type_symbol
 _atom_site_label
 _atom_site_symmetry_multiplicity
 _atom_site_fract_x
 _atom_site_fract_y
 _atom_site_fract_z
 _atom_site_occupancy
  C  C0  1  0.67595500  0.34615700  0.27162000  1
  C  C1  1  0.09639700  0.51479400  0.28244300  1
  C  C2  1  0.91604000  0.43258600  0.44939300  1
  C  C3  1  0.92510300  0.43220200  0.10725000  1
  C  C4  1  0.91350900  0.74771600  0.68028800  1
  C  C5  1  0.92298400  0.75391000  0.34969200  1
  C  C6  1  0.91406900  0.74805500  0.01304700  1
  C  C7  1  0.16931100  0.24107400  0.84841100  1
  C  C8  1  0.16872900  0.24158600  0.51948900  1
  C  C9  1  0.17049400  0.24182800  0.18146400  1
  C  C10  1  0.08318900  0.51722100  0.94516700  1
  C  C11  1  0.08786300  0.51929000  0.61609800  1
  C  C12  1  0.08900700  0.82859100  0.84679900  1
  C  C13  1  0.08865500  0.82813300  0.51475600  1
  C  C14  1  0.07883700  0.82260100  0.18030000  1
  C  C15  1  0.48641200  0.56852100  0.94425300  1
  C  C16  1  0.48876400  0.56830500  0.61306500  1
  C  C17  1  0.48647800  0.57982600  0.27996000  1
  C  C18  1  0.42886500  0.91811000  0.94338900  1
  C  C19  1  0.43115300  0.91940400  0.61228700  1
  C  C20  1  0.42638300  0.91499500  0.27867200  1
  C  C21  1  0.25298700  0.16770700  0.68280100  1
  C  C22  1  0.24680600  0.17298400  0.35142600  1
  C  C23  1  0.24867400  0.16815700  0.01427600  1
  C  C24  1  0.51455000  0.08418300  0.77858400  1
  C  C25  1  0.51318400  0.08354100  0.44865200  1
  C  C26  1  0.50781600  0.07992800  0.11034700  1
  C  C27  1  0.74459100  0.90951500  0.84764900  1
  C  C28  1  0.74552900  0.91060200  0.51664400  1
  C  C29  1  0.74796200  0.91750800  0.17993600  1
  C  C30  1  0.83651400  0.08863400  0.68199900  1
  C  C31  1  0.83119900  0.08543100  0.35062700  1
  C  C32  1  0.83561800  0.08957000  0.01154800  1
  C  C33  1  0.56865700  0.48811700  0.77781800  1
  C  C34  1  0.56535900  0.48935500  0.10936800  1
  C  C35  1  0.56311900  0.48394200  0.44770600  1
  C  C36  1  0.91360300  0.43395800  0.77581500  1
  Ni  Ni37  1  0.00638600  0.01404100  0.68141800  1
  Ni  Ni38  1  0.00350900  0.01548200  0.34728300  1
  Ni  Ni39  1  0.30968000  0.31987900  0.93234600  1
  Ni  Ni40  1  0.31657000  0.31923800  0.60093100  1
  Ni  Ni41  1  0.32459300  0.32362400  0.26606300  1
  Ni  Ni42  1  0.00727900  0.68058800  0.92677000  1
  Ni  Ni43  1  0.00664100  0.67734000  0.59482200  1
  Ni  Ni44  1  0.98386800  0.66479900  0.25907100  1
  Ni  Ni45  1  0.33181800  0.66642100  0.95830400  1
  Ni  Ni46  1  0.33584400  0.66800100  0.62753800  1
  Ni  Ni47  1  0.34790500  0.68049700  0.30275500  1
  Ni  Ni48  1  0.99805000  0.99770100  0.18317500  1
  Ni  Ni49  1  0.60840400  0.65512800  0.52142900  1
  Ni  Ni50  1  0.60907000  0.65381900  0.85397000  1
  Ni  Ni51  1  0.60920500  0.65683300  0.18889900  1
  Ni  Ni52  1  0.34759800  0.96129600  0.85383600  1
  Ni  Ni53  1  0.34663800  0.95907500  0.52248900  1
  Ni  Ni54  1  0.34404700  0.95919900  0.18983900  1
  Ni  Ni55  1  0.39137500  0.04652000  0.68835700  1
  Ni  Ni56  1  0.40137500  0.06283500  0.35254600  1
  Ni  Ni57  1  0.39198800  0.04982500  0.01997100  1
  Ni  Ni58  1  0.31847100  0.31262700  0.76822200  1
  Ni  Ni59  1  0.30889100  0.31852000  0.43521200  1
  Ni  Ni60  1  0.31642400  0.31296200  0.10036100  1
  Ni  Ni61  1  0.67741900  0.98938200  0.93226600  1
  Ni  Ni62  1  0.68178200  0.99586000  0.60054900  1
  Ni  Ni63  1  0.68117000  0.01030700  0.26424900  1
  Ni  Ni64  1  0.69050300  0.00944300  0.76695600  1
  Ni  Ni65  1  0.68913800  0.01157800  0.09902800  1
  Ni  Ni66  1  0.68309500  0.00057300  0.43433500  1
  Ni  Ni67  1  0.66750900  0.33386700  0.79680700  1
  Ni  Ni68  1  0.65252600  0.32881500  0.46612200  1
  Ni  Ni69  1  0.65696800  0.33045100  0.13671900  1
  Ni  Ni70  1  0.99786600  0.99551100  0.84782700  1
  Ni  Ni71  1  0.00341200  0.01295500  0.01414200  1
  Ni  Ni72  1  0.64372400  0.58684000  0.35291000  1
  Ni  Ni73  1  0.64325100  0.60278800  0.68895800  1
  Ni  Ni74  1  0.64069900  0.60016300  0.02093800  1
  Ni  Ni75  1  0.95489900  0.34686000  0.68782200  1
  Ni  Ni76  1  0.92590100  0.33284400  0.35048500  1
  Ni  Ni77  1  0.95122000  0.34110000  0.01188100  1
  Ni  Ni78  1  0.00684200  0.67832200  0.76733700  1
  Ni  Ni79  1  0.00969300  0.68861600  0.09891600  1
  Ni  Ni80  1  0.01596200  0.69081100  0.43372400  1
  Ni  Ni81  1  0.99809300  0.99658400  0.51633400  1
  Cu  Cu82  1  0.04413000  0.38287300  0.85163300  1
  Cu  Cu83  1  0.04810000  0.37751900  0.52850100  1
  Cu  Cu84  1  0.05277200  0.37498500  0.18758500  1
