# generated using pymatgen
data_Cu3Ni4C7
_symmetry_space_group_name_H-M   'P 1'
_cell_length_a   10.71447654
_cell_length_b   10.71447654
_cell_length_c   10.71447654
_cell_angle_alpha   96.37232984
_cell_angle_beta   96.37232984
_cell_angle_gamma   141.07982784
_symmetry_Int_Tables_number   1
_chemical_formula_structural   Cu3Ni4C7
_chemical_formula_sum   'Cu12 Ni16 C28'
_cell_volume   728.60133780
_cell_formula_units_Z   4
loop_
 _symmetry_equiv_pos_site_id
 _symmetry_equiv_pos_as_xyz
  1  'x, y, z'
loop_
 _atom_site_type_symbol
 _atom_site_label
 _atom_site_symmetry_multiplicity
 _atom_site_fract_x
 _atom_site_fract_y
 _atom_site_fract_z
 _atom_site_occupancy
  C  C0  1  0.02211400  0.16791000  0.80308100  1
  C  C1  1  0.36482900  0.21903300  0.19691900  1
  C  C2  1  0.78096700  0.97788600  0.14579700  1
  C  C3  1  0.83209000  0.63517100  0.85420300  1
  Ni  Ni4  1  0.35299100  0.35619300  0.55314300  1
  Ni  Ni5  1  0.80305000  0.79984800  0.44685700  1
  Ni  Ni6  1  0.20015200  0.64700900  0.00320200  1
  Ni  Ni7  1  0.64380700  0.19695000  0.99679800  1
  Ni  Ni8  1  0.38483100  0.11202900  0.82218500  1
  Ni  Ni9  1  0.28984400  0.56264600  0.17781500  1
  Ni  Ni10  1  0.43735400  0.61516900  0.72719800  1
  Ni  Ni11  1  0.88797100  0.71015600  0.27280200  1
  Ni  Ni12  1  0.44776200  0.81160200  0.43012000  1
  Ni  Ni13  1  0.38148200  0.01764100  0.56988000  1
  Ni  Ni14  1  0.98235900  0.55223800  0.36384100  1
  Ni  Ni15  1  0.18839800  0.61851800  0.63615900  1
  Ni  Ni16  1  0.90105400  0.12602000  0.47604600  1
  Ni  Ni17  1  0.64997400  0.42500800  0.52395400  1
  Ni  Ni18  1  0.57499200  0.09894600  0.22496600  1
  Ni  Ni19  1  0.87398000  0.35002600  0.77503400  1
  Cu  Cu20  1  0.20286400  0.27119000  0.48851700  1
  Cu  Cu21  1  0.78267300  0.71434700  0.51148300  1
  Cu  Cu22  1  0.28565300  0.79713600  0.06832600  1
  Cu  Cu23  1  0.72881000  0.21732700  0.93167400  1
  Cu  Cu24  1  0.32290700  0.15793300  0.83997100  1
  Cu  Cu25  1  0.31796200  0.48293600  0.16002900  1
  Cu  Cu26  1  0.51706400  0.67709300  0.83502600  1
  Cu  Cu27  1  0.84206700  0.68203800  0.16497400  1
  Cu  Cu28  1  0.61002400  0.91753500  0.48680600  1
  Cu  Cu29  1  0.43072900  0.12321800  0.51319400  1
  Cu  Cu30  1  0.87678200  0.38997600  0.30751100  1
  Cu  Cu31  1  0.08246500  0.56927100  0.69248900  1
  C  C32  1  0.15570000  0.21536300  0.36497300  1
  C  C33  1  0.85039000  0.79072700  0.63502700  1
  C  C34  1  0.20927300  0.84430000  0.05966300  1
  C  C35  1  0.78463700  0.14961000  0.94033700  1
  C  C36  1  0.08965300  0.23890500  0.55331500  1
  C  C37  1  0.68559000  0.53633800  0.44668500  1
  C  C38  1  0.46366200  0.91034700  0.14925200  1
  C  C39  1  0.76109500  0.31441000  0.85074800  1
  C  C40  1  0.19326800  0.06703100  0.90599200  1
  C  C41  1  0.16103900  0.28727600  0.09400800  1
  C  C42  1  0.71272400  0.80673200  0.87376300  1
  C  C43  1  0.93296900  0.83896100  0.12623700  1
  C  C44  1  0.38442400  0.29573400  0.79273800  1
  C  C45  1  0.50299600  0.59168600  0.20726200  1
  C  C46  1  0.40831400  0.61557600  0.91131000  1
  C  C47  1  0.70426600  0.49700400  0.08869000  1
  C  C48  1  0.73915000  0.02143200  0.41714300  1
  C  C49  1  0.60428900  0.32200700  0.58285700  1
  C  C50  1  0.67799300  0.26085000  0.28228200  1
  C  C51  1  0.97856800  0.39571100  0.71771800  1
  C  C52  1  0.65489500  0.92970100  0.60260300  1
  C  C53  1  0.32709800  0.05229200  0.39739700  1
  C  C54  1  0.94770800  0.34510500  0.27480600  1
  C  C55  1  0.07029900  0.67290200  0.72519400  1
