# generated using pymatgen
data_Cu2Ni2C7
_symmetry_space_group_name_H-M   'P 1'
_cell_length_a   7.33746600
_cell_length_b   7.53200484
_cell_length_c   12.75942491
_cell_angle_alpha   92.38984779
_cell_angle_beta   104.08878443
_cell_angle_gamma   118.44507432
_symmetry_Int_Tables_number   1
_chemical_formula_structural   Cu2Ni2C7
_chemical_formula_sum   'Cu6 Ni6 C21'
_cell_volume   591.01458575
_cell_formula_units_Z   3
loop_
 _symmetry_equiv_pos_site_id
 _symmetry_equiv_pos_as_xyz
  1  'x, y, z'
loop_
 _atom_site_type_symbol
 _atom_site_label
 _atom_site_symmetry_multiplicity
 _atom_site_fract_x
 _atom_site_fract_y
 _atom_site_fract_z
 _atom_site_occupancy
  Ni  Ni0  1  0.53521700  0.48151300  0.01358100  1
  Ni  Ni1  1  0.00982100  0.46820500  0.00981200  1
  Ni  Ni2  1  0.01511100  0.51841500  0.50336000  1
  Ni  Ni3  1  0.99774600  0.02750600  0.48237700  1
  Ni  Ni4  1  0.48360400  0.97300500  0.48218300  1
  Ni  Ni5  1  0.98912900  0.73234600  0.25129200  1
  Cu  Cu6  1  0.98426100  0.76550900  0.75643400  1
  Cu  Cu7  1  0.47708500  0.01165400  0.98797300  1
  Cu  Cu8  1  0.52597600  0.27451300  0.77310200  1
  Cu  Cu9  1  0.97753300  0.26594000  0.25444100  1
  Cu  Cu10  1  0.50256700  0.53278600  0.52492300  1
  Cu  Cu11  1  0.50577600  0.75261400  0.24052100  1
  C  C12  1  0.11645200  0.82442000  0.44128500  1
  C  C13  1  0.32160600  0.96177500  0.80801900  1
  C  C14  1  0.65976300  0.27791400  0.93592500  1
  C  C15  1  0.86673200  0.50021700  0.81570500  1
  C  C16  1  0.43607200  0.25040000  0.59601700  1
  C  C17  1  0.20577500  0.32782700  0.41636200  1
  C  C18  1  0.84800000  0.64789500  0.58806200  1
  C  C19  1  0.61468400  0.57310000  0.19515200  1
  C  C20  1  0.40371000  0.42004000  0.82214900  1
  C  C21  1  0.38288800  0.68908900  0.57764600  1
  C  C22  1  0.83619200  0.89999100  0.77205200  1
  C  C23  1  0.18479500  0.51084900  0.19932900  1
  C  C24  1  0.59846900  0.74284800  0.41819000  1
  C  C25  1  0.86145200  0.97064200  0.29405900  1
  C  C26  1  0.38691000  0.72591300  0.04682800  1
  C  C27  1  0.79192600  0.14328400  0.09780800  1
  C  C28  1  0.83737100  0.19438800  0.52423900  1
  C  C29  1  0.38147000  0.92547900  0.29971400  1
  C  C30  1  0.34495400  0.15110200  0.03576800  1
  C  C31  1  0.87197100  0.42435600  0.31935900  1
  C  C32  1  0.90048000  0.65371600  0.06908200  1
