# generated using pymatgen
data_Cu2Ni2C
_symmetry_space_group_name_H-M   'P 1'
_cell_length_a   12.42382700
_cell_length_b   9.90578400
_cell_length_c   13.19086153
_cell_angle_alpha   71.40899193
_cell_angle_beta   90.00000000
_cell_angle_gamma   90.00000000
_symmetry_Int_Tables_number   1
_chemical_formula_structural   Cu2Ni2C
_chemical_formula_sum   'Cu32 Ni32 C16'
_cell_volume   1538.65967215
_cell_formula_units_Z   16
loop_
 _symmetry_equiv_pos_site_id
 _symmetry_equiv_pos_as_xyz
  1  'x, y, z'
loop_
 _atom_site_type_symbol
 _atom_site_label
 _atom_site_symmetry_multiplicity
 _atom_site_fract_x
 _atom_site_fract_y
 _atom_site_fract_z
 _atom_site_occupancy
  C  C0  1  0.86829500  0.89673300  0.31291300  1
  C  C1  1  0.36829500  0.10326700  0.18708700  1
  C  C2  1  0.63204300  0.32863000  0.70784600  1
  C  C3  1  0.86795700  0.32863000  0.20784600  1
  C  C4  1  0.13204300  0.67137000  0.79215400  1
  C  C5  1  0.63170500  0.89673300  0.81291300  1
  C  C6  1  0.36795700  0.67137000  0.29215400  1
  C  C7  1  0.13170500  0.10326700  0.68708700  1
  Ni  Ni8  1  0.21586600  0.53726300  0.88712900  1
  Ni  Ni9  1  0.21392200  0.24158400  0.71328900  1
  Ni  Ni10  1  0.95535800  0.76106700  0.40312100  1
  Ni  Ni11  1  0.04259900  0.09252400  0.80558700  1
  Ni  Ni12  1  0.22249800  0.10087100  0.57306000  1
  Ni  Ni13  1  0.54259900  0.90747600  0.69441300  1
  Ni  Ni14  1  0.45978900  0.68331500  0.40212200  1
  Ni  Ni15  1  0.95740100  0.90747600  0.19441300  1
  Ni  Ni16  1  0.04464200  0.23893300  0.59687900  1
  Ni  Ni17  1  0.54464200  0.76106700  0.90312100  1
  Ni  Ni18  1  0.95322200  0.46467300  0.23407000  1
  Ni  Ni19  1  0.78607800  0.75841600  0.28671100  1
  Ni  Ni20  1  0.78413400  0.46273700  0.11287100  1
  Ni  Ni21  1  0.45535800  0.23893300  0.09687900  1
  Ni  Ni22  1  0.28607800  0.24158400  0.21328900  1
  Ni  Ni23  1  0.71586600  0.46273700  0.61287100  1
  Ni  Ni24  1  0.54677800  0.46467300  0.73407000  1
  Ni  Ni25  1  0.72249800  0.89912900  0.92694000  1
  Ni  Ni26  1  0.04677800  0.53532700  0.76593000  1
  Ni  Ni27  1  0.77750200  0.89912900  0.42694000  1
  Ni  Ni28  1  0.04021100  0.68331500  0.90212200  1
  Ni  Ni29  1  0.28413400  0.53726300  0.38712900  1
  Ni  Ni30  1  0.45740100  0.09252400  0.30558700  1
  Ni  Ni31  1  0.71392200  0.75841600  0.78671100  1
  Ni  Ni32  1  0.95978900  0.31668500  0.09787800  1
  Ni  Ni33  1  0.22418500  0.67607300  0.67714000  1
  Ni  Ni34  1  0.72418500  0.32392700  0.82286000  1
  Ni  Ni35  1  0.27581500  0.67607300  0.17714000  1
  Ni  Ni36  1  0.77581500  0.32392700  0.32286000  1
  Ni  Ni37  1  0.54021100  0.31668500  0.59787800  1
  Ni  Ni38  1  0.27750200  0.10087100  0.07306000  1
  Ni  Ni39  1  0.45322200  0.53532700  0.26593000  1
  C  C40  1  0.98578400  0.11448900  0.34646900  1
  C  C41  1  0.74753300  0.11218300  0.17803400  1
  C  C42  1  0.25246700  0.88781700  0.82196600  1
  C  C43  1  0.24753300  0.88781700  0.32196600  1
  C  C44  1  0.75246700  0.11218300  0.67803400  1
  C  C45  1  0.48578400  0.88551100  0.15353100  1
  C  C46  1  0.51421600  0.11448900  0.84646900  1
  C  C47  1  0.01421600  0.88551100  0.65353100  1
  Cu  Cu48  1  0.51125000  0.08876700  0.37790000  1
  Cu  Cu49  1  0.71941200  0.32498000  0.39239500  1
  Cu  Cu50  1  0.78058800  0.32498000  0.89239500  1
  Cu  Cu51  1  0.73250300  0.54921600  0.05224300  1
  Cu  Cu52  1  0.98875000  0.08876700  0.87790000  1
  Cu  Cu53  1  0.98272600  0.68651100  0.97050400  1
  Cu  Cu54  1  0.21941200  0.67502000  0.10760500  1
  Cu  Cu55  1  0.50873300  0.32738300  0.04039400  1
  Cu  Cu56  1  0.26749700  0.45078400  0.94775700  1
  Cu  Cu57  1  0.72128400  0.89503400  0.49778500  1
  Cu  Cu58  1  0.77871600  0.89503400  0.99778500  1
  Cu  Cu59  1  0.76432400  0.66775000  0.77171100  1
  Cu  Cu60  1  0.99126700  0.32738300  0.54039400  1
  Cu  Cu61  1  0.49390400  0.55205000  0.75073700  1
  Cu  Cu62  1  0.99390400  0.44795000  0.74926300  1
  Cu  Cu63  1  0.76749700  0.54921600  0.55224300  1
  Cu  Cu64  1  0.73567600  0.66775000  0.27171100  1
  Cu  Cu65  1  0.23250300  0.45078400  0.44775700  1
  Cu  Cu66  1  0.22128400  0.10496600  0.00221500  1
  Cu  Cu67  1  0.28058800  0.67502000  0.60760500  1
  Cu  Cu68  1  0.01727400  0.31348900  0.02949600  1
  Cu  Cu69  1  0.00609600  0.55205000  0.25073700  1
  Cu  Cu70  1  0.23567600  0.33225000  0.22828900  1
  Cu  Cu71  1  0.48272600  0.31348900  0.52949600  1
  Cu  Cu72  1  0.51727400  0.68651100  0.47050400  1
  Cu  Cu73  1  0.00873300  0.67261700  0.45960600  1
  Cu  Cu74  1  0.50609600  0.44795000  0.24926300  1
  Cu  Cu75  1  0.48875000  0.91123300  0.62210000  1
  Cu  Cu76  1  0.49126700  0.67261700  0.95960600  1
  Cu  Cu77  1  0.27871600  0.10496600  0.50221500  1
  Cu  Cu78  1  0.01125000  0.91123300  0.12210000  1
  Cu  Cu79  1  0.26432400  0.33225000  0.72828900  1
