# generated using pymatgen
data_Cu2Ni2C15
_symmetry_space_group_name_H-M   'P 1'
_cell_length_a   6.99424500
_cell_length_b   12.68884100
_cell_length_c   14.09297355
_cell_angle_alpha   66.02134970
_cell_angle_beta   90.00000000
_cell_angle_gamma   90.00000000
_symmetry_Int_Tables_number   1
_chemical_formula_structural   Cu2Ni2C15
_chemical_formula_sum   'Cu8 Ni8 C60'
_cell_volume   1142.79310183
_cell_formula_units_Z   4
loop_
 _symmetry_equiv_pos_site_id
 _symmetry_equiv_pos_as_xyz
  1  'x, y, z'
loop_
 _atom_site_type_symbol
 _atom_site_label
 _atom_site_symmetry_multiplicity
 _atom_site_fract_x
 _atom_site_fract_y
 _atom_site_fract_z
 _atom_site_occupancy
  C  C0  1  0.90960400  0.87661900  0.25231000  1
  C  C1  1  0.40960400  0.12338100  0.24769000  1
  C  C2  1  0.09039600  0.12338100  0.74769000  1
  C  C3  1  0.59039600  0.87661900  0.75231000  1
  C  C4  1  0.33306300  0.26076000  0.32492700  1
  C  C5  1  0.83306300  0.73924000  0.17507300  1
  C  C6  1  0.66693700  0.73924000  0.67507300  1
  C  C7  1  0.16693700  0.26076000  0.82492700  1
  C  C8  1  0.49219600  0.18160700  0.41147100  1
  C  C9  1  0.99219600  0.81839300  0.08852900  1
  C  C10  1  0.50780400  0.81839300  0.58852900  1
  C  C11  1  0.00780400  0.18160700  0.91147100  1
  C  C12  1  0.35704200  0.06731600  0.57309800  1
  C  C13  1  0.85704200  0.93268400  0.92690200  1
  C  C14  1  0.64295800  0.93268400  0.42690200  1
  C  C15  1  0.14295800  0.06731600  0.07309800  1
  C  C16  1  0.13851200  0.99585800  0.57622600  1
  C  C17  1  0.63851200  0.00414200  0.92377400  1
  C  C18  1  0.86148800  0.00414200  0.42377400  1
  C  C19  1  0.36148800  0.99585800  0.07622600  1
  C  C20  1  0.45700000  0.42557500  0.94476400  1
  C  C21  1  0.95700000  0.57442500  0.55523600  1
  C  C22  1  0.54300000  0.57442500  0.05523600  1
  C  C23  1  0.04300000  0.42557500  0.44476400  1
  C  C24  1  0.55624800  0.35362700  0.06983500  1
  C  C25  1  0.05624800  0.64637300  0.43016500  1
  C  C26  1  0.44375200  0.64637300  0.93016500  1
  C  C27  1  0.94375200  0.35362700  0.56983500  1
  C  C28  1  0.12958100  0.44204100  0.93328000  1
  C  C29  1  0.62958100  0.55795900  0.56672000  1
  C  C30  1  0.87041900  0.55795900  0.06672000  1
  C  C31  1  0.37041900  0.44204100  0.43328000  1
  C  C32  1  0.99006900  0.35165300  0.04014200  1
  C  C33  1  0.49006900  0.64834700  0.45985800  1
  C  C34  1  0.00993100  0.64834700  0.95985800  1
  C  C35  1  0.50993100  0.35165300  0.54014200  1
  Ni  Ni36  1  0.21114400  0.11428500  0.43328900  1
  Ni  Ni37  1  0.71114400  0.88571500  0.06671100  1
  Ni  Ni38  1  0.78885600  0.88571500  0.56671100  1
  Ni  Ni39  1  0.28885600  0.11428500  0.93328900  1
  Ni  Ni40  1  0.27505900  0.32618800  0.06000200  1
  Ni  Ni41  1  0.77505900  0.67381200  0.43999800  1
  Ni  Ni42  1  0.72494100  0.67381200  0.93999800  1
  Ni  Ni43  1  0.22494100  0.32618800  0.56000200  1
  Cu  Cu44  1  0.71879000  0.39123100  0.22788900  1
  Cu  Cu45  1  0.21879000  0.60876900  0.27211100  1
  Cu  Cu46  1  0.28121000  0.60876900  0.77211100  1
  Cu  Cu47  1  0.78121000  0.39123100  0.72788900  1
  Cu  Cu48  1  0.76191600  0.09259300  0.18745600  1
  Cu  Cu49  1  0.26191600  0.90740700  0.31254400  1
  Cu  Cu50  1  0.23808400  0.90740700  0.81254400  1
  Cu  Cu51  1  0.73808400  0.09259300  0.68745600  1
  C  C52  1  0.37166700  0.17755100  0.37174800  1
  C  C53  1  0.87166700  0.82244900  0.12825200  1
  C  C54  1  0.62833300  0.82244900  0.62825200  1
  C  C55  1  0.12833300  0.17755100  0.87174800  1
  C  C56  1  0.24389000  0.05295400  0.53505500  1
  C  C57  1  0.74389000  0.94704600  0.96494500  1
  C  C58  1  0.75611000  0.94704600  0.46494500  1
  C  C59  1  0.25611000  0.05295400  0.03505500  1
  C  C60  1  0.44848900  0.36073900  0.01804600  1
  C  C61  1  0.94848900  0.63926100  0.48195400  1
  C  C62  1  0.55151100  0.63926100  0.98195400  1
  C  C63  1  0.05151100  0.36073900  0.51804600  1
  C  C64  1  0.11780200  0.37065500  0.00278900  1
  C  C65  1  0.61780200  0.62934500  0.49721100  1
  C  C66  1  0.88219800  0.62934500  0.99721100  1
  C  C67  1  0.38219800  0.37065500  0.50278900  1
  C  C68  1  0.06079700  0.11354200  0.38792800  1
  C  C69  1  0.56079700  0.88645800  0.11207200  1
  C  C70  1  0.93920300  0.88645800  0.61207200  1
  C  C71  1  0.43920300  0.11354200  0.88792800  1
  C  C72  1  0.25363100  0.24881400  0.15309100  1
  C  C73  1  0.75363100  0.75118600  0.34690900  1
  C  C74  1  0.74636900  0.75118600  0.84690900  1
  C  C75  1  0.24636900  0.24881400  0.65309100  1
