# generated using pymatgen
data_Cu2Ni3C16
_symmetry_space_group_name_H-M   'P 1'
_cell_length_a   12.55092700
_cell_length_b   12.55092700
_cell_length_c   12.42000100
_cell_angle_alpha   90.00000000
_cell_angle_beta   90.00000000
_cell_angle_gamma   90.00000000
_symmetry_Int_Tables_number   1
_chemical_formula_structural   Cu2Ni3C16
_chemical_formula_sum   'Cu8 Ni12 C64'
_cell_volume   1956.47020303
_cell_formula_units_Z   4
loop_
 _symmetry_equiv_pos_site_id
 _symmetry_equiv_pos_as_xyz
  1  'x, y, z'
loop_
 _atom_site_type_symbol
 _atom_site_label
 _atom_site_symmetry_multiplicity
 _atom_site_fract_x
 _atom_site_fract_y
 _atom_site_fract_z
 _atom_site_occupancy
  C  C0  1  0.00000000  0.39148700  0.56812100  1
  C  C1  1  0.39148700  0.00000000  0.56812100  1
  C  C2  1  0.00000000  0.60851300  0.56812100  1
  C  C3  1  0.60851300  0.00000000  0.56812100  1
  Ni  Ni4  1  0.00000000  0.62851000  0.18288900  1
  Ni  Ni5  1  0.37149000  0.00000000  0.18288900  1
  Ni  Ni6  1  0.62851000  0.00000000  0.18288900  1
  Ni  Ni7  1  0.00000000  0.37149000  0.18288900  1
  Ni  Ni8  1  0.00000000  0.18080000  0.63067900  1
  Ni  Ni9  1  0.18080000  0.00000000  0.63067900  1
  Ni  Ni10  1  0.00000000  0.81920000  0.63067900  1
  Ni  Ni11  1  0.81920000  0.00000000  0.63067900  1
  Ni  Ni12  1  0.00000000  0.62491600  0.82085900  1
  Ni  Ni13  1  0.62491600  0.00000000  0.82085900  1
  Ni  Ni14  1  0.37508400  0.00000000  0.82085900  1
  Ni  Ni15  1  0.00000000  0.37508400  0.82085900  1
  Cu  Cu16  1  0.25089600  0.25089600  0.24681300  1
  Cu  Cu17  1  0.25089600  0.74910400  0.24681300  1
  Cu  Cu18  1  0.74910400  0.25089600  0.24681300  1
  Cu  Cu19  1  0.74910400  0.74910400  0.24681300  1
  Cu  Cu20  1  0.24470800  0.24470800  0.74544800  1
  Cu  Cu21  1  0.24470800  0.75529200  0.74544800  1
  Cu  Cu22  1  0.75529200  0.24470800  0.74544800  1
  Cu  Cu23  1  0.75529200  0.75529200  0.74544800  1
  C  C24  1  0.62631200  0.18922100  0.00255500  1
  C  C25  1  0.18922100  0.62631200  0.00255500  1
  C  C26  1  0.81077900  0.62631200  0.00255500  1
  C  C27  1  0.00000000  0.18142500  0.37442000  1
  C  C28  1  0.18142500  0.00000000  0.37442000  1
  C  C29  1  0.00000000  0.81857500  0.37442000  1
  C  C30  1  0.81857500  0.00000000  0.37442000  1
  C  C31  1  0.18922100  0.37368800  0.00255500  1
  C  C32  1  0.37368800  0.18922100  0.00255500  1
  C  C33  1  0.37368800  0.81077900  0.00255500  1
  C  C34  1  0.62631200  0.81077900  0.00255500  1
  C  C35  1  0.81077900  0.37368800  0.00255500  1
  C  C36  1  0.29965500  0.29965500  0.00277700  1
  C  C37  1  0.50000000  0.22657900  0.00597300  1
  C  C38  1  0.29965500  0.70034500  0.00277700  1
  C  C39  1  0.70034500  0.29965500  0.00277700  1
  C  C40  1  0.77342100  0.50000000  0.00597300  1
  C  C41  1  0.70034500  0.70034500  0.00277700  1
  C  C42  1  0.12077200  0.34326800  0.11068800  1
  C  C43  1  0.34326800  0.12077200  0.11068800  1
  C  C44  1  0.34326800  0.87922800  0.11068800  1
  C  C45  1  0.87922800  0.34326800  0.11068800  1
  C  C46  1  0.12077200  0.65673200  0.11068800  1
  C  C47  1  0.65673200  0.12077200  0.11068800  1
  C  C48  1  0.65673200  0.87922800  0.11068800  1
  C  C49  1  0.87922800  0.65673200  0.11068800  1
  C  C50  1  0.00000000  0.50000000  0.23185500  1
  C  C51  1  0.50000000  0.00000000  0.23185500  1
  C  C52  1  0.00000000  0.27547200  0.28655100  1
  C  C53  1  0.27547200  0.00000000  0.28655100  1
  C  C54  1  0.00000000  0.72452800  0.28655100  1
  C  C55  1  0.72452800  0.00000000  0.28655100  1
  C  C56  1  0.10702400  0.10702400  0.35613500  1
  C  C57  1  0.10702400  0.89297600  0.35613500  1
  C  C58  1  0.89297600  0.10702400  0.35613500  1
  C  C59  1  0.89297600  0.89297600  0.35613500  1
  C  C60  1  0.00000000  0.23221100  0.49450300  1
  C  C61  1  0.23221100  0.00000000  0.49450300  1
  C  C62  1  0.00000000  0.76778900  0.49450300  1
  C  C63  1  0.76778900  0.00000000  0.49450300  1
  C  C64  1  0.11865200  0.11865200  0.65438800  1
  C  C65  1  0.11865200  0.88134800  0.65438800  1
  C  C66  1  0.88134800  0.11865200  0.65438800  1
  C  C67  1  0.88134800  0.88134800  0.65438800  1
  C  C68  1  0.00000000  0.29375000  0.70938300  1
  C  C69  1  0.00000000  0.70625000  0.70938300  1
  C  C70  1  0.29375000  0.00000000  0.70938300  1
  C  C71  1  0.70625000  0.00000000  0.70938300  1
  C  C72  1  0.00000000  0.50000000  0.75680100  1
  C  C73  1  0.50000000  0.00000000  0.75680100  1
  C  C74  1  0.11947000  0.34982500  0.89512300  1
  C  C75  1  0.34982500  0.11947000  0.89512300  1
  C  C76  1  0.34982500  0.88053000  0.89512300  1
  C  C77  1  0.88053000  0.34982500  0.89512300  1
  C  C78  1  0.11947000  0.65017500  0.89512300  1
  C  C79  1  0.65017500  0.11947000  0.89512300  1
  C  C80  1  0.65017500  0.88053000  0.89512300  1
  C  C81  1  0.88053000  0.65017500  0.89512300  1
  C  C82  1  0.22657900  0.50000000  0.00597300  1
  C  C83  1  0.50000000  0.77342100  0.00597300  1
