# generated using pymatgen
data_Cu4NiC9
_symmetry_space_group_name_H-M   'P 1'
_cell_length_a   11.80375800
_cell_length_b   7.09512600
_cell_length_c   7.12632178
_cell_angle_alpha   70.70663527
_cell_angle_beta   90.00000000
_cell_angle_gamma   90.00000000
_symmetry_Int_Tables_number   1
_chemical_formula_structural   Cu4NiC9
_chemical_formula_sum   'Cu16 Ni4 C36'
_cell_volume   563.30532722
_cell_formula_units_Z   4
loop_
 _symmetry_equiv_pos_site_id
 _symmetry_equiv_pos_as_xyz
  1  'x, y, z'
loop_
 _atom_site_type_symbol
 _atom_site_label
 _atom_site_symmetry_multiplicity
 _atom_site_fract_x
 _atom_site_fract_y
 _atom_site_fract_z
 _atom_site_occupancy
  C  C0  1  0.33366900  0.00317200  0.33000800  1
  C  C1  1  0.26353000  0.98467300  0.14842300  1
  C  C2  1  0.76353000  0.01532700  0.85157700  1
  C  C3  1  0.83366900  0.99682800  0.66999200  1
  C  C4  1  0.19090100  0.82965100  0.97696500  1
  C  C5  1  0.26436100  0.00479600  0.84219900  1
  C  C6  1  0.69090100  0.17034900  0.02303500  1
  C  C7  1  0.76436100  0.99520400  0.15780100  1
  C  C8  1  0.17108100  0.18559900  0.54815600  1
  C  C9  1  0.30414800  0.17698800  0.53448500  1
  C  C10  1  0.80414800  0.82301200  0.46551500  1
  C  C11  1  0.67108100  0.81440100  0.45184400  1
  C  C12  1  0.24659200  0.51379600  0.84462500  1
  C  C13  1  0.25117900  0.41573900  0.66912800  1
  C  C14  1  0.15930300  0.62237900  0.61778100  1
  C  C15  1  0.75117900  0.58426100  0.33087200  1
  C  C16  1  0.74659200  0.48620400  0.15537500  1
  C  C17  1  0.65930300  0.37762100  0.38221900  1
  C  C18  1  0.15976500  0.47693400  0.12059300  1
  C  C19  1  0.24113300  0.28021300  0.15748900  1
  C  C20  1  0.74113300  0.71978700  0.84251100  1
  C  C21  1  0.65976500  0.52306600  0.87940700  1
  C  C22  1  0.36929300  0.62560200  0.36721600  1
  C  C23  1  0.33517400  0.52098000  0.20370500  1
  C  C24  1  0.86929300  0.37439800  0.63278400  1
  C  C25  1  0.83517400  0.47902000  0.79629500  1
  C  C26  1  0.55585900  0.17093400  0.50588400  1
  C  C27  1  0.50410200  0.39032700  0.39915400  1
  C  C28  1  0.05585900  0.82906600  0.49411600  1
  C  C29  1  0.00410200  0.60967300  0.60084600  1
  C  C30  1  0.50632100  0.82444200  0.87341900  1
  C  C31  1  0.51671100  0.96796600  0.01405200  1
  C  C32  1  0.46863300  0.72346000  0.11662300  1
  C  C33  1  0.00632100  0.17555800  0.12658100  1
  C  C34  1  0.01671100  0.03203400  0.98594800  1
  C  C35  1  0.96863300  0.27654000  0.88337700  1
  Ni  Ni36  1  0.50789500  0.26852600  0.98460400  1
  Ni  Ni37  1  0.00789500  0.73147400  0.01539600  1
  Ni  Ni38  1  0.48915800  0.86208400  0.56005700  1
  Ni  Ni39  1  0.98915800  0.13791600  0.43994300  1
  Cu  Cu40  1  0.26024100  0.04033400  0.26253400  1
  Cu  Cu41  1  0.76024100  0.95966600  0.73746600  1
  Cu  Cu42  1  0.26728400  0.89134000  0.96781100  1
  Cu  Cu43  1  0.76728400  0.10866000  0.03218900  1
  Cu  Cu44  1  0.24271700  0.20735500  0.61201500  1
  Cu  Cu45  1  0.74271700  0.79264500  0.38798500  1
  Cu  Cu46  1  0.24457300  0.54625600  0.69527100  1
  Cu  Cu47  1  0.74457300  0.45374400  0.30472900  1
  Cu  Cu48  1  0.23623100  0.43207200  0.09769500  1
  Cu  Cu49  1  0.73623100  0.56792800  0.90230500  1
  Cu  Cu50  1  0.40097300  0.56522000  0.27257300  1
  Cu  Cu51  1  0.90097300  0.43478000  0.72742700  1
  Cu  Cu52  1  0.57072300  0.31651400  0.47489200  1
  Cu  Cu53  1  0.07072300  0.68348600  0.52510800  1
  Cu  Cu54  1  0.52409000  0.82169700  0.01417500  1
  Cu  Cu55  1  0.02409000  0.17830300  0.98582500  1
