# generated using pymatgen
data_CuNiC
_symmetry_space_group_name_H-M   'P 1'
_cell_length_a   10.22097800
_cell_length_b   11.03350717
_cell_length_c   11.33079768
_cell_angle_alpha   101.24554006
_cell_angle_beta   105.05376919
_cell_angle_gamma   110.72370447
_symmetry_Int_Tables_number   1
_chemical_formula_structural   CuNiC
_chemical_formula_sum   'Cu24 Ni24 C24'
_cell_volume   1094.33711301
_cell_formula_units_Z   24
loop_
 _symmetry_equiv_pos_site_id
 _symmetry_equiv_pos_as_xyz
  1  'x, y, z'
loop_
 _atom_site_type_symbol
 _atom_site_label
 _atom_site_symmetry_multiplicity
 _atom_site_fract_x
 _atom_site_fract_y
 _atom_site_fract_z
 _atom_site_occupancy
  C  C0  1  0.26803400  0.83819000  0.53806400  1
  C  C1  1  0.34549000  0.36736100  0.52871400  1
  C  C2  1  0.25523200  0.00548600  0.32119800  1
  C  C3  1  0.74564700  0.99933900  0.68678500  1
  C  C4  1  0.65263100  0.62755900  0.47352400  1
  C  C5  1  0.92717100  0.96185800  0.47415400  1
  C  C6  1  0.73155000  0.16753200  0.46528000  1
  C  C7  1  0.00069300  0.49960200  0.50103100  1
  C  C8  1  0.05500300  0.84999700  0.85270100  1
  C  C9  1  0.10560600  0.36683800  0.86085800  1
  C  C10  1  0.51695100  0.72856000  0.84167700  1
  C  C11  1  0.48618300  0.81695200  0.18268400  1
  C  C12  1  0.51384700  0.18310400  0.81686900  1
  C  C13  1  0.48282400  0.27131000  0.15791700  1
  C  C14  1  0.89403600  0.63162900  0.13802700  1
  C  C15  1  0.94497100  0.15117900  0.14664100  1
  C  C16  1  0.05599900  0.28710900  0.68352600  1
  C  C17  1  0.02344600  0.20197500  0.32715100  1
  C  C18  1  0.44443900  0.69635000  0.66324000  1
  C  C19  1  0.49296200  0.81715100  0.34975200  1
  C  C20  1  0.50882000  0.18287000  0.65010700  1
  C  C21  1  0.55497500  0.30346900  0.33619100  1
  C  C22  1  0.97644800  0.79896800  0.67181600  1
  C  C23  1  0.94608600  0.71192500  0.31573000  1
  Ni  Ni24  1  0.09780300  0.87985000  0.63548600  1
  Ni  Ni25  1  0.03508600  0.85822700  0.33904200  1
  Ni  Ni26  1  0.03611600  0.64688700  0.37492600  1
  Ni  Ni27  1  0.07297900  0.34950600  0.37350100  1
  Ni  Ni28  1  0.28111300  0.63830000  0.62152200  1
  Ni  Ni29  1  0.19617700  0.31880000  0.66166900  1
  Ni  Ni30  1  0.37573100  0.85881100  0.36467000  1
  Ni  Ni31  1  0.14747400  0.16147800  0.35366100  1
  Ni  Ni32  1  0.50891000  0.83301200  0.65075400  1
  Ni  Ni33  1  0.50436500  0.60418000  0.61294300  1
  Ni  Ni34  1  0.46541500  0.67865600  0.34958800  1
  Ni  Ni35  1  0.35796300  0.07986000  0.56555700  1
  Ni  Ni36  1  0.64640700  0.91990600  0.43300000  1
  Ni  Ni37  1  0.53708100  0.32168500  0.65071200  1
  Ni  Ni38  1  0.49373400  0.39448000  0.38633700  1
  Ni  Ni39  1  0.49164800  0.16660400  0.34853100  1
  Ni  Ni40  1  0.84987100  0.83772100  0.64377700  1
  Ni  Ni41  1  0.62862700  0.14301400  0.63773500  1
  Ni  Ni42  1  0.80782200  0.68635900  0.34124200  1
  Ni  Ni43  1  0.71838200  0.36296300  0.37844300  1
  Ni  Ni44  1  0.92761900  0.65158600  0.62679400  1
  Ni  Ni45  1  0.96366100  0.35043700  0.62390800  1
  Ni  Ni46  1  0.96693500  0.14037400  0.65953100  1
  Ni  Ni47  1  0.89831200  0.12165200  0.36083900  1
  Cu  Cu48  1  0.08519600  0.98267400  0.90527100  1
  Cu  Cu49  1  0.18290300  0.83440200  0.89242600  1
  Cu  Cu50  1  0.02036200  0.67163900  0.10898000  1
  Cu  Cu51  1  0.16849400  0.50408000  0.89285700  1
  Cu  Cu52  1  0.20154800  0.32773400  0.93179900  1
  Cu  Cu53  1  0.04476700  0.22801000  0.10279600  1
  Cu  Cu54  1  0.46243000  0.80702700  0.90133400  1
  Cu  Cu55  1  0.47863300  0.61059300  0.86967000  1
  Cu  Cu56  1  0.35057600  0.72543400  0.09647300  1
  Cu  Cu57  1  0.40767800  0.21629000  0.84415100  1
  Cu  Cu58  1  0.50889600  0.94217500  0.17028900  1
  Cu  Cu59  1  0.66863500  0.79680900  0.88756700  1
  Cu  Cu60  1  0.33128900  0.20327800  0.11201200  1
  Cu  Cu61  1  0.49095500  0.05761000  0.82939300  1
  Cu  Cu62  1  0.59283600  0.78389400  0.15558900  1
  Cu  Cu63  1  0.64968500  0.27429600  0.90356100  1
  Cu  Cu64  1  0.52156100  0.38954600  0.13024200  1
  Cu  Cu65  1  0.53756300  0.19295700  0.09850300  1
  Cu  Cu66  1  0.95509500  0.77228200  0.89596200  1
  Cu  Cu67  1  0.79841600  0.67205900  0.06864700  1
  Cu  Cu68  1  0.83080300  0.49462200  0.10580500  1
  Cu  Cu69  1  0.97899400  0.32697500  0.88969800  1
  Cu  Cu70  1  0.81689100  0.16628500  0.10604100  1
  Cu  Cu71  1  0.91491800  0.01812400  0.09494700  1
