# generated using pymatgen
data_Cu9(NiC6)2
_symmetry_space_group_name_H-M   'P 1'
_cell_length_a   11.48396000
_cell_length_b   6.72878300
_cell_length_c   13.52537245
_cell_angle_alpha   62.52940044
_cell_angle_beta   90.00000000
_cell_angle_gamma   90.00000000
_symmetry_Int_Tables_number   1
_chemical_formula_structural   Cu9(NiC6)2
_chemical_formula_sum   'Cu36 Ni8 C48'
_cell_volume   927.30432979
_cell_formula_units_Z   4
loop_
 _symmetry_equiv_pos_site_id
 _symmetry_equiv_pos_as_xyz
  1  'x, y, z'
loop_
 _atom_site_type_symbol
 _atom_site_label
 _atom_site_symmetry_multiplicity
 _atom_site_fract_x
 _atom_site_fract_y
 _atom_site_fract_z
 _atom_site_occupancy
  C  C0  1  0.58314800  0.41150500  0.84068200  1
  C  C1  1  0.41685200  0.58849500  0.15931800  1
  C  C2  1  0.91685200  0.41150500  0.34068200  1
  C  C3  1  0.08314800  0.58849500  0.65931800  1
  Ni  Ni4  1  0.54935800  0.10323700  0.14281500  1
  Ni  Ni5  1  0.63240600  0.68472100  0.33716000  1
  Ni  Ni6  1  0.86759400  0.68472100  0.83716000  1
  Ni  Ni7  1  0.13240600  0.31527900  0.16284000  1
  Ni  Ni8  1  0.04935800  0.89676300  0.35718500  1
  Ni  Ni9  1  0.95064200  0.10323700  0.64281500  1
  Ni  Ni10  1  0.45064200  0.89676300  0.85718500  1
  Ni  Ni11  1  0.36759400  0.31527900  0.66284000  1
  Cu  Cu12  1  0.60040300  0.65578600  0.59169900  1
  Cu  Cu13  1  0.65394000  0.04150700  0.66895700  1
  Cu  Cu14  1  0.01071300  0.76780400  0.92304800  1
  Cu  Cu15  1  0.21160100  0.77805900  0.94190800  1
  Cu  Cu16  1  0.39959700  0.34421400  0.40830100  1
  Cu  Cu17  1  0.11971600  0.20544700  0.51239000  1
  Cu  Cu18  1  0.88028400  0.79455300  0.48761000  1
  Cu  Cu19  1  0.15394000  0.95849300  0.83104300  1
  Cu  Cu20  1  0.65989000  0.30212700  0.30865800  1
  Cu  Cu21  1  0.34606000  0.95849300  0.33104300  1
  Cu  Cu22  1  0.73136500  0.09737000  0.31374600  1
  Cu  Cu23  1  0.21479500  0.24465600  0.88536100  1
  Cu  Cu24  1  0.89959700  0.65578600  0.09169900  1
  Cu  Cu25  1  0.15989000  0.69787300  0.19134200  1
  Cu  Cu26  1  0.33467000  0.44508200  0.92622300  1
  Cu  Cu27  1  0.23136500  0.90263000  0.18625400  1
  Cu  Cu28  1  0.28520500  0.24465600  0.38536100  1
  Cu  Cu29  1  0.83467000  0.55491800  0.57377700  1
  Cu  Cu30  1  0.38028400  0.20544700  0.01239000  1
  Cu  Cu31  1  0.84011000  0.30212700  0.80865800  1
  Cu  Cu32  1  0.78839900  0.22194100  0.05809200  1
  Cu  Cu33  1  0.71479500  0.75534400  0.61463900  1
  Cu  Cu34  1  0.28839900  0.77805900  0.44190800  1
  Cu  Cu35  1  0.78520500  0.75534400  0.11463900  1
  Cu  Cu36  1  0.26863500  0.90263000  0.68625400  1
  Cu  Cu37  1  0.16533000  0.44508200  0.42622300  1
  Cu  Cu38  1  0.84606000  0.04150700  0.16895700  1
  Cu  Cu39  1  0.61971600  0.79455300  0.98761000  1
  Cu  Cu40  1  0.51071300  0.23219600  0.57695200  1
  Cu  Cu41  1  0.10040300  0.34421400  0.90830100  1
  Cu  Cu42  1  0.98928700  0.23219600  0.07695200  1
  Cu  Cu43  1  0.76863500  0.09737000  0.81374600  1
  Cu  Cu44  1  0.48928700  0.76780400  0.42304800  1
  Cu  Cu45  1  0.71160100  0.22194100  0.55809200  1
  Cu  Cu46  1  0.34011000  0.69787300  0.69134200  1
  Cu  Cu47  1  0.66533000  0.55491800  0.07377700  1
  C  C48  1  0.34969700  0.34735300  0.34893300  1
  C  C49  1  0.35271600  0.06677400  0.76892500  1
  C  C50  1  0.92291600  0.72990900  0.93200300  1
  C  C51  1  0.55420900  0.54474100  0.30365100  1
  C  C52  1  0.07708400  0.27009100  0.06799700  1
  C  C53  1  0.76334700  0.22976000  0.82574400  1
  C  C54  1  0.26334700  0.77024000  0.67425600  1
  C  C55  1  0.74492900  0.60139500  0.87147100  1
  C  C56  1  0.12100800  0.31526700  0.43266700  1
  C  C57  1  0.42291600  0.27009100  0.56799700  1
  C  C58  1  0.15030300  0.34735300  0.84893300  1
  C  C59  1  0.05420900  0.45525900  0.19634900  1
  C  C60  1  0.13713200  0.82836100  0.90161800  1
  C  C61  1  0.62100800  0.68473300  0.06733300  1
  C  C62  1  0.04648600  0.95716100  0.63115700  1
  C  C63  1  0.85271600  0.93322600  0.73107500  1
  C  C64  1  0.87943600  0.23483500  0.53630600  1
  C  C65  1  0.94579100  0.54474100  0.80365100  1
  C  C66  1  0.49586200  0.75102700  0.80657400  1
  C  C67  1  0.36286800  0.82836100  0.40161800  1
  C  C68  1  0.44579100  0.45525900  0.69634900  1
  C  C69  1  0.23665300  0.77024000  0.17425600  1
  C  C70  1  0.95351400  0.04283900  0.36884300  1
  C  C71  1  0.45351400  0.95716100  0.13115700  1
  C  C72  1  0.37943600  0.76516500  0.96369400  1
  C  C73  1  0.00413800  0.75102700  0.30657400  1
  C  C74  1  0.25507100  0.39860500  0.12852900  1
  C  C75  1  0.14728400  0.06677400  0.26892500  1
  C  C76  1  0.54648600  0.04283900  0.86884300  1
  C  C77  1  0.57708400  0.72990900  0.43200300  1
  C  C78  1  0.84969700  0.65264700  0.15106700  1
  C  C79  1  0.99586200  0.24897300  0.69342600  1
  C  C80  1  0.37899200  0.31526700  0.93266700  1
  C  C81  1  0.86286800  0.17163900  0.09838200  1
  C  C82  1  0.50413800  0.24897300  0.19342600  1
  C  C83  1  0.75507100  0.60139500  0.37147100  1
  C  C84  1  0.62056400  0.23483500  0.03630600  1
  C  C85  1  0.24492900  0.39860500  0.62852900  1
  C  C86  1  0.65030300  0.65264700  0.65106700  1
  C  C87  1  0.64728400  0.93322600  0.23107500  1
  C  C88  1  0.12056400  0.76516500  0.46369400  1
  C  C89  1  0.63713200  0.17163900  0.59838200  1
  C  C90  1  0.73665300  0.22976000  0.32574400  1
  C  C91  1  0.87899200  0.68473300  0.56733300  1
