# generated using pymatgen
data_Cu3Ni2C11
_symmetry_space_group_name_H-M   'P 1'
_cell_length_a   7.84913600
_cell_length_b   10.30806500
_cell_length_c   12.30863224
_cell_angle_alpha   78.48628361
_cell_angle_beta   90.00000000
_cell_angle_gamma   90.00000000
_symmetry_Int_Tables_number   1
_chemical_formula_structural   Cu3Ni2C11
_chemical_formula_sum   'Cu12 Ni8 C44'
_cell_volume   975.84387261
_cell_formula_units_Z   4
loop_
 _symmetry_equiv_pos_site_id
 _symmetry_equiv_pos_as_xyz
  1  'x, y, z'
loop_
 _atom_site_type_symbol
 _atom_site_label
 _atom_site_symmetry_multiplicity
 _atom_site_fract_x
 _atom_site_fract_y
 _atom_site_fract_z
 _atom_site_occupancy
  C  C0  1  0.15393800  0.38268400  0.15992100  1
  C  C1  1  0.65393800  0.11731600  0.84007900  1
  C  C2  1  0.34606200  0.88268400  0.15992100  1
  C  C3  1  0.84606200  0.61731600  0.84007900  1
  Ni  Ni4  1  0.49282000  0.43266300  0.87208100  1
  Ni  Ni5  1  0.99282000  0.06733700  0.12791900  1
  Ni  Ni6  1  0.50718000  0.56733700  0.12791900  1
  Ni  Ni7  1  0.00718000  0.93266300  0.87208100  1
  Ni  Ni8  1  0.89446100  0.19716100  0.42473700  1
  Ni  Ni9  1  0.39446100  0.30283900  0.57526300  1
  Ni  Ni10  1  0.10553900  0.80283900  0.57526300  1
  Ni  Ni11  1  0.60553900  0.69716100  0.42473700  1
  Cu  Cu12  1  0.93606300  0.57441400  0.26759700  1
  Cu  Cu13  1  0.56393700  0.07441400  0.26759700  1
  Cu  Cu14  1  0.09474000  0.69849800  0.05453600  1
  Cu  Cu15  1  0.70877000  0.46858400  0.65134800  1
  Cu  Cu16  1  0.90526000  0.30150200  0.94546400  1
  Cu  Cu17  1  0.06393700  0.42558600  0.73240300  1
  Cu  Cu18  1  0.20877000  0.03141600  0.34865200  1
  Cu  Cu19  1  0.43606300  0.92558600  0.73240300  1
  Cu  Cu20  1  0.79123000  0.96858400  0.65134800  1
  Cu  Cu21  1  0.29123000  0.53141600  0.34865200  1
  Cu  Cu22  1  0.40526000  0.19849800  0.05453600  1
  Cu  Cu23  1  0.59474000  0.80150200  0.94546400  1
  C  C24  1  0.81209800  0.99081500  0.52525800  1
  C  C25  1  0.06964700  0.13622800  0.29538500  1
  C  C26  1  0.70411200  0.58792200  0.70467400  1
  C  C27  1  0.35051400  0.33483000  0.07094200  1
  C  C28  1  0.56289700  0.15109000  0.13990200  1
  C  C29  1  0.88719000  0.38702000  0.68033100  1
  C  C30  1  0.22872900  0.58791200  0.08354500  1
  C  C31  1  0.79588800  0.08792200  0.70467400  1
  C  C32  1  0.57689700  0.92846000  0.27035900  1
  C  C33  1  0.18790200  0.00918500  0.47474200  1
  C  C34  1  0.77127100  0.41208800  0.91645500  1
  C  C35  1  0.29588800  0.41207800  0.29532600  1
  C  C36  1  0.29899700  0.85463000  0.68077700  1
  C  C37  1  0.11281000  0.61298000  0.31966900  1
  C  C38  1  0.70100300  0.14537000  0.31922300  1
  C  C39  1  0.38719000  0.11298000  0.31966900  1
  C  C40  1  0.79899700  0.64537000  0.31922300  1
  C  C41  1  0.14948600  0.83483000  0.07094200  1
  C  C42  1  0.06289700  0.34891000  0.86009800  1
  C  C43  1  0.20100300  0.35463000  0.68077700  1
  C  C44  1  0.92310300  0.42846000  0.27035900  1
  C  C45  1  0.20411200  0.91207800  0.29532600  1
  C  C46  1  0.61281000  0.88702000  0.68033100  1
  C  C47  1  0.43710300  0.84891000  0.86009800  1
  C  C48  1  0.98395600  0.29047200  0.06186500  1
  C  C49  1  0.51604400  0.79047200  0.06186500  1
  C  C50  1  0.93710300  0.65109000  0.13990200  1
  C  C51  1  0.07689700  0.57154000  0.72964100  1
  C  C52  1  0.27127100  0.08791200  0.08354500  1
  C  C53  1  0.68790200  0.49081500  0.52525800  1
  C  C54  1  0.42310300  0.07154000  0.72964100  1
  C  C55  1  0.56964700  0.36377200  0.70461500  1
  C  C56  1  0.01604400  0.70952800  0.93813500  1
  C  C57  1  0.31209800  0.50918500  0.47474200  1
  C  C58  1  0.64948600  0.66517000  0.92905800  1
  C  C59  1  0.93035300  0.86377200  0.70461500  1
  C  C60  1  0.48395600  0.20952800  0.93813500  1
  C  C61  1  0.43035300  0.63622800  0.29538500  1
  C  C62  1  0.85051400  0.16517000  0.92905800  1
  C  C63  1  0.72872900  0.91208800  0.91645500  1
