# generated using pymatgen
data_CuNiC10
_symmetry_space_group_name_H-M   'P 1'
_cell_length_a   10.91615118
_cell_length_b   10.91615118
_cell_length_c   6.12578400
_cell_angle_alpha   90.00000000
_cell_angle_beta   90.00000000
_cell_angle_gamma   119.99999505
_symmetry_Int_Tables_number   1
_chemical_formula_structural   CuNiC10
_chemical_formula_sum   'Cu2 Ni2 C20'
_cell_volume   632.16641018
_cell_formula_units_Z   2
loop_
 _symmetry_equiv_pos_site_id
 _symmetry_equiv_pos_as_xyz
  1  'x, y, z'
loop_
 _atom_site_type_symbol
 _atom_site_label
 _atom_site_symmetry_multiplicity
 _atom_site_fract_x
 _atom_site_fract_y
 _atom_site_fract_z
 _atom_site_occupancy
  C  C0  1  0.12466100  0.35723600  0.74018300  1
  C  C1  1  0.76742400  0.12466100  0.24018300  1
  C  C2  1  0.35723600  0.23257600  0.24018300  1
  C  C3  1  0.64276400  0.76742400  0.74018300  1
  C  C4  1  0.23257600  0.87533900  0.74018300  1
  C  C5  1  0.87533900  0.64276400  0.24018300  1
  Ni  Ni6  1  0.33333300  0.66666700  0.32993300  1
  Ni  Ni7  1  0.66666700  0.33333300  0.82993300  1
  Cu  Cu8  1  0.00000000  0.00000000  0.19381700  1
  Cu  Cu9  1  0.00000000  0.00000000  0.69381700  1
  C  C10  1  0.52314300  0.11127500  0.97739200  1
  C  C11  1  0.47685700  0.88872500  0.47739200  1
  C  C12  1  0.11127500  0.58813100  0.47739200  1
  C  C13  1  0.58813100  0.47685700  0.97739200  1
  C  C14  1  0.09251600  0.26777400  0.22615400  1
  C  C15  1  0.82474100  0.09251600  0.72615400  1
  C  C16  1  0.41186900  0.52314300  0.47739200  1
  C  C17  1  0.88872500  0.41186900  0.97739200  1
  C  C18  1  0.33333300  0.66666700  0.95891100  1
  C  C19  1  0.66666700  0.33333300  0.45891100  1
  C  C20  1  0.90748400  0.73222600  0.72615400  1
  C  C21  1  0.17525900  0.90748400  0.22615400  1
  C  C22  1  0.73222600  0.82474100  0.22615400  1
  C  C23  1  0.26777400  0.17525900  0.72615400  1
