# generated using pymatgen
data_CuNiC8
_symmetry_space_group_name_H-M   'P 1'
_cell_length_a   5.33288000
_cell_length_b   8.18193800
_cell_length_c   11.65892500
_cell_angle_alpha   90.00000000
_cell_angle_beta   90.00000000
_cell_angle_gamma   90.00000000
_symmetry_Int_Tables_number   1
_chemical_formula_structural   CuNiC8
_chemical_formula_sum   'Cu4 Ni4 C32'
_cell_volume   508.71729667
_cell_formula_units_Z   4
loop_
 _symmetry_equiv_pos_site_id
 _symmetry_equiv_pos_as_xyz
  1  'x, y, z'
loop_
 _atom_site_type_symbol
 _atom_site_label
 _atom_site_symmetry_multiplicity
 _atom_site_fract_x
 _atom_site_fract_y
 _atom_site_fract_z
 _atom_site_occupancy
  C  C0  1  0.33620200  0.97711100  0.40873700  1
  C  C1  1  0.83620200  0.47711100  0.09126300  1
  C  C2  1  0.83620200  0.02288900  0.59126300  1
  C  C3  1  0.33620200  0.52288900  0.90873700  1
  Ni  Ni4  1  0.62013800  0.65690800  0.71269400  1
  Ni  Ni5  1  0.12013800  0.15690800  0.78730600  1
  Ni  Ni6  1  0.62013800  0.84309200  0.21269400  1
  Ni  Ni7  1  0.12013800  0.34309200  0.28730600  1
  Cu  Cu8  1  0.09890300  0.43524100  0.70702800  1
  Cu  Cu9  1  0.59890300  0.93524100  0.79297200  1
  Cu  Cu10  1  0.59890300  0.56475900  0.29297200  1
  Cu  Cu11  1  0.09890300  0.06475900  0.20702800  1
  C  C12  1  0.78402200  0.13655400  0.40617000  1
  C  C13  1  0.28402200  0.63655400  0.09383000  1
  C  C14  1  0.28402200  0.86344600  0.59383000  1
  C  C15  1  0.56426900  0.23679100  0.46630700  1
  C  C16  1  0.06426900  0.76320900  0.53369300  1
  C  C17  1  0.06426900  0.73679100  0.03369300  1
  C  C18  1  0.78402200  0.36344600  0.90617000  1
  C  C19  1  0.56426900  0.26320900  0.96630700  1
  C  C20  1  0.37550200  0.44976100  0.34167100  1
  C  C21  1  0.87550200  0.94976100  0.15832900  1
  C  C22  1  0.63267600  0.37418300  0.95875400  1
  C  C23  1  0.05402300  0.13822500  0.34248500  1
  C  C24  1  0.85326600  0.04043100  0.77912500  1
  C  C25  1  0.85326600  0.45956900  0.27912500  1
  C  C26  1  0.64029800  0.74557000  0.35251500  1
  C  C27  1  0.64029800  0.75443000  0.85251500  1
  C  C28  1  0.35326600  0.54043100  0.72087500  1
  C  C29  1  0.35326600  0.95956900  0.22087500  1
  C  C30  1  0.13267600  0.62581700  0.04124600  1
  C  C31  1  0.63267600  0.12581700  0.45875400  1
  C  C32  1  0.13267600  0.87418300  0.54124600  1
  C  C33  1  0.14029800  0.24557000  0.14748500  1
  C  C34  1  0.87550200  0.55023900  0.65832900  1
  C  C35  1  0.05402300  0.36177500  0.84248500  1
  C  C36  1  0.55402300  0.86177500  0.65751500  1
  C  C37  1  0.14029800  0.25443000  0.64748500  1
  C  C38  1  0.37550200  0.05023900  0.84167100  1
  C  C39  1  0.55402300  0.63822500  0.15751500  1
