# generated using pymatgen
data_CuNiC5
_symmetry_space_group_name_H-M   'P 1'
_cell_length_a   6.17186700
_cell_length_b   6.17186700
_cell_length_c   8.50517300
_cell_angle_alpha   90.00000000
_cell_angle_beta   90.00000000
_cell_angle_gamma   90.00000000
_symmetry_Int_Tables_number   1
_chemical_formula_structural   CuNiC5
_chemical_formula_sum   'Cu4 Ni4 C20'
_cell_volume   323.97855888
_cell_formula_units_Z   4
loop_
 _symmetry_equiv_pos_site_id
 _symmetry_equiv_pos_as_xyz
  1  'x, y, z'
loop_
 _atom_site_type_symbol
 _atom_site_label
 _atom_site_symmetry_multiplicity
 _atom_site_fract_x
 _atom_site_fract_y
 _atom_site_fract_z
 _atom_site_occupancy
  C  C0  1  0.00000000  0.21904100  0.50000000  1
  C  C1  1  0.78095900  0.00000000  0.75000000  1
  C  C2  1  0.21904100  0.00000000  0.25000000  1
  C  C3  1  0.00000000  0.78095900  0.00000000  1
  Ni  Ni4  1  0.50000000  0.21312100  0.50000000  1
  Ni  Ni5  1  0.78687900  0.50000000  0.75000000  1
  Ni  Ni6  1  0.21312100  0.50000000  0.25000000  1
  Ni  Ni7  1  0.50000000  0.78687900  0.00000000  1
  Cu  Cu8  1  0.25916700  0.25916700  0.87500000  1
  Cu  Cu9  1  0.74083300  0.25916700  0.12500000  1
  Cu  Cu10  1  0.25916700  0.74083300  0.62500000  1
  Cu  Cu11  1  0.74083300  0.74083300  0.37500000  1
  C  C12  1  0.26331400  0.98342000  0.99677500  1
  C  C13  1  0.01658000  0.26331400  0.24677500  1
  C  C14  1  0.98342000  0.73668600  0.74677500  1
  C  C15  1  0.26331400  0.01658000  0.50322500  1
  C  C16  1  0.73668600  0.98342000  0.00322500  1
  C  C17  1  0.73668600  0.01658000  0.49677500  1
  C  C18  1  0.98342000  0.26331400  0.75322500  1
  C  C19  1  0.01658000  0.73668600  0.25322500  1
  C  C20  1  0.26588500  0.51736100  0.01648000  1
  C  C21  1  0.48263900  0.26588500  0.26648000  1
  C  C22  1  0.51736100  0.73411500  0.76648000  1
  C  C23  1  0.26588500  0.48263900  0.48352000  1
  C  C24  1  0.73411500  0.51736100  0.98352000  1
  C  C25  1  0.73411500  0.48263900  0.51648000  1
  C  C26  1  0.51736100  0.26588500  0.73352000  1
  C  C27  1  0.48263900  0.73411500  0.23352000  1
