# generated using pymatgen
data_Cu9NiC13
_symmetry_space_group_name_H-M   'P 1'
_cell_length_a   6.98421100
_cell_length_b   9.61338998
_cell_length_c   10.31071991
_cell_angle_alpha   107.16880883
_cell_angle_beta   97.45501763
_cell_angle_gamma   88.67049731
_symmetry_Int_Tables_number   1
_chemical_formula_structural   Cu9NiC13
_chemical_formula_sum   'Cu18 Ni2 C26'
_cell_volume   655.75878516
_cell_formula_units_Z   2
loop_
 _symmetry_equiv_pos_site_id
 _symmetry_equiv_pos_as_xyz
  1  'x, y, z'
loop_
 _atom_site_type_symbol
 _atom_site_label
 _atom_site_symmetry_multiplicity
 _atom_site_fract_x
 _atom_site_fract_y
 _atom_site_fract_z
 _atom_site_occupancy
  C  C0  1  0.92994100  0.75153000  0.17426600  1
  C  C1  1  0.07005900  0.24847000  0.82573400  1
  C  C2  1  0.19008300  0.05366400  0.17531700  1
  C  C3  1  0.80991700  0.94633600  0.82468300  1
  C  C4  1  0.81190600  0.70087300  0.47402600  1
  C  C5  1  0.18809400  0.29912700  0.52597400  1
  C  C6  1  0.45726600  0.72310800  0.22645100  1
  C  C7  1  0.54273400  0.27689200  0.77354900  1
  C  C8  1  0.87993300  0.33089900  0.25388600  1
  C  C9  1  0.12006700  0.66910100  0.74611400  1
  C  C10  1  0.51108600  0.53533300  0.85289900  1
  C  C11  1  0.48891400  0.46466700  0.14710100  1
  C  C12  1  0.69235300  0.47319200  0.96156700  1
  C  C13  1  0.30764700  0.52680800  0.03843300  1
  C  C14  1  0.74161700  0.48515700  0.79913900  1
  C  C15  1  0.25838300  0.51484300  0.20086100  1
  C  C16  1  0.44941800  0.72755000  0.73841600  1
  C  C17  1  0.55058200  0.27245000  0.26158400  1
  C  C18  1  0.31151400  0.88530000  0.80807500  1
  C  C19  1  0.68848600  0.11470000  0.19192500  1
  C  C20  1  0.39937700  0.77140700  0.91277800  1
  C  C21  1  0.60062300  0.22859300  0.08722200  1
  C  C22  1  0.63033300  0.46040900  0.85566200  1
  C  C23  1  0.36966700  0.53959100  0.14433800  1
  C  C24  1  0.34269500  0.77280900  0.80855600  1
  C  C25  1  0.65730500  0.22719100  0.19144400  1
  Ni  Ni26  1  0.28451900  0.93919900  0.55593900  1
  Ni  Ni27  1  0.71548100  0.06080100  0.44406100  1
  Cu  Cu28  1  0.71819800  0.17771400  0.78199600  1
  Cu  Cu29  1  0.28180200  0.82228600  0.21800400  1
  Cu  Cu30  1  0.53113800  0.73160000  0.37821800  1
  Cu  Cu31  1  0.46886200  0.26840000  0.62178200  1
  Cu  Cu32  1  0.38053600  0.23851400  0.84772600  1
  Cu  Cu33  1  0.61946400  0.76148600  0.15227400  1
  Cu  Cu34  1  0.85584900  0.48911400  0.24877500  1
  Cu  Cu35  1  0.14415100  0.51088600  0.75122500  1
  Cu  Cu36  1  0.07282200  0.66978500  0.59338400  1
  Cu  Cu37  1  0.92717800  0.33021500  0.40661600  1
  Cu  Cu38  1  0.96258500  0.74950200  0.83483900  1
  Cu  Cu39  1  0.03741500  0.25049800  0.16516100  1
  Cu  Cu40  1  0.06078900  0.04324400  0.83174700  1
  Cu  Cu41  1  0.93921100  0.95675600  0.16825300  1
  Cu  Cu42  1  0.94788900  0.80472700  0.37731800  1
  Cu  Cu43  1  0.05211100  0.19527300  0.62268200  1
  Cu  Cu44  1  0.74074700  0.86250300  0.62564800  1
  Cu  Cu45  1  0.25925300  0.13749700  0.37435200  1
