# generated using pymatgen
data_Cu5(NiC2)2
_symmetry_space_group_name_H-M   'P 1'
_cell_length_a   11.33049659
_cell_length_b   11.33049659
_cell_length_c   11.33049659
_cell_angle_alpha   131.52384248
_cell_angle_beta   131.52384248
_cell_angle_gamma   70.98211361
_symmetry_Int_Tables_number   1
_chemical_formula_structural   Cu5(NiC2)2
_chemical_formula_sum   'Cu20 Ni8 C16'
_cell_volume   798.41590122
_cell_formula_units_Z   4
loop_
 _symmetry_equiv_pos_site_id
 _symmetry_equiv_pos_as_xyz
  1  'x, y, z'
loop_
 _atom_site_type_symbol
 _atom_site_label
 _atom_site_symmetry_multiplicity
 _atom_site_fract_x
 _atom_site_fract_y
 _atom_site_fract_z
 _atom_site_occupancy
  C  C0  1  0.34777800  0.83006900  0.95015100  1
  C  C1  1  0.58006900  0.12991800  0.98229100  1
  C  C2  1  0.14762800  0.59777800  0.01770900  1
  C  C3  1  0.87991800  0.39762800  0.04984900  1
  C  C4  1  0.40222200  0.41993100  0.54984900  1
  C  C5  1  0.16993100  0.12008200  0.51770900  1
  C  C6  1  0.60237200  0.65222200  0.48229100  1
  C  C7  1  0.87008200  0.85237200  0.45015100  1
  C  C8  1  0.00000000  0.00000000  0.00000000  1
  C  C9  1  0.75000000  0.25000000  0.50000000  1
  C  C10  1  0.50000000  0.50000000  0.00000000  1
  C  C11  1  0.25000000  0.75000000  0.50000000  1
  C  C12  1  0.98073200  0.48073200  0.50000000  1
  C  C13  1  0.23073200  0.23073200  0.00000000  1
  C  C14  1  0.76926800  0.76926800  0.00000000  1
  C  C15  1  0.51926800  0.01926800  0.50000000  1
  Ni  Ni16  1  0.03607800  0.27492500  0.85046900  1
  Ni  Ni17  1  0.02492500  0.67445600  0.73884700  1
  Ni  Ni18  1  0.93560900  0.28607800  0.26115300  1
  Ni  Ni19  1  0.42445600  0.18560900  0.14953100  1
  Ni  Ni20  1  0.71392200  0.97507500  0.64953100  1
  Ni  Ni21  1  0.72507500  0.57554400  0.76115300  1
  Ni  Ni22  1  0.81439100  0.96392200  0.23884700  1
  Ni  Ni23  1  0.32554400  0.06439100  0.35046900  1
  Cu  Cu24  1  0.42804100  0.75145600  0.21943300  1
  Cu  Cu25  1  0.50145600  0.78202200  0.82341500  1
  Cu  Cu26  1  0.95860700  0.67804100  0.17658500  1
  Cu  Cu27  1  0.53202200  0.20860700  0.78056700  1
  Cu  Cu28  1  0.32195900  0.49854400  0.28056700  1
  Cu  Cu29  1  0.24854400  0.46797800  0.67658500  1
  Cu  Cu30  1  0.79139300  0.57195900  0.32341500  1
  Cu  Cu31  1  0.21797800  0.04139300  0.71943300  1
  Cu  Cu32  1  0.39501100  0.89501100  0.50000000  1
  Cu  Cu33  1  0.64501100  0.64501100  0.00000000  1
  Cu  Cu34  1  0.35498900  0.35498900  0.00000000  1
  Cu  Cu35  1  0.10498900  0.60498900  0.50000000  1
  Cu  Cu36  1  0.11183000  0.98918700  0.83786000  1
  Cu  Cu37  1  0.73918700  0.40132700  0.37735600  1
  Cu  Cu38  1  0.02397000  0.36183000  0.62264400  1
  Cu  Cu39  1  0.15132700  0.27397000  0.16214000  1
  Cu  Cu40  1  0.63817000  0.26081300  0.66214000  1
  Cu  Cu41  1  0.01081300  0.84867300  0.12264400  1
  Cu  Cu42  1  0.72603000  0.88817000  0.87735600  1
  Cu  Cu43  1  0.59867300  0.97603000  0.33786000  1
