# generated using pymatgen
data_Cu4NiC20
_symmetry_space_group_name_H-M   'P 1'
_cell_length_a   5.55539300
_cell_length_b   5.60044500
_cell_length_c   39.25344980
_cell_angle_alpha   90.03977750
_cell_angle_beta   90.09079674
_cell_angle_gamma   90.06847326
_symmetry_Int_Tables_number   1
_chemical_formula_structural   Cu4NiC20
_chemical_formula_sum   'Cu16 Ni4 C80'
_cell_volume   1221.27704408
_cell_formula_units_Z   4
loop_
 _symmetry_equiv_pos_site_id
 _symmetry_equiv_pos_as_xyz
  1  'x, y, z'
loop_
 _atom_site_type_symbol
 _atom_site_label
 _atom_site_symmetry_multiplicity
 _atom_site_fract_x
 _atom_site_fract_y
 _atom_site_fract_z
 _atom_site_occupancy
  C  C0  1  0.98883000  0.00562200  0.04909600  1
  C  C1  1  0.98907800  0.00818300  0.24893400  1
  C  C2  1  0.98793500  0.00655100  0.44918600  1
  C  C3  1  0.98771500  0.00635600  0.64904300  1
  C  C4  1  0.98236300  0.00694800  0.85107800  1
  C  C5  1  0.51482200  0.50073800  0.35059200  1
  C  C6  1  0.51288000  0.50101600  0.15062600  1
  C  C7  1  0.51272200  0.50059600  0.55071500  1
  C  C8  1  0.51401900  0.50466100  0.75083100  1
  C  C9  1  0.51517700  0.50446600  0.95086800  1
  C  C10  1  0.48835200  0.49325200  0.04808600  1
  C  C11  1  0.48012900  0.49265200  0.24836300  1
  C  C12  1  0.48675600  0.49322400  0.64841400  1
  C  C13  1  0.48700300  0.49412200  0.44828100  1
  C  C14  1  0.48224900  0.49213400  0.85101300  1
  C  C15  1  0.01616100  0.99258600  0.15084000  1
  C  C16  1  0.01628900  0.99302100  0.55090100  1
  C  C17  1  0.01689400  0.99346700  0.75087000  1
  C  C18  1  0.01391200  0.99249400  0.35100200  1
  C  C19  1  0.01631200  0.99307700  0.95120900  1
  Ni  Ni20  1  0.00009300  0.49773400  0.09898900  1
  Ni  Ni21  1  0.99973800  0.49825200  0.49907400  1
  Ni  Ni22  1  0.99997000  0.49758000  0.69912000  1
  Ni  Ni23  1  0.50064900  0.00185000  0.29938700  1
  Cu  Cu24  1  0.00059000  0.49923200  0.99969400  1
  Cu  Cu25  1  0.00021900  0.49936100  0.39981300  1
  Cu  Cu26  1  0.99985600  0.49991500  0.59994700  1
  Cu  Cu27  1  0.99939700  0.49997100  0.80028200  1
  Cu  Cu28  1  0.99952800  0.50066400  0.90007900  1
  Cu  Cu29  1  0.50088800  0.99954700  0.09975700  1
  Cu  Cu30  1  0.50101300  0.00079300  0.00004000  1
  Cu  Cu31  1  0.50139900  0.99996600  0.19984300  1
  Cu  Cu32  1  0.50061600  0.99967400  0.49997800  1
  Cu  Cu33  1  0.50107700  0.99993600  0.60024100  1
  Cu  Cu34  1  0.49976000  0.99909200  0.90010500  1
  Cu  Cu35  1  0.50070300  0.00040400  0.40030400  1
  Cu  Cu36  1  0.50057200  0.00027500  0.69997100  1
  Cu  Cu37  1  0.49999200  0.99920100  0.80021600  1
  Cu  Cu38  1  0.99909200  0.49930300  0.20031000  1
  Cu  Cu39  1  0.99973900  0.50016800  0.29986100  1
  C  C40  1  0.00692900  0.55924500  0.05080600  1
  C  C41  1  0.00709700  0.56016600  0.45082200  1
  C  C42  1  0.00697900  0.56116600  0.65112200  1
  C  C43  1  0.99047000  0.41940200  0.94980500  1
  C  C44  1  0.00972800  0.58202000  0.85010700  1
  C  C45  1  0.76545100  0.76540100  0.19090300  1
  C  C46  1  0.76638000  0.76539700  0.59095100  1
  C  C47  1  0.76550000  0.76430400  0.39097700  1
  C  C48  1  0.76603000  0.75957200  0.10838400  1
  C  C49  1  0.75894900  0.76476900  0.30858500  1
  C  C50  1  0.76880400  0.76837500  0.79091000  1
  C  C51  1  0.76566300  0.75896500  0.50842100  1
  C  C52  1  0.76367900  0.76248200  0.99105000  1
  C  C53  1  0.76514800  0.75897000  0.70888800  1
  C  C54  1  0.77013900  0.76968500  0.90872400  1
  C  C55  1  0.72972900  0.27159800  0.00715100  1
  C  C56  1  0.73411800  0.27214300  0.09320700  1
  C  C57  1  0.72508300  0.27486200  0.20737100  1
  C  C58  1  0.72889900  0.26419600  0.29322000  1
  C  C59  1  0.72626700  0.27450100  0.40710400  1
  C  C60  1  0.73488700  0.27176000  0.69337300  1
  C  C61  1  0.73431800  0.27196400  0.49335000  1
  C  C62  1  0.72665400  0.27499800  0.60726400  1
  C  C63  1  0.72999700  0.26940100  0.80885600  1
  C  C64  1  0.73161200  0.26770600  0.89089500  1
  C  C65  1  0.50383500  0.91755800  0.05005500  1
  C  C66  1  0.50325900  0.92824500  0.25086400  1
  C  C67  1  0.50447300  0.91674100  0.65033500  1
  C  C68  1  0.50911900  0.91719800  0.85010600  1
  C  C69  1  0.49365900  0.07522700  0.14984100  1
  C  C70  1  0.49588000  0.06819600  0.34944500  1
  C  C71  1  0.50375400  0.91817000  0.45008600  1
  C  C72  1  0.49318400  0.07507700  0.54993200  1
  C  C73  1  0.49072800  0.07986000  0.75024900  1
  C  C74  1  0.49106100  0.07895700  0.94981800  1
  C  C75  1  0.26785400  0.73338300  0.19111900  1
  C  C76  1  0.25911900  0.73626300  0.10847500  1
  C  C77  1  0.26636700  0.73390400  0.59117800  1
  C  C78  1  0.26720200  0.73293600  0.39105800  1
  C  C79  1  0.25966500  0.73567800  0.70885600  1
  C  C80  1  0.26724300  0.73232500  0.79086400  1
  C  C81  1  0.26572400  0.74096000  0.30863800  1
  C  C82  1  0.25932500  0.73558100  0.50848500  1
  C  C83  1  0.26562200  0.73482200  0.99120900  1
  C  C84  1  0.26867500  0.73139300  0.90881300  1
  C  C85  1  0.24211700  0.24270300  0.00702200  1
  C  C86  1  0.23993700  0.24718000  0.09379600  1
  C  C87  1  0.24036800  0.24011500  0.20681800  1
  C  C88  1  0.23925800  0.24713000  0.69372400  1
  C  C89  1  0.24560800  0.23881500  0.29372500  1
  C  C90  1  0.24042400  0.24092100  0.40689800  1
  C  C91  1  0.23948300  0.24706400  0.49387700  1
  C  C92  1  0.23983700  0.24129700  0.60701600  1
  C  C93  1  0.23206300  0.23272900  0.89100000  1
  C  C94  1  0.22969600  0.23055700  0.80871800  1
  C  C95  1  0.01600300  0.56962100  0.25015300  1
  C  C96  1  0.99202700  0.42664300  0.14943900  1
  C  C97  1  0.98958000  0.41908200  0.34983300  1
  C  C98  1  0.99239500  0.42690600  0.54956800  1
  C  C99  1  0.99245100  0.42562800  0.74978800  1
