# generated using pymatgen
data_Cu4Ni2C7
_symmetry_space_group_name_H-M   'P 1'
_cell_length_a   8.11804033
_cell_length_b   8.11804033
_cell_length_c   9.91670305
_cell_angle_alpha   89.69599511
_cell_angle_beta   89.69599511
_cell_angle_gamma   46.25109912
_symmetry_Int_Tables_number   1
_chemical_formula_structural   Cu4Ni2C7
_chemical_formula_sum   'Cu8 Ni4 C14'
_cell_volume   472.09188628
_cell_formula_units_Z   2
loop_
 _symmetry_equiv_pos_site_id
 _symmetry_equiv_pos_as_xyz
  1  'x, y, z'
loop_
 _atom_site_type_symbol
 _atom_site_label
 _atom_site_symmetry_multiplicity
 _atom_site_fract_x
 _atom_site_fract_y
 _atom_site_fract_z
 _atom_site_occupancy
  C  C0  1  0.27331200  0.27331200  0.33515100  1
  C  C1  1  0.04436300  0.04436300  0.71094800  1
  C  C2  1  0.72668800  0.72668800  0.66484900  1
  C  C3  1  0.95563700  0.95563700  0.28905200  1
  C  C4  1  0.61630900  0.61630900  0.30877800  1
  C  C5  1  0.38369100  0.38369100  0.69122200  1
  Ni  Ni6  1  0.76018000  0.51447700  0.03868000  1
  Ni  Ni7  1  0.51447700  0.76018000  0.03868000  1
  Ni  Ni8  1  0.48552300  0.23982000  0.96132000  1
  Ni  Ni9  1  0.23982000  0.48552300  0.96132000  1
  Cu  Cu10  1  0.41792600  0.83779200  0.15874500  1
  Cu  Cu11  1  0.13099900  0.57920900  0.06464100  1
  Cu  Cu12  1  0.58207400  0.16220800  0.84125500  1
  Cu  Cu13  1  0.16220800  0.58207400  0.84125500  1
  Cu  Cu14  1  0.57920900  0.13099900  0.06464100  1
  Cu  Cu15  1  0.86900100  0.42079100  0.93535900  1
  Cu  Cu16  1  0.83779200  0.41792600  0.15874500  1
  Cu  Cu17  1  0.42079100  0.86900100  0.93535900  1
  C  C18  1  0.38546900  0.82945200  0.45120400  1
  C  C19  1  0.25056100  0.25056100  0.66391300  1
  C  C20  1  0.17054800  0.61453100  0.54879600  1
  C  C21  1  0.61453100  0.17054800  0.54879600  1
  C  C22  1  0.48531300  0.48531300  0.28341600  1
  C  C23  1  0.74943900  0.74943900  0.33608700  1
  C  C24  1  0.51468700  0.51468700  0.71658400  1
  C  C25  1  0.82945200  0.38546900  0.45120400  1
