# generated using pymatgen
data_Cu(NiC2)2
_symmetry_space_group_name_H-M   'P 1'
_cell_length_a   14.43277971
_cell_length_b   14.43277971
_cell_length_c   14.43278037
_cell_angle_alpha   17.99473149
_cell_angle_beta   17.99473149
_cell_angle_gamma   17.99473331
_symmetry_Int_Tables_number   1
_chemical_formula_structural   Cu(NiC2)2
_chemical_formula_sum   'Cu1 Ni2 C4'
_cell_volume   250.52675570
_cell_formula_units_Z   1
loop_
 _symmetry_equiv_pos_site_id
 _symmetry_equiv_pos_as_xyz
  1  'x, y, z'
loop_
 _atom_site_type_symbol
 _atom_site_label
 _atom_site_symmetry_multiplicity
 _atom_site_fract_x
 _atom_site_fract_y
 _atom_site_fract_z
 _atom_site_occupancy
  Ni  Ni0  1  0.42791200  0.42791200  0.42791200  1
  Ni  Ni1  1  0.57208800  0.57208800  0.57208800  1
  C  C2  1  0.13404800  0.13404800  0.13404800  1
  C  C3  1  0.28667900  0.28667900  0.28667900  1
  C  C4  1  0.71332100  0.71332100  0.71332100  1
  C  C5  1  0.86595200  0.86595200  0.86595200  1
  Cu  Cu6  1  0.00000000  0.00000000  0.00000000  1
