# generated using pymatgen
data_Cu4Ni2C3
_symmetry_space_group_name_H-M   'P 1'
_cell_length_a   6.39311600
_cell_length_b   9.63702100
_cell_length_c   14.00743300
_cell_angle_alpha   90.00000000
_cell_angle_beta   90.00000000
_cell_angle_gamma   90.00000000
_symmetry_Int_Tables_number   1
_chemical_formula_structural   Cu4Ni2C3
_chemical_formula_sum   'Cu32 Ni16 C24'
_cell_volume   863.00625560
_cell_formula_units_Z   8
loop_
 _symmetry_equiv_pos_site_id
 _symmetry_equiv_pos_as_xyz
  1  'x, y, z'
loop_
 _atom_site_type_symbol
 _atom_site_label
 _atom_site_symmetry_multiplicity
 _atom_site_fract_x
 _atom_site_fract_y
 _atom_site_fract_z
 _atom_site_occupancy
  C  C0  1  0.80138100  0.85649100  0.60334900  1
  C  C1  1  0.80138100  0.35649100  0.89665100  1
  C  C2  1  0.69861900  0.85649100  0.10334900  1
  C  C3  1  0.30138100  0.14350900  0.89665100  1
  C  C4  1  0.30138100  0.64350900  0.60334900  1
  C  C5  1  0.69861900  0.35649100  0.39665100  1
  C  C6  1  0.19861900  0.14350900  0.39665100  1
  C  C7  1  0.19861900  0.64350900  0.10334900  1
  C  C8  1  0.36584300  0.81885100  0.24772700  1
  C  C9  1  0.36584300  0.31885100  0.25227300  1
  C  C10  1  0.86584300  0.68114900  0.24772700  1
  C  C11  1  0.63415700  0.68114900  0.74772700  1
  C  C12  1  0.13415700  0.81885100  0.74772700  1
  C  C13  1  0.63415700  0.18114900  0.75227300  1
  C  C14  1  0.71016200  0.69520300  0.41868500  1
  C  C15  1  0.78983800  0.69520300  0.91868500  1
  C  C16  1  0.71016200  0.19520300  0.08131500  1
  C  C17  1  0.86584300  0.18114900  0.25227300  1
  C  C18  1  0.28983800  0.80479700  0.91868500  1
  C  C19  1  0.21016200  0.30479700  0.08131500  1
  C  C20  1  0.28983800  0.30479700  0.58131500  1
  C  C21  1  0.21016200  0.80479700  0.41868500  1
  C  C22  1  0.13415700  0.31885100  0.75227300  1
  C  C23  1  0.78983800  0.19520300  0.58131500  1
  Ni  Ni24  1  0.30458300  0.62118600  0.23025200  1
  Ni  Ni25  1  0.80458300  0.87881400  0.23025200  1
  Ni  Ni26  1  0.18571400  0.86430700  0.48550900  1
  Ni  Ni27  1  0.19541700  0.62118600  0.73025200  1
  Ni  Ni28  1  0.80458300  0.37881400  0.26974800  1
  Ni  Ni29  1  0.69541700  0.87881400  0.73025200  1
  Ni  Ni30  1  0.30458300  0.12118600  0.26974800  1
  Ni  Ni31  1  0.18571400  0.36430700  0.01449100  1
  Ni  Ni32  1  0.68571400  0.13569300  0.01449100  1
  Ni  Ni33  1  0.68571400  0.63569300  0.48550900  1
  Ni  Ni34  1  0.81428600  0.63569300  0.98550900  1
  Ni  Ni35  1  0.81428600  0.13569300  0.51449100  1
  Ni  Ni36  1  0.31428600  0.36430700  0.51449100  1
  Ni  Ni37  1  0.69541700  0.37881400  0.76974800  1
  Ni  Ni38  1  0.31428600  0.86430700  0.98550900  1
  Ni  Ni39  1  0.19541700  0.12118600  0.76974800  1
  Cu  Cu40  1  0.39349300  0.22691700  0.22247000  1
  Cu  Cu41  1  0.39349300  0.72691700  0.27753000  1
  Cu  Cu42  1  0.75980700  0.01131100  0.51005700  1
  Cu  Cu43  1  0.75980700  0.51131100  0.98994300  1
  Cu  Cu44  1  0.90144400  0.70296400  0.05603400  1
  Cu  Cu45  1  0.80190200  0.49484300  0.23397100  1
  Cu  Cu46  1  0.25980700  0.98868900  0.98994300  1
  Cu  Cu47  1  0.09855600  0.79703600  0.55603400  1
  Cu  Cu48  1  0.19809800  0.00515700  0.73397100  1
  Cu  Cu49  1  0.40144400  0.29703600  0.44396600  1
  Cu  Cu50  1  0.59855600  0.20296400  0.94396600  1
  Cu  Cu51  1  0.60650700  0.27308300  0.72247000  1
  Cu  Cu52  1  0.24019300  0.48868900  0.01005700  1
  Cu  Cu53  1  0.60650700  0.77308300  0.77753000  1
  Cu  Cu54  1  0.69809800  0.99484300  0.76602900  1
  Cu  Cu55  1  0.80190200  0.99484300  0.26602900  1
  Cu  Cu56  1  0.09855600  0.29703600  0.94396600  1
  Cu  Cu57  1  0.10650700  0.72691700  0.77753000  1
  Cu  Cu58  1  0.19809800  0.50515700  0.76602900  1
  Cu  Cu59  1  0.24019300  0.98868900  0.48994300  1
  Cu  Cu60  1  0.59855600  0.70296400  0.55603400  1
  Cu  Cu61  1  0.74019300  0.51131100  0.48994300  1
  Cu  Cu62  1  0.30190200  0.50515700  0.26602900  1
  Cu  Cu63  1  0.40144400  0.79703600  0.05603400  1
  Cu  Cu64  1  0.25980700  0.48868900  0.51005700  1
  Cu  Cu65  1  0.74019300  0.01131100  0.01005700  1
  Cu  Cu66  1  0.69809800  0.49484300  0.73397100  1
  Cu  Cu67  1  0.89349300  0.77308300  0.27753000  1
  Cu  Cu68  1  0.89349300  0.27308300  0.22247000  1
  Cu  Cu69  1  0.30190200  0.00515700  0.23397100  1
  Cu  Cu70  1  0.90144400  0.20296400  0.44396600  1
  Cu  Cu71  1  0.10650700  0.22691700  0.72247000  1
