# generated using pymatgen
data_Cu20Ni3C4
_symmetry_space_group_name_H-M   'P 1'
_cell_length_a   11.17120977
_cell_length_b   11.17236207
_cell_length_c   11.17653817
_cell_angle_alpha   90.02452403
_cell_angle_beta   89.99413329
_cell_angle_gamma   90.02501206
_symmetry_Int_Tables_number   1
_chemical_formula_structural   Cu20Ni3C4
_chemical_formula_sum   'Cu40 Ni6 C8'
_cell_volume   1394.93005305
_cell_formula_units_Z   2
loop_
 _symmetry_equiv_pos_site_id
 _symmetry_equiv_pos_as_xyz
  1  'x, y, z'
loop_
 _atom_site_type_symbol
 _atom_site_label
 _atom_site_symmetry_multiplicity
 _atom_site_fract_x
 _atom_site_fract_y
 _atom_site_fract_z
 _atom_site_occupancy
  C  C0  1  0.75005870  0.50009931  0.99991592  1
  C  C1  1  0.50003630  0.49998365  0.50000734  1
  C  C2  1  0.25009369  0.50004361  0.99994644  1
  C  C3  1  0.50001210  -0.00001087  0.25008223  1
  C  C4  1  -0.00002494  0.74999674  0.49992948  1
  C  C5  1  0.99999357  -0.00003001  0.99993352  1
  C  C6  1  0.49994015  0.00002034  0.74994591  1
  C  C7  1  -0.00004170  0.24999411  0.49994958  1
  Ni  Ni8  1  0.00012316  0.49996010  0.25012180  1
  Ni  Ni9  1  0.25020075  0.00009129  0.50011962  1
  Ni  Ni10  1  0.49996375  0.74997193  -0.00006303  1
  Ni  Ni11  1  0.50003043  0.24987039  -0.00004335  1
  Ni  Ni12  1  0.99995820  0.50010211  0.75009974  1
  Ni  Ni13  1  0.75015212  0.99999578  0.50004616  1
  Cu  Cu14  1  0.18327444  0.81665501  0.18335498  1
  Cu  Cu15  1  0.29964811  0.11451567  0.99998288  1
  Cu  Cu16  1  0.81684030  0.18312380  0.18322506  1
  Cu  Cu17  1  0.18327830  0.18323161  0.18330937  1
  Cu  Cu18  1  0.68315692  0.31660716  0.68330758  1
  Cu  Cu19  1  0.99990055  0.29976640  0.88563320  1
  Cu  Cu20  1  0.31674285  0.68311952  0.68326579  1
  Cu  Cu21  1  0.61423959  0.79960506  0.49990322  1
  Cu  Cu22  1  0.70018799  0.88570900  -0.00009900  1
  Cu  Cu23  1  0.49998506  0.38559938  0.20026126  1
  Cu  Cu24  1  0.18338764  0.81665129  0.81692563  1
  Cu  Cu25  1  0.38556989  0.20032597  0.50007540  1
  Cu  Cu26  1  0.61433368  0.20014218  0.49989445  1
  Cu  Cu27  1  0.81678898  0.81682914  0.18328605  1
  Cu  Cu28  1  0.68320291  0.68319405  0.31678085  1
  Cu  Cu29  1  -0.00003612  0.70020204  0.11426087  1
  Cu  Cu30  1  0.70023330  0.11435603  0.99997256  1
  Cu  Cu31  1  0.11439834  0.00007767  0.70011665  1
  Cu  Cu32  1  0.81669055  0.18312478  0.81674421  1
  Cu  Cu33  1  0.38569188  0.79989704  0.50005004  1
  Cu  Cu34  1  0.31677861  0.68328595  0.31669391  1
  Cu  Cu35  1  0.18328936  0.18324116  0.81679135  1
  Cu  Cu36  1  0.11439547  0.00009583  0.29981950  1
  Cu  Cu37  1  0.79965650  0.50008047  0.38562403  1
  Cu  Cu38  1  0.31687937  0.31674403  0.31668160  1
  Cu  Cu39  1  0.20013579  0.50003108  0.61453655  1
  Cu  Cu40  1  0.81691436  0.81661808  0.81683560  1
  Cu  Cu41  1  0.31691914  0.31686462  0.68307271  1
  Cu  Cu42  1  0.68320910  0.31679309  0.31684840  1
  Cu  Cu43  1  0.88559879  -0.00008648  0.29976328  1
  Cu  Cu44  1  0.00004501  0.70023382  0.88548332  1
  Cu  Cu45  1  0.49993396  0.61458991  0.79968280  1
  Cu  Cu46  1  0.29981705  0.88545165  -0.00002772  1
  Cu  Cu47  1  0.50007752  0.38537965  0.79987753  1
  Cu  Cu48  1  0.00006317  0.29977259  0.11435938  1
  Cu  Cu49  1  0.68295292  0.68332222  0.68317392  1
  Cu  Cu50  1  0.49980339  0.61446994  0.20036539  1
  Cu  Cu51  1  0.88558590  0.00010612  0.70020078  1
  Cu  Cu52  1  0.20014247  0.50016051  0.38564793  1
  Cu  Cu53  1  0.79979068  0.50002447  0.61432733  1
