# generated using pymatgen
data_Cu(Ni3C5)4
_symmetry_space_group_name_H-M   'P 1'
_cell_length_a   9.03245270
_cell_length_b   9.03245270
_cell_length_c   9.03245270
_cell_angle_alpha   109.47122063
_cell_angle_beta   109.47122063
_cell_angle_gamma   109.47122063
_symmetry_Int_Tables_number   1
_chemical_formula_structural   Cu(Ni3C5)4
_chemical_formula_sum   'Cu1 Ni12 C20'
_cell_volume   567.27702890
_cell_formula_units_Z   1
loop_
 _symmetry_equiv_pos_site_id
 _symmetry_equiv_pos_as_xyz
  1  'x, y, z'
loop_
 _atom_site_type_symbol
 _atom_site_label
 _atom_site_symmetry_multiplicity
 _atom_site_fract_x
 _atom_site_fract_y
 _atom_site_fract_z
 _atom_site_occupancy
  Ni  Ni0  1  0.83535200  0.33325400  0.14119700  1
  Ni  Ni1  1  0.80794300  0.66674600  0.50209800  1
  Ni  Ni2  1  0.19205700  0.69415500  0.85880300  1
  Ni  Ni3  1  0.50209800  0.80794300  0.66674600  1
  Ni  Ni4  1  0.85880300  0.19205700  0.69415500  1
  Ni  Ni5  1  0.66674600  0.50209800  0.80794300  1
  Ni  Ni6  1  0.33325400  0.14119700  0.83535200  1
  Ni  Ni7  1  0.69415500  0.85880300  0.19205700  1
  Ni  Ni8  1  0.30584500  0.49790200  0.16464800  1
  Ni  Ni9  1  0.14119700  0.83535200  0.33325400  1
  Ni  Ni10  1  0.16464800  0.30584500  0.49790200  1
  Ni  Ni11  1  0.49790200  0.16464800  0.30584500  1
  Cu  Cu12  1  0.00000000  0.00000000  0.00000000  1
  C  C13  1  0.37864600  0.26415600  0.62336000  1
  C  C14  1  0.35920500  0.73584400  0.11449100  1
  C  C15  1  0.00000000  0.00000000  0.76640500  1
  C  C16  1  0.76640500  0.00000000  0.00000000  1
  C  C17  1  0.75528600  0.37664000  0.64079500  1
  C  C18  1  0.62336000  0.37864600  0.26415600  1
  C  C19  1  0.37664000  0.64079500  0.75528600  1
  C  C20  1  0.62135400  0.24471400  0.88550900  1
  C  C21  1  0.36486200  0.00000000  0.00000000  1
  C  C22  1  0.11449100  0.35920500  0.73584400  1
  C  C23  1  0.88550900  0.62135400  0.24471400  1
  C  C24  1  0.26415600  0.62336000  0.37864600  1
  C  C25  1  0.00000000  0.36486200  0.00000000  1
  C  C26  1  0.00000000  0.76640500  0.00000000  1
  C  C27  1  0.24471400  0.88550900  0.62135400  1
  C  C28  1  0.23359500  0.23359500  0.23359500  1
  C  C29  1  0.00000000  0.00000000  0.36486200  1
  C  C30  1  0.63513800  0.63513800  0.63513800  1
  C  C31  1  0.64079500  0.75528600  0.37664000  1
  C  C32  1  0.73584400  0.11449100  0.35920500  1
