# generated using pymatgen
data_Cu2(NiC12)3
_symmetry_space_group_name_H-M   'P 1'
_cell_length_a   13.71011600
_cell_length_b   13.71011600
_cell_length_c   13.71011600
_cell_angle_alpha   90.00000000
_cell_angle_beta   90.00000000
_cell_angle_gamma   90.00000000
_symmetry_Int_Tables_number   1
_chemical_formula_structural   Cu2(NiC12)3
_chemical_formula_sum   'Cu8 Ni12 C144'
_cell_volume   2577.05322306
_cell_formula_units_Z   4
loop_
 _symmetry_equiv_pos_site_id
 _symmetry_equiv_pos_as_xyz
  1  'x, y, z'
loop_
 _atom_site_type_symbol
 _atom_site_label
 _atom_site_symmetry_multiplicity
 _atom_site_fract_x
 _atom_site_fract_y
 _atom_site_fract_z
 _atom_site_occupancy
  Ni  Ni0  1  0.87500000  0.81181600  0.56181600  1
  Ni  Ni1  1  0.43818400  0.37500000  0.68818400  1
  Ni  Ni2  1  0.37500000  0.68818400  0.43818400  1
  Ni  Ni3  1  0.31181600  0.93818400  0.12500000  1
  Ni  Ni4  1  0.56181600  0.87500000  0.81181600  1
  Ni  Ni5  1  0.18818400  0.06181600  0.62500000  1
  Ni  Ni6  1  0.06181600  0.62500000  0.18818400  1
  Ni  Ni7  1  0.12500000  0.31181600  0.93818400  1
  Ni  Ni8  1  0.68818400  0.43818400  0.37500000  1
  Ni  Ni9  1  0.62500000  0.18818400  0.06181600  1
  Ni  Ni10  1  0.81181600  0.56181600  0.87500000  1
  Ni  Ni11  1  0.93818400  0.12500000  0.31181600  1
  Cu  Cu12  1  0.05010800  0.44989200  0.55010800  1
  Cu  Cu13  1  0.55010800  0.05010800  0.44989200  1
  Cu  Cu14  1  0.44989200  0.55010800  0.05010800  1
  Cu  Cu15  1  0.30010800  0.30010800  0.30010800  1
  Cu  Cu16  1  0.94989200  0.94989200  0.94989200  1
  Cu  Cu17  1  0.80010800  0.19989200  0.69989200  1
  Cu  Cu18  1  0.19989200  0.69989200  0.80010800  1
  Cu  Cu19  1  0.69989200  0.80010800  0.19989200  1
  C  C20  1  0.09863500  0.08668100  0.86115600  1
  C  C21  1  0.40136500  0.91331900  0.36115600  1
  C  C22  1  0.90136500  0.58668100  0.63884400  1
  C  C23  1  0.41331900  0.13884400  0.59863500  1
  C  C24  1  0.48615400  0.76384600  0.12500000  1
  C  C25  1  0.87500000  0.98615400  0.73615400  1
  C  C26  1  0.11115600  0.83668100  0.65136500  1
  C  C27  1  0.38884400  0.16331900  0.15136500  1
  C  C28  1  0.65136500  0.11115600  0.83668100  1
  C  C29  1  0.16331900  0.15136500  0.38884400  1
  C  C30  1  0.61115600  0.66331900  0.34863500  1
  C  C31  1  0.83668100  0.65136500  0.11115600  1
  C  C32  1  0.73615400  0.87500000  0.98615400  1
  C  C33  1  0.08668100  0.86115600  0.09863500  1
  C  C34  1  0.37500000  0.51384600  0.26384600  1
  C  C35  1  0.98615400  0.73615400  0.87500000  1
  C  C36  1  0.26384600  0.37500000  0.51384600  1
  C  C37  1  0.36115600  0.40136500  0.91331900  1
  C  C38  1  0.91331900  0.36115600  0.40136500  1
  C  C39  1  0.88884400  0.33668100  0.84863500  1
  C  C40  1  0.23615400  0.62500000  0.01384600  1
  C  C41  1  0.76384600  0.12500000  0.48615400  1
  C  C42  1  0.59863500  0.41331900  0.13884400  1
  C  C43  1  0.62500000  0.01384600  0.23615400  1
  C  C44  1  0.51384600  0.26384600  0.37500000  1
  C  C45  1  0.86115600  0.09863500  0.08668100  1
  C  C46  1  0.01384600  0.23615400  0.62500000  1
  C  C47  1  0.12500000  0.48615400  0.76384600  1
  C  C48  1  0.13884400  0.59863500  0.41331900  1
  C  C49  1  0.33668100  0.84863500  0.88884400  1
  C  C50  1  0.63884400  0.90136500  0.58668100  1
  C  C51  1  0.84863500  0.88884400  0.33668100  1
  C  C52  1  0.66331900  0.34863500  0.61115600  1
  C  C53  1  0.34863500  0.61115600  0.66331900  1
  C  C54  1  0.15136500  0.38884400  0.16331900  1
  C  C55  1  0.58668100  0.63884400  0.90136500  1
  C  C56  1  0.50256300  0.67507800  0.91882200  1
  C  C57  1  0.99254800  0.15310100  0.65690600  1
  C  C58  1  0.19721600  0.37500000  0.44721600  1
  C  C59  1  0.14040300  0.19782300  0.31099800  1
  C  C60  1  0.40802900  0.57252600  0.60628700  1
  C  C61  1  0.09197100  0.42747400  0.10628700  1
  C  C62  1  0.84689900  0.15690600  0.50745200  1
  C  C63  1  0.59689900  0.24254800  0.40690600  1
  C  C64  1  0.94782300  0.60959700  0.56099800  1
  C  C65  1  0.31099800  0.14040300  0.19782300  1
  C  C66  1  0.06099800  0.55217700  0.39040300  1
  C  C67  1  0.33117800  0.57492200  0.74743700  1
  C  C68  1  0.17747400  0.65802900  0.35628700  1
  C  C69  1  0.81099800  0.35959700  0.80217700  1
  C  C70  1  0.05217700  0.10959700  0.93900200  1
  C  C71  1  0.17507800  0.58117800  0.49743700  1
  C  C72  1  0.80217700  0.81099800  0.35959700  1
  C  C73  1  0.49254800  0.34689900  0.34309400  1
  C  C74  1  0.84309400  0.00745200  0.65310100  1
  C  C75  1  0.84197100  0.64371300  0.67747400  1
  C  C76  1  0.05278400  0.80278400  0.87500000  1
  C  C77  1  0.15802900  0.14371300  0.82252600  1
  C  C78  1  0.30278400  0.62500000  0.94721600  1
  C  C79  1  0.82252600  0.15802900  0.14371300  1
  C  C80  1  0.68900200  0.64040300  0.30217700  1
  C  C81  1  0.60959700  0.56099800  0.94782300  1
  C  C82  1  0.56099800  0.94782300  0.60959700  1
  C  C83  1  0.83117800  0.92507800  0.25256300  1
  C  C84  1  0.80278400  0.87500000  0.05278400  1
  C  C85  1  0.92747400  0.39371300  0.90802900  1
  C  C86  1  0.50745200  0.84689900  0.15690600  1
  C  C87  1  0.89371300  0.59197100  0.07252600  1
  C  C88  1  0.49743700  0.17507800  0.58117800  1
  C  C89  1  0.44721600  0.19721600  0.37500000  1
  C  C90  1  0.57252600  0.60628700  0.40802900  1
  C  C91  1  0.74254800  0.09309400  0.40310100  1
  C  C92  1  0.10628700  0.09197100  0.42747400  1
  C  C93  1  0.25745200  0.59309400  0.09689900  1
  C  C94  1  0.91882200  0.50256300  0.67507800  1
  C  C95  1  0.59309400  0.09689900  0.25745200  1
  C  C96  1  0.69782300  0.18900200  0.85959700  1
  C  C97  1  0.94721600  0.30278400  0.62500000  1
  C  C98  1  0.34689900  0.34309400  0.49254800  1
  C  C99  1  0.55278400  0.69721600  0.12500000  1
  C  C100  1  0.92507800  0.25256300  0.83117800  1
  C  C101  1  0.09689900  0.25745200  0.59309400  1
  C  C102  1  0.90690600  0.90310100  0.75745200  1
  C  C103  1  0.40690600  0.59689900  0.24254800  1
  C  C104  1  0.32252600  0.34197100  0.85628700  1
  C  C105  1  0.64040300  0.30217700  0.68900200  1
  C  C106  1  0.75256300  0.66882200  0.07492200  1
  C  C107  1  0.62500000  0.94721600  0.30278400  1
  C  C108  1  0.24254800  0.40690600  0.59689900  1
  C  C109  1  0.08117800  0.00256300  0.82492200  1
  C  C110  1  0.15310100  0.65690600  0.99254800  1
  C  C111  1  0.14371300  0.82252600  0.15802900  1
  C  C112  1  0.85628700  0.32252600  0.34197100  1
  C  C113  1  0.15690600  0.50745200  0.84689900  1
  C  C114  1  0.59197100  0.07252600  0.89371300  1
  C  C115  1  0.07252600  0.89371300  0.59197100  1
  C  C116  1  0.65802900  0.35628700  0.17747400  1
  C  C117  1  0.40310100  0.74254800  0.09309400  1
  C  C118  1  0.66882200  0.07492200  0.75256300  1
  C  C119  1  0.25256300  0.83117800  0.92507800  1
  C  C120  1  0.19782300  0.31099800  0.14040300  1
  C  C121  1  0.93900200  0.05217700  0.10959700  1
  C  C122  1  0.30217700  0.68900200  0.64040300  1
  C  C123  1  0.44782300  0.89040300  0.43900200  1
  C  C124  1  0.07492200  0.75256300  0.66882200  1
  C  C125  1  0.35959700  0.80217700  0.81099800  1
  C  C126  1  0.82492200  0.08117800  0.00256300  1
  C  C127  1  0.34197100  0.85628700  0.32252600  1
  C  C128  1  0.60628700  0.40802900  0.57252600  1
  C  C129  1  0.58117800  0.49743700  0.17507800  1
  C  C130  1  0.39040300  0.06099800  0.55217700  1
  C  C131  1  0.64371300  0.67747400  0.84197100  1
  C  C132  1  0.12500000  0.55278400  0.69721600  1
  C  C133  1  0.39371300  0.90802900  0.92747400  1
  C  C134  1  0.42507800  0.24743700  0.16882200  1
  C  C135  1  0.41882200  0.99743700  0.32492200  1
  C  C136  1  0.65690600  0.99254800  0.15310100  1
  C  C137  1  0.10959700  0.93900200  0.05217700  1
  C  C138  1  0.90802900  0.92747400  0.39371300  1
  C  C139  1  0.75745200  0.90690600  0.90310100  1
  C  C140  1  0.57492200  0.74743700  0.33117800  1
  C  C141  1  0.99743700  0.32492200  0.41882200  1
  C  C142  1  0.32492200  0.41882200  0.99743700  1
  C  C143  1  0.90310100  0.75745200  0.90690600  1
  C  C144  1  0.67747400  0.84197100  0.64371300  1
  C  C145  1  0.42747400  0.10628700  0.09197100  1
  C  C146  1  0.00745200  0.65310100  0.84309400  1
  C  C147  1  0.00256300  0.82492200  0.08117800  1
  C  C148  1  0.67507800  0.91882200  0.50256300  1
  C  C149  1  0.16882200  0.42507800  0.24743700  1
  C  C150  1  0.34309400  0.49254800  0.34689900  1
  C  C151  1  0.65310100  0.84309400  0.00745200  1
  C  C152  1  0.24743700  0.16882200  0.42507800  1
  C  C153  1  0.37500000  0.44721600  0.19721600  1
  C  C154  1  0.18900200  0.85959700  0.69782300  1
  C  C155  1  0.87500000  0.05278400  0.80278400  1
  C  C156  1  0.55217700  0.39040300  0.06099800  1
  C  C157  1  0.89040300  0.43900200  0.44782300  1
  C  C158  1  0.43900200  0.44782300  0.89040300  1
  C  C159  1  0.09309400  0.40310100  0.74254800  1
  C  C160  1  0.69721600  0.12500000  0.55278400  1
  C  C161  1  0.74743700  0.33117800  0.57492200  1
  C  C162  1  0.35628700  0.17747400  0.65802900  1
  C  C163  1  0.85959700  0.69782300  0.18900200  1
