# generated using pymatgen
data_CuNi2C
_symmetry_space_group_name_H-M   'P 1'
_cell_length_a   6.50275473
_cell_length_b   6.50275473
_cell_length_c   8.51075900
_cell_angle_alpha   90.00000000
_cell_angle_beta   90.00000000
_cell_angle_gamma   120.00000741
_symmetry_Int_Tables_number   1
_chemical_formula_structural   CuNi2C
_chemical_formula_sum   'Cu6 Ni12 C6'
_cell_volume   311.66902266
_cell_formula_units_Z   6
loop_
 _symmetry_equiv_pos_site_id
 _symmetry_equiv_pos_as_xyz
  1  'x, y, z'
loop_
 _atom_site_type_symbol
 _atom_site_label
 _atom_site_symmetry_multiplicity
 _atom_site_fract_x
 _atom_site_fract_y
 _atom_site_fract_z
 _atom_site_occupancy
  C  C0  1  0.50000000  0.50000000  0.83333300  1
  C  C1  1  0.50000000  0.00000000  0.50000000  1
  C  C2  1  0.00000000  0.50000000  0.16666700  1
  C  C3  1  0.00000000  0.00000000  0.33333300  1
  C  C4  1  0.00000000  0.00000000  0.00000000  1
  C  C5  1  0.00000000  0.00000000  0.66666700  1
  Ni  Ni6  1  0.39405100  0.08817100  0.12134400  1
  Ni  Ni7  1  0.91182900  0.30588000  0.78801100  1
  Ni  Ni8  1  0.69412000  0.60594900  0.45467700  1
  Ni  Ni9  1  0.60594900  0.91182900  0.12134400  1
  Ni  Ni10  1  0.08817100  0.69412000  0.78801100  1
  Ni  Ni11  1  0.30588000  0.39405100  0.45467700  1
  Ni  Ni12  1  0.08817100  0.39405100  0.54532300  1
  Ni  Ni13  1  0.30588000  0.91182900  0.87865600  1
  Ni  Ni14  1  0.60594900  0.69412000  0.21198900  1
  Ni  Ni15  1  0.91182900  0.60594900  0.54532300  1
  Ni  Ni16  1  0.69412000  0.08817100  0.87865600  1
  Ni  Ni17  1  0.39405100  0.30588000  0.21198900  1
  Cu  Cu18  1  0.14060200  0.85939800  0.83333300  1
  Cu  Cu19  1  0.14060200  0.28120400  0.50000000  1
  Cu  Cu20  1  0.71879600  0.85939800  0.16666700  1
  Cu  Cu21  1  0.85939800  0.14060200  0.83333300  1
  Cu  Cu22  1  0.85939800  0.71879600  0.50000000  1
  Cu  Cu23  1  0.28120400  0.14060200  0.16666700  1
