# generated using pymatgen
data_Cu3Ni2C15
_symmetry_space_group_name_H-M   'P 1'
_cell_length_a   9.30945021
_cell_length_b   9.30945021
_cell_length_c   9.30944971
_cell_angle_alpha   55.37587232
_cell_angle_beta   55.37587232
_cell_angle_gamma   55.37586830
_symmetry_Int_Tables_number   1
_chemical_formula_structural   Cu3Ni2C15
_chemical_formula_sum   'Cu6 Ni4 C30'
_cell_volume   509.21800305
_cell_formula_units_Z   2
loop_
 _symmetry_equiv_pos_site_id
 _symmetry_equiv_pos_as_xyz
  1  'x, y, z'
loop_
 _atom_site_type_symbol
 _atom_site_label
 _atom_site_symmetry_multiplicity
 _atom_site_fract_x
 _atom_site_fract_y
 _atom_site_fract_z
 _atom_site_occupancy
  C  C0  1  0.66417600  0.92751600  0.26717400  1
  C  C1  1  0.26717400  0.66417600  0.92751600  1
  C  C2  1  0.92751600  0.26717400  0.66417600  1
  C  C3  1  0.33582400  0.07248400  0.73282600  1
  C  C4  1  0.73282600  0.33582400  0.07248400  1
  C  C5  1  0.07248400  0.73282600  0.33582400  1
  Ni  Ni6  1  0.34551300  0.34551300  0.34551300  1
  Ni  Ni7  1  0.65448700  0.65448700  0.65448700  1
  Ni  Ni8  1  0.85341900  0.85341900  0.85341900  1
  Ni  Ni9  1  0.14658100  0.14658100  0.14658100  1
  Cu  Cu10  1  0.74958000  0.04603200  0.45137700  1
  Cu  Cu11  1  0.45137700  0.74958000  0.04603200  1
  Cu  Cu12  1  0.04603200  0.45137700  0.74958000  1
  Cu  Cu13  1  0.25042000  0.95396800  0.54862300  1
  Cu  Cu14  1  0.54862300  0.25042000  0.95396800  1
  Cu  Cu15  1  0.95396800  0.54862300  0.25042000  1
  C  C16  1  0.13793300  0.84790800  0.74980400  1
  C  C17  1  0.74980400  0.13793300  0.84790800  1
  C  C18  1  0.84790800  0.74980400  0.13793300  1
  C  C19  1  0.86206700  0.15209200  0.25019600  1
  C  C20  1  0.99534200  0.40313500  0.19221200  1
  C  C21  1  0.40313500  0.19221200  0.99534200  1
  C  C22  1  0.19221200  0.99534200  0.40313500  1
  C  C23  1  0.00465800  0.59686500  0.80778800  1
  C  C24  1  0.59686500  0.80778800  0.00465800  1
  C  C25  1  0.80778800  0.00465800  0.59686500  1
  C  C26  1  0.85709200  0.44283100  0.79571500  1
  C  C27  1  0.44283100  0.79571500  0.85709200  1
  C  C28  1  0.79571500  0.85709200  0.44283100  1
  C  C29  1  0.14290800  0.55716900  0.20428500  1
  C  C30  1  0.55716900  0.20428500  0.14290800  1
  C  C31  1  0.20428500  0.14290800  0.55716900  1
  C  C32  1  0.84263800  0.50267400  0.46445900  1
  C  C33  1  0.50267400  0.46445900  0.84263800  1
  C  C34  1  0.46445900  0.84263800  0.50267400  1
  C  C35  1  0.15736200  0.49732600  0.53554100  1
  C  C36  1  0.49732600  0.53554100  0.15736200  1
  C  C37  1  0.53554100  0.15736200  0.49732600  1
  C  C38  1  0.15209200  0.25019600  0.86206700  1
  C  C39  1  0.25019600  0.86206700  0.15209200  1
