# generated using pymatgen
data_Cu7Ni2C
_symmetry_space_group_name_H-M   'P 1'
_cell_length_a   5.33782791
_cell_length_b   5.33782791
_cell_length_c   26.26649709
_cell_angle_alpha   89.37069151
_cell_angle_beta   89.37069151
_cell_angle_gamma   65.94314595
_symmetry_Int_Tables_number   1
_chemical_formula_structural   Cu7Ni2C
_chemical_formula_sum   'Cu35 Ni10 C5'
_cell_volume   683.33255245
_cell_formula_units_Z   5
loop_
 _symmetry_equiv_pos_site_id
 _symmetry_equiv_pos_as_xyz
  1  'x, y, z'
loop_
 _atom_site_type_symbol
 _atom_site_label
 _atom_site_symmetry_multiplicity
 _atom_site_fract_x
 _atom_site_fract_y
 _atom_site_fract_z
 _atom_site_occupancy
  C  C0  1  0.99994400  0.99994400  0.90003800  1
  C  C1  1  0.99997900  0.99997900  0.70002600  1
  C  C2  1  0.99966400  0.99966400  0.50017300  1
  C  C3  1  0.99965700  0.99965700  0.30018000  1
  C  C4  1  0.99969800  0.99969800  0.10017100  1
  Ni  Ni5  1  0.62414700  0.62414700  0.98521200  1
  Ni  Ni6  1  0.37595200  0.37595200  0.81479200  1
  Ni  Ni7  1  0.49499100  0.49499100  0.80150100  1
  Ni  Ni8  1  0.50490700  0.50490700  0.59855600  1
  Ni  Ni9  1  0.62413000  0.62413000  0.58521300  1
  Ni  Ni10  1  0.50490800  0.50490800  0.39856100  1
  Ni  Ni11  1  0.62414500  0.62414500  0.38521500  1
  Ni  Ni12  1  0.50490300  0.50490300  0.19856200  1
  Ni  Ni13  1  0.62412600  0.62412600  0.18521700  1
  Ni  Ni14  1  0.50490800  0.50490800  0.99856300  1
  Cu  Cu15  1  0.13174000  0.13174000  0.94966300  1
  Cu  Cu16  1  0.67857700  0.11433600  0.93285500  1
  Cu  Cu17  1  0.11433600  0.67857700  0.93285500  1
  Cu  Cu18  1  0.88561100  0.32142400  0.86713000  1
  Cu  Cu19  1  0.32142400  0.88561100  0.86713000  1
  Cu  Cu20  1  0.86819800  0.86819800  0.85033200  1
  Cu  Cu21  1  0.62745100  0.62745100  0.78456000  1
  Cu  Cu22  1  0.13164600  0.13164600  0.74965100  1
  Cu  Cu23  1  0.67919100  0.11413000  0.73277300  1
  Cu  Cu24  1  0.11413000  0.67919100  0.73277300  1
  Cu  Cu25  1  0.88584300  0.32086900  0.66719300  1
  Cu  Cu26  1  0.32086900  0.88584300  0.66719300  1
  Cu  Cu27  1  0.86833100  0.86833100  0.65032700  1
  Cu  Cu28  1  0.37253600  0.37253600  0.61545400  1
  Cu  Cu29  1  0.13167700  0.13167700  0.54971000  1
  Cu  Cu30  1  0.67810900  0.11444800  0.53295300  1
  Cu  Cu31  1  0.11444800  0.67810900  0.53295300  1
  Cu  Cu32  1  0.88591700  0.32036500  0.46728300  1
  Cu  Cu33  1  0.32036500  0.88591700  0.46728300  1
  Cu  Cu34  1  0.86824700  0.86824700  0.45039700  1
  Cu  Cu35  1  0.37256100  0.37256100  0.41546700  1
  Cu  Cu36  1  0.13169000  0.13169000  0.34971500  1
  Cu  Cu37  1  0.67808500  0.11445300  0.33295200  1
  Cu  Cu38  1  0.11445300  0.67808500  0.33295200  1
  Cu  Cu39  1  0.88591700  0.32036000  0.26729100  1
  Cu  Cu40  1  0.32036000  0.88591700  0.26729100  1
  Cu  Cu41  1  0.86825800  0.86825800  0.25039600  1
  Cu  Cu42  1  0.37253900  0.37253900  0.21546600  1
  Cu  Cu43  1  0.13169800  0.13169800  0.14971400  1
  Cu  Cu44  1  0.67811800  0.11445700  0.13293900  1
  Cu  Cu45  1  0.11445700  0.67811800  0.13293900  1
  Cu  Cu46  1  0.88593200  0.32039600  0.06729000  1
  Cu  Cu47  1  0.32039600  0.88593200  0.06729000  1
  Cu  Cu48  1  0.86828200  0.86828200  0.05038000  1
  Cu  Cu49  1  0.37254800  0.37254800  0.01546700  1
