# generated using pymatgen
data_Cu9Ni2C3
_symmetry_space_group_name_H-M   'P 1'
_cell_length_a   8.09398200
_cell_length_b   8.84369000
_cell_length_c   14.50626000
_cell_angle_alpha   90.00000000
_cell_angle_beta   90.00000000
_cell_angle_gamma   90.00000000
_symmetry_Int_Tables_number   1
_chemical_formula_structural   Cu9Ni2C3
_chemical_formula_sum   'Cu36 Ni8 C12'
_cell_volume   1038.36777625
_cell_formula_units_Z   4
loop_
 _symmetry_equiv_pos_site_id
 _symmetry_equiv_pos_as_xyz
  1  'x, y, z'
loop_
 _atom_site_type_symbol
 _atom_site_label
 _atom_site_symmetry_multiplicity
 _atom_site_fract_x
 _atom_site_fract_y
 _atom_site_fract_z
 _atom_site_occupancy
  C  C0  1  0.85408800  0.75000000  0.05827600  1
  C  C1  1  0.35408800  0.25000000  0.44172400  1
  C  C2  1  0.09104100  0.75000000  0.72145600  1
  C  C3  1  0.64591200  0.75000000  0.55827600  1
  C  C4  1  0.90895900  0.25000000  0.27854400  1
  C  C5  1  0.59104100  0.25000000  0.77854400  1
  C  C6  1  0.14591200  0.25000000  0.94172400  1
  C  C7  1  0.40895900  0.75000000  0.22145600  1
  Ni  Ni8  1  0.75088700  0.25000000  0.69826000  1
  Ni  Ni9  1  0.25088700  0.75000000  0.80174000  1
  Ni  Ni10  1  0.52635800  0.25000000  0.50464500  1
  Ni  Ni11  1  0.97364200  0.25000000  0.00464500  1
  Ni  Ni12  1  0.02635800  0.75000000  0.99535500  1
  Ni  Ni13  1  0.24911300  0.75000000  0.30174000  1
  Ni  Ni14  1  0.47364200  0.75000000  0.49535500  1
  Ni  Ni15  1  0.74911300  0.25000000  0.19826000  1
  C  C16  1  0.59569700  0.25000000  0.13217900  1
  C  C17  1  0.90430300  0.25000000  0.63217900  1
  C  C18  1  0.09569700  0.75000000  0.36782100  1
  C  C19  1  0.40430300  0.75000000  0.86782100  1
  Cu  Cu20  1  0.31662200  0.60188900  0.14368000  1
  Cu  Cu21  1  0.69682700  0.75000000  0.96100800  1
  Cu  Cu22  1  0.68337800  0.10188900  0.85632000  1
  Cu  Cu23  1  0.67742200  0.95966400  0.57423600  1
  Cu  Cu24  1  0.94692200  0.75000000  0.17817900  1
  Cu  Cu25  1  0.81662200  0.39811100  0.35632000  1
  Cu  Cu26  1  0.41212200  0.25000000  0.87236200  1
  Cu  Cu27  1  0.82257800  0.95966400  0.07423600  1
  Cu  Cu28  1  0.03816700  0.09845300  0.22274000  1
  Cu  Cu29  1  0.18337800  0.89811100  0.64368000  1
  Cu  Cu30  1  0.44692200  0.25000000  0.32182100  1
  Cu  Cu31  1  0.96183300  0.90154700  0.77726000  1
  Cu  Cu32  1  0.46183300  0.09845300  0.72274000  1
  Cu  Cu33  1  0.53816700  0.90154700  0.27726000  1
  Cu  Cu34  1  0.31662200  0.89811100  0.14368000  1
  Cu  Cu35  1  0.81662200  0.10188900  0.35632000  1
  Cu  Cu36  1  0.17742200  0.04033600  0.92576400  1
  Cu  Cu37  1  0.91212200  0.75000000  0.62763800  1
  Cu  Cu38  1  0.19682700  0.25000000  0.53899200  1
  Cu  Cu39  1  0.32257800  0.45966400  0.42576400  1
  Cu  Cu40  1  0.55307800  0.75000000  0.67817900  1
  Cu  Cu41  1  0.03816700  0.40154700  0.22274000  1
  Cu  Cu42  1  0.32257800  0.04033600  0.42576400  1
  Cu  Cu43  1  0.58787800  0.75000000  0.12763800  1
  Cu  Cu44  1  0.96183300  0.59845300  0.77726000  1
  Cu  Cu45  1  0.30317300  0.25000000  0.03899200  1
  Cu  Cu46  1  0.08787800  0.25000000  0.37236200  1
  Cu  Cu47  1  0.82257800  0.54033600  0.07423600  1
  Cu  Cu48  1  0.17742200  0.45966400  0.92576400  1
  Cu  Cu49  1  0.67742200  0.54033600  0.57423600  1
  Cu  Cu50  1  0.68337800  0.39811100  0.85632000  1
  Cu  Cu51  1  0.53816700  0.59845300  0.27726000  1
  Cu  Cu52  1  0.05307800  0.25000000  0.82182100  1
  Cu  Cu53  1  0.80317300  0.75000000  0.46100800  1
  Cu  Cu54  1  0.46183300  0.40154700  0.72274000  1
  Cu  Cu55  1  0.18337800  0.60188900  0.64368000  1
