# generated using pymatgen
data_Cu10NiC35
_symmetry_space_group_name_H-M   'P 1'
_cell_length_a   13.94147232
_cell_length_b   13.94147232
_cell_length_c   13.94147189
_cell_angle_alpha   44.71720418
_cell_angle_beta   44.71720418
_cell_angle_gamma   44.71720732
_symmetry_Int_Tables_number   1
_chemical_formula_structural   Cu10NiC35
_chemical_formula_sum   'Cu20 Ni2 C70'
_cell_volume   1220.26830685
_cell_formula_units_Z   2
loop_
 _symmetry_equiv_pos_site_id
 _symmetry_equiv_pos_as_xyz
  1  'x, y, z'
loop_
 _atom_site_type_symbol
 _atom_site_label
 _atom_site_symmetry_multiplicity
 _atom_site_fract_x
 _atom_site_fract_y
 _atom_site_fract_z
 _atom_site_occupancy
  Ni  Ni0  1  0.54869100  0.54869100  0.54869100  1
  Ni  Ni1  1  0.04869100  0.04869100  0.04869100  1
  Cu  Cu2  1  0.86707800  0.86707800  0.86707800  1
  Cu  Cu3  1  0.36707800  0.36707800  0.36707800  1
  Cu  Cu4  1  0.21300100  0.77554300  0.81342900  1
  Cu  Cu5  1  0.81342900  0.21300100  0.77554300  1
  Cu  Cu6  1  0.77554300  0.81342900  0.21300100  1
  Cu  Cu7  1  0.71300100  0.31342900  0.27554300  1
  Cu  Cu8  1  0.27554300  0.71300100  0.31342900  1
  Cu  Cu9  1  0.31342900  0.27554300  0.71300100  1
  Cu  Cu10  1  0.44035900  0.02462900  0.43145100  1
  Cu  Cu11  1  0.43145100  0.44035900  0.02462900  1
  Cu  Cu12  1  0.02462900  0.43145100  0.44035900  1
  Cu  Cu13  1  0.94035900  0.93145100  0.52462900  1
  Cu  Cu14  1  0.52462900  0.94035900  0.93145100  1
  Cu  Cu15  1  0.93145100  0.52462900  0.94035900  1
  Cu  Cu16  1  0.34074900  0.93261900  0.30768800  1
  Cu  Cu17  1  0.30768800  0.34074900  0.93261900  1
  Cu  Cu18  1  0.93261900  0.30768800  0.34074900  1
  Cu  Cu19  1  0.84074900  0.80768800  0.43261900  1
  Cu  Cu20  1  0.43261900  0.84074900  0.80768800  1
  Cu  Cu21  1  0.80768800  0.43261900  0.84074900  1
  C  C22  1  0.09655600  0.04959600  0.55255800  1
  C  C23  1  0.55255800  0.09655600  0.04959600  1
  C  C24  1  0.04959600  0.55255800  0.09655600  1
  C  C25  1  0.59655600  0.05255800  0.54959600  1
  C  C26  1  0.54959600  0.59655600  0.05255800  1
  C  C27  1  0.05255800  0.54959600  0.59655600  1
  C  C28  1  0.18741300  0.63610800  0.68066000  1
  C  C29  1  0.68066000  0.18741300  0.63610800  1
  C  C30  1  0.63610800  0.68066000  0.18741300  1
  C  C31  1  0.68741300  0.18066000  0.13610800  1
  C  C32  1  0.13610800  0.68741300  0.18066000  1
  C  C33  1  0.18066000  0.13610800  0.68741300  1
  C  C34  1  0.63440100  0.63440100  0.63440100  1
  C  C35  1  0.13440100  0.13440100  0.13440100  1
  C  C36  1  0.26848900  0.96040300  0.50569300  1
  C  C37  1  0.50569300  0.26848900  0.96040300  1
  C  C38  1  0.96040300  0.50569300  0.26848900  1
  C  C39  1  0.76848900  0.00569300  0.46040300  1
  C  C40  1  0.46040300  0.76848900  0.00569300  1
  C  C41  1  0.00569300  0.46040300  0.76848900  1
  C  C42  1  0.03961100  0.21956700  0.49268600  1
  C  C43  1  0.49268600  0.03961100  0.21956700  1
  C  C44  1  0.21956700  0.49268600  0.03961100  1
  C  C45  1  0.53961100  0.99268600  0.71956700  1
  C  C46  1  0.71956700  0.53961100  0.99268600  1
  C  C47  1  0.99268600  0.71956700  0.53961100  1
  C  C48  1  0.05819400  0.03095700  0.48713500  1
  C  C49  1  0.48713500  0.05819400  0.03095700  1
  C  C50  1  0.03095700  0.48713500  0.05819400  1
  C  C51  1  0.55819400  0.98713500  0.53095700  1
  C  C52  1  0.53095700  0.55819400  0.98713500  1
  C  C53  1  0.98713500  0.53095700  0.55819400  1
  C  C54  1  0.01634000  0.98468500  0.72726700  1
  C  C55  1  0.72726700  0.01634000  0.98468500  1
  C  C56  1  0.98468500  0.72726700  0.01634000  1
  C  C57  1  0.51634000  0.22726700  0.48468500  1
  C  C58  1  0.25921400  0.70059800  0.50778700  1
  C  C59  1  0.48468500  0.51634000  0.22726700  1
  C  C60  1  0.01299100  0.73113900  0.73541500  1
  C  C61  1  0.73541500  0.01299100  0.73113900  1
  C  C62  1  0.73113900  0.73541500  0.01299100  1
  C  C63  1  0.51299100  0.23541500  0.23113900  1
  C  C64  1  0.23113900  0.51299100  0.23541500  1
  C  C65  1  0.23541500  0.23113900  0.51299100  1
  C  C66  1  0.20721900  0.47133500  0.76395200  1
  C  C67  1  0.76395200  0.20721900  0.47133500  1
  C  C68  1  0.47133500  0.76395200  0.20721900  1
  C  C69  1  0.70721900  0.26395200  0.97133500  1
  C  C70  1  0.97133500  0.70721900  0.26395200  1
  C  C71  1  0.26395200  0.97133500  0.70721900  1
  C  C72  1  0.17590600  0.17590600  0.17590600  1
  C  C73  1  0.67590600  0.67590600  0.67590600  1
  C  C74  1  0.25752500  0.12702200  0.97873000  1
  C  C75  1  0.12702200  0.97873000  0.25752500  1
  C  C76  1  0.97873000  0.25752500  0.12702200  1
  C  C77  1  0.62702200  0.75752500  0.47873000  1
  C  C78  1  0.75752500  0.47873000  0.62702200  1
  C  C79  1  0.47873000  0.62702200  0.75752500  1
  C  C80  1  0.23463100  0.13394000  0.75533500  1
  C  C81  1  0.13394000  0.75533500  0.23463100  1
  C  C82  1  0.75533500  0.23463100  0.13394000  1
  C  C83  1  0.63394000  0.73463100  0.25533500  1
  C  C84  1  0.73463100  0.25533500  0.63394000  1
  C  C85  1  0.25533500  0.63394000  0.73463100  1
  C  C86  1  0.00778700  0.20059800  0.75921400  1
  C  C87  1  0.20059800  0.75921400  0.00778700  1
  C  C88  1  0.75921400  0.00778700  0.20059800  1
  C  C89  1  0.70059800  0.50778700  0.25921400  1
  C  C90  1  0.50778700  0.25921400  0.70059800  1
  C  C91  1  0.22726700  0.48468500  0.51634000  1
