# generated using pymatgen
data_Cu4NiC6
_symmetry_space_group_name_H-M   'P 1'
_cell_length_a   7.22273800
_cell_length_b   5.63177700
_cell_length_c   5.91831995
_cell_angle_alpha   87.49312461
_cell_angle_beta   90.00000000
_cell_angle_gamma   90.00000000
_symmetry_Int_Tables_number   1
_chemical_formula_structural   Cu4NiC6
_chemical_formula_sum   'Cu8 Ni2 C12'
_cell_volume   240.50821971
_cell_formula_units_Z   2
loop_
 _symmetry_equiv_pos_site_id
 _symmetry_equiv_pos_as_xyz
  1  'x, y, z'
loop_
 _atom_site_type_symbol
 _atom_site_label
 _atom_site_symmetry_multiplicity
 _atom_site_fract_x
 _atom_site_fract_y
 _atom_site_fract_z
 _atom_site_occupancy
  C  C0  1  0.50000000  0.00000000  0.00000000  1
  C  C1  1  0.00000000  0.00000000  0.00000000  1
  Ni  Ni2  1  0.25000000  0.31443400  0.47572900  1
  Ni  Ni3  1  0.75000000  0.68556600  0.52427100  1
  Cu  Cu4  1  0.55617100  0.26284100  0.58706700  1
  Cu  Cu5  1  0.05617100  0.73715900  0.41293300  1
  Cu  Cu6  1  0.44382900  0.73715900  0.41293300  1
  Cu  Cu7  1  0.94382900  0.26284100  0.58706700  1
  Cu  Cu8  1  0.25000000  0.66982900  0.80050400  1
  Cu  Cu9  1  0.75000000  0.33017100  0.19949600  1
  Cu  Cu10  1  0.25000000  0.55529200  0.04755800  1
  Cu  Cu11  1  0.75000000  0.44470800  0.95244200  1
  C  C12  1  0.43199000  0.19758500  0.64368600  1
  C  C13  1  0.93199000  0.80241500  0.35631400  1
  C  C14  1  0.56801000  0.80241500  0.35631400  1
  C  C15  1  0.06801000  0.19758500  0.64368600  1
  C  C16  1  0.25000000  0.22960100  0.20656700  1
  C  C17  1  0.75000000  0.77039900  0.79343300  1
  C  C18  1  0.25000000  0.61821800  0.49948500  1
  C  C19  1  0.75000000  0.38178200  0.50051500  1
  C  C20  1  0.25000000  0.70999800  0.96258000  1
  C  C21  1  0.75000000  0.29000200  0.03742000  1
