# generated using pymatgen
data_Cu31(NiC13)2
_symmetry_space_group_name_H-M   'P 1'
_cell_length_a   8.37163200
_cell_length_b   8.49967340
_cell_length_c   15.89570578
_cell_angle_alpha   94.71984731
_cell_angle_beta   89.88804112
_cell_angle_gamma   91.75354477
_symmetry_Int_Tables_number   1
_chemical_formula_structural   Cu31(NiC13)2
_chemical_formula_sum   'Cu62 Ni4 C52'
_cell_volume   1126.71341670
_cell_formula_units_Z   2
loop_
 _symmetry_equiv_pos_site_id
 _symmetry_equiv_pos_as_xyz
  1  'x, y, z'
loop_
 _atom_site_type_symbol
 _atom_site_label
 _atom_site_symmetry_multiplicity
 _atom_site_fract_x
 _atom_site_fract_y
 _atom_site_fract_z
 _atom_site_occupancy
  C  C0  1  0.39093800  0.72270500  0.68617100  1
  C  C1  1  0.60906200  0.27729500  0.31382900  1
  C  C2  1  0.50000000  0.50000000  0.00000000  1
  C  C3  1  0.54739400  0.15975600  0.62222100  1
  C  C4  1  0.50000000  0.50000000  0.50000000  1
  C  C5  1  0.45260600  0.84024400  0.37777900  1
  Ni  Ni6  1  0.19771500  0.10582800  0.61298500  1
  Ni  Ni7  1  0.86648400  0.95912500  0.91432400  1
  Ni  Ni8  1  0.13351600  0.04087500  0.08567600  1
  Ni  Ni9  1  0.80228500  0.89417200  0.38701500  1
  Cu  Cu10  1  0.00000000  0.00000000  0.00000000  1
  Cu  Cu11  1  0.68914900  0.18692900  0.94654200  1
  Cu  Cu12  1  0.76583900  0.35676700  0.08040300  1
  Cu  Cu13  1  0.23416100  0.64323300  0.91959700  1
  Cu  Cu14  1  0.03301200  0.52101500  0.92991300  1
  Cu  Cu15  1  0.34923200  0.41045200  0.17149300  1
  Cu  Cu16  1  0.05012200  0.33909700  0.92093200  1
  Cu  Cu17  1  0.74009100  0.66770600  0.95589000  1
  Cu  Cu18  1  0.75843700  0.25442000  0.79002100  1
  Cu  Cu19  1  0.43045700  0.83876000  0.91988900  1
  Cu  Cu20  1  0.38835300  0.00348400  0.89030000  1
  Cu  Cu21  1  0.98464300  0.78575400  0.71733900  1
  Cu  Cu22  1  0.74265500  0.46280100  0.87602000  1
  Cu  Cu23  1  0.18813200  0.41359400  0.79917800  1
  Cu  Cu24  1  0.15672400  0.04323300  0.80498800  1
  Cu  Cu25  1  0.76863900  0.31510000  0.75841000  1
  Cu  Cu26  1  0.00654000  0.28843300  0.66310600  1
  Cu  Cu27  1  0.14453700  0.65227000  0.80865800  1
  Cu  Cu28  1  0.23211700  0.80915600  0.85449100  1
  Cu  Cu29  1  0.69956500  0.82170200  0.73765900  1
  Cu  Cu30  1  0.68987800  0.68586900  0.66214100  1
  Cu  Cu31  1  0.27322600  0.39017800  0.70973500  1
  Cu  Cu32  1  0.01887900  0.15064400  0.79169600  1
  Cu  Cu33  1  0.74993700  0.92515500  0.60676600  1
  Cu  Cu34  1  0.86197600  0.07321600  0.64751800  1
  Cu  Cu35  1  0.04403200  0.80491900  0.68383400  1
  Cu  Cu36  1  0.32155900  0.27926200  0.47247700  1
  Cu  Cu37  1  0.02193800  0.55118100  0.60017400  1
  Cu  Cu38  1  0.07217600  0.82512400  0.53518800  1
  Cu  Cu39  1  0.96232500  0.39211400  0.54830000  1
  Cu  Cu40  1  0.00000000  0.00000000  0.50000000  1
  Cu  Cu41  1  0.78093700  0.28870700  0.49194300  1
  Cu  Cu42  1  0.77661200  0.42192800  0.62863900  1
  Cu  Cu43  1  0.22338800  0.57807200  0.37136100  1
  Cu  Cu44  1  0.21906300  0.71129300  0.50805700  1
  Cu  Cu45  1  0.03767500  0.60788600  0.45170000  1
  Cu  Cu46  1  0.92782400  0.17487600  0.46481200  1
  Cu  Cu47  1  0.97806200  0.44881900  0.39982600  1
  Cu  Cu48  1  0.67844100  0.72073800  0.52752300  1
  Cu  Cu49  1  0.95596800  0.19508100  0.31616600  1
  Cu  Cu50  1  0.13802400  0.92678400  0.35248200  1
  Cu  Cu51  1  0.25006300  0.07484500  0.39323400  1
  Cu  Cu52  1  0.98112100  0.84935600  0.20830400  1
  Cu  Cu53  1  0.72677400  0.60982200  0.29026500  1
  Cu  Cu54  1  0.31012200  0.31413100  0.33785900  1
  Cu  Cu55  1  0.30043500  0.17829800  0.26234100  1
  Cu  Cu56  1  0.76788300  0.19084400  0.14550900  1
  Cu  Cu57  1  0.85546300  0.34773000  0.19134200  1
  Cu  Cu58  1  0.99346000  0.71156700  0.33689400  1
  Cu  Cu59  1  0.23136100  0.68490000  0.24159000  1
  Cu  Cu60  1  0.84327600  0.95676700  0.19501200  1
  Cu  Cu61  1  0.81186800  0.58640600  0.20082200  1
  Cu  Cu62  1  0.25734500  0.53719900  0.12398000  1
  Cu  Cu63  1  0.01535700  0.21424600  0.28266100  1
  Cu  Cu64  1  0.61164700  0.99651600  0.10970000  1
  Cu  Cu65  1  0.56954300  0.16124000  0.08011100  1
  Cu  Cu66  1  0.24156300  0.74558000  0.20997900  1
  Cu  Cu67  1  0.25990900  0.33229400  0.04411000  1
  Cu  Cu68  1  0.94987800  0.66090300  0.07906800  1
  Cu  Cu69  1  0.65076800  0.58954800  0.82850700  1
  Cu  Cu70  1  0.96698800  0.47898500  0.07008700  1
  Cu  Cu71  1  0.31085100  0.81307100  0.05345800  1
  C  C72  1  0.65514600  0.53893000  0.88324900  1
  C  C73  1  0.78147600  0.73480800  0.00669500  1
  C  C74  1  0.58649200  0.28283200  0.00028400  1
  C  C75  1  0.22382100  0.86140200  0.09608700  1
  C  C76  1  0.71538700  0.88918400  0.99266800  1
  C  C77  1  0.40351800  0.89402900  0.86865100  1
  C  C78  1  0.70553200  0.40965000  0.03370600  1
  C  C79  1  0.00454600  0.42701100  0.89307300  1
  C  C80  1  0.11064500  0.71650300  0.54044400  1
  C  C81  1  0.07367200  0.10093400  0.83739500  1
  C  C82  1  0.13945900  0.72952800  0.85793200  1
  C  C83  1  0.32246900  0.27326700  0.61919600  1
  C  C84  1  0.02049500  0.17670300  0.67665600  1
  C  C85  1  0.70590700  0.70728700  0.72744400  1
  C  C86  1  0.28348100  0.00774500  0.70701700  1
  C  C87  1  0.96915700  0.44807100  0.60644400  1
  C  C88  1  0.33609300  0.62244000  0.36666000  1
  C  C89  1  0.75024000  0.02766200  0.63818300  1
  C  C90  1  0.46698700  0.97950900  0.53720900  1
  C  C91  1  0.54530300  0.96732900  0.28737000  1
  C  C92  1  0.37031400  0.67641900  0.45752600  1
  C  C93  1  0.36789300  0.34285200  0.42939600  1
  C  C94  1  0.25172200  0.46959400  0.75819300  1
  C  C95  1  0.74827800  0.53040600  0.24180700  1
  C  C96  1  0.63210700  0.65714800  0.57060400  1
  C  C97  1  0.62968600  0.32358100  0.54247400  1
  C  C98  1  0.45469700  0.03267100  0.71263000  1
  C  C99  1  0.53301300  0.02049100  0.46279100  1
  C  C100  1  0.24976000  0.97233800  0.36181700  1
  C  C101  1  0.66390700  0.37756000  0.63334000  1
  C  C102  1  0.03084300  0.55192900  0.39355600  1
  C  C103  1  0.71651900  0.99225500  0.29298300  1
  C  C104  1  0.29409300  0.29271300  0.27255600  1
  C  C105  1  0.97950500  0.82329700  0.32334400  1
  C  C106  1  0.67753100  0.72673300  0.38080400  1
  C  C107  1  0.86054100  0.27047200  0.14206800  1
  C  C108  1  0.92632800  0.89906600  0.16260500  1
  C  C109  1  0.88935500  0.28349700  0.45955600  1
  C  C110  1  0.99545400  0.57298900  0.10692700  1
  C  C111  1  0.29446800  0.59035000  0.96629400  1
  C  C112  1  0.59648200  0.10597100  0.13134900  1
  C  C113  1  0.28461300  0.11081600  0.00733200  1
  C  C114  1  0.77617900  0.13859800  0.90391300  1
  C  C115  1  0.41350800  0.71716800  0.99971600  1
  C  C116  1  0.21852400  0.26519200  0.99330500  1
  C  C117  1  0.34485400  0.46107000  0.11675100  1
