# generated using pymatgen
data_CuNiC6
_symmetry_space_group_name_H-M   'P 1'
_cell_length_a   13.01701934
_cell_length_b   13.73327920
_cell_length_c   22.72611418
_cell_angle_alpha   90.00000000
_cell_angle_beta   90.00000000
_cell_angle_gamma   90.00000000
_symmetry_Int_Tables_number   1
_chemical_formula_structural   CuNiC6
_chemical_formula_sum   'Cu32 Ni32 C192'
_cell_volume   4062.66473045
_cell_formula_units_Z   32
loop_
 _symmetry_equiv_pos_site_id
 _symmetry_equiv_pos_as_xyz
  1  'x, y, z'
loop_
 _atom_site_type_symbol
 _atom_site_label
 _atom_site_symmetry_multiplicity
 _atom_site_fract_x
 _atom_site_fract_y
 _atom_site_fract_z
 _atom_site_occupancy
  Ni  Ni0  1  0.85533707  0.71458613  0.57747204  1
  Ni  Ni1  1  0.35533707  0.78541387  0.92252796  1
  Ni  Ni2  1  0.64466293  0.71458613  0.42252796  1
  Ni  Ni3  1  0.14466293  0.78541387  0.07747204  1
  Ni  Ni4  1  0.14466293  0.28541387  0.42252796  1
  Ni  Ni5  1  0.64466293  0.21458613  0.07747204  1
  Ni  Ni6  1  0.35533707  0.28541387  0.57747204  1
  Ni  Ni7  1  0.85533707  0.21458613  0.92252796  1
  Ni  Ni8  1  0.12236625  0.56794392  0.58249950  1
  Ni  Ni9  1  0.62236625  0.93205608  0.91750050  1
  Ni  Ni10  1  0.37763375  0.56794392  0.41750050  1
  Ni  Ni11  1  0.87763375  0.93205608  0.08249950  1
  Ni  Ni12  1  0.87763375  0.43205608  0.41750050  1
  Ni  Ni13  1  0.37763375  0.06794392  0.08249950  1
  Ni  Ni14  1  0.62236625  0.43205608  0.58249950  1
  Ni  Ni15  1  0.12236625  0.06794392  0.91750050  1
  Ni  Ni16  1  0.14365210  0.49967398  0.91817701  1
  Ni  Ni17  1  0.64365210  1.00032602  0.58182299  1
  Ni  Ni18  1  0.35634790  0.49967398  0.08182299  1
  Ni  Ni19  1  0.85634790  1.00032602  0.41817701  1
  Ni  Ni20  1  0.85634790  0.50032602  0.08182299  1
  Ni  Ni21  1  0.35634790  -0.00032602  0.41817701  1
  Ni  Ni22  1  0.64365210  0.50032602  0.91817701  1
  Ni  Ni23  1  0.14365210  -0.00032602  0.58182299  1
  Ni  Ni24  1  0.92725214  0.71933804  0.91083469  1
  Ni  Ni25  1  0.42725214  0.78066196  0.58916531  1
  Ni  Ni26  1  0.57274786  0.71933804  0.08916531  1
  Ni  Ni27  1  0.07274786  0.78066196  0.41083469  1
  Ni  Ni28  1  0.07274786  0.28066196  0.08916531  1
  Ni  Ni29  1  0.57274786  0.21933804  0.41083469  1
  Ni  Ni30  1  0.42725214  0.28066196  0.91083469  1
  Ni  Ni31  1  0.92725214  0.21933804  0.58916531  1
  C  C32  1  0.01125591  0.68940108  0.65734893  1
  C  C33  1  0.51125591  0.81059892  0.84265107  1
  C  C34  1  0.48874409  0.68940108  0.34265107  1
  C  C35  1  0.98874409  0.81059892  0.15734893  1
  C  C36  1  0.98874409  0.31059892  0.34265107  1
  C  C37  1  0.48874409  0.18940108  0.15734893  1
  C  C38  1  0.51125591  0.31059892  0.65734893  1
  C  C39  1  0.01125591  0.18940108  0.84265107  1
  C  C40  1  0.07813191  0.63823670  0.83958522  1
  C  C41  1  0.57813191  0.86176330  0.66041478  1
  C  C42  1  0.42186809  0.63823670  0.16041478  1
  C  C43  1  0.92186809  0.86176330  0.33958522  1
  C  C44  1  0.92186809  0.36176330  0.16041478  1
  C  C45  1  0.42186809  0.13823670  0.33958522  1
  C  C46  1  0.57813191  0.36176330  0.83958522  1
  C  C47  1  0.07813191  0.13823670  0.66041478  1
  C  C48  1  0.84115033  0.59269875  0.66823904  1
  C  C49  1  0.34115033  0.90730125  0.83176096  1
  C  C50  1  0.65884967  0.59269875  0.33176096  1
  C  C51  1  0.15884967  0.90730125  0.16823904  1
  C  C52  1  0.15884967  0.40730125  0.33176096  1
  C  C53  1  0.65884967  0.09269875  0.16823904  1
  C  C54  1  0.34115033  0.40730125  0.66823904  1
  C  C55  1  0.84115033  0.09269875  0.83176096  1
  C  C56  1  0.84934438  0.76896191  0.68830250  1
  C  C57  1  0.34934438  0.73103809  0.81169750  1
  C  C58  1  0.65065562  0.76896191  0.31169750  1
  C  C59  1  0.15065562  0.73103809  0.18830250  1
  C  C60  1  0.15065562  0.23103809  0.31169750  1
  C  C61  1  0.65065562  0.26896191  0.18830250  1
  C  C62  1  0.34934438  0.23103809  0.68830250  1
  C  C63  1  0.84934438  0.26896191  0.81169750  1
  C  C64  1  0.18542494  0.64148389  0.68417984  1
  C  C65  1  0.68542494  0.85851611  0.81582016  1
  C  C66  1  0.31457506  0.64148389  0.31582016  1
  C  C67  1  0.81457506  0.85851611  0.18417984  1
  C  C68  1  0.81457506  0.35851611  0.31582016  1
  C  C69  1  0.31457506  0.14148389  0.18417984  1
  C  C70  1  0.68542494  0.35851611  0.68417984  1
  C  C71  1  0.18542494  0.14148389  0.81582016  1
  C  C72  1  0.05217220  0.51175474  0.68689791  1
  C  C73  1  0.55217220  0.98824526  0.81310209  1
  C  C74  1  0.44782780  0.51175474  0.31310209  1
  C  C75  1  0.94782780  0.98824526  0.18689791  1
  C  C76  1  0.94782780  0.48824526  0.31310209  1
  C  C77  1  0.44782780  0.01175474  0.18689791  1
  C  C78  1  0.55217220  0.48824526  0.68689791  1
  C  C79  1  0.05217220  0.01175474  0.81310209  1
  C  C80  1  0.19856621  0.50963322  0.80736224  1
  C  C81  1  0.69856621  0.99036678  0.69263776  1
  C  C82  1  0.30143379  0.50963322  0.19263776  1
  C  C83  1  0.80143379  0.99036678  0.30736224  1
  C  C84  1  0.80143379  0.49036678  0.19263776  1
  C  C85  1  0.30143379  0.00963322  0.30736224  1
  C  C86  1  0.69856621  0.49036678  0.80736224  1
  C  C87  1  0.19856621  0.00963322  0.69263776  1
  C  C88  1  0.02061199  0.45829514  0.82836934  1
  C  C89  1  0.52061199  0.04170486  0.67163066  1
  C  C90  1  0.47938801  0.45829514  0.17163066  1
  C  C91  1  0.97938801  0.04170486  0.32836934  1
  C  C92  1  0.97938801  0.54170486  0.17163066  1
  C  C93  1  0.47938801  0.95829514  0.32836934  1
  C  C94  1  0.52061199  0.54170486  0.82836934  1
  C  C95  1  0.02061199  0.95829514  0.67163066  1
  C  C96  1  0.88666982  0.63058626  0.80941014  1
  C  C97  1  0.38666982  0.86941374  0.69058986  1
  C  C98  1  0.61333018  0.63058626  0.19058986  1
  C  C99  1  0.11333018  0.86941374  0.30941014  1
  C  C100  1  0.11333018  0.36941374  0.19058986  1
  C  C101  1  0.61333018  0.13058626  0.30941014  1
  C  C102  1  0.38666982  0.36941374  0.80941014  1
  C  C103  1  0.88666982  0.13058626  0.69058986  1
  C  C104  1  0.98741730  0.78447193  0.80784103  1
  C  C105  1  0.48741730  0.71552807  0.69215897  1
  C  C106  1  0.51258270  0.78447193  0.19215897  1
  C  C107  1  0.01258270  0.71552807  0.30784103  1
  C  C108  1  0.01258270  0.21552807  0.19215897  1
  C  C109  1  0.51258270  0.28447193  0.30784103  1
  C  C110  1  0.48741730  0.21552807  0.80784103  1
  C  C111  1  0.98741730  0.28447193  0.69215897  1
  C  C112  1  0.88463545  0.64162299  0.54146228  1
  C  C113  1  0.38463545  0.85837701  0.95853772  1
  C  C114  1  0.61536455  0.64162299  0.45853772  1
  C  C115  1  0.11536455  0.85837701  0.04146228  1
  C  C116  1  0.11536455  0.35837701  0.45853772  1
  C  C117  1  0.61536455  0.14162299  0.04146228  1
  C  C118  1  0.38463545  0.35837701  0.54146228  1
  C  C119  1  0.88463545  0.14162299  0.95853772  1
  C  C120  1  0.75216087  0.72470498  0.57414598  1
  C  C121  1  0.25216087  0.77529502  0.92585402  1
  C  C122  1  0.74783913  0.72470498  0.42585402  1
  C  C123  1  0.24783913  0.77529502  0.07414598  1
  C  C124  1  0.24783913  0.27529502  0.42585402  1
  C  C125  1  0.74783913  0.22470498  0.07414598  1
  C  C126  1  0.25216087  0.27529502  0.57414598  1
  C  C127  1  0.75216087  0.22470498  0.92585402  1
  C  C128  1  0.90063071  0.79797321  0.56016955  1
  C  C129  1  0.40063071  0.70202679  0.93983045  1
  C  C130  1  0.59936929  0.79797321  0.43983045  1
  C  C131  1  0.09936929  0.70202679  0.06016955  1
  C  C132  1  0.09936929  0.20202679  0.43983045  1
  C  C133  1  0.59936929  0.29797321  0.06016955  1
  C  C134  1  0.40063071  0.20202679  0.56016955  1
  C  C135  1  0.90063071  0.29797321  0.93983045  1
  C  C136  1  0.20967523  0.51495581  0.58203975  1
  C  C137  1  0.70967523  0.98504419  0.91796025  1
  C  C138  1  0.29032477  0.51495581  0.41796025  1
  C  C139  1  0.79032477  0.98504419  0.08203975  1
  C  C140  1  0.79032477  0.48504419  0.41796025  1
  C  C141  1  0.29032477  0.01495581  0.08203975  1
  C  C142  1  0.70967523  0.48504419  0.58203975  1
  C  C143  1  0.20967523  0.01495581  0.91796025  1
  C  C144  1  0.04592132  0.51417721  0.55915893  1
  C  C145  1  0.54592132  0.98582279  0.94084107  1
  C  C146  1  0.45407868  0.51417721  0.44084107  1
  C  C147  1  0.95407868  0.98582279  0.05915893  1
  C  C148  1  0.95407868  0.48582279  0.44084107  1
  C  C149  1  0.45407868  0.01417721  0.05915893  1
  C  C150  1  0.54592132  0.48582279  0.55915893  1
  C  C151  1  0.04592132  0.01417721  0.94084107  1
  C  C152  1  0.13621841  0.64880038  0.54969432  1
  C  C153  1  0.63621841  0.85119962  0.95030568  1
  C  C154  1  0.36378159  0.64880038  0.45030568  1
  C  C155  1  0.86378159  0.85119962  0.04969432  1
  C  C156  1  0.86378159  0.35119962  0.45030568  1
  C  C157  1  0.36378159  0.14880038  0.04969432  1
  C  C158  1  0.63621841  0.35119962  0.54969432  1
  C  C159  1  0.13621841  0.14880038  0.95030568  1
  C  C160  1  0.16891185  0.40420627  0.92172029  1
  C  C161  1  0.66891185  0.09579373  0.57827971  1
  C  C162  1  0.33108815  0.40420627  0.07827971  1
  C  C163  1  0.83108815  0.09579373  0.42172029  1
  C  C164  1  0.83108815  0.59579373  0.07827971  1
  C  C165  1  0.33108815  0.90420627  0.42172029  1
  C  C166  1  0.66891185  0.59579373  0.92172029  1
  C  C167  1  0.16891185  0.90420627  0.57827971  1
  C  C168  1  0.22567164  0.55395539  0.93337066  1
  C  C169  1  0.72567164  0.94604461  0.56662934  1
  C  C170  1  0.27432836  0.55395539  0.06662934  1
  C  C171  1  0.77432836  0.94604461  0.43337066  1
  C  C172  1  0.77432836  0.44604461  0.06662934  1
  C  C173  1  0.27432836  0.05395539  0.43337066  1
  C  C174  1  0.72567164  0.44604461  0.93337066  1
  C  C175  1  0.22567164  0.05395539  0.56662934  1
  C  C176  1  0.06604468  0.51799197  0.95564934  1
  C  C177  1  0.56604468  0.98200803  0.54435066  1
  C  C178  1  0.43395532  0.51799197  0.04435066  1
  C  C179  1  0.93395532  0.98200803  0.45564934  1
  C  C180  1  0.93395532  0.48200803  0.04435066  1
  C  C181  1  0.43395532  0.01799197  0.45564934  1
  C  C182  1  0.56604468  0.48200803  0.95564934  1
  C  C183  1  0.06604468  0.01799197  0.54435066  1
  C  C184  1  0.90238899  0.63796933  0.94071526  1
  C  C185  1  0.40238899  0.86203067  0.55928474  1
  C  C186  1  0.59761101  0.63796933  0.05928474  1
  C  C187  1  0.09761101  0.86203067  0.44071526  1
  C  C188  1  0.09761101  0.36203067  0.05928474  1
  C  C189  1  0.59761101  0.13796933  0.44071526  1
  C  C190  1  0.40238899  0.36203067  0.94071526  1
  C  C191  1  0.90238899  0.13796933  0.55928474  1
  C  C192  1  0.84348521  0.77738237  0.90766546  1
  C  C193  1  0.34348521  0.72261763  0.59233454  1
  C  C194  1  0.65651479  0.77738237  0.09233454  1
  C  C195  1  0.15651479  0.72261763  0.40766546  1
  C  C196  1  0.15651479  0.22261763  0.09233454  1
  C  C197  1  0.65651479  0.27738237  0.40766546  1
  C  C198  1  0.34348521  0.22261763  0.90766546  1
  C  C199  1  0.84348521  0.27738237  0.59233454  1
  C  C200  1  0.00271100  0.76694965  0.93949895  1
  C  C201  1  0.50271100  0.73305035  0.56050105  1
  C  C202  1  0.49728900  0.76694965  0.06050105  1
  C  C203  1  0.99728900  0.73305035  0.43949895  1
  C  C204  1  0.99728900  0.23305035  0.06050105  1
  C  C205  1  0.49728900  0.26694965  0.43949895  1
  C  C206  1  0.50271100  0.23305035  0.93949895  1
  C  C207  1  0.00271100  0.26694965  0.56050105  1
  Cu  Cu208  1  0.88940944  0.68600104  0.65612142  1
  Cu  Cu209  1  0.38940944  0.81399896  0.84387858  1
  Cu  Cu210  1  0.61059056  0.68600104  0.34387858  1
  Cu  Cu211  1  0.11059056  0.81399896  0.15612142  1
  Cu  Cu212  1  0.11059056  0.31399896  0.34387858  1
  Cu  Cu213  1  0.61059056  0.18600104  0.15612142  1
  Cu  Cu214  1  0.38940944  0.31399896  0.65612142  1
  Cu  Cu215  1  0.88940944  0.18600104  0.84387858  1
  Cu  Cu216  1  0.09024488  0.60129181  0.66110711  1
  Cu  Cu217  1  0.59024488  0.89870819  0.83889289  1
  Cu  Cu218  1  0.40975512  0.60129181  0.33889289  1
  Cu  Cu219  1  0.90975512  0.89870819  0.16110711  1
  Cu  Cu220  1  0.90975512  0.39870819  0.33889289  1
  Cu  Cu221  1  0.40975512  0.10129181  0.16110711  1
  Cu  Cu222  1  0.59024488  0.39870819  0.66110711  1
  Cu  Cu223  1  0.09024488  0.10129181  0.83889289  1
  Cu  Cu224  1  0.10425763  0.52532814  0.84009303  1
  Cu  Cu225  1  0.60425763  0.97467186  0.65990697  1
  Cu  Cu226  1  0.39574237  0.52532814  0.15990697  1
  Cu  Cu227  1  0.89574237  0.97467186  0.34009303  1
  Cu  Cu228  1  0.89574237  0.47467186  0.15990697  1
  Cu  Cu229  1  0.39574237  0.02532814  0.34009303  1
  Cu  Cu230  1  0.60425763  0.47467186  0.84009303  1
  Cu  Cu231  1  0.10425763  0.02532814  0.65990697  1
  Cu  Cu232  1  0.96913520  0.68912295  0.83362259  1
  Cu  Cu233  1  0.46913520  0.81087705  0.66637741  1
  Cu  Cu234  1  0.53086480  0.68912295  0.16637741  1
  Cu  Cu235  1  0.03086480  0.81087705  0.33362259  1
  Cu  Cu236  1  0.03086480  0.31087705  0.16637741  1
  Cu  Cu237  1  0.53086480  0.18912295  0.33362259  1
  Cu  Cu238  1  0.46913520  0.31087705  0.83362259  1
  Cu  Cu239  1  0.96913520  0.18912295  0.66637741  1
  C  C240  1  0.86987008  0.43632112  0.74375475  1
  C  C241  1  0.36987008  0.06367888  0.75624525  1
  C  C242  1  0.63012992  0.43632112  0.25624525  1
  C  C243  1  0.13012992  0.06367888  0.24375475  1
  C  C244  1  0.13012992  0.56367888  0.25624525  1
  C  C245  1  0.63012992  0.93632112  0.24375475  1
  C  C246  1  0.36987008  0.56367888  0.74375475  1
  C  C247  1  0.86987008  0.93632112  0.75624525  1
  C  C248  1  0.17374142  0.82127059  0.74788211  1
  C  C249  1  0.67374142  0.67872941  0.75211789  1
  C  C250  1  0.32625858  0.82127059  0.25211789  1
  C  C251  1  0.82625858  0.67872941  0.24788211  1
  C  C252  1  0.82625858  0.17872941  0.25211789  1
  C  C253  1  0.32625858  0.32127059  0.24788211  1
  C  C254  1  0.67374142  0.17872941  0.74788211  1
  C  C255  1  0.17374142  0.32127059  0.75211789  1
