# generated using pymatgen
data_CuNi29C48
_symmetry_space_group_name_H-M   'P 1'
_cell_length_a   17.40562700
_cell_length_b   17.40562700
_cell_length_c   17.40562700
_cell_angle_alpha   90.00000000
_cell_angle_beta   90.00000000
_cell_angle_gamma   90.00000000
_symmetry_Int_Tables_number   1
_chemical_formula_structural   CuNi29C48
_chemical_formula_sum   'Cu2 Ni58 C96'
_cell_volume   5273.13654455
_cell_formula_units_Z   2
loop_
 _symmetry_equiv_pos_site_id
 _symmetry_equiv_pos_as_xyz
  1  'x, y, z'
loop_
 _atom_site_type_symbol
 _atom_site_label
 _atom_site_symmetry_multiplicity
 _atom_site_fract_x
 _atom_site_fract_y
 _atom_site_fract_z
 _atom_site_occupancy
  Ni  Ni0  1  0.50000000  0.00000000  0.50000000  1
  Ni  Ni1  1  0.29549200  0.86758400  0.00000000  1
  Ni  Ni2  1  0.86758400  0.00000000  0.70450800  1
  Ni  Ni3  1  0.68742700  0.31257300  0.68742700  1
  Ni  Ni4  1  0.20450800  0.50000000  0.36758400  1
  Ni  Ni5  1  0.18742700  0.81257300  0.18742700  1
  Ni  Ni6  1  0.18742700  0.81257300  0.81257300  1
  Ni  Ni7  1  0.31257300  0.31257300  0.68742700  1
  Ni  Ni8  1  0.79549200  0.50000000  0.63241600  1
  Ni  Ni9  1  0.00000000  0.70450800  0.13241600  1
  Ni  Ni10  1  0.50000000  0.50000000  0.00000000  1
  Ni  Ni11  1  0.70450800  0.13241600  0.00000000  1
  Ni  Ni12  1  0.00000000  0.29549200  0.86758400  1
  Ni  Ni13  1  0.31257300  0.68742700  0.68742700  1
  Ni  Ni14  1  0.00000000  0.75000000  0.50000000  1
  Ni  Ni15  1  0.86758400  0.00000000  0.29549200  1
  Ni  Ni16  1  0.63241600  0.20450800  0.50000000  1
  Ni  Ni17  1  0.25000000  0.00000000  0.50000000  1
  Ni  Ni18  1  0.00000000  0.50000000  0.75000000  1
  Ni  Ni19  1  0.81257300  0.18742700  0.81257300  1
  Ni  Ni20  1  0.00000000  0.50000000  0.50000000  1
  Ni  Ni21  1  0.81257300  0.18742700  0.18742700  1
  Ni  Ni22  1  0.50000000  0.75000000  0.00000000  1
  Ni  Ni23  1  0.18742700  0.18742700  0.81257300  1
  Ni  Ni24  1  0.13241600  0.00000000  0.29549200  1
  Ni  Ni25  1  0.68742700  0.68742700  0.31257300  1
  Ni  Ni26  1  0.50000000  0.00000000  0.25000000  1
  Ni  Ni27  1  0.50000000  0.63241600  0.79549200  1
  Ni  Ni28  1  0.25000000  0.50000000  0.00000000  1
  Ni  Ni29  1  0.50000000  0.00000000  0.75000000  1
  Ni  Ni30  1  0.31257300  0.68742700  0.31257300  1
  Ni  Ni31  1  0.63241600  0.79549200  0.50000000  1
  Ni  Ni32  1  0.50000000  0.36758400  0.79549200  1
  Ni  Ni33  1  0.29549200  0.13241600  0.00000000  1
  Ni  Ni34  1  0.50000000  0.36758400  0.20450800  1
  Ni  Ni35  1  0.50000000  0.25000000  0.00000000  1
  Ni  Ni36  1  0.13241600  0.00000000  0.70450800  1
  Ni  Ni37  1  0.70450800  0.86758400  0.00000000  1
  Ni  Ni38  1  0.00000000  0.25000000  0.50000000  1
  Ni  Ni39  1  0.00000000  0.29549200  0.13241600  1
  Ni  Ni40  1  0.18742700  0.18742700  0.18742700  1
  Ni  Ni41  1  0.50000000  0.00000000  0.00000000  1
  Ni  Ni42  1  0.00000000  0.50000000  0.25000000  1
  Ni  Ni43  1  0.00000000  0.70450800  0.86758400  1
  Ni  Ni44  1  0.50000000  0.63241600  0.20450800  1
  Ni  Ni45  1  0.68742700  0.68742700  0.68742700  1
  Ni  Ni46  1  0.81257300  0.81257300  0.81257300  1
  Ni  Ni47  1  0.68742700  0.31257300  0.31257300  1
  Ni  Ni48  1  0.79549200  0.50000000  0.36758400  1
  Ni  Ni49  1  0.75000000  0.00000000  0.50000000  1
  Ni  Ni50  1  0.81257300  0.81257300  0.18742700  1
  Ni  Ni51  1  0.00000000  0.00000000  0.50000000  1
  Ni  Ni52  1  0.31257300  0.31257300  0.31257300  1
  Ni  Ni53  1  0.00000000  0.50000000  0.00000000  1
  Ni  Ni54  1  0.20450800  0.50000000  0.63241600  1
  Ni  Ni55  1  0.75000000  0.50000000  0.00000000  1
  Ni  Ni56  1  0.36758400  0.79549200  0.50000000  1
  Ni  Ni57  1  0.36758400  0.20450800  0.50000000  1
  Cu  Cu58  1  0.00000000  0.00000000  0.00000000  1
  Cu  Cu59  1  0.50000000  0.50000000  0.50000000  1
  C  C60  1  0.00000000  0.09162800  0.84196800  1
  C  C61  1  0.40366800  0.17277400  0.82854900  1
  C  C62  1  0.90366800  0.67145100  0.67277400  1
  C  C63  1  0.90366800  0.32854900  0.32722600  1
  C  C64  1  0.67277400  0.09633200  0.67145100  1
  C  C65  1  0.50000000  0.34196800  0.40837200  1
  C  C66  1  0.50000000  0.34196800  0.59162800  1
  C  C67  1  0.82722600  0.82854900  0.59633200  1
  C  C68  1  0.32722600  0.90366800  0.67145100  1
  C  C69  1  0.32854900  0.67277400  0.90366800  1
  C  C70  1  0.34196800  0.40837200  0.50000000  1
  C  C71  1  0.59633200  0.82722600  0.82854900  1
  C  C72  1  0.65803200  0.59162800  0.50000000  1
  C  C73  1  0.82854900  0.59633200  0.17277400  1
  C  C74  1  0.00000000  0.90837200  0.84196800  1
  C  C75  1  0.50000000  0.81504700  0.66433300  1
  C  C76  1  0.81504700  0.66433300  0.50000000  1
  C  C77  1  0.59633200  0.82722600  0.17145100  1
  C  C78  1  0.09633200  0.67145100  0.32722600  1
  C  C79  1  0.59633200  0.17277400  0.17145100  1
  C  C80  1  0.00000000  0.09162800  0.15803200  1
  C  C81  1  0.67145100  0.32722600  0.90366800  1
  C  C82  1  0.59633200  0.17277400  0.82854900  1
  C  C83  1  0.09633200  0.67145100  0.67277400  1
  C  C84  1  0.00000000  0.16433300  0.68495300  1
  C  C85  1  0.82854900  0.59633200  0.82722600  1
  C  C86  1  0.32722600  0.09633200  0.67145100  1
  C  C87  1  0.40837200  0.50000000  0.65803200  1
  C  C88  1  0.90366800  0.32854900  0.67277400  1
  C  C89  1  0.17145100  0.59633200  0.17277400  1
  C  C90  1  0.40366800  0.82722600  0.82854900  1
  C  C91  1  0.59162800  0.50000000  0.34196800  1
  C  C92  1  0.09633200  0.32854900  0.67277400  1
  C  C93  1  0.68495300  0.00000000  0.16433300  1
  C  C94  1  0.17277400  0.82854900  0.59633200  1
  C  C95  1  0.17145100  0.59633200  0.82722600  1
  C  C96  1  0.31504700  0.00000000  0.16433300  1
  C  C97  1  0.18495300  0.33566700  0.50000000  1
  C  C98  1  0.40366800  0.82722600  0.17145100  1
  C  C99  1  0.67145100  0.67277400  0.90366800  1
  C  C100  1  0.66433300  0.50000000  0.81504700  1
  C  C101  1  0.32854900  0.32722600  0.90366800  1
  C  C102  1  0.18495300  0.66433300  0.50000000  1
  C  C103  1  0.65803200  0.40837200  0.50000000  1
  C  C104  1  0.67145100  0.32722600  0.09633200  1
  C  C105  1  0.90366800  0.67145100  0.32722600  1
  C  C106  1  0.67145100  0.67277400  0.09633200  1
  C  C107  1  0.67277400  0.90366800  0.67145100  1
  C  C108  1  0.00000000  0.90837200  0.15803200  1
  C  C109  1  0.09162800  0.84196800  0.00000000  1
  C  C110  1  0.15803200  0.00000000  0.09162800  1
  C  C111  1  0.66433300  0.50000000  0.18495300  1
  C  C112  1  0.83566700  0.68495300  0.00000000  1
  C  C113  1  0.82854900  0.40366800  0.82722600  1
  C  C114  1  0.09162800  0.15803200  0.00000000  1
  C  C115  1  0.40837200  0.50000000  0.34196800  1
  C  C116  1  0.84196800  0.00000000  0.09162800  1
  C  C117  1  0.33566700  0.50000000  0.81504700  1
  C  C118  1  0.50000000  0.81504700  0.33566700  1
  C  C119  1  0.81504700  0.33566700  0.50000000  1
  C  C120  1  0.67277400  0.90366800  0.32854900  1
  C  C121  1  0.82722600  0.82854900  0.40366800  1
  C  C122  1  0.90837200  0.15803200  0.00000000  1
  C  C123  1  0.32854900  0.32722600  0.09633200  1
  C  C124  1  0.82722600  0.17145100  0.59633200  1
  C  C125  1  0.68495300  0.00000000  0.83566700  1
  C  C126  1  0.09633200  0.32854900  0.32722600  1
  C  C127  1  0.82722600  0.17145100  0.40366800  1
  C  C128  1  0.50000000  0.18495300  0.66433300  1
  C  C129  1  0.50000000  0.65803200  0.59162800  1
  C  C130  1  0.32722600  0.90366800  0.32854900  1
  C  C131  1  0.32854900  0.67277400  0.09633200  1
  C  C132  1  0.83566700  0.31504700  0.00000000  1
  C  C133  1  0.59162800  0.50000000  0.65803200  1
  C  C134  1  0.16433300  0.68495300  0.00000000  1
  C  C135  1  0.17145100  0.40366800  0.82722600  1
  C  C136  1  0.82854900  0.40366800  0.17277400  1
  C  C137  1  0.34196800  0.59162800  0.50000000  1
  C  C138  1  0.17277400  0.17145100  0.59633200  1
  C  C139  1  0.50000000  0.65803200  0.40837200  1
  C  C140  1  0.17277400  0.82854900  0.40366800  1
  C  C141  1  0.50000000  0.18495300  0.33566700  1
  C  C142  1  0.40366800  0.17277400  0.17145100  1
  C  C143  1  0.00000000  0.83566700  0.31504700  1
  C  C144  1  0.00000000  0.16433300  0.31504700  1
  C  C145  1  0.33566700  0.50000000  0.18495300  1
  C  C146  1  0.16433300  0.31504700  0.00000000  1
  C  C147  1  0.32722600  0.09633200  0.32854900  1
  C  C148  1  0.17277400  0.17145100  0.40366800  1
  C  C149  1  0.67277400  0.09633200  0.32854900  1
  C  C150  1  0.31504700  0.00000000  0.83566700  1
  C  C151  1  0.90837200  0.84196800  0.00000000  1
  C  C152  1  0.00000000  0.83566700  0.68495300  1
  C  C153  1  0.17145100  0.40366800  0.17277400  1
  C  C154  1  0.84196800  0.00000000  0.90837200  1
  C  C155  1  0.15803200  0.00000000  0.90837200  1
