# generated using pymatgen
data_Cu2NiC13
_symmetry_space_group_name_H-M   'P 1'
_cell_length_a   8.82688968
_cell_length_b   8.82688968
_cell_length_c   8.82688968
_cell_angle_alpha   111.54301233
_cell_angle_beta   111.54301233
_cell_angle_gamma   105.40265618
_symmetry_Int_Tables_number   1
_chemical_formula_structural   Cu2NiC13
_chemical_formula_sum   'Cu4 Ni2 C26'
_cell_volume   527.43741893
_cell_formula_units_Z   2
loop_
 _symmetry_equiv_pos_site_id
 _symmetry_equiv_pos_as_xyz
  1  'x, y, z'
loop_
 _atom_site_type_symbol
 _atom_site_label
 _atom_site_symmetry_multiplicity
 _atom_site_fract_x
 _atom_site_fract_y
 _atom_site_fract_z
 _atom_site_occupancy
  C  C0  1  0.25000000  0.25000000  0.00000000  1
  C  C1  1  0.75000000  0.75000000  0.00000000  1
  Ni  Ni2  1  0.25000000  0.75000000  0.50000000  1
  Ni  Ni3  1  0.75000000  0.25000000  0.50000000  1
  Cu  Cu4  1  0.65964800  0.15964800  0.81929500  1
  Cu  Cu5  1  0.34035200  0.84035200  0.18070500  1
  Cu  Cu6  1  0.15964800  0.34035200  0.50000000  1
  Cu  Cu7  1  0.84035200  0.65964800  0.50000000  1
  C  C8  1  0.64097500  0.14097500  0.50000000  1
  C  C9  1  0.14097500  0.64097500  0.50000000  1
  C  C10  1  0.35902500  0.85902500  0.50000000  1
  C  C11  1  0.85902500  0.35902500  0.50000000  1
  C  C12  1  0.79330500  0.29330500  0.08661000  1
  C  C13  1  0.20669500  0.70669500  0.91339000  1
  C  C14  1  0.29330500  0.20669500  0.50000000  1
  C  C15  1  0.70669500  0.79330500  0.50000000  1
  C  C16  1  0.45897200  0.15495000  0.86448100  1
  C  C17  1  0.29046900  0.59449100  0.13551900  1
  C  C18  1  0.95897200  0.09449100  0.30402200  1
  C  C19  1  0.79046900  0.65495000  0.69597800  1
  C  C20  1  0.59449100  0.45897200  0.30402200  1
  C  C21  1  0.15495000  0.29046900  0.69597800  1
  C  C22  1  0.65495000  0.95897200  0.86448100  1
  C  C23  1  0.09449100  0.79046900  0.13551900  1
  C  C24  1  0.54102800  0.84505000  0.13551900  1
  C  C25  1  0.70953100  0.40550900  0.86448100  1
  C  C26  1  0.04102800  0.90550900  0.69597800  1
  C  C27  1  0.20953100  0.34505000  0.30402200  1
  C  C28  1  0.40550900  0.54102800  0.69597800  1
  C  C29  1  0.84505000  0.70953100  0.30402200  1
  C  C30  1  0.34505000  0.04102800  0.13551900  1
  C  C31  1  0.90550900  0.20953100  0.86448100  1
