# generated using pymatgen
data_Cu(NiC3)2
_symmetry_space_group_name_H-M   'P 1'
_cell_length_a   5.52891719
_cell_length_b   11.05880684
_cell_length_c   8.04749828
_cell_angle_alpha   106.13852532
_cell_angle_beta   73.89783442
_cell_angle_gamma   80.37119701
_symmetry_Int_Tables_number   1
_chemical_formula_structural   Cu(NiC3)2
_chemical_formula_sum   'Cu4 Ni8 C24'
_cell_volume   437.90993353
_cell_formula_units_Z   4
loop_
 _symmetry_equiv_pos_site_id
 _symmetry_equiv_pos_as_xyz
  1  'x, y, z'
loop_
 _atom_site_type_symbol
 _atom_site_label
 _atom_site_symmetry_multiplicity
 _atom_site_fract_x
 _atom_site_fract_y
 _atom_site_fract_z
 _atom_site_occupancy
  C  C0  1  0.99944000  0.00016500  0.50008200  1
  C  C1  1  0.50000800  0.75002300  0.00013000  1
  C  C2  1  0.99953000  0.50010900  0.50033000  1
  C  C3  1  0.50021100  0.24980400  0.99995000  1
  Ni  Ni4  1  0.63002200  0.47886100  0.79057100  1
  Ni  Ni5  1  0.63020700  0.97885400  0.79041600  1
  Ni  Ni6  1  0.45771400  0.56504300  0.70952400  1
  Ni  Ni7  1  0.45762800  0.06499900  0.70950400  1
  Ni  Ni8  1  0.36985100  0.52103900  0.20961900  1
  Ni  Ni9  1  0.37004100  0.02112200  0.20953800  1
  Ni  Ni10  1  0.54226700  0.43501800  0.29065200  1
  Ni  Ni11  1  0.54216000  0.93497800  0.29063100  1
  Cu  Cu12  1  0.08348000  0.79187000  0.74998200  1
  Cu  Cu13  1  0.08348300  0.29175000  0.74998900  1
  Cu  Cu14  1  0.91666800  0.20828600  0.24993800  1
  Cu  Cu15  1  0.91660200  0.70812800  0.24985300  1
  C  C16  1  0.61347400  0.55672500  0.75005100  1
  C  C17  1  0.61346800  0.05674700  0.74995400  1
  C  C18  1  0.38645300  0.44323400  0.25023600  1
  C  C19  1  0.38649700  0.94326900  0.25003100  1
  C  C20  1  0.21022500  0.84083100  0.91403400  1
  C  C21  1  0.21023000  0.34076400  0.91405900  1
  C  C22  1  0.18145600  0.35510600  0.58597200  1
  C  C23  1  0.18148500  0.85520600  0.58599000  1
  C  C24  1  0.79015400  0.15928200  0.08576100  1
  C  C25  1  0.78985600  0.65917600  0.08579900  1
  C  C26  1  0.81869700  0.64476800  0.41385300  1
  C  C27  1  0.81865100  0.14484200  0.41384600  1
  C  C28  1  0.18038700  0.62722300  0.65975000  1
  C  C29  1  0.18041100  0.12710100  0.65974900  1
  C  C30  1  0.75428600  0.84024100  0.84006900  1
  C  C31  1  0.75425900  0.34019800  0.84007400  1
  C  C32  1  0.81950600  0.37288900  0.34022800  1
  C  C33  1  0.81960500  0.87276000  0.34018500  1
  C  C34  1  0.24580200  0.15983500  0.15987200  1
  C  C35  1  0.24578500  0.65975200  0.15977900  1
