# generated using pymatgen
data_Cu19Ni19C8
_symmetry_space_group_name_H-M   'P 1'
_cell_length_a   11.07788801
_cell_length_b   11.07788801
_cell_length_c   26.66706100
_cell_angle_alpha   90.00000000
_cell_angle_beta   90.00000000
_cell_angle_gamma   109.12174509
_symmetry_Int_Tables_number   1
_chemical_formula_structural   Cu19Ni19C8
_chemical_formula_sum   'Cu76 Ni76 C32'
_cell_volume   3092.00590088
_cell_formula_units_Z   4
loop_
 _symmetry_equiv_pos_site_id
 _symmetry_equiv_pos_as_xyz
  1  'x, y, z'
loop_
 _atom_site_type_symbol
 _atom_site_label
 _atom_site_symmetry_multiplicity
 _atom_site_fract_x
 _atom_site_fract_y
 _atom_site_fract_z
 _atom_site_occupancy
  C  C0  1  0.20283800  0.20283800  0.94193100  1
  C  C1  1  0.04897100  0.48412000  0.88397600  1
  C  C2  1  0.70283800  0.70283800  0.55806900  1
  C  C3  1  0.69753000  0.69753000  0.19340200  1
  C  C4  1  0.19753000  0.19753000  0.30659800  1
  C  C5  1  0.11149100  0.11149100  0.40213200  1
  C  C6  1  0.95102900  0.51588000  0.11602400  1
  C  C7  1  0.11443300  0.11443300  0.85053300  1
  C  C8  1  0.01588000  0.45102900  0.38397600  1
  C  C9  1  0.45102900  0.01588000  0.38397600  1
  C  C10  1  0.98412000  0.54897100  0.61602400  1
  C  C11  1  0.61443300  0.61443300  0.64946700  1
  C  C12  1  0.51588000  0.95102900  0.11602400  1
  C  C13  1  0.61149100  0.61149100  0.09786800  1
  C  C14  1  0.54897100  0.98412000  0.61602400  1
  C  C15  1  0.38556700  0.38556700  0.35053300  1
  C  C16  1  0.29716200  0.29716200  0.44193100  1
  C  C17  1  0.48412000  0.04897100  0.88397600  1
  C  C18  1  0.88556700  0.88556700  0.14946700  1
  C  C19  1  0.30247000  0.30247000  0.80659800  1
  C  C20  1  0.38850900  0.38850900  0.90213200  1
  C  C21  1  0.79716200  0.79716200  0.05806900  1
  C  C22  1  0.80247000  0.80247000  0.69340200  1
  C  C23  1  0.88850900  0.88850900  0.59786800  1
  C  C24  1  0.16129600  0.32868000  0.37542000  1
  C  C25  1  0.17132000  0.33870400  0.87542000  1
  C  C26  1  0.82868000  0.66129600  0.12458000  1
  C  C27  1  0.67132000  0.83870400  0.62458000  1
  C  C28  1  0.66129600  0.82868000  0.12458000  1
  C  C29  1  0.83870400  0.67132000  0.62458000  1
  C  C30  1  0.33870400  0.17132000  0.87542000  1
  C  C31  1  0.32868000  0.16129600  0.37542000  1
  Ni  Ni32  1  0.36524100  0.51523400  0.31737300  1
  Ni  Ni33  1  0.48476600  0.63475900  0.68262700  1
  Ni  Ni34  1  0.65110600  0.80032000  0.23402200  1
  Ni  Ni35  1  0.41880000  0.83968500  0.61228100  1
  Ni  Ni36  1  0.94883200  0.09936700  0.40633700  1
  Ni  Ni37  1  0.19968000  0.34889400  0.76597800  1
  Ni  Ni38  1  0.08858400  0.45690300  0.61747600  1
  Ni  Ni39  1  0.46617000  0.46617000  0.40390300  1
  Ni  Ni40  1  0.16031500  0.58120000  0.38771900  1
  Ni  Ni41  1  0.73732000  0.58301300  0.52269900  1
  Ni  Ni42  1  0.87867800  0.46982000  0.05624000  1
  Ni  Ni43  1  0.43862400  0.43862400  0.80656800  1
  Ni  Ni44  1  0.66031500  0.08120000  0.11228100  1
  Ni  Ni45  1  0.05116800  0.90063300  0.59366300  1
  Ni  Ni46  1  0.14477600  0.56542500  0.83314900  1
  Ni  Ni47  1  0.41698700  0.26268000  0.47730100  1
  Ni  Ni48  1  0.58301300  0.73732000  0.52269900  1
  Ni  Ni49  1  0.40063300  0.55116800  0.90633700  1
  Ni  Ni50  1  0.30032000  0.15110600  0.26597800  1
  Ni  Ni51  1  0.51523400  0.36524100  0.31737300  1
  Ni  Ni52  1  0.58858400  0.95690300  0.88252400  1
  Ni  Ni53  1  0.53383000  0.53383000  0.59609700  1
  Ni  Ni54  1  0.34098800  0.34098800  0.96902300  1
  Ni  Ni55  1  0.37867800  0.96982000  0.44376000  1
  Ni  Ni56  1  0.98476600  0.13475900  0.81737300  1
  Ni  Ni57  1  0.08301300  0.23732000  0.97730100  1
  Ni  Ni58  1  0.83968500  0.41880000  0.61228100  1
  Ni  Ni59  1  0.46982000  0.87867800  0.05624000  1
  Ni  Ni60  1  0.93862400  0.93862400  0.69343200  1
  Ni  Ni61  1  0.41141600  0.04309700  0.11747600  1
  Ni  Ni62  1  0.91880000  0.33968500  0.88771900  1
  Ni  Ni63  1  0.85522400  0.43457500  0.16685100  1
  Ni  Ni64  1  0.64477600  0.06542500  0.66685100  1
  Ni  Ni65  1  0.56542500  0.14477600  0.83314900  1
  Ni  Ni66  1  0.69968000  0.84889400  0.73402200  1
  Ni  Ni67  1  0.53018000  0.12132200  0.94376000  1
  Ni  Ni68  1  0.23732000  0.08301300  0.97730100  1
  Ni  Ni69  1  0.13475900  0.98476600  0.81737300  1
  Ni  Ni70  1  0.65901200  0.65901200  0.03097700  1
  Ni  Ni71  1  0.08120000  0.66031500  0.11228100  1
  Ni  Ni72  1  0.01523400  0.86524100  0.18262700  1
  Ni  Ni73  1  0.12132200  0.53018000  0.94376000  1
  Ni  Ni74  1  0.90063300  0.05116800  0.59366300  1
  Ni  Ni75  1  0.15901200  0.15901200  0.46902300  1
  Ni  Ni76  1  0.84098800  0.84098800  0.53097700  1
  Ni  Ni77  1  0.55116800  0.40063300  0.90633700  1
  Ni  Ni78  1  0.76268000  0.91698700  0.02269900  1
  Ni  Ni79  1  0.56137600  0.56137600  0.19343200  1
  Ni  Ni80  1  0.15110600  0.30032000  0.26597800  1
  Ni  Ni81  1  0.96617000  0.96617000  0.09609700  1
  Ni  Ni82  1  0.91698700  0.76268000  0.02269900  1
  Ni  Ni83  1  0.45690300  0.08858400  0.61747600  1
  Ni  Ni84  1  0.58120000  0.16031500  0.38771900  1
  Ni  Ni85  1  0.04309700  0.41141600  0.11747600  1
  Ni  Ni86  1  0.43457500  0.85522400  0.16685100  1
  Ni  Ni87  1  0.86524100  0.01523400  0.18262700  1
  Ni  Ni88  1  0.33968500  0.91880000  0.88771900  1
  Ni  Ni89  1  0.95690300  0.58858400  0.88252400  1
  Ni  Ni90  1  0.63475900  0.48476600  0.68262700  1
  Ni  Ni91  1  0.54309700  0.91141600  0.38252400  1
  Ni  Ni92  1  0.93457500  0.35522400  0.33314900  1
  Ni  Ni93  1  0.06542500  0.64477600  0.66685100  1
  Ni  Ni94  1  0.03383000  0.03383000  0.90390300  1
  Ni  Ni95  1  0.84889400  0.69968000  0.73402200  1
  Ni  Ni96  1  0.91141600  0.54309700  0.38252400  1
  Ni  Ni97  1  0.96982000  0.37867800  0.44376000  1
  Ni  Ni98  1  0.35522400  0.93457500  0.33314900  1
  Ni  Ni99  1  0.09936700  0.94883200  0.40633700  1
  Ni  Ni100  1  0.03018000  0.62132200  0.55624000  1
  Ni  Ni101  1  0.34889400  0.19968000  0.76597800  1
  Ni  Ni102  1  0.80032000  0.65110600  0.23402200  1
  Ni  Ni103  1  0.26268000  0.41698700  0.47730100  1
  Ni  Ni104  1  0.59936700  0.44883200  0.09366300  1
  Ni  Ni105  1  0.62132200  0.03018000  0.55624000  1
  Ni  Ni106  1  0.06137600  0.06137600  0.30656800  1
  Ni  Ni107  1  0.44883200  0.59936700  0.09366300  1
  Cu  Cu108  1  0.63808800  0.39773400  0.70609600  1
  Cu  Cu109  1  0.12548600  0.36370100  0.23595700  1
  Cu  Cu110  1  0.87757300  0.87757300  0.49026200  1
  Cu  Cu111  1  0.65986300  0.90093700  0.88102300  1
  Cu  Cu112  1  0.74600700  0.33462400  0.60594500  1
  Cu  Cu113  1  0.16537600  0.75399200  0.10594500  1
  Cu  Cu114  1  0.04309500  0.04309500  0.07276900  1
  Cu  Cu115  1  0.54309500  0.54309500  0.42723100  1
  Cu  Cu116  1  0.12622300  0.70890000  0.69813600  1
  Cu  Cu117  1  0.97309800  0.97309800  0.29681500  1
  Cu  Cu118  1  0.41661500  0.65999500  0.90831500  1
  Cu  Cu119  1  0.13808800  0.89773400  0.79390400  1
  Cu  Cu120  1  0.62548600  0.86370100  0.26404300  1
  Cu  Cu121  1  0.84000500  0.08338500  0.40831500  1
  Cu  Cu122  1  0.06211000  0.66667500  0.51738000  1
  Cu  Cu123  1  0.75399200  0.16537600  0.10594500  1
  Cu  Cu124  1  0.15986300  0.40093700  0.61897700  1
  Cu  Cu125  1  0.86191200  0.10226600  0.20609600  1
  Cu  Cu126  1  0.24600700  0.83462400  0.89405500  1
  Cu  Cu127  1  0.87377700  0.29110000  0.30186400  1
  Cu  Cu128  1  0.79110000  0.37377700  0.19813600  1
  Cu  Cu129  1  0.36370100  0.12548600  0.23595700  1
  Cu  Cu130  1  0.33462400  0.74600800  0.60594500  1
  Cu  Cu131  1  0.95690500  0.95690500  0.92723100  1
  Cu  Cu132  1  0.62242700  0.62242700  0.99026200  1
  Cu  Cu133  1  0.56211000  0.16667500  0.98262000  1
  Cu  Cu134  1  0.63629900  0.87451400  0.76404300  1
  Cu  Cu135  1  0.37757300  0.37757300  0.00973800  1
  Cu  Cu136  1  0.00656600  0.25677600  0.00282000  1
  Cu  Cu137  1  0.60226600  0.36191200  0.29390400  1
  Cu  Cu138  1  0.83332500  0.43789000  0.01738000  1
  Cu  Cu139  1  0.91661500  0.15999500  0.59168500  1
  Cu  Cu140  1  0.84013700  0.59906300  0.38102300  1
  Cu  Cu141  1  0.29110000  0.87377700  0.30186400  1
  Cu  Cu142  1  0.86370100  0.62548600  0.26404300  1
  Cu  Cu143  1  0.70890000  0.12622300  0.69813600  1
  Cu  Cu144  1  0.62622300  0.20890000  0.80186400  1
  Cu  Cu145  1  0.89773400  0.13808800  0.79390400  1
  Cu  Cu146  1  0.08338500  0.84000500  0.40831500  1
  Cu  Cu147  1  0.99343400  0.74322400  0.99718000  1
  Cu  Cu148  1  0.33332500  0.93789000  0.48262000  1
  Cu  Cu149  1  0.13629900  0.37451400  0.73595700  1
  Cu  Cu150  1  0.75677600  0.50656600  0.49718000  1
  Cu  Cu151  1  0.90093700  0.65986300  0.88102300  1
  Cu  Cu152  1  0.83462400  0.24600800  0.89405500  1
  Cu  Cu153  1  0.15999500  0.91661500  0.59168500  1
  Cu  Cu154  1  0.52690200  0.52690200  0.79681500  1
  Cu  Cu155  1  0.12242700  0.12242700  0.50973800  1
  Cu  Cu156  1  0.34000500  0.58338500  0.09168500  1
  Cu  Cu157  1  0.74322400  0.99343400  0.99718000  1
  Cu  Cu158  1  0.25399200  0.66537600  0.39405500  1
  Cu  Cu159  1  0.10226600  0.86191200  0.20609600  1
  Cu  Cu160  1  0.93789000  0.33332500  0.48262000  1
  Cu  Cu161  1  0.50656600  0.75677600  0.49718000  1
  Cu  Cu162  1  0.87451400  0.63629900  0.76404300  1
  Cu  Cu163  1  0.16667500  0.56211000  0.98262000  1
  Cu  Cu164  1  0.20890000  0.62622300  0.80186400  1
  Cu  Cu165  1  0.37377700  0.79110000  0.19813600  1
  Cu  Cu166  1  0.37451400  0.13629900  0.73595700  1
  Cu  Cu167  1  0.49343400  0.24322400  0.50282000  1
  Cu  Cu168  1  0.65999500  0.41661500  0.90831500  1
  Cu  Cu169  1  0.34013700  0.09906300  0.11897700  1
  Cu  Cu170  1  0.58338500  0.34000500  0.09168500  1
  Cu  Cu171  1  0.25677600  0.00656600  0.00282000  1
  Cu  Cu172  1  0.40093700  0.15986300  0.61897700  1
  Cu  Cu173  1  0.66537600  0.25399200  0.39405500  1
  Cu  Cu174  1  0.47309800  0.47309800  0.20318500  1
  Cu  Cu175  1  0.66667500  0.06211000  0.51738000  1
  Cu  Cu176  1  0.43789000  0.83332500  0.01738000  1
  Cu  Cu177  1  0.09906300  0.34013700  0.11897700  1
  Cu  Cu178  1  0.36191200  0.60226600  0.29390400  1
  Cu  Cu179  1  0.39773400  0.63808800  0.70609600  1
  Cu  Cu180  1  0.24322400  0.49343400  0.50282000  1
  Cu  Cu181  1  0.59906300  0.84013700  0.38102300  1
  Cu  Cu182  1  0.45690500  0.45690500  0.57276900  1
  Cu  Cu183  1  0.02690200  0.02690200  0.70318500  1
