# generated using pymatgen
data_Cu5NiC3
_symmetry_space_group_name_H-M   'P 1'
_cell_length_a   10.06573000
_cell_length_b   9.01219100
_cell_length_c   11.91041022
_cell_angle_alpha   88.76802089
_cell_angle_beta   90.00000000
_cell_angle_gamma   90.00000000
_symmetry_Int_Tables_number   1
_chemical_formula_structural   Cu5NiC3
_chemical_formula_sum   'Cu20 Ni4 C12'
_cell_volume   1080.19454689
_cell_formula_units_Z   4
loop_
 _symmetry_equiv_pos_site_id
 _symmetry_equiv_pos_as_xyz
  1  'x, y, z'
loop_
 _atom_site_type_symbol
 _atom_site_label
 _atom_site_symmetry_multiplicity
 _atom_site_fract_x
 _atom_site_fract_y
 _atom_site_fract_z
 _atom_site_occupancy
  C  C0  1  0.80011600  0.46069700  0.05678800  1
  C  C1  1  0.05579200  0.12574000  0.19986800  1
  C  C2  1  0.69988400  0.96069700  0.05678800  1
  C  C3  1  0.55579200  0.37426000  0.80013200  1
  C  C4  1  0.30011600  0.03930300  0.94321200  1
  C  C5  1  0.19988400  0.53930300  0.94321200  1
  C  C6  1  0.94420800  0.87426000  0.80013200  1
  C  C7  1  0.44420800  0.62574000  0.19986800  1
  C  C8  1  0.27216500  0.10597700  0.51728200  1
  C  C9  1  0.72783500  0.89402300  0.48271800  1
  C  C10  1  0.77216500  0.39402300  0.48271800  1
  C  C11  1  0.22783500  0.60597700  0.51728200  1
  Ni  Ni12  1  0.52123400  0.20771400  0.25292300  1
  Ni  Ni13  1  0.47876600  0.79228600  0.74707700  1
  Ni  Ni14  1  0.97876600  0.70771400  0.25292300  1
  Ni  Ni15  1  0.02123400  0.29228600  0.74707700  1
  Cu  Cu16  1  0.43379100  0.83726500  0.41391000  1
  Cu  Cu17  1  0.75425600  0.64124500  0.29143900  1
  Cu  Cu18  1  0.53525100  0.63746600  0.59092600  1
  Cu  Cu19  1  0.74574400  0.14124500  0.29143900  1
  Cu  Cu20  1  0.86732600  0.50075200  0.75159100  1
  Cu  Cu21  1  0.46474900  0.36253400  0.40907400  1
  Cu  Cu22  1  0.25425600  0.85875500  0.70856100  1
  Cu  Cu23  1  0.98703200  0.19352300  0.93025500  1
  Cu  Cu24  1  0.56620900  0.16273500  0.58609000  1
  Cu  Cu25  1  0.51296800  0.69352300  0.93025500  1
  Cu  Cu26  1  0.96474900  0.13746600  0.59092600  1
  Cu  Cu27  1  0.03525100  0.86253400  0.40907400  1
  Cu  Cu28  1  0.36732600  0.99924800  0.24840900  1
  Cu  Cu29  1  0.48703200  0.30647700  0.06974500  1
  Cu  Cu30  1  0.13267400  0.49924800  0.24840900  1
  Cu  Cu31  1  0.24574400  0.35875500  0.70856100  1
  Cu  Cu32  1  0.01296800  0.80647700  0.06974500  1
  Cu  Cu33  1  0.06620900  0.33726500  0.41391000  1
  Cu  Cu34  1  0.93379100  0.66273500  0.58609000  1
  Cu  Cu35  1  0.63267400  0.00075200  0.75159100  1
