# generated using pymatgen
data_Cu2Ni10C13
_symmetry_space_group_name_H-M   'P 1'
_cell_length_a   13.90490400
_cell_length_b   11.94332900
_cell_length_c   16.86713479
_cell_angle_alpha   66.37763827
_cell_angle_beta   90.00000000
_cell_angle_gamma   90.00000000
_symmetry_Int_Tables_number   1
_chemical_formula_structural   Cu2Ni10C13
_chemical_formula_sum   'Cu8 Ni40 C52'
_cell_volume   2566.42177679
_cell_formula_units_Z   4
loop_
 _symmetry_equiv_pos_site_id
 _symmetry_equiv_pos_as_xyz
  1  'x, y, z'
loop_
 _atom_site_type_symbol
 _atom_site_label
 _atom_site_symmetry_multiplicity
 _atom_site_fract_x
 _atom_site_fract_y
 _atom_site_fract_z
 _atom_site_occupancy
  C  C0  1  0.25663900  0.69300900  0.31727100  1
  C  C1  1  0.28541000  0.60755300  0.71753700  1
  C  C2  1  0.21459000  0.60755300  0.21753700  1
  C  C3  1  0.78541000  0.39244700  0.78246300  1
  C  C4  1  0.24336100  0.69300900  0.81727100  1
  C  C5  1  0.74336100  0.30699100  0.68272900  1
  C  C6  1  0.75663900  0.30699100  0.18272900  1
  C  C7  1  0.71459000  0.39244700  0.28246300  1
  C  C8  1  0.24676700  0.90770600  0.19667100  1
  C  C9  1  0.75323300  0.09229400  0.80332900  1
  C  C10  1  0.74676700  0.09229400  0.30332900  1
  C  C11  1  0.25323300  0.90770600  0.69667100  1
  Ni  Ni12  1  0.13871300  0.22956200  0.81754200  1
  Ni  Ni13  1  0.60278100  0.53215300  0.44927600  1
  Ni  Ni14  1  0.90319800  0.27148900  0.83984200  1
  Ni  Ni15  1  0.03113900  0.98392400  0.46276400  1
  Ni  Ni16  1  0.28110400  0.33126400  0.98404800  1
  Ni  Ni17  1  0.36128700  0.22956200  0.31754200  1
  Ni  Ni18  1  0.04754500  0.18320100  0.01557300  1
  Ni  Ni19  1  0.71889600  0.66873600  0.01595200  1
  Ni  Ni20  1  0.93220100  0.95239200  0.48706900  1
  Ni  Ni21  1  0.37868900  0.17358000  0.81489300  1
  Ni  Ni22  1  0.78110400  0.66873600  0.51595200  1
  Ni  Ni23  1  0.54754500  0.81679900  0.48442700  1
  Ni  Ni24  1  0.46886100  0.98392400  0.96276400  1
  Ni  Ni25  1  0.66555200  0.35190400  0.85261800  1
  Ni  Ni26  1  0.10278100  0.46784700  0.05072400  1
  Ni  Ni27  1  0.62131100  0.82642000  0.18510700  1
  Ni  Ni28  1  0.21889600  0.33126400  0.48404800  1
  Ni  Ni29  1  0.96886100  0.01607600  0.53723600  1
  Ni  Ni30  1  0.43220100  0.04760800  0.01293100  1
  Ni  Ni31  1  0.06779900  0.04760800  0.51293100  1
  Ni  Ni32  1  0.86128700  0.77043800  0.18245800  1
  Ni  Ni33  1  0.59680200  0.27148900  0.33984200  1
  Ni  Ni34  1  0.63871300  0.77043800  0.68245800  1
  Ni  Ni35  1  0.99838700  0.04238400  0.79889500  1
  Ni  Ni36  1  0.56779900  0.95239200  0.98706900  1
  Ni  Ni37  1  0.33444800  0.64809600  0.14738200  1
  Ni  Ni38  1  0.00161300  0.95761600  0.20110500  1
  Ni  Ni39  1  0.83444800  0.35190400  0.35261800  1
  Ni  Ni40  1  0.40319800  0.72851100  0.66015800  1
  Ni  Ni41  1  0.95245500  0.81679900  0.98442700  1
  Ni  Ni42  1  0.39721900  0.46784700  0.55072400  1
  Ni  Ni43  1  0.45245500  0.18320100  0.51557300  1
  Ni  Ni44  1  0.87868900  0.82642000  0.68510700  1
  Ni  Ni45  1  0.50161300  0.04238400  0.29889500  1
  Ni  Ni46  1  0.53113900  0.01607600  0.03723600  1
  Ni  Ni47  1  0.09680200  0.72851100  0.16015800  1
  Ni  Ni48  1  0.89721900  0.53215300  0.94927600  1
  Ni  Ni49  1  0.12131100  0.17358000  0.31489300  1
  Ni  Ni50  1  0.16555200  0.64809600  0.64738200  1
  Ni  Ni51  1  0.49838700  0.95761600  0.70110500  1
  Cu  Cu52  1  0.41588500  0.67161500  0.34993700  1
  Cu  Cu53  1  0.13089200  0.71805400  0.39455000  1
  Cu  Cu54  1  0.63089200  0.28194600  0.10545000  1
  Cu  Cu55  1  0.36910800  0.71805400  0.89455000  1
  Cu  Cu56  1  0.86910800  0.28194600  0.60545000  1
  Cu  Cu57  1  0.58411500  0.32838500  0.65006300  1
  Cu  Cu58  1  0.08411500  0.67161500  0.84993700  1
  Cu  Cu59  1  0.91588500  0.32838500  0.15006300  1
  C  C60  1  0.87138100  0.67337200  0.23344400  1
  C  C61  1  0.56170800  0.97901600  0.73630900  1
  C  C62  1  0.63827700  0.90515000  0.97241800  1
  C  C63  1  0.87831700  0.84104400  0.95249400  1
  C  C64  1  0.43829200  0.02098400  0.26369100  1
  C  C65  1  0.34495700  0.77014800  0.60152900  1
  C  C66  1  0.13827700  0.09485000  0.52758200  1
  C  C67  1  0.80088300  0.69014000  0.44541100  1
  C  C68  1  0.36172300  0.09485000  0.02758200  1
  C  C69  1  0.90334400  0.34147000  0.39432800  1
  C  C70  1  0.86411800  0.46420600  0.92451900  1
  C  C71  1  0.06170800  0.02098400  0.76369100  1
  C  C72  1  0.13588200  0.53579400  0.07548100  1
  C  C73  1  0.63588200  0.46420600  0.42451900  1
  C  C74  1  0.09665600  0.65853000  0.60567200  1
  C  C75  1  0.62861900  0.67337200  0.73344400  1
  C  C76  1  0.62168300  0.84104400  0.45249400  1
  C  C77  1  0.81760300  0.54472700  0.72770400  1
  C  C78  1  0.19911700  0.30986000  0.55458900  1
  C  C79  1  0.40334400  0.65853000  0.10567200  1
  C  C80  1  0.33289500  0.13545500  0.77487600  1
  C  C81  1  0.30088300  0.30986000  0.05458900  1
  C  C82  1  0.18239700  0.45527300  0.27229600  1
  C  C83  1  0.59665600  0.34147000  0.89432800  1
  C  C84  1  0.16710500  0.13545500  0.27487600  1
  C  C85  1  0.93829200  0.97901600  0.23630900  1
  C  C86  1  0.69911700  0.69014000  0.94541100  1
  C  C87  1  0.12861900  0.32662800  0.76655600  1
  C  C88  1  0.12168300  0.15895600  0.04750600  1
  C  C89  1  0.36411800  0.53579400  0.57548100  1
  C  C90  1  0.37831700  0.15895600  0.54750600  1
  C  C91  1  0.31760300  0.45527300  0.77229600  1
  C  C92  1  0.65504300  0.22985200  0.39847100  1
  C  C93  1  0.37138100  0.32662800  0.26655600  1
  C  C94  1  0.86172300  0.90515000  0.47241800  1
  C  C95  1  0.84495700  0.22985200  0.89847100  1
  C  C96  1  0.15504300  0.77014800  0.10152900  1
  C  C97  1  0.66710500  0.86454500  0.22512400  1
  C  C98  1  0.68239700  0.54472700  0.22770400  1
  C  C99  1  0.83289500  0.86454500  0.72512400  1
