# generated using pymatgen
data_CuNi10C9
_symmetry_space_group_name_H-M   'P 1'
_cell_length_a   7.67990100
_cell_length_b   7.29314200
_cell_length_c   12.64181876
_cell_angle_alpha   78.55259762
_cell_angle_beta   90.00000000
_cell_angle_gamma   90.00000000
_symmetry_Int_Tables_number   1
_chemical_formula_structural   CuNi10C9
_chemical_formula_sum   'Cu4 Ni40 C36'
_cell_volume   693.99042739
_cell_formula_units_Z   4
loop_
 _symmetry_equiv_pos_site_id
 _symmetry_equiv_pos_as_xyz
  1  'x, y, z'
loop_
 _atom_site_type_symbol
 _atom_site_label
 _atom_site_symmetry_multiplicity
 _atom_site_fract_x
 _atom_site_fract_y
 _atom_site_fract_z
 _atom_site_occupancy
  C  C0  1  0.50000000  0.00000000  0.50000000  1
  C  C1  1  0.00000000  0.00000000  0.00000000  1
  C  C2  1  0.50000000  0.50000000  0.00000000  1
  C  C3  1  0.00000000  0.50000000  0.50000000  1
  Ni  Ni4  1  0.62848700  0.63915200  0.14427200  1
  Ni  Ni5  1  0.12848700  0.36084800  0.35572800  1
  Ni  Ni6  1  0.37151300  0.36084800  0.85572800  1
  Ni  Ni7  1  0.87151300  0.63915200  0.64427200  1
  Ni  Ni8  1  0.55906900  0.25973300  0.85837100  1
  Ni  Ni9  1  0.05906900  0.74026700  0.64162900  1
  Ni  Ni10  1  0.44093100  0.74026700  0.14162900  1
  Ni  Ni11  1  0.94093100  0.25973300  0.35837100  1
  Ni  Ni12  1  0.71278900  0.55855200  0.82756500  1
  Ni  Ni13  1  0.21278900  0.44144800  0.67243500  1
  Ni  Ni14  1  0.28721100  0.44144800  0.17243500  1
  Ni  Ni15  1  0.78721100  0.55855200  0.32756500  1
  Ni  Ni16  1  0.21964400  0.29683300  0.10166200  1
  Ni  Ni17  1  0.71964400  0.70316700  0.39833800  1
  Ni  Ni18  1  0.78035600  0.70316700  0.89833800  1
  Ni  Ni19  1  0.28035600  0.29683300  0.60166200  1
  Ni  Ni20  1  0.65954200  0.90792200  0.05887900  1
  Ni  Ni21  1  0.15954200  0.09207800  0.44112100  1
  Ni  Ni22  1  0.34045800  0.09207800  0.94112100  1
  Ni  Ni23  1  0.84045800  0.90792200  0.55887900  1
  Ni  Ni24  1  0.70011200  0.11900600  0.07640400  1
  Ni  Ni25  1  0.20011200  0.88099400  0.42359600  1
  Ni  Ni26  1  0.29988800  0.88099400  0.92359600  1
  Ni  Ni27  1  0.79988800  0.11900600  0.57640400  1
  Ni  Ni28  1  0.66969600  0.03440000  0.30918500  1
  Ni  Ni29  1  0.16969600  0.96560000  0.19081500  1
  Ni  Ni30  1  0.33030400  0.96560000  0.69081500  1
  Ni  Ni31  1  0.83030400  0.03440000  0.80918500  1
  Ni  Ni32  1  0.50037100  0.09601200  0.69543000  1
  Ni  Ni33  1  0.00037100  0.90398800  0.80457000  1
  Ni  Ni34  1  0.49962900  0.90398800  0.30457000  1
  Ni  Ni35  1  0.99962900  0.09601200  0.19543000  1
  Ni  Ni36  1  0.39437800  0.62530300  0.55857100  1
  Ni  Ni37  1  0.89437800  0.37469700  0.94142900  1
  Ni  Ni38  1  0.60562200  0.37469700  0.44142900  1
  Ni  Ni39  1  0.10562200  0.62530300  0.05857100  1
  Ni  Ni40  1  0.57482900  0.64309300  0.61579400  1
  Ni  Ni41  1  0.07482900  0.35690700  0.88420600  1
  Ni  Ni42  1  0.42517100  0.35690700  0.38420600  1
  Ni  Ni43  1  0.92517100  0.64309300  0.11579400  1
  Cu  Cu44  1  0.74845400  0.34712800  0.69205600  1
  Cu  Cu45  1  0.24845400  0.65287200  0.80794400  1
  Cu  Cu46  1  0.25154600  0.65287200  0.30794400  1
  Cu  Cu47  1  0.75154600  0.34712800  0.19205600  1
  C  C48  1  0.72238800  0.51908700  0.70559500  1
  C  C49  1  0.22238800  0.48091300  0.79440500  1
  C  C50  1  0.27761200  0.48091300  0.29440500  1
  C  C51  1  0.77761200  0.51908700  0.20559500  1
  C  C52  1  0.84137900  0.31871200  0.61162100  1
  C  C53  1  0.34137900  0.68128800  0.88837900  1
  C  C54  1  0.15862100  0.68128800  0.38837900  1
  C  C55  1  0.65862100  0.31871200  0.11162100  1
  C  C56  1  0.68010700  0.20817700  0.75933100  1
  C  C57  1  0.18010700  0.79182300  0.74066900  1
  C  C58  1  0.31989300  0.79182300  0.24066900  1
  C  C59  1  0.81989300  0.20817700  0.25933100  1
  C  C60  1  0.53538600  0.70705000  0.09283900  1
  C  C61  1  0.03538600  0.29295000  0.40716100  1
  C  C62  1  0.46461400  0.29295000  0.90716100  1
  C  C63  1  0.96461400  0.70705000  0.59283900  1
  C  C64  1  0.72142000  0.58121200  0.90397100  1
  C  C65  1  0.22142000  0.41878800  0.59602900  1
  C  C66  1  0.27858000  0.41878800  0.09602900  1
  C  C67  1  0.77858000  0.58121200  0.40397100  1
  C  C68  1  0.75264000  0.01007500  0.54777900  1
  C  C69  1  0.25264000  0.98992500  0.95222100  1
  C  C70  1  0.24736000  0.98992500  0.45222100  1
  C  C71  1  0.74736000  0.01007500  0.04777900  1
  C  C72  1  0.59303300  0.93548900  0.35205400  1
  C  C73  1  0.09303300  0.06451100  0.14794600  1
  C  C74  1  0.40696700  0.06451100  0.64794600  1
  C  C75  1  0.90696700  0.93548900  0.85205400  1
  C  C76  1  0.49192000  0.71204600  0.56180600  1
  C  C77  1  0.99192000  0.28795400  0.93819400  1
  C  C78  1  0.50808000  0.28795400  0.43819400  1
  C  C79  1  0.00808000  0.71204600  0.06180600  1
