# generated using pymatgen
data_Cu3(Ni6C)2
_symmetry_space_group_name_H-M   'P 1'
_cell_length_a   18.31387563
_cell_length_b   16.61956622
_cell_length_c   9.28253237
_cell_angle_alpha   84.98396409
_cell_angle_beta   64.69020909
_cell_angle_gamma   30.32582683
_symmetry_Int_Tables_number   1
_chemical_formula_structural   Cu3(Ni6C)2
_chemical_formula_sum   'Cu6 Ni24 C4'
_cell_volume   1014.98580889
_cell_formula_units_Z   2
loop_
 _symmetry_equiv_pos_site_id
 _symmetry_equiv_pos_as_xyz
  1  'x, y, z'
loop_
 _atom_site_type_symbol
 _atom_site_label
 _atom_site_symmetry_multiplicity
 _atom_site_fract_x
 _atom_site_fract_y
 _atom_site_fract_z
 _atom_site_occupancy
  Ni  Ni0  1  0.44245600  0.45119800  0.30758600  1
  Ni  Ni1  1  0.36763100  0.85591600  0.05742700  1
  Ni  Ni2  1  0.30758600  0.79876000  0.44245600  1
  Ni  Ni3  1  0.94241400  0.45124000  0.80754400  1
  Ni  Ni4  1  0.71902600  0.05742700  0.85591600  1
  Ni  Ni5  1  0.79880200  0.80754400  0.45124000  1
  Ni  Ni6  1  0.10731100  0.78591700  0.78727200  1
  Ni  Ni7  1  0.14268900  0.46408300  0.46272800  1
  Ni  Ni8  1  0.78591700  0.10731100  0.31949900  1
  Ni  Ni9  1  0.19257300  0.53097400  0.88236900  1
  Ni  Ni10  1  0.93050100  0.46272800  0.46408300  1
  Ni  Ni11  1  0.53097400  0.19257300  0.39408400  1
  Ni  Ni12  1  0.79876000  0.30758600  0.45119800  1
  Ni  Ni13  1  0.39408400  0.88236900  0.53097400  1
  Ni  Ni14  1  0.78727200  0.31949900  0.10731100  1
  Ni  Ni15  1  0.45124000  0.94241400  0.79880200  1
  Ni  Ni16  1  0.45119800  0.44245600  0.79876000  1
  Ni  Ni17  1  0.05742700  0.71902600  0.36763100  1
  Ni  Ni18  1  0.85591600  0.36763100  0.71902600  1
  Ni  Ni19  1  0.80754400  0.79880200  0.94241400  1
  Ni  Ni20  1  0.46408300  0.14268900  0.93050100  1
  Ni  Ni21  1  0.88236900  0.39408400  0.19257300  1
  Ni  Ni22  1  0.31949900  0.78727200  0.78591700  1
  Ni  Ni23  1  0.46272800  0.93050100  0.14268900  1
  Cu  Cu24  1  0.62500000  0.62500000  0.12500000  1
  Cu  Cu25  1  0.75000000  0.75000000  0.75000000  1
  Cu  Cu26  1  0.62500000  0.12500000  0.62500000  1
  Cu  Cu27  1  0.62500000  0.62500000  0.62500000  1
  Cu  Cu28  1  0.12500000  0.62500000  0.62500000  1
  Cu  Cu29  1  0.50000000  0.50000000  0.50000000  1
  C  C30  1  0.79154900  0.20845100  0.79154900  1
  C  C31  1  0.20845100  0.79154900  0.20845100  1
  C  C32  1  0.04154900  0.45845100  0.04154900  1
  C  C33  1  0.45845100  0.04154900  0.45845100  1
