# generated using pymatgen
data_CuNiC5
_symmetry_space_group_name_H-M   'P 1'
_cell_length_a   9.16010200
_cell_length_b   5.49866200
_cell_length_c   10.94763661
_cell_angle_alpha   60.10745946
_cell_angle_beta   90.00000000
_cell_angle_gamma   90.00000000
_symmetry_Int_Tables_number   1
_chemical_formula_structural   CuNiC5
_chemical_formula_sum   'Cu4 Ni4 C20'
_cell_volume   478.05469736
_cell_formula_units_Z   4
loop_
 _symmetry_equiv_pos_site_id
 _symmetry_equiv_pos_as_xyz
  1  'x, y, z'
loop_
 _atom_site_type_symbol
 _atom_site_label
 _atom_site_symmetry_multiplicity
 _atom_site_fract_x
 _atom_site_fract_y
 _atom_site_fract_z
 _atom_site_occupancy
  Ni  Ni0  1  0.50047200  0.95797100  0.78451000  1
  Ni  Ni1  1  0.00047200  0.04202900  0.71549000  1
  Ni  Ni2  1  0.49952800  0.04202900  0.21549000  1
  Ni  Ni3  1  0.99952800  0.95797100  0.28451000  1
  Cu  Cu4  1  0.82530300  0.33964800  0.91413400  1
  Cu  Cu5  1  0.32530300  0.66035200  0.58586600  1
  Cu  Cu6  1  0.17469700  0.66035200  0.08586600  1
  Cu  Cu7  1  0.67469700  0.33964800  0.41413400  1
  C  C8  1  0.69989600  0.67096000  0.58281200  1
  C  C9  1  0.19989600  0.32904000  0.91718800  1
  C  C10  1  0.30010400  0.32904000  0.41718800  1
  C  C11  1  0.80010400  0.67096000  0.08281200  1
  C  C12  1  0.75455500  0.46498300  0.54196800  1
  C  C13  1  0.25455500  0.53501700  0.95803200  1
  C  C14  1  0.24544500  0.53501700  0.45803200  1
  C  C15  1  0.74544500  0.46498300  0.04196800  1
  C  C16  1  0.96179600  0.65480000  0.09442700  1
  C  C17  1  0.46179600  0.34520000  0.40557300  1
  C  C18  1  0.03820400  0.34520000  0.90557300  1
  C  C19  1  0.53820400  0.65480000  0.59442700  1
  C  C20  1  0.75424700  0.95969600  0.97311600  1
  C  C21  1  0.25424700  0.04030400  0.52688400  1
  C  C22  1  0.24575300  0.04030400  0.02688400  1
  C  C23  1  0.74575300  0.95969600  0.47311600  1
  C  C24  1  0.73584900  0.60605200  0.22086900  1
  C  C25  1  0.23584900  0.39394800  0.27913100  1
  C  C26  1  0.26415100  0.39394800  0.77913100  1
  C  C27  1  0.76415100  0.60605200  0.72086900  1
