# generated using pymatgen
data_Cu2Ni2C7
_symmetry_space_group_name_H-M   'P 1'
_cell_length_a   4.22277500
_cell_length_b   7.47572680
_cell_length_c   7.76403545
_cell_angle_alpha   62.62174938
_cell_angle_beta   83.76612621
_cell_angle_gamma   80.33240297
_symmetry_Int_Tables_number   1
_chemical_formula_structural   Cu2Ni2C7
_chemical_formula_sum   'Cu2 Ni2 C7'
_cell_volume   214.41554109
_cell_formula_units_Z   1
loop_
 _symmetry_equiv_pos_site_id
 _symmetry_equiv_pos_as_xyz
  1  'x, y, z'
loop_
 _atom_site_type_symbol
 _atom_site_label
 _atom_site_symmetry_multiplicity
 _atom_site_fract_x
 _atom_site_fract_y
 _atom_site_fract_z
 _atom_site_occupancy
  C  C0  1  0.89971300  0.31063000  0.34807000  1
  C  C1  1  0.10028700  0.68937000  0.65193000  1
  C  C2  1  0.50000000  0.00000000  0.00000000  1
  Ni  Ni3  1  0.71440900  0.26739100  0.86906800  1
  Ni  Ni4  1  0.28559100  0.73260900  0.13093200  1
  Cu  Cu5  1  0.48636500  0.01043400  0.29971000  1
  Cu  Cu6  1  0.51363500  0.98956600  0.70029000  1
  C  C7  1  0.75475400  0.35887300  0.68790200  1
  C  C8  1  0.18896400  0.66239900  0.03525500  1
  C  C9  1  0.81103600  0.33760100  0.96474500  1
  C  C10  1  0.24524600  0.64112700  0.31209800  1
