# generated using pymatgen
data_CuNiC9
_symmetry_space_group_name_H-M   'P 1'
_cell_length_a   7.44705685
_cell_length_b   7.44705685
_cell_length_c   25.02473296
_cell_angle_alpha   81.78888697
_cell_angle_beta   81.78888697
_cell_angle_gamma   60.23824395
_symmetry_Int_Tables_number   1
_chemical_formula_structural   CuNiC9
_chemical_formula_sum   'Cu8 Ni8 C72'
_cell_volume   1188.24184054
_cell_formula_units_Z   8
loop_
 _symmetry_equiv_pos_site_id
 _symmetry_equiv_pos_as_xyz
  1  'x, y, z'
loop_
 _atom_site_type_symbol
 _atom_site_label
 _atom_site_symmetry_multiplicity
 _atom_site_fract_x
 _atom_site_fract_y
 _atom_site_fract_z
 _atom_site_occupancy
  C  C0  1  0.11575600  0.13525100  0.12161200  1
  C  C1  1  0.21172200  0.78827800  0.25000000  1
  C  C2  1  0.20731200  0.29699200  0.24753200  1
  C  C3  1  0.00000000  0.00000000  0.50000000  1
  C  C4  1  0.88424400  0.86474900  0.87838800  1
  C  C5  1  0.00000000  0.00000000  0.00000000  1
  C  C6  1  0.86474900  0.88424400  0.37838800  1
  C  C7  1  0.70300800  0.79268800  0.25246800  1
  C  C8  1  0.13525100  0.11575600  0.62161200  1
  C  C9  1  0.50000000  0.50000000  0.00000000  1
  C  C10  1  0.50000000  0.50000000  0.50000000  1
  C  C11  1  0.79268800  0.70300800  0.75246800  1
  C  C12  1  0.00000000  0.50000000  0.00000000  1
  C  C13  1  0.29699200  0.20731200  0.74753200  1
  C  C14  1  0.50000000  0.00000000  0.50000000  1
  C  C15  1  0.78827800  0.21172200  0.75000000  1
  Ni  Ni16  1  0.63685200  0.11036000  0.62594700  1
  Ni  Ni17  1  0.11036000  0.63685200  0.12594700  1
  Ni  Ni18  1  0.36314800  0.88964000  0.37405300  1
  Ni  Ni19  1  0.88964000  0.36314800  0.87405300  1
  Ni  Ni20  1  0.24882000  0.75118000  0.75000000  1
  Ni  Ni21  1  0.00000000  0.50000000  0.50000000  1
  Ni  Ni22  1  0.50000000  0.00000000  0.00000000  1
  Ni  Ni23  1  0.75118000  0.24882000  0.25000000  1
  Cu  Cu24  1  0.38687500  0.36824500  0.87217900  1
  Cu  Cu25  1  0.61312500  0.63175500  0.12782100  1
  Cu  Cu26  1  0.13485100  0.61174100  0.62615500  1
  Cu  Cu27  1  0.86514900  0.38825900  0.37384500  1
  Cu  Cu28  1  0.63175500  0.61312500  0.62782100  1
  Cu  Cu29  1  0.36824500  0.38687500  0.37217900  1
  Cu  Cu30  1  0.38825900  0.86514900  0.87384500  1
  Cu  Cu31  1  0.61174100  0.13485100  0.12615500  1
  C  C32  1  0.34136100  0.29885900  0.64275400  1
  C  C33  1  0.58370400  0.74519700  0.04611100  1
  C  C34  1  0.46942100  0.09427000  0.84442400  1
  C  C35  1  0.97783200  0.86070300  0.79077000  1
  C  C36  1  0.36370600  0.86212800  0.79285900  1
  C  C37  1  0.63655000  0.52262600  0.21010500  1
  C  C38  1  0.13929700  0.02216800  0.70923000  1
  C  C39  1  0.29484900  0.73119700  0.14205200  1
  C  C40  1  0.97365600  0.35813500  0.79576600  1
  C  C41  1  0.64186500  0.02634400  0.70423400  1
  C  C42  1  0.86212800  0.36370600  0.29285900  1
  C  C43  1  0.52262600  0.63655000  0.71010500  1
  C  C44  1  0.81065600  0.36539500  0.95289500  1
  C  C45  1  0.36107000  0.69735700  0.59770800  1
  C  C46  1  0.86070300  0.97783200  0.29077000  1
  C  C47  1  0.73119700  0.29484900  0.64205200  1
  C  C48  1  0.92919000  0.53782400  0.11019200  1
  C  C49  1  0.06739900  0.07549900  0.39152900  1
  C  C50  1  0.12921700  0.20889600  0.53179400  1
  C  C51  1  0.53782400  0.92919000  0.61019200  1
  C  C52  1  0.53057900  0.90573000  0.15557600  1
  C  C53  1  0.63460500  0.18934400  0.54710500  1
  C  C54  1  0.13787200  0.63629400  0.70714100  1
  C  C55  1  0.09427000  0.46942100  0.34442400  1
  C  C56  1  0.07081000  0.46217600  0.88980800  1
  C  C57  1  0.36539500  0.81065600  0.45289500  1
  C  C58  1  0.74519700  0.58370400  0.54611100  1
  C  C59  1  0.25480300  0.41629600  0.45388900  1
  C  C60  1  0.29885900  0.34136100  0.14275400  1
  C  C61  1  0.02216800  0.13929700  0.20923000  1
  C  C62  1  0.79110400  0.87078300  0.96820600  1
  C  C63  1  0.41629600  0.25480300  0.95388900  1
  C  C64  1  0.46217600  0.07081000  0.38980800  1
  C  C65  1  0.02634400  0.64186500  0.20423400  1
  C  C66  1  0.70114100  0.65863900  0.85724600  1
  C  C67  1  0.63629400  0.13787200  0.20714100  1
  C  C68  1  0.92450100  0.93260100  0.10847100  1
  C  C69  1  0.35813500  0.97365600  0.29576600  1
  C  C70  1  0.18934400  0.63460500  0.04710500  1
  C  C71  1  0.30264300  0.63893000  0.90229200  1
  C  C72  1  0.41933100  0.86395400  0.95496700  1
  C  C73  1  0.13604600  0.58066900  0.54503300  1
  C  C74  1  0.26880300  0.70515100  0.35794800  1
  C  C75  1  0.63893000  0.30264300  0.40229200  1
  C  C76  1  0.90573000  0.53057900  0.65557600  1
  C  C77  1  0.86395400  0.41933100  0.45496700  1
  C  C78  1  0.47737400  0.36345000  0.28989500  1
  C  C79  1  0.69735700  0.36107000  0.09770800  1
  C  C80  1  0.70515100  0.26880300  0.85794800  1
  C  C81  1  0.93260100  0.92450100  0.60847100  1
  C  C82  1  0.20889600  0.12921700  0.03179400  1
  C  C83  1  0.65863900  0.70114100  0.35724600  1
  C  C84  1  0.87078300  0.79110400  0.46820600  1
  C  C85  1  0.58066900  0.13604600  0.04503300  1
  C  C86  1  0.36345000  0.47737400  0.78989500  1
  C  C87  1  0.07549900  0.06739900  0.89152900  1
