# generated using pymatgen
data_Cu(NiC6)2
_symmetry_space_group_name_H-M   'P 1'
_cell_length_a   14.63494573
_cell_length_b   14.63494573
_cell_length_c   3.97244700
_cell_angle_alpha   90.00000000
_cell_angle_beta   90.00000000
_cell_angle_gamma   165.24477229
_symmetry_Int_Tables_number   1
_chemical_formula_structural   Cu(NiC6)2
_chemical_formula_sum   'Cu1 Ni2 C12'
_cell_volume   216.69682434
_cell_formula_units_Z   1
loop_
 _symmetry_equiv_pos_site_id
 _symmetry_equiv_pos_as_xyz
  1  'x, y, z'
loop_
 _atom_site_type_symbol
 _atom_site_label
 _atom_site_symmetry_multiplicity
 _atom_site_fract_x
 _atom_site_fract_y
 _atom_site_fract_z
 _atom_site_occupancy
  Ni  Ni0  1  0.35883700  0.64116300  0.50000000  1
  Ni  Ni1  1  0.64116300  0.35883700  0.50000000  1
  Cu  Cu2  1  0.00000000  0.00000000  0.50000000  1
  C  C3  1  0.92563400  0.07436600  0.00000000  1
  C  C4  1  0.07436600  0.92563400  0.00000000  1
  C  C5  1  0.78667300  0.21332700  0.00000000  1
  C  C6  1  0.21332700  0.78667300  0.00000000  1
  C  C7  1  0.85112000  0.14888000  0.00000000  1
  C  C8  1  0.14888000  0.85112000  0.00000000  1
  C  C9  1  0.45556600  0.54443400  0.00000000  1
  C  C10  1  0.54443400  0.45556600  0.00000000  1
  C  C11  1  0.92502300  0.07497700  0.50000000  1
  C  C12  1  0.07497700  0.92502300  0.50000000  1
  C  C13  1  0.27922800  0.72077200  0.00000000  1
  C  C14  1  0.72077200  0.27922800  0.00000000  1
