# generated using pymatgen
data_Cu6Ni2C
_symmetry_space_group_name_H-M   'P 1'
_cell_length_a   5.13316500
_cell_length_b   8.35759200
_cell_length_c   11.29452300
_cell_angle_alpha   90.00000000
_cell_angle_beta   90.00000000
_cell_angle_gamma   90.00000000
_symmetry_Int_Tables_number   1
_chemical_formula_structural   Cu6Ni2C
_chemical_formula_sum   'Cu24 Ni8 C4'
_cell_volume   484.54518752
_cell_formula_units_Z   4
loop_
 _symmetry_equiv_pos_site_id
 _symmetry_equiv_pos_as_xyz
  1  'x, y, z'
loop_
 _atom_site_type_symbol
 _atom_site_label
 _atom_site_symmetry_multiplicity
 _atom_site_fract_x
 _atom_site_fract_y
 _atom_site_fract_z
 _atom_site_occupancy
  C  C0  1  0.76721500  0.24626500  0.74872000  1
  C  C1  1  0.76721500  0.24626500  0.25128000  1
  C  C2  1  0.23278500  0.74626500  0.75128000  1
  C  C3  1  0.23278500  0.74626500  0.24872000  1
  Ni  Ni4  1  0.77885000  0.29068500  0.50000000  1
  Ni  Ni5  1  0.22115000  0.79068500  0.00000000  1
  Ni  Ni6  1  0.22493000  0.41299700  0.78607200  1
  Ni  Ni7  1  0.23223400  0.71697900  0.50000000  1
  Ni  Ni8  1  0.22493000  0.41299700  0.21392800  1
  Ni  Ni9  1  0.77507000  0.91299700  0.71392800  1
  Ni  Ni10  1  0.76776600  0.21697900  0.00000000  1
  Ni  Ni11  1  0.77507000  0.91299700  0.28607200  1
  Cu  Cu12  1  0.16096200  0.64481400  0.40443100  1
  Cu  Cu13  1  0.97997900  0.44459500  0.21733300  1
  Cu  Cu14  1  0.97997900  0.44459500  0.78266700  1
  Cu  Cu15  1  0.67009800  0.34246400  0.59535900  1
  Cu  Cu16  1  0.64590600  0.34335600  0.00000000  1
  Cu  Cu17  1  0.02002100  0.94459500  0.28266700  1
  Cu  Cu18  1  0.67009800  0.34246400  0.40464100  1
  Cu  Cu19  1  0.38290100  0.52941000  0.79931400  1
  Cu  Cu20  1  0.61709900  0.02941000  0.29931400  1
  Cu  Cu21  1  0.61709900  0.02941000  0.70068600  1
  Cu  Cu22  1  0.38290100  0.52941000  0.20068600  1
  Cu  Cu23  1  0.83903800  0.14481400  0.90443100  1
  Cu  Cu24  1  0.02002100  0.94459500  0.71733300  1
  Cu  Cu25  1  0.35409400  0.84335600  0.50000000  1
  Cu  Cu26  1  0.16096200  0.64481400  0.59556900  1
  Cu  Cu27  1  0.96809700  0.20050000  0.50000000  1
  Cu  Cu28  1  0.32990200  0.84246400  0.90464100  1
  Cu  Cu29  1  0.83903800  0.14481400  0.09556900  1
  Cu  Cu30  1  0.30543000  0.27352500  0.22346300  1
  Cu  Cu31  1  0.03190300  0.70050000  0.00000000  1
  Cu  Cu32  1  0.30543000  0.27352500  0.77653700  1
  Cu  Cu33  1  0.32990200  0.84246400  0.09535900  1
  Cu  Cu34  1  0.69457000  0.77352500  0.27653700  1
  Cu  Cu35  1  0.69457000  0.77352500  0.72346300  1
