# generated using pymatgen
data_Cu10Ni3C67
_symmetry_space_group_name_H-M   'P 1'
_cell_length_a   9.78839900
_cell_length_b   9.81626166
_cell_length_c   14.39117959
_cell_angle_alpha   90.31765073
_cell_angle_beta   90.27891591
_cell_angle_gamma   119.45820512
_symmetry_Int_Tables_number   1
_chemical_formula_structural   Cu10Ni3C67
_chemical_formula_sum   'Cu10 Ni3 C67'
_cell_volume   1203.94555647
_cell_formula_units_Z   1
loop_
 _symmetry_equiv_pos_site_id
 _symmetry_equiv_pos_as_xyz
  1  'x, y, z'
loop_
 _atom_site_type_symbol
 _atom_site_label
 _atom_site_symmetry_multiplicity
 _atom_site_fract_x
 _atom_site_fract_y
 _atom_site_fract_z
 _atom_site_occupancy
  C  C0  1  0.66557100  0.32765400  0.49714000  1
  C  C1  1  0.66542500  0.32599600  0.99831200  1
  C  C2  1  0.26666900  0.26148900  0.86628300  1
  C  C3  1  0.32604400  0.64940400  0.25821600  1
  C  C4  1  0.33841000  0.66315900  0.73764000  1
  C  C5  1  0.32458300  0.65097700  0.50428700  1
  C  C6  1  0.27191600  0.28005600  0.38824100  1
  Ni  Ni7  1  0.64508900  0.32604000  0.25618300  1
  Ni  Ni8  1  0.64295600  0.32440700  0.75582600  1
  Ni  Ni9  1  0.30737700  0.63242100  0.00365000  1
  C  C10  1  0.60856700  0.01289700  0.12110500  1
  C  C11  1  0.61982900  0.02103600  0.62371700  1
  C  C12  1  0.40265900  0.37156400  0.12112800  1
  C  C13  1  0.39723800  0.36781300  0.62688700  1
  C  C14  1  0.01177500  0.38726700  0.36991300  1
  C  C15  1  0.02099300  0.39818700  0.87507700  1
  C  C16  1  0.96536200  0.58097300  0.12297400  1
  C  C17  1  0.96859600  0.59320000  0.62478500  1
  C  C18  1  0.59478400  0.62093200  0.37077000  1
  C  C19  1  0.58238900  0.61324200  0.87552700  1
  C  C20  1  0.37210300  0.97403600  0.36979500  1
  C  C21  1  0.37065700  0.97368000  0.87374600  1
  Cu  Cu22  1  0.73492800  0.99197800  0.37760300  1
  Cu  Cu23  1  0.72489700  0.98380500  0.86764600  1
  Cu  Cu24  1  0.98039100  0.23911500  0.12934400  1
  Cu  Cu25  1  0.00274300  0.26251100  0.61669400  1
  Cu  Cu26  1  0.99350000  0.72688700  0.86756700  1
  Cu  Cu27  1  0.99977000  0.73313600  0.37634600  1
  Cu  Cu28  1  0.24845800  0.99943600  0.12088900  1
  Cu  Cu29  1  0.25385800  0.98645900  0.61608800  1
  Cu  Cu30  1  0.74238400  0.73718300  0.12372400  1
  Cu  Cu31  1  0.72741700  0.73270800  0.61662900  1
  C  C32  1  0.32915200  0.25095300  0.04117300  1
  C  C33  1  0.31353400  0.23819500  0.55174300  1
  C  C34  1  0.37172200  0.28289200  0.21547200  1
  C  C35  1  0.38899100  0.28443700  0.72243300  1
  C  C36  1  0.51583700  0.10673500  0.12857800  1
  C  C37  1  0.52666000  0.11552500  0.62114600  1
  C  C38  1  0.48610700  0.15513700  0.36738800  1
  C  C39  1  0.49569800  0.15192900  0.87432000  1
  C  C40  1  0.71498600  0.06998200  0.03425500  1
  C  C41  1  0.72203200  0.06938200  0.20754200  1
  C  C42  1  0.73769900  0.07590800  0.54125400  1
  C  C43  1  0.72422200  0.08466800  0.71358800  1
  C  C44  1  0.58742000  0.46619400  0.11307900  1
  C  C45  1  0.58043500  0.46188800  0.60806000  1
  C  C46  1  0.84470500  0.35155100  0.87647000  1
  C  C47  1  0.83033800  0.32862900  0.36582700  1
  C  C48  1  0.64778600  0.49644000  0.87015300  1
  C  C49  1  0.65948500  0.50158800  0.36695300  1
  C  C50  1  0.86689500  0.39701600  0.12388200  1
  C  C51  1  0.87651000  0.40971300  0.61491500  1
  C  C52  1  0.06848600  0.34313100  0.28038300  1
  C  C53  1  0.05505000  0.29933500  0.80689300  1
  C  C54  1  0.04899500  0.30912800  0.45211900  1
  C  C55  1  0.08325500  0.38807800  0.97550200  1
  C  C56  1  0.92065900  0.66642000  0.54329900  1
  C  C57  1  0.91933800  0.64514800  0.03740100  1
  C  C58  1  0.91215200  0.63674900  0.21059800  1
  C  C59  1  0.89611100  0.62734800  0.71407600  1
  C  C60  1  0.10407600  0.56960000  0.38324000  1
  C  C61  1  0.12253300  0.58108000  0.85570400  1
  C  C62  1  0.33826600  0.48907900  0.12097500  1
  C  C63  1  0.32655200  0.47577400  0.63088100  1
  C  C64  1  0.14386600  0.63752600  0.12456900  1
  C  C65  1  0.14530200  0.65835200  0.62912400  1
  C  C66  1  0.41866700  0.53978400  0.38562300  1
  C  C67  1  0.40141600  0.52374500  0.88734100  1
  C  C68  1  0.26420000  0.91223200  0.28283400  1
  C  C69  1  0.25817300  0.93426800  0.45364900  1
  C  C70  1  0.24166200  0.94047800  0.79981200  1
  C  C71  1  0.28493800  0.91600500  0.96846800  1
  C  C72  1  0.49671000  0.83482700  0.12061500  1
  C  C73  1  0.50789400  0.84530000  0.62098700  1
  C  C74  1  0.46685200  0.88630900  0.38109800  1
  C  C75  1  0.45405200  0.87570500  0.85441600  1
  C  C76  1  0.64357900  0.72318900  0.28155100  1
  C  C77  1  0.63038500  0.71809900  0.78800000  1
  C  C78  1  0.65262300  0.72628600  0.96089200  1
  C  C79  1  0.68465100  0.74061500  0.45198400  1
