# generated using pymatgen
data_Cu2Ni4C3
_symmetry_space_group_name_H-M   'P 1'
_cell_length_a   5.76611400
_cell_length_b   5.76611400
_cell_length_c   4.93644700
_cell_angle_alpha   90.00000000
_cell_angle_beta   90.00000000
_cell_angle_gamma   90.00000000
_symmetry_Int_Tables_number   1
_chemical_formula_structural   Cu2Ni4C3
_chemical_formula_sum   'Cu4 Ni8 C6'
_cell_volume   164.12733867
_cell_formula_units_Z   2
loop_
 _symmetry_equiv_pos_site_id
 _symmetry_equiv_pos_as_xyz
  1  'x, y, z'
loop_
 _atom_site_type_symbol
 _atom_site_label
 _atom_site_symmetry_multiplicity
 _atom_site_fract_x
 _atom_site_fract_y
 _atom_site_fract_z
 _atom_site_occupancy
  Ni  Ni0  1  0.35518900  0.51901000  0.37870900  1
  Ni  Ni1  1  0.85518900  0.98099000  0.62129100  1
  Ni  Ni2  1  0.64481100  0.48099000  0.37870900  1
  Ni  Ni3  1  0.14481100  0.01901000  0.62129100  1
  Ni  Ni4  1  0.51901000  0.64481100  0.62129100  1
  Ni  Ni5  1  0.01901000  0.85518900  0.37870900  1
  Ni  Ni6  1  0.48099000  0.35518900  0.62129100  1
  Ni  Ni7  1  0.98099000  0.14481100  0.37870900  1
  Cu  Cu8  1  0.50000000  0.50000000  0.50000000  1
  Cu  Cu9  1  0.00000000  0.00000000  0.50000000  1
  Cu  Cu10  1  0.50000000  0.00000000  0.02180800  1
  Cu  Cu11  1  0.00000000  0.50000000  0.97819200  1
  C  C12  1  0.50000000  0.00000000  0.27694000  1
  C  C13  1  0.00000000  0.50000000  0.72306000  1
  C  C14  1  0.86420900  0.36420900  0.10668600  1
  C  C15  1  0.36420900  0.13579100  0.89331400  1
  C  C16  1  0.13579100  0.63579100  0.10668600  1
  C  C17  1  0.63579100  0.86420900  0.89331400  1
