# generated using pymatgen
data_Cu13(Ni11C3)2
_symmetry_space_group_name_H-M   'P 1'
_cell_length_a   14.51855920
_cell_length_b   14.51855920
_cell_length_c   15.14148840
_cell_angle_alpha   67.88961902
_cell_angle_beta   67.88961902
_cell_angle_gamma   17.84248726
_symmetry_Int_Tables_number   1
_chemical_formula_structural   Cu13(Ni11C3)2
_chemical_formula_sum   'Cu13 Ni22 C6'
_cell_volume   904.16579101
_cell_formula_units_Z   1
loop_
 _symmetry_equiv_pos_site_id
 _symmetry_equiv_pos_as_xyz
  1  'x, y, z'
loop_
 _atom_site_type_symbol
 _atom_site_label
 _atom_site_symmetry_multiplicity
 _atom_site_fract_x
 _atom_site_fract_y
 _atom_site_fract_z
 _atom_site_occupancy
  C  C0  1  0.45361200  0.45361200  0.69880900  1
  C  C1  1  0.83722100  0.83722100  0.53004200  1
  C  C2  1  0.54638800  0.54638800  0.30119100  1
  C  C3  1  0.16277900  0.16277900  0.46995800  1
  C  C4  1  0.82175600  0.82175600  0.08006500  1
  C  C5  1  0.17824400  0.17824400  0.91993500  1
  Ni  Ni6  1  0.32605900  0.32605900  0.71969000  1
  Ni  Ni7  1  0.87591300  0.87591300  0.83106300  1
  Ni  Ni8  1  0.67394100  0.67394100  0.28031000  1
  Ni  Ni9  1  0.43534200  0.43534200  0.50240400  1
  Ni  Ni10  1  0.85740400  0.85740400  0.28191900  1
  Ni  Ni11  1  0.72797300  0.72797300  0.75172400  1
  Ni  Ni12  1  0.23741300  0.23741300  0.08381300  1
  Ni  Ni13  1  0.40828300  0.40828300  0.95252400  1
  Ni  Ni14  1  0.05552200  0.05552200  0.93624400  1
  Ni  Ni15  1  0.95690700  0.95690700  0.33973400  1
  Ni  Ni16  1  0.76258700  0.76258700  0.91618700  1
  Ni  Ni17  1  0.71280100  0.71280100  0.56529800  1
  Ni  Ni18  1  0.56465800  0.56465800  0.49759600  1
  Ni  Ni19  1  0.28719900  0.28719900  0.43470200  1
  Ni  Ni20  1  0.27202700  0.27202700  0.24827600  1
  Ni  Ni21  1  0.94447800  0.94447800  0.06375600  1
  Ni  Ni22  1  0.59171700  0.59171700  0.04747600  1
  Ni  Ni23  1  0.52948700  0.52948700  0.82098000  1
  Ni  Ni24  1  0.12408700  0.12408700  0.16893700  1
  Ni  Ni25  1  0.47051300  0.47051300  0.17902000  1
  Ni  Ni26  1  0.14259600  0.14259600  0.71808100  1
  Ni  Ni27  1  0.04309300  0.04309300  0.66026600  1
  Cu  Cu28  1  0.61930000  0.61930000  0.84851400  1
  Cu  Cu29  1  0.90109800  0.90109800  0.63571300  1
  Cu  Cu30  1  0.03279300  0.03279300  0.13914900  1
  Cu  Cu31  1  0.39271400  0.39271400  0.36295200  1
  Cu  Cu32  1  0.09890200  0.09890200  0.36428700  1
  Cu  Cu33  1  0.25165900  0.25165900  0.63615800  1
  Cu  Cu34  1  0.00000000  0.00000000  0.50000000  1
  Cu  Cu35  1  0.32054900  0.32054900  0.91207300  1
  Cu  Cu36  1  0.67945100  0.67945100  0.08792700  1
  Cu  Cu37  1  0.38070000  0.38070000  0.15148600  1
  Cu  Cu38  1  0.96720700  0.96720700  0.86085100  1
  Cu  Cu39  1  0.74834100  0.74834100  0.36384200  1
  Cu  Cu40  1  0.60728600  0.60728600  0.63704800  1
