# generated using pymatgen
data_CuNi4C3
_symmetry_space_group_name_H-M   'P 1'
_cell_length_a   7.93481800
_cell_length_b   14.51094500
_cell_length_c   16.22736434
_cell_angle_alpha   69.02919535
_cell_angle_beta   90.00000000
_cell_angle_gamma   90.00000000
_symmetry_Int_Tables_number   1
_chemical_formula_structural   CuNi4C3
_chemical_formula_sum   'Cu8 Ni32 C24'
_cell_volume   1744.68599071
_cell_formula_units_Z   8
loop_
 _symmetry_equiv_pos_site_id
 _symmetry_equiv_pos_as_xyz
  1  'x, y, z'
loop_
 _atom_site_type_symbol
 _atom_site_label
 _atom_site_symmetry_multiplicity
 _atom_site_fract_x
 _atom_site_fract_y
 _atom_site_fract_z
 _atom_site_occupancy
  C  C0  1  0.28511200  0.45777200  0.09055800  1
  C  C1  1  0.89468100  0.88338800  0.96356800  1
  C  C2  1  0.71488800  0.54222800  0.90944200  1
  C  C3  1  0.39468100  0.11661200  0.53643200  1
  C  C4  1  0.21488800  0.45777200  0.59055800  1
  C  C5  1  0.10531900  0.11661200  0.03643200  1
  C  C6  1  0.60531900  0.88338800  0.46356800  1
  C  C7  1  0.78511200  0.54222800  0.40944200  1
  C  C8  1  0.22619200  0.68309000  0.23583500  1
  C  C9  1  0.96230000  0.84163600  0.71443800  1
  C  C10  1  0.72619200  0.31691000  0.26416500  1
  C  C11  1  0.22005200  0.80815100  0.78971900  1
  C  C12  1  0.98208800  0.28221700  0.34217300  1
  C  C13  1  0.77994800  0.19184900  0.21028100  1
  C  C14  1  0.72005200  0.19184900  0.71028100  1
  C  C15  1  0.01791200  0.71778300  0.65782700  1
  C  C16  1  0.27994800  0.80815100  0.28971900  1
  C  C17  1  0.46230000  0.15836400  0.78556200  1
  C  C18  1  0.27380800  0.68309000  0.73583500  1
  C  C19  1  0.77380800  0.31691000  0.76416500  1
  C  C20  1  0.53770000  0.84163600  0.21443800  1
  C  C21  1  0.51791200  0.28221700  0.84217300  1
  C  C22  1  0.03770000  0.15836400  0.28556200  1
  C  C23  1  0.48208800  0.71778300  0.15782700  1
  Ni  Ni24  1  0.65616200  0.52806700  0.05929900  1
  Ni  Ni25  1  0.83352300  0.07311000  0.99369100  1
  Ni  Ni26  1  0.34383800  0.47193300  0.94070100  1
  Ni  Ni27  1  0.46633300  0.01039800  0.68661300  1
  Ni  Ni28  1  0.83905800  0.81031600  0.12091900  1
  Ni  Ni29  1  0.15616200  0.47193300  0.44070100  1
  Ni  Ni30  1  0.53366700  0.98960200  0.31338700  1
  Ni  Ni31  1  0.25235000  0.63227400  0.53955000  1
  Ni  Ni32  1  0.96633300  0.98960200  0.81338700  1
  Ni  Ni33  1  0.89448700  0.90924500  0.43599900  1
  Ni  Ni34  1  0.39448700  0.09075500  0.06400100  1
  Ni  Ni35  1  0.84383800  0.52806700  0.55929900  1
  Ni  Ni36  1  0.33352300  0.92689000  0.50630900  1
  Ni  Ni37  1  0.16094200  0.18968400  0.87908100  1
  Ni  Ni38  1  0.57290100  0.70045100  0.86002400  1
  Ni  Ni39  1  0.66094200  0.81031600  0.62091900  1
  Ni  Ni40  1  0.10551300  0.09075500  0.56400100  1
  Ni  Ni41  1  0.16647700  0.92689000  0.00630900  1
  Ni  Ni42  1  0.74765000  0.36772600  0.46045000  1
  Ni  Ni43  1  0.35247200  0.46630600  0.23105000  1
  Ni  Ni44  1  0.03366700  0.01039800  0.18661300  1
  Ni  Ni45  1  0.60551300  0.90924500  0.93599900  1
  Ni  Ni46  1  0.42709900  0.29954900  0.13997600  1
  Ni  Ni47  1  0.92709900  0.70045100  0.36002400  1
  Ni  Ni48  1  0.33905800  0.18968400  0.37908100  1
  Ni  Ni49  1  0.07290100  0.29954900  0.63997600  1
  Ni  Ni50  1  0.66647700  0.07311000  0.49369100  1
  Ni  Ni51  1  0.24765000  0.63227400  0.03955000  1
  Ni  Ni52  1  0.64752800  0.53369400  0.76895000  1
  Ni  Ni53  1  0.75235000  0.36772600  0.96045000  1
  Ni  Ni54  1  0.14752800  0.46630600  0.73105000  1
  Ni  Ni55  1  0.85247200  0.53369400  0.26895000  1
  Cu  Cu56  1  0.91713400  0.58178700  0.89495200  1
  Cu  Cu57  1  0.08286600  0.41821300  0.10504800  1
  Cu  Cu58  1  0.06950000  0.22396500  0.05291600  1
  Cu  Cu59  1  0.56950000  0.77603500  0.44708400  1
  Cu  Cu60  1  0.41713400  0.41821300  0.60504800  1
  Cu  Cu61  1  0.93050000  0.77603500  0.94708400  1
  Cu  Cu62  1  0.58286600  0.58178700  0.39495200  1
  Cu  Cu63  1  0.43050000  0.22396500  0.55291600  1
