# generated using pymatgen
data_CuNiC6
_symmetry_space_group_name_H-M   'P 1'
_cell_length_a   5.39074854
_cell_length_b   5.39074854
_cell_length_c   7.03941995
_cell_angle_alpha   75.09494023
_cell_angle_beta   75.09494023
_cell_angle_gamma   105.48565043
_symmetry_Int_Tables_number   1
_chemical_formula_structural   CuNiC6
_chemical_formula_sum   'Cu2 Ni2 C12'
_cell_volume   178.46154050
_cell_formula_units_Z   2
loop_
 _symmetry_equiv_pos_site_id
 _symmetry_equiv_pos_as_xyz
  1  'x, y, z'
loop_
 _atom_site_type_symbol
 _atom_site_label
 _atom_site_symmetry_multiplicity
 _atom_site_fract_x
 _atom_site_fract_y
 _atom_site_fract_z
 _atom_site_occupancy
  C  C0  1  0.83563300  0.16436700  0.75000000  1
  C  C1  1  0.16436700  0.83563300  0.25000000  1
  Ni  Ni2  1  0.50000000  0.50000000  0.00000000  1
  Ni  Ni3  1  0.50000000  0.50000000  0.50000000  1
  Cu  Cu4  1  0.18546300  0.81453700  0.75000000  1
  Cu  Cu5  1  0.81453700  0.18546300  0.25000000  1
  C  C6  1  0.19752000  0.60879300  0.61120200  1
  C  C7  1  0.39120700  0.80248000  0.88879800  1
  C  C8  1  0.80248000  0.39120700  0.38879800  1
  C  C9  1  0.60879300  0.19752000  0.11120200  1
  C  C10  1  0.26075600  0.13172900  0.59499300  1
  C  C11  1  0.73924400  0.86827100  0.40500700  1
  C  C12  1  0.86827100  0.73924400  0.90500700  1
  C  C13  1  0.13172900  0.26075600  0.09499300  1
  C  C14  1  0.56777800  0.43222200  0.75000000  1
  C  C15  1  0.43222200  0.56777800  0.25000000  1
