# generated using pymatgen
data_CuNi2C13
_symmetry_space_group_name_H-M   'P 1'
_cell_length_a   10.67105200
_cell_length_b   4.05603900
_cell_length_c   8.06411751
_cell_angle_alpha   81.45545312
_cell_angle_beta   90.00000000
_cell_angle_gamma   90.00000000
_symmetry_Int_Tables_number   1
_chemical_formula_structural   CuNi2C13
_chemical_formula_sum   'Cu2 Ni4 C26'
_cell_volume   345.15873281
_cell_formula_units_Z   2
loop_
 _symmetry_equiv_pos_site_id
 _symmetry_equiv_pos_as_xyz
  1  'x, y, z'
loop_
 _atom_site_type_symbol
 _atom_site_label
 _atom_site_symmetry_multiplicity
 _atom_site_fract_x
 _atom_site_fract_y
 _atom_site_fract_z
 _atom_site_occupancy
  C  C0  1  0.75000000  0.43235800  0.54562600  1
  C  C1  1  0.25000000  0.56764200  0.45437400  1
  C  C2  1  0.00000000  0.50000000  0.00000000  1
  C  C3  1  0.50000000  0.50000000  0.00000000  1
  C  C4  1  0.17058800  0.97815600  0.98898700  1
  C  C5  1  0.67058800  0.02184400  0.01101300  1
  C  C6  1  0.82941200  0.02184400  0.01101300  1
  C  C7  1  0.32941200  0.97815600  0.98898700  1
  C  C8  1  0.25000000  0.31227400  0.89773400  1
  C  C9  1  0.75000000  0.68772600  0.10226600  1
  C  C10  1  0.25000000  0.22655600  0.10807800  1
  C  C11  1  0.75000000  0.77344400  0.89192200  1
  Ni  Ni12  1  0.00978200  0.70174400  0.68996400  1
  Ni  Ni13  1  0.50978200  0.29825600  0.31003600  1
  Ni  Ni14  1  0.99021800  0.29825600  0.31003600  1
  Ni  Ni15  1  0.49021800  0.70174400  0.68996400  1
  Cu  Cu16  1  0.25000000  0.12361300  0.99777900  1
  Cu  Cu17  1  0.75000000  0.87638700  0.00222100  1
  C  C18  1  0.11695200  0.41826400  0.62963900  1
  C  C19  1  0.61695200  0.58173600  0.37036100  1
  C  C20  1  0.88304800  0.58173600  0.37036100  1
  C  C21  1  0.38304800  0.41826400  0.62963900  1
  C  C22  1  0.87583300  0.45694800  0.72938300  1
  C  C23  1  0.37583300  0.54305200  0.27061700  1
  C  C24  1  0.12416700  0.54305200  0.27061700  1
  C  C25  1  0.62416700  0.45694800  0.72938300  1
  C  C26  1  0.05459800  0.70015000  0.89773500  1
  C  C27  1  0.55459800  0.29985000  0.10226500  1
  C  C28  1  0.94540200  0.29985000  0.10226500  1
  C  C29  1  0.44540200  0.70015000  0.89773500  1
  C  C30  1  0.75000000  0.02108000  0.53857900  1
  C  C31  1  0.25000000  0.97892000  0.46142100  1
