# generated using pymatgen
data_Cu9Ni9C2
_symmetry_space_group_name_H-M   'P 1'
_cell_length_a   6.44716194
_cell_length_b   6.44716194
_cell_length_c   16.13669500
_cell_angle_alpha   90.00000000
_cell_angle_beta   90.00000000
_cell_angle_gamma   119.99999934
_symmetry_Int_Tables_number   1
_chemical_formula_structural   Cu9Ni9C2
_chemical_formula_sum   'Cu18 Ni18 C4'
_cell_volume   580.87459463
_cell_formula_units_Z   2
loop_
 _symmetry_equiv_pos_site_id
 _symmetry_equiv_pos_as_xyz
  1  'x, y, z'
loop_
 _atom_site_type_symbol
 _atom_site_label
 _atom_site_symmetry_multiplicity
 _atom_site_fract_x
 _atom_site_fract_y
 _atom_site_fract_z
 _atom_site_occupancy
  C  C0  1  0.66666700  0.33333300  0.82827200  1
  C  C1  1  0.33333300  0.66666700  0.32827200  1
  C  C2  1  0.33333300  0.66666700  0.17172800  1
  C  C3  1  0.66666700  0.33333300  0.67172800  1
  Ni  Ni4  1  0.66198900  0.57326200  0.88604700  1
  Ni  Ni5  1  0.66198900  0.57326200  0.61395300  1
  Ni  Ni6  1  0.33801100  0.42673800  0.38604700  1
  Ni  Ni7  1  0.91127400  0.33801100  0.61395300  1
  Ni  Ni8  1  0.08872600  0.66198900  0.11395300  1
  Ni  Ni9  1  0.08872600  0.66198900  0.38604700  1
  Ni  Ni10  1  0.33194700  0.90770800  0.25000000  1
  Ni  Ni11  1  0.57576100  0.66805300  0.25000000  1
  Ni  Ni12  1  0.66805300  0.09229200  0.75000000  1
  Ni  Ni13  1  0.57326200  0.91127400  0.38604700  1
  Ni  Ni14  1  0.57326200  0.91127400  0.11395300  1
  Ni  Ni15  1  0.90770800  0.57576100  0.75000000  1
  Ni  Ni16  1  0.91127400  0.33801100  0.88604700  1
  Ni  Ni17  1  0.33801100  0.42673800  0.11395300  1
  Ni  Ni18  1  0.42673800  0.08872600  0.61395300  1
  Ni  Ni19  1  0.42673800  0.08872600  0.88604700  1
  Ni  Ni20  1  0.09229200  0.42423900  0.25000000  1
  Ni  Ni21  1  0.42423900  0.33194700  0.75000000  1
  Cu  Cu22  1  0.34412300  0.28025800  0.07429500  1
  Cu  Cu23  1  0.24072100  0.33102800  0.75000000  1
  Cu  Cu24  1  0.06386600  0.34412300  0.57429500  1
  Cu  Cu25  1  0.09030700  0.75927900  0.75000000  1
  Cu  Cu26  1  0.90969300  0.24072100  0.25000000  1
  Cu  Cu27  1  0.93613400  0.65587700  0.07429500  1
  Cu  Cu28  1  0.65587700  0.71974200  0.92570500  1
  Cu  Cu29  1  0.71974200  0.06386600  0.42570500  1
  Cu  Cu30  1  0.28025800  0.93613400  0.57429500  1
  Cu  Cu31  1  0.34412300  0.28025800  0.42570500  1
  Cu  Cu32  1  0.66897200  0.90969300  0.75000000  1
  Cu  Cu33  1  0.28025800  0.93613400  0.92570500  1
  Cu  Cu34  1  0.65587700  0.71974200  0.57429500  1
  Cu  Cu35  1  0.93613400  0.65587700  0.42570500  1
  Cu  Cu36  1  0.71974200  0.06386600  0.07429500  1
  Cu  Cu37  1  0.06386600  0.34412300  0.92570500  1
  Cu  Cu38  1  0.33102800  0.09030700  0.25000000  1
  Cu  Cu39  1  0.75927900  0.66897200  0.25000000  1
