# generated using pymatgen
data_Cu3Ni3C5
_symmetry_space_group_name_H-M   'P 1'
_cell_length_a   4.10727800
_cell_length_b   12.07062700
_cell_length_c   22.30534881
_cell_angle_alpha   58.78445234
_cell_angle_beta   90.00000000
_cell_angle_gamma   90.00000000
_symmetry_Int_Tables_number   1
_chemical_formula_structural   Cu3Ni3C5
_chemical_formula_sum   'Cu12 Ni12 C20'
_cell_volume   945.74195152
_cell_formula_units_Z   4
loop_
 _symmetry_equiv_pos_site_id
 _symmetry_equiv_pos_as_xyz
  1  'x, y, z'
loop_
 _atom_site_type_symbol
 _atom_site_label
 _atom_site_symmetry_multiplicity
 _atom_site_fract_x
 _atom_site_fract_y
 _atom_site_fract_z
 _atom_site_occupancy
  C  C0  1  0.21085300  0.40524300  0.19017300  1
  C  C1  1  0.78914700  0.59475700  0.80982700  1
  C  C2  1  0.28914700  0.40524300  0.69017300  1
  C  C3  1  0.71085300  0.59475700  0.30982700  1
  C  C4  1  0.71051700  0.85516200  0.96027500  1
  C  C5  1  0.78948300  0.85516200  0.46027500  1
  C  C6  1  0.21051700  0.14483800  0.53972500  1
  C  C7  1  0.28948300  0.14483800  0.03972500  1
  Ni  Ni8  1  0.75353000  0.09720600  0.30191800  1
  Ni  Ni9  1  0.75594700  0.35882400  0.55589300  1
  Ni  Ni10  1  0.24647000  0.90279400  0.69808200  1
  Ni  Ni11  1  0.73212800  0.71607500  0.12690800  1
  Ni  Ni12  1  0.23212800  0.28392500  0.37309200  1
  Ni  Ni13  1  0.26787200  0.28392500  0.87309200  1
  Ni  Ni14  1  0.25353000  0.90279400  0.19808200  1
  Ni  Ni15  1  0.74405300  0.35882400  0.05589300  1
  Ni  Ni16  1  0.24405300  0.64117600  0.44410700  1
  Ni  Ni17  1  0.76787200  0.71607500  0.62690800  1
  Ni  Ni18  1  0.25594700  0.64117600  0.94410700  1
  Ni  Ni19  1  0.74647000  0.09720600  0.80191800  1
  C  C20  1  0.28244200  0.66912000  0.50908900  1
  C  C21  1  0.26556700  0.12695300  0.43189600  1
  C  C22  1  0.21755800  0.66912000  0.00908900  1
  C  C23  1  0.84179100  0.94287400  0.33209900  1
  C  C24  1  0.23443300  0.12695300  0.93189600  1
  C  C25  1  0.65820900  0.94287400  0.83209900  1
  C  C26  1  0.34179100  0.05712600  0.16790100  1
  C  C27  1  0.15820900  0.05712600  0.66790100  1
  C  C28  1  0.76556700  0.87304700  0.06810400  1
  C  C29  1  0.73443300  0.87304700  0.56810400  1
  C  C30  1  0.71755800  0.33088000  0.49091100  1
  C  C31  1  0.78244200  0.33088000  0.99091100  1
  Cu  Cu32  1  0.29155200  0.39538000  0.83065400  1
  Cu  Cu33  1  0.20844800  0.39538000  0.33065400  1
  Cu  Cu34  1  0.69609500  0.20856900  0.27641700  1
  Cu  Cu35  1  0.30390500  0.79143100  0.72358300  1
  Cu  Cu36  1  0.19609500  0.79143100  0.22358300  1
  Cu  Cu37  1  0.80390500  0.20856900  0.77641700  1
  Cu  Cu38  1  0.70844800  0.60462000  0.16934600  1
  Cu  Cu39  1  0.28665200  0.62079100  0.89827100  1
  Cu  Cu40  1  0.21334800  0.62079100  0.39827100  1
  Cu  Cu41  1  0.79155200  0.60462000  0.66934600  1
  Cu  Cu42  1  0.78665200  0.37920900  0.60172900  1
  Cu  Cu43  1  0.71334800  0.37920900  0.10172900  1
