# generated using pymatgen
data_Cu6Ni2C7
_symmetry_space_group_name_H-M   'P 1'
_cell_length_a   6.79015400
_cell_length_b   8.40244300
_cell_length_c   12.75898800
_cell_angle_alpha   90.00000000
_cell_angle_beta   90.00000000
_cell_angle_gamma   90.00000000
_symmetry_Int_Tables_number   1
_chemical_formula_structural   Cu6Ni2C7
_chemical_formula_sum   'Cu24 Ni8 C28'
_cell_volume   727.94979511
_cell_formula_units_Z   4
loop_
 _symmetry_equiv_pos_site_id
 _symmetry_equiv_pos_as_xyz
  1  'x, y, z'
loop_
 _atom_site_type_symbol
 _atom_site_label
 _atom_site_symmetry_multiplicity
 _atom_site_fract_x
 _atom_site_fract_y
 _atom_site_fract_z
 _atom_site_occupancy
  C  C0  1  0.19709900  0.33855400  0.60937500  1
  C  C1  1  0.80290100  0.83855400  0.89062500  1
  C  C2  1  0.30290100  0.66144600  0.10937500  1
  C  C3  1  0.69709900  0.16144600  0.39062500  1
  C  C4  1  0.48911700  0.39354800  0.04996400  1
  C  C5  1  0.41823200  0.86857500  0.61900500  1
  C  C6  1  0.60621000  0.11987300  0.17387200  1
  C  C7  1  0.22353500  0.37163000  0.34068700  1
  C  C8  1  0.01088300  0.60645200  0.54996400  1
  C  C9  1  0.98911700  0.10645200  0.95003600  1
  C  C10  1  0.68870000  0.51442200  0.78452000  1
  C  C11  1  0.55176400  0.76312200  0.33076600  1
  C  C12  1  0.18870000  0.98557800  0.21548000  1
  C  C13  1  0.39379000  0.61987300  0.32612800  1
  C  C14  1  0.89379000  0.88012700  0.67387200  1
  C  C15  1  0.31130000  0.01442200  0.71548000  1
  C  C16  1  0.94823600  0.23687800  0.83076600  1
  C  C17  1  0.81130000  0.48557800  0.28452000  1
  C  C18  1  0.51088300  0.89354800  0.45003600  1
  C  C19  1  0.05176400  0.73687800  0.66923400  1
  C  C20  1  0.10621000  0.38012700  0.82612800  1
  C  C21  1  0.27646500  0.62837000  0.84068700  1
  C  C22  1  0.77646500  0.87163000  0.15931300  1
  C  C23  1  0.44823600  0.26312200  0.16923400  1
  C  C24  1  0.58176800  0.36857500  0.88099500  1
  C  C25  1  0.08176800  0.13142500  0.11900500  1
  C  C26  1  0.72353500  0.12837000  0.65931300  1
  C  C27  1  0.91823200  0.63142500  0.38099500  1
  Ni  Ni28  1  0.35990800  0.12813700  0.93084300  1
  Ni  Ni29  1  0.64009200  0.62813700  0.56915700  1
  Ni  Ni30  1  0.85990800  0.37186300  0.06915700  1
  Ni  Ni31  1  0.94055900  0.55182100  0.31368800  1
  Ni  Ni32  1  0.14009200  0.87186300  0.43084300  1
  Ni  Ni33  1  0.44055900  0.94817900  0.68631200  1
  Ni  Ni34  1  0.55944100  0.44817900  0.81368800  1
  Ni  Ni35  1  0.05944100  0.05182100  0.18631200  1
  Cu  Cu36  1  0.29037200  0.68950000  0.90595100  1
  Cu  Cu37  1  0.13445300  0.97434900  0.48967100  1
  Cu  Cu38  1  0.00316700  0.34419400  0.43506500  1
  Cu  Cu39  1  0.09458600  0.55758800  0.26131500  1
  Cu  Cu40  1  0.59458600  0.94241200  0.73868500  1
  Cu  Cu41  1  0.11766700  0.61421400  0.60057100  1
  Cu  Cu42  1  0.20962800  0.31050000  0.40595100  1
  Cu  Cu43  1  0.63445300  0.52565100  0.51032800  1
  Cu  Cu44  1  0.79037200  0.81050000  0.09404900  1
  Cu  Cu45  1  0.70962800  0.18950000  0.59404900  1
  Cu  Cu46  1  0.00530500  0.33132400  0.78232600  1
  Cu  Cu47  1  0.99683300  0.84419400  0.06493500  1
  Cu  Cu48  1  0.36554700  0.02565100  0.98967200  1
  Cu  Cu49  1  0.61766700  0.88578600  0.39942900  1
  Cu  Cu50  1  0.99469500  0.83132400  0.71767400  1
  Cu  Cu51  1  0.50316700  0.15580600  0.56493500  1
  Cu  Cu52  1  0.49683300  0.65580600  0.93506500  1
  Cu  Cu53  1  0.90541400  0.05758800  0.23868500  1
  Cu  Cu54  1  0.50530500  0.16867600  0.21767400  1
  Cu  Cu55  1  0.38233300  0.38578600  0.10057100  1
  Cu  Cu56  1  0.88233300  0.11421400  0.89942900  1
  Cu  Cu57  1  0.86554700  0.47434900  0.01032900  1
  Cu  Cu58  1  0.40541400  0.44241200  0.76131500  1
  Cu  Cu59  1  0.49469500  0.66867600  0.28232600  1
