# generated using pymatgen
data_CuNi3C11
_symmetry_space_group_name_H-M   'P 1'
_cell_length_a   5.77567645
_cell_length_b   5.77567645
_cell_length_c   7.52155213
_cell_angle_alpha   86.00061077
_cell_angle_beta   86.00061077
_cell_angle_gamma   60.41966383
_symmetry_Int_Tables_number   1
_chemical_formula_structural   CuNi3C11
_chemical_formula_sum   'Cu1 Ni3 C11'
_cell_volume   217.49327937
_cell_formula_units_Z   1
loop_
 _symmetry_equiv_pos_site_id
 _symmetry_equiv_pos_as_xyz
  1  'x, y, z'
loop_
 _atom_site_type_symbol
 _atom_site_label
 _atom_site_symmetry_multiplicity
 _atom_site_fract_x
 _atom_site_fract_y
 _atom_site_fract_z
 _atom_site_occupancy
  Ni  Ni0  1  0.00000000  0.00000000  0.50000000  1
  Ni  Ni1  1  0.33030700  0.33030700  0.19049300  1
  Ni  Ni2  1  0.66969300  0.66969300  0.80950700  1
  Cu  Cu3  1  0.00000000  0.00000000  0.00000000  1
  C  C4  1  0.34024900  0.34024900  0.74861400  1
  C  C5  1  0.65975100  0.65975100  0.25138600  1
  C  C6  1  0.50000000  0.50000000  0.50000000  1
  C  C7  1  0.18518100  0.18518100  0.78091100  1
  C  C8  1  0.81481900  0.81481900  0.21908900  1
  C  C9  1  0.37919000  0.37919000  0.54022300  1
  C  C10  1  0.62081000  0.62081000  0.45977700  1
  C  C11  1  0.18222700  0.62044200  0.82827200  1
  C  C12  1  0.62044200  0.18222700  0.82827200  1
  C  C13  1  0.81777300  0.37955800  0.17172800  1
  C  C14  1  0.37955800  0.81777300  0.17172800  1
