# generated using pymatgen
data_Cu3Ni5C
_symmetry_space_group_name_H-M   'P 1'
_cell_length_a   5.46885900
_cell_length_b   9.91133400
_cell_length_c   12.96388900
_cell_angle_alpha   90.00000000
_cell_angle_beta   90.00000000
_cell_angle_gamma   90.00000000
_symmetry_Int_Tables_number   1
_chemical_formula_structural   Cu3Ni5C
_chemical_formula_sum   'Cu12 Ni20 C4'
_cell_volume   702.69059654
_cell_formula_units_Z   4
loop_
 _symmetry_equiv_pos_site_id
 _symmetry_equiv_pos_as_xyz
  1  'x, y, z'
loop_
 _atom_site_type_symbol
 _atom_site_label
 _atom_site_symmetry_multiplicity
 _atom_site_fract_x
 _atom_site_fract_y
 _atom_site_fract_z
 _atom_site_occupancy
  C  C0  1  0.59783300  0.10871300  0.25000000  1
  C  C1  1  0.59783300  0.39128700  0.75000000  1
  C  C2  1  0.40216700  0.60871300  0.25000000  1
  C  C3  1  0.40216700  0.89128700  0.75000000  1
  Ni  Ni4  1  0.86642300  0.12694400  0.06295900  1
  Ni  Ni5  1  0.62585900  0.82631700  0.11284000  1
  Ni  Ni6  1  0.13357700  0.87305600  0.56295900  1
  Ni  Ni7  1  0.62585900  0.67368300  0.61284000  1
  Ni  Ni8  1  0.86642300  0.12694400  0.43704100  1
  Ni  Ni9  1  0.13357700  0.62694400  0.06295900  1
  Ni  Ni10  1  0.37414100  0.32631700  0.11284000  1
  Ni  Ni11  1  0.62585900  0.82631700  0.38716000  1
  Ni  Ni12  1  0.13357700  0.87305600  0.93704100  1
  Ni  Ni13  1  0.37414100  0.17368300  0.88716000  1
  Ni  Ni14  1  0.62585900  0.67368300  0.88716000  1
  Ni  Ni15  1  0.37414100  0.32631700  0.38716000  1
  Ni  Ni16  1  0.37414100  0.17368300  0.61284000  1
  Ni  Ni17  1  0.86642300  0.37305600  0.93704100  1
  Ni  Ni18  1  0.84280000  0.42410700  0.25000000  1
  Ni  Ni19  1  0.15720000  0.57589300  0.75000000  1
  Ni  Ni20  1  0.13357700  0.62694400  0.43704100  1
  Ni  Ni21  1  0.84280000  0.07589300  0.75000000  1
  Ni  Ni22  1  0.15720000  0.92410700  0.25000000  1
  Ni  Ni23  1  0.86642300  0.37305600  0.56295900  1
  Cu  Cu24  1  0.64677400  0.55228200  0.42164400  1
  Cu  Cu25  1  0.35322600  0.44771800  0.92164400  1
  Cu  Cu26  1  0.64677400  0.55228200  0.07835600  1
  Cu  Cu27  1  0.64677400  0.94771800  0.92164400  1
  Cu  Cu28  1  0.09464600  0.30540400  0.75000000  1
  Cu  Cu29  1  0.35322600  0.05228200  0.07835600  1
  Cu  Cu30  1  0.35322600  0.05228200  0.42164400  1
  Cu  Cu31  1  0.64677400  0.94771800  0.57835600  1
  Cu  Cu32  1  0.90535400  0.80540400  0.75000000  1
  Cu  Cu33  1  0.90535400  0.69459600  0.25000000  1
  Cu  Cu34  1  0.35322600  0.44771800  0.57835600  1
  Cu  Cu35  1  0.09464600  0.19459600  0.25000000  1
