# generated using pymatgen
data_CuNi3C7
_symmetry_space_group_name_H-M   'P 1'
_cell_length_a   4.84685650
_cell_length_b   4.84685650
_cell_length_c   10.62130400
_cell_angle_alpha   90.00000000
_cell_angle_beta   90.00000000
_cell_angle_gamma   120.00000680
_symmetry_Int_Tables_number   1
_chemical_formula_structural   CuNi3C7
_chemical_formula_sum   'Cu2 Ni6 C14'
_cell_volume   216.08706194
_cell_formula_units_Z   2
loop_
 _symmetry_equiv_pos_site_id
 _symmetry_equiv_pos_as_xyz
  1  'x, y, z'
loop_
 _atom_site_type_symbol
 _atom_site_label
 _atom_site_symmetry_multiplicity
 _atom_site_fract_x
 _atom_site_fract_y
 _atom_site_fract_z
 _atom_site_occupancy
  Ni  Ni0  1  0.33333300  0.66666700  0.43127600  1
  Ni  Ni1  1  0.66666700  0.33333300  0.56872400  1
  Ni  Ni2  1  0.66666700  0.33333300  0.93127600  1
  Ni  Ni3  1  0.33333300  0.66666700  0.06872400  1
  Ni  Ni4  1  0.00000000  0.00000000  0.25000000  1
  Ni  Ni5  1  0.00000000  0.00000000  0.75000000  1
  Cu  Cu6  1  0.00000000  0.00000000  0.50000000  1
  Cu  Cu7  1  0.00000000  0.00000000  0.00000000  1
  C  C8  1  0.16875300  0.83124700  0.90224200  1
  C  C9  1  0.16875300  0.33750600  0.90224200  1
  C  C10  1  0.66249400  0.83124700  0.90224200  1
  C  C11  1  0.83124700  0.16875300  0.09775800  1
  C  C12  1  0.83124700  0.66249400  0.09775800  1
  C  C13  1  0.33750600  0.16875300  0.09775800  1
  C  C14  1  0.83124700  0.16875300  0.40224200  1
  C  C15  1  0.83124700  0.66249400  0.40224200  1
  C  C16  1  0.33750600  0.16875300  0.40224200  1
  C  C17  1  0.16875300  0.83124700  0.59775800  1
  C  C18  1  0.16875300  0.33750600  0.59775800  1
  C  C19  1  0.66249400  0.83124700  0.59775800  1
  C  C20  1  0.33333300  0.66666700  0.25000000  1
  C  C21  1  0.66666700  0.33333300  0.75000000  1
