# generated using pymatgen
data_Cu2Ni2C7
_symmetry_space_group_name_H-M   'P 1'
_cell_length_a   3.65463700
_cell_length_b   7.61800400
_cell_length_c   10.87117300
_cell_angle_alpha   90.00000000
_cell_angle_beta   90.00000000
_cell_angle_gamma   90.00000000
_symmetry_Int_Tables_number   1
_chemical_formula_structural   Cu2Ni2C7
_chemical_formula_sum   'Cu4 Ni4 C14'
_cell_volume   302.66475456
_cell_formula_units_Z   2
loop_
 _symmetry_equiv_pos_site_id
 _symmetry_equiv_pos_as_xyz
  1  'x, y, z'
loop_
 _atom_site_type_symbol
 _atom_site_label
 _atom_site_symmetry_multiplicity
 _atom_site_fract_x
 _atom_site_fract_y
 _atom_site_fract_z
 _atom_site_occupancy
  Ni  Ni0  1  0.50000000  0.25000000  0.72326200  1
  Ni  Ni1  1  0.00000000  0.50000000  0.00000000  1
  Ni  Ni2  1  0.00000000  0.00000000  0.00000000  1
  Ni  Ni3  1  0.50000000  0.75000000  0.27673800  1
  Cu  Cu4  1  0.50000000  0.25000000  0.25898400  1
  Cu  Cu5  1  0.00000000  0.50000000  0.50000000  1
  Cu  Cu6  1  0.50000000  0.75000000  0.74101600  1
  Cu  Cu7  1  0.00000000  0.00000000  0.50000000  1
  C  C8  1  0.00000000  0.25000000  0.36710900  1
  C  C9  1  0.50000000  0.52314200  0.61574100  1
  C  C10  1  0.00000000  0.25000000  0.60411100  1
  C  C11  1  0.00000000  0.75000000  0.87308600  1
  C  C12  1  0.50000000  0.46012400  0.86781600  1
  C  C13  1  0.50000000  0.53987600  0.13218400  1
  C  C14  1  0.50000000  0.96012400  0.13218400  1
  C  C15  1  0.00000000  0.25000000  0.12691400  1
  C  C16  1  0.00000000  0.75000000  0.39588900  1
  C  C17  1  0.50000000  0.02314200  0.38425900  1
  C  C18  1  0.50000000  0.47685800  0.38425900  1
  C  C19  1  0.50000000  0.97685800  0.61574100  1
  C  C20  1  0.00000000  0.75000000  0.63289100  1
  C  C21  1  0.50000000  0.03987600  0.86781600  1
