# generated using pymatgen
data_Cu6Ni2C9
_symmetry_space_group_name_H-M   'P 1'
_cell_length_a   7.04487941
_cell_length_b   7.04487941
_cell_length_c   7.04487941
_cell_angle_alpha   60.00000000
_cell_angle_beta   60.00000000
_cell_angle_gamma   60.00000000
_symmetry_Int_Tables_number   1
_chemical_formula_structural   Cu6Ni2C9
_chemical_formula_sum   'Cu6 Ni2 C9'
_cell_volume   247.23257479
_cell_formula_units_Z   1
loop_
 _symmetry_equiv_pos_site_id
 _symmetry_equiv_pos_as_xyz
  1  'x, y, z'
loop_
 _atom_site_type_symbol
 _atom_site_label
 _atom_site_symmetry_multiplicity
 _atom_site_fract_x
 _atom_site_fract_y
 _atom_site_fract_z
 _atom_site_occupancy
  C  C0  1  0.69016800  0.69016800  0.92949500  1
  C  C1  1  0.69016800  0.92949500  0.69016800  1
  C  C2  1  0.92949500  0.69016800  0.69016800  1
  C  C3  1  0.69016800  0.69016800  0.69016800  1
  C  C4  1  0.30983200  0.30983200  0.07050500  1
  C  C5  1  0.30983200  0.07050500  0.30983200  1
  C  C6  1  0.07050500  0.30983200  0.30983200  1
  C  C7  1  0.30983200  0.30983200  0.30983200  1
  C  C8  1  0.00000000  0.00000000  0.00000000  1
  Ni  Ni9  1  0.75000000  0.75000000  0.75000000  1
  Ni  Ni10  1  0.25000000  0.25000000  0.25000000  1
  Cu  Cu11  1  0.76367200  0.76367200  0.23632800  1
  Cu  Cu12  1  0.23632800  0.76367200  0.23632800  1
  Cu  Cu13  1  0.76367200  0.23632800  0.23632800  1
  Cu  Cu14  1  0.23632800  0.23632800  0.76367200  1
  Cu  Cu15  1  0.76367200  0.23632800  0.76367200  1
  Cu  Cu16  1  0.23632800  0.76367200  0.76367200  1
