# generated using pymatgen
data_Cu4Ni29C13
_symmetry_space_group_name_H-M   'P 1'
_cell_length_a   11.20584200
_cell_length_b   11.20584200
_cell_length_c   7.86521800
_cell_angle_alpha   90.00000000
_cell_angle_beta   90.00000000
_cell_angle_gamma   90.00000000
_symmetry_Int_Tables_number   1
_chemical_formula_structural   Cu4Ni29C13
_chemical_formula_sum   'Cu8 Ni58 C26'
_cell_volume   987.64246307
_cell_formula_units_Z   2
loop_
 _symmetry_equiv_pos_site_id
 _symmetry_equiv_pos_as_xyz
  1  'x, y, z'
loop_
 _atom_site_type_symbol
 _atom_site_label
 _atom_site_symmetry_multiplicity
 _atom_site_fract_x
 _atom_site_fract_y
 _atom_site_fract_z
 _atom_site_occupancy
  C  C0  1  0.25000000  0.75000000  0.00000000  1
  C  C1  1  0.25000000  0.25000000  0.00000000  1
  C  C2  1  0.75000000  0.75000000  0.00000000  1
  C  C3  1  0.75000000  0.25000000  0.00000000  1
  C  C4  1  0.00000000  0.00000000  0.50000000  1
  C  C5  1  0.50000000  0.50000000  0.50000000  1
  Ni  Ni6  1  0.82510100  0.83825500  0.33727700  1
  Ni  Ni7  1  0.17489900  0.16174500  0.33727700  1
  Ni  Ni8  1  0.66174500  0.32510100  0.33727700  1
  Ni  Ni9  1  0.33825500  0.67489900  0.33727700  1
  Ni  Ni10  1  0.83825500  0.82510100  0.66272300  1
  Ni  Ni11  1  0.32510100  0.66174500  0.66272300  1
  Ni  Ni12  1  0.67489900  0.33825500  0.66272300  1
  Ni  Ni13  1  0.16174500  0.17489900  0.66272300  1
  Ni  Ni14  1  0.67489900  0.66174500  0.66272300  1
  Ni  Ni15  1  0.32510100  0.33825500  0.66272300  1
  Ni  Ni16  1  0.83825500  0.17489900  0.66272300  1
  Ni  Ni17  1  0.16174500  0.82510100  0.66272300  1
  Ni  Ni18  1  0.66174500  0.67489900  0.33727700  1
  Ni  Ni19  1  0.17489900  0.83825500  0.33727700  1
  Ni  Ni20  1  0.82510100  0.16174500  0.33727700  1
  Ni  Ni21  1  0.33825500  0.32510100  0.33727700  1
  Ni  Ni22  1  0.60903200  0.10903200  0.30266000  1
  Ni  Ni23  1  0.39096800  0.89096800  0.30266000  1
  Ni  Ni24  1  0.39096800  0.10903200  0.30266000  1
  Ni  Ni25  1  0.60903200  0.89096800  0.30266000  1
  Ni  Ni26  1  0.10903200  0.60903200  0.69734000  1
  Ni  Ni27  1  0.10903200  0.39096800  0.69734000  1
  Ni  Ni28  1  0.89096800  0.60903200  0.69734000  1
  Ni  Ni29  1  0.89096800  0.39096800  0.69734000  1
  Ni  Ni30  1  0.61360700  0.11360700  0.74671100  1
  Ni  Ni31  1  0.38639300  0.88639300  0.74671100  1
  Ni  Ni32  1  0.38639300  0.11360700  0.74671100  1
  Ni  Ni33  1  0.61360700  0.88639300  0.74671100  1
  Ni  Ni34  1  0.11360700  0.61360700  0.25328900  1
  Ni  Ni35  1  0.11360700  0.38639300  0.25328900  1
  Ni  Ni36  1  0.88639300  0.61360700  0.25328900  1
  Ni  Ni37  1  0.88639300  0.38639300  0.25328900  1
  Ni  Ni38  1  0.50000000  0.16387400  0.02814900  1
  Ni  Ni39  1  0.50000000  0.83612600  0.02814900  1
  Ni  Ni40  1  0.33612600  0.00000000  0.02814900  1
  Ni  Ni41  1  0.66387400  0.00000000  0.02814900  1
  Ni  Ni42  1  0.16387400  0.50000000  0.97185100  1
  Ni  Ni43  1  0.00000000  0.33612600  0.97185100  1
  Ni  Ni44  1  0.00000000  0.66387400  0.97185100  1
  Ni  Ni45  1  0.83612600  0.50000000  0.97185100  1
  Ni  Ni46  1  0.50000000  0.22478400  0.52511100  1
  Ni  Ni47  1  0.50000000  0.77521600  0.52511100  1
  Ni  Ni48  1  0.27521600  0.00000000  0.52511100  1
  Ni  Ni49  1  0.72478400  0.00000000  0.52511100  1
  Ni  Ni50  1  0.22478400  0.50000000  0.47488900  1
  Ni  Ni51  1  0.00000000  0.27521600  0.47488900  1
  Ni  Ni52  1  0.00000000  0.72478400  0.47488900  1
  Ni  Ni53  1  0.77521600  0.50000000  0.47488900  1
  Ni  Ni54  1  0.50000000  0.61009200  0.11094300  1
  Ni  Ni55  1  0.50000000  0.38990800  0.11094300  1
  Ni  Ni56  1  0.88990800  0.00000000  0.11094300  1
  Ni  Ni57  1  0.11009200  0.00000000  0.11094300  1
  Ni  Ni58  1  0.61009200  0.50000000  0.88905700  1
  Ni  Ni59  1  0.00000000  0.88990800  0.88905700  1
  Ni  Ni60  1  0.00000000  0.11009200  0.88905700  1
  Ni  Ni61  1  0.38990800  0.50000000  0.88905700  1
  Ni  Ni62  1  0.50000000  0.00000000  0.53164200  1
  Ni  Ni63  1  0.00000000  0.50000000  0.46835800  1
  Cu  Cu64  1  0.50000000  0.68067300  0.82444400  1
  Cu  Cu65  1  0.50000000  0.31932700  0.82444400  1
  Cu  Cu66  1  0.81932700  0.00000000  0.82444400  1
  Cu  Cu67  1  0.18067300  0.00000000  0.82444400  1
  Cu  Cu68  1  0.68067300  0.50000000  0.17555600  1
  Cu  Cu69  1  0.00000000  0.81932700  0.17555600  1
  Cu  Cu70  1  0.00000000  0.18067300  0.17555600  1
  Cu  Cu71  1  0.31932700  0.50000000  0.17555600  1
  C  C72  1  0.68632300  0.18632300  0.51731200  1
  C  C73  1  0.31367700  0.81367700  0.51731200  1
  C  C74  1  0.31367700  0.18632300  0.51731200  1
  C  C75  1  0.68632300  0.81367700  0.51731200  1
  C  C76  1  0.18632300  0.68632300  0.48268800  1
  C  C77  1  0.18632300  0.31367700  0.48268800  1
  C  C78  1  0.81367700  0.68632300  0.48268800  1
  C  C79  1  0.81367700  0.31367700  0.48268800  1
  C  C80  1  0.50000000  0.25586200  0.26097700  1
  C  C81  1  0.50000000  0.74413800  0.26097700  1
  C  C82  1  0.24413800  0.00000000  0.26097700  1
  C  C83  1  0.75586200  0.00000000  0.26097700  1
  C  C84  1  0.25586200  0.50000000  0.73902300  1
  C  C85  1  0.00000000  0.24413800  0.73902300  1
  C  C86  1  0.00000000  0.75586200  0.73902300  1
  C  C87  1  0.74413800  0.50000000  0.73902300  1
  C  C88  1  0.50000000  0.00000000  0.89327700  1
  C  C89  1  0.00000000  0.50000000  0.10672300  1
  C  C90  1  0.50000000  0.00000000  0.14742900  1
  C  C91  1  0.00000000  0.50000000  0.85257100  1
