# generated using pymatgen
data_Cu3Ni2C17
_symmetry_space_group_name_H-M   'P 1'
_cell_length_a   9.89928400
_cell_length_b   9.89928400
_cell_length_c   9.95995300
_cell_angle_alpha   90.00000000
_cell_angle_beta   90.00000000
_cell_angle_gamma   90.00000000
_symmetry_Int_Tables_number   1
_chemical_formula_structural   Cu3Ni2C17
_chemical_formula_sum   'Cu12 Ni8 C68'
_cell_volume   976.03379837
_cell_formula_units_Z   4
loop_
 _symmetry_equiv_pos_site_id
 _symmetry_equiv_pos_as_xyz
  1  'x, y, z'
loop_
 _atom_site_type_symbol
 _atom_site_label
 _atom_site_symmetry_multiplicity
 _atom_site_fract_x
 _atom_site_fract_y
 _atom_site_fract_z
 _atom_site_occupancy
  C  C0  1  0.20594400  0.81433700  0.99028100  1
  C  C1  1  0.79405600  0.18566300  0.99028100  1
  C  C2  1  0.31433700  0.29405600  0.49028100  1
  C  C3  1  0.68566300  0.70594400  0.49028100  1
  C  C4  1  0.29405600  0.68566300  0.50971900  1
  C  C5  1  0.70594400  0.31433700  0.50971900  1
  C  C6  1  0.18566300  0.20594400  0.00971900  1
  C  C7  1  0.81433700  0.79405600  0.00971900  1
  C  C8  1  0.50000000  0.00000000  0.99032600  1
  C  C9  1  0.50000000  0.00000000  0.49032600  1
  C  C10  1  0.00000000  0.50000000  0.50967400  1
  C  C11  1  0.00000000  0.50000000  0.00967400  1
  Ni  Ni12  1  0.48203100  0.78748700  0.72345900  1
  Ni  Ni13  1  0.51796900  0.21251300  0.72345900  1
  Ni  Ni14  1  0.28748700  0.01796900  0.22345900  1
  Ni  Ni15  1  0.71251300  0.98203100  0.22345900  1
  Ni  Ni16  1  0.01796900  0.71251300  0.77654100  1
  Ni  Ni17  1  0.98203100  0.28748700  0.77654100  1
  Ni  Ni18  1  0.21251300  0.48203100  0.27654100  1
  Ni  Ni19  1  0.78748700  0.51796900  0.27654100  1
  Cu  Cu20  1  0.48706800  0.78843000  0.22070400  1
  Cu  Cu21  1  0.51293200  0.21157000  0.22070400  1
  Cu  Cu22  1  0.28843000  0.01293200  0.72070400  1
  Cu  Cu23  1  0.71157000  0.98706800  0.72070400  1
  Cu  Cu24  1  0.01293200  0.71157000  0.27929600  1
  Cu  Cu25  1  0.98706800  0.28843000  0.27929600  1
  Cu  Cu26  1  0.21157000  0.48706800  0.77929600  1
  Cu  Cu27  1  0.78843000  0.51293200  0.77929600  1
  Cu  Cu28  1  0.00000000  0.00000000  0.23946800  1
  Cu  Cu29  1  0.50000000  0.50000000  0.73946800  1
  Cu  Cu30  1  0.50000000  0.50000000  0.26053200  1
  Cu  Cu31  1  0.00000000  0.00000000  0.76053200  1
  C  C32  1  0.70604100  0.50450800  0.07029600  1
  C  C33  1  0.29395900  0.49549200  0.07029600  1
  C  C34  1  0.00450800  0.79395900  0.57029600  1
  C  C35  1  0.99549200  0.20604100  0.57029600  1
  C  C36  1  0.79395900  0.99549200  0.42970400  1
  C  C37  1  0.20604100  0.00450800  0.42970400  1
  C  C38  1  0.49549200  0.70604100  0.92970400  1
  C  C39  1  0.50450800  0.29395900  0.92970400  1
  C  C40  1  0.64081500  0.12308600  0.16281300  1
  C  C41  1  0.35918500  0.87691400  0.16281300  1
  C  C42  1  0.62308600  0.85918500  0.66281300  1
  C  C43  1  0.37691400  0.14081500  0.66281300  1
  C  C44  1  0.85918500  0.37691400  0.33718700  1
  C  C45  1  0.14081500  0.62308600  0.33718700  1
  C  C46  1  0.87691400  0.64081500  0.83718700  1
  C  C47  1  0.12308600  0.35918500  0.83718700  1
  C  C48  1  0.62536200  0.85573300  0.15638300  1
  C  C49  1  0.37463800  0.14426700  0.15638300  1
  C  C50  1  0.35573300  0.87463800  0.65638300  1
  C  C51  1  0.64426700  0.12536200  0.65638300  1
  C  C52  1  0.87463800  0.64426700  0.34361700  1
  C  C53  1  0.12536200  0.35573300  0.34361700  1
  C  C54  1  0.14426700  0.62536200  0.84361700  1
  C  C55  1  0.85573300  0.37463800  0.84361700  1
  C  C56  1  0.86300100  0.98250100  0.14931300  1
  C  C57  1  0.13699900  0.01749900  0.14931300  1
  C  C58  1  0.48250100  0.63699900  0.64931300  1
  C  C59  1  0.51749900  0.36300100  0.64931300  1
  C  C60  1  0.63699900  0.51749900  0.35068700  1
  C  C61  1  0.36300100  0.48250100  0.35068700  1
  C  C62  1  0.01749900  0.86300100  0.85068700  1
  C  C63  1  0.98250100  0.13699900  0.85068700  1
  C  C64  1  0.52271300  0.36825200  0.15977500  1
  C  C65  1  0.47728700  0.63174800  0.15977500  1
  C  C66  1  0.86825200  0.97728700  0.65977500  1
  C  C67  1  0.13174800  0.02271300  0.65977500  1
  C  C68  1  0.97728700  0.13174800  0.34022500  1
  C  C69  1  0.02271300  0.86825200  0.34022500  1
  C  C70  1  0.63174800  0.52271300  0.84022500  1
  C  C71  1  0.36825200  0.47728700  0.84022500  1
  C  C72  1  0.78525600  0.54162100  0.11525100  1
  C  C73  1  0.21474400  0.45837900  0.11525100  1
  C  C74  1  0.04162100  0.71474400  0.61525100  1
  C  C75  1  0.95837900  0.28525600  0.61525100  1
  C  C76  1  0.71474400  0.95837900  0.38474900  1
  C  C77  1  0.28525600  0.04162100  0.38474900  1
  C  C78  1  0.45837900  0.78525600  0.88474900  1
  C  C79  1  0.54162100  0.21474400  0.88474900  1
  C  C80  1  0.01660800  0.71664900  0.11580900  1
  C  C81  1  0.98339200  0.28335100  0.11580900  1
  C  C82  1  0.21664900  0.48339200  0.61580900  1
  C  C83  1  0.78335100  0.51660800  0.61580900  1
  C  C84  1  0.48339200  0.78335100  0.38419100  1
  C  C85  1  0.51660800  0.21664900  0.38419100  1
  C  C86  1  0.28335100  0.01660800  0.88419100  1
  C  C87  1  0.71664900  0.98339200  0.88419100  1
