# generated using pymatgen
data_Cu6Ni3C8
_symmetry_space_group_name_H-M   'P 1'
_cell_length_a   5.01811200
_cell_length_b   5.57015183
_cell_length_c   5.78394692
_cell_angle_alpha   90.05727392
_cell_angle_beta   91.51040410
_cell_angle_gamma   93.13928780
_symmetry_Int_Tables_number   1
_chemical_formula_structural   Cu6Ni3C8
_chemical_formula_sum   'Cu6 Ni3 C8'
_cell_volume   161.37165375
_cell_formula_units_Z   1
loop_
 _symmetry_equiv_pos_site_id
 _symmetry_equiv_pos_as_xyz
  1  'x, y, z'
loop_
 _atom_site_type_symbol
 _atom_site_label
 _atom_site_symmetry_multiplicity
 _atom_site_fract_x
 _atom_site_fract_y
 _atom_site_fract_z
 _atom_site_occupancy
  C  C0  1  0.32742000  0.96503600  0.06575900  1
  C  C1  1  0.28763800  0.52397600  0.59100600  1
  C  C2  1  0.39975100  0.51163000  0.32022700  1
  C  C3  1  0.58090700  0.66434300  0.52561100  1
  C  C4  1  0.54893700  0.35020700  0.52935900  1
  C  C5  1  0.61063900  0.82445200  0.06902200  1
  C  C6  1  0.62974300  0.11958900  0.11084000  1
  C  C7  1  0.54961300  0.00705800  0.84373300  1
  Ni  Ni8  1  0.11478000  0.00774300  0.48078000  1
  Ni  Ni9  1  0.52465000  0.98035400  0.02331400  1
  Ni  Ni10  1  0.45683200  0.51276500  0.49186200  1
  Cu  Cu11  1  0.86794800  0.51195500  0.94251500  1
  Cu  Cu12  1  0.65875800  0.05114200  0.57022800  1
  Cu  Cu13  1  0.90178600  0.37340800  0.13451200  1
  Cu  Cu14  1  0.02356300  0.88236300  0.32238200  1
  Cu  Cu15  1  0.93632100  0.10467000  0.62300000  1
  Cu  Cu16  1  0.10071400  0.60930900  0.85585000  1
