# generated using pymatgen
data_Cu(NiC)2
_symmetry_space_group_name_H-M   'P 1'
_cell_length_a   12.17771100
_cell_length_b   14.26765800
_cell_length_c   14.61930200
_cell_angle_alpha   90.00000000
_cell_angle_beta   90.00000000
_cell_angle_gamma   90.00000000
_symmetry_Int_Tables_number   1
_chemical_formula_structural   Cu(NiC)2
_chemical_formula_sum   'Cu32 Ni64 C64'
_cell_volume   2540.06594287
_cell_formula_units_Z   32
loop_
 _symmetry_equiv_pos_site_id
 _symmetry_equiv_pos_as_xyz
  1  'x, y, z'
loop_
 _atom_site_type_symbol
 _atom_site_label
 _atom_site_symmetry_multiplicity
 _atom_site_fract_x
 _atom_site_fract_y
 _atom_site_fract_z
 _atom_site_occupancy
  C  C0  1  0.00425600  0.34024200  0.55293400  1
  C  C1  1  0.12811100  0.89130200  0.22040300  1
  C  C2  1  0.62811100  0.10869800  0.27959700  1
  C  C3  1  0.87188900  0.60869800  0.72040300  1
  C  C4  1  0.49574400  0.34024200  0.05293400  1
  C  C5  1  0.00425600  0.84024200  0.94706600  1
  C  C6  1  0.62811100  0.60869800  0.22040300  1
  C  C7  1  0.12811100  0.39130200  0.27959700  1
  C  C8  1  0.50425600  0.15975800  0.55293400  1
  C  C9  1  0.49574400  0.84024200  0.44706600  1
  C  C10  1  0.50425600  0.65975800  0.94706600  1
  C  C11  1  0.37188900  0.89130200  0.72040300  1
  C  C12  1  0.99574400  0.65975800  0.44706600  1
  C  C13  1  0.37188900  0.39130200  0.77959700  1
  C  C14  1  0.99574400  0.15975800  0.05293400  1
  C  C15  1  0.87188900  0.10869800  0.77959700  1
  C  C16  1  0.29882500  0.63836000  0.32684200  1
  C  C17  1  0.79882500  0.36164000  0.17315800  1
  C  C18  1  0.35053200  0.05167400  0.34054400  1
  C  C19  1  0.85053200  0.44832600  0.34054400  1
  C  C20  1  0.68158300  0.62523000  0.52987100  1
  C  C21  1  0.31841700  0.37477000  0.47012900  1
  C  C22  1  0.31841700  0.87477000  0.02987100  1
  C  C23  1  0.02522400  0.33347000  0.83522400  1
  C  C24  1  0.79882500  0.86164000  0.32684200  1
  C  C25  1  0.18158300  0.87477000  0.52987100  1
  C  C26  1  0.64946800  0.44832600  0.84054400  1
  C  C27  1  0.20117500  0.13836000  0.67315800  1
  C  C28  1  0.97477600  0.16653000  0.33522400  1
  C  C29  1  0.18158300  0.37477000  0.97012900  1
  C  C30  1  0.14946800  0.55167400  0.65945600  1
  C  C31  1  0.85053200  0.94832600  0.15945600  1
  C  C32  1  0.47477600  0.83347000  0.16477600  1
  C  C33  1  0.14946800  0.05167400  0.84054400  1
  C  C34  1  0.64946800  0.94832600  0.65945600  1
  C  C35  1  0.70117500  0.86164000  0.82684200  1
  C  C36  1  0.20117500  0.63836000  0.82684200  1
  C  C37  1  0.81841700  0.62523000  0.02987100  1
  C  C38  1  0.29882500  0.13836000  0.17315800  1
  C  C39  1  0.52522400  0.66653000  0.66477600  1
  C  C40  1  0.68158300  0.12523000  0.97012900  1
  C  C41  1  0.02522400  0.83347000  0.66477600  1
  C  C42  1  0.47477600  0.33347000  0.33522400  1
  C  C43  1  0.35053200  0.55167400  0.15945600  1
  C  C44  1  0.97477600  0.66653000  0.16477600  1
  C  C45  1  0.52522400  0.16653000  0.83522400  1
  C  C46  1  0.70117500  0.36164000  0.67315800  1
  C  C47  1  0.81841700  0.12523000  0.47012900  1
  C  C48  1  0.61602700  0.89427500  0.75008000  1
  C  C49  1  0.64552700  0.63922900  0.63346900  1
  C  C50  1  0.85447300  0.13922900  0.36653100  1
  C  C51  1  0.61602700  0.39427500  0.74992000  1
  C  C52  1  0.11602700  0.10572500  0.74992000  1
  C  C53  1  0.38397300  0.60572500  0.25008000  1
  C  C54  1  0.88397300  0.89427500  0.25008000  1
  C  C55  1  0.88397300  0.39427500  0.24992000  1
  C  C56  1  0.38397300  0.10572500  0.24992000  1
  C  C57  1  0.64552700  0.13922900  0.86653100  1
  C  C58  1  0.14552700  0.86077100  0.63346900  1
  C  C59  1  0.14552700  0.36077100  0.86653100  1
  C  C60  1  0.35447300  0.86077100  0.13346900  1
  C  C61  1  0.85447300  0.63922900  0.13346900  1
  C  C62  1  0.11602700  0.60572500  0.75008000  1
  C  C63  1  0.35447300  0.36077100  0.36653100  1
  Ni  Ni64  1  0.72762300  0.02299700  0.66793900  1
  Ni  Ni65  1  0.54949000  0.96670400  0.60910400  1
  Ni  Ni66  1  0.29907800  0.88640700  0.52981200  1
  Ni  Ni67  1  0.02275500  0.32709100  0.73746900  1
  Ni  Ni68  1  0.86735100  0.18595200  0.53711400  1
  Ni  Ni69  1  0.79161100  0.42422200  0.65547400  1
  Ni  Ni70  1  0.27237700  0.97700300  0.33206100  1
  Ni  Ni71  1  0.29907800  0.38640700  0.97018800  1
  Ni  Ni72  1  0.63264900  0.68595200  0.46288600  1
  Ni  Ni73  1  0.29161100  0.57577800  0.84452600  1
  Ni  Ni74  1  0.79907800  0.61359300  0.52981200  1
  Ni  Ni75  1  0.20092200  0.88640700  0.02981200  1
  Ni  Ni76  1  0.45051000  0.53329600  0.10910400  1
  Ni  Ni77  1  0.52275500  0.67290900  0.76253100  1
  Ni  Ni78  1  0.79161100  0.92422200  0.84452600  1
  Ni  Ni79  1  0.52792600  0.26019800  0.38662600  1
  Ni  Ni80  1  0.79907800  0.11359300  0.97018800  1
  Ni  Ni81  1  0.14157100  0.67819500  0.90127900  1
  Ni  Ni82  1  0.35842900  0.17819500  0.09872100  1
  Ni  Ni83  1  0.13264900  0.81404800  0.46288600  1
  Ni  Ni84  1  0.64157100  0.32180500  0.59872100  1
  Ni  Ni85  1  0.02275500  0.82709100  0.76253100  1
  Ni  Ni86  1  0.22762300  0.97700300  0.83206100  1
  Ni  Ni87  1  0.54949000  0.46670400  0.89089600  1
  Ni  Ni88  1  0.04949000  0.03329600  0.89089600  1
  Ni  Ni89  1  0.77237700  0.02299700  0.16793900  1
  Ni  Ni90  1  0.27237700  0.47700300  0.16793900  1
  Ni  Ni91  1  0.70838900  0.92422200  0.34452600  1
  Ni  Ni92  1  0.35842900  0.67819500  0.40127900  1
  Ni  Ni93  1  0.47724500  0.82709100  0.26253100  1
  Ni  Ni94  1  0.70838900  0.42422200  0.15547400  1
  Ni  Ni95  1  0.95051000  0.96670400  0.10910400  1
  Ni  Ni96  1  0.14157100  0.17819500  0.59872100  1
  Ni  Ni97  1  0.36735100  0.81404800  0.96288600  1
  Ni  Ni98  1  0.97207400  0.76019800  0.61337400  1
  Ni  Ni99  1  0.97724500  0.67290900  0.26253100  1
  Ni  Ni100  1  0.64157100  0.82180500  0.90127900  1
  Ni  Ni101  1  0.97724500  0.17290900  0.23746900  1
  Ni  Ni102  1  0.77237700  0.52299700  0.33206100  1
  Ni  Ni103  1  0.02792600  0.23980200  0.38662600  1
  Ni  Ni104  1  0.85842900  0.32180500  0.09872100  1
  Ni  Ni105  1  0.02792600  0.73980200  0.11337400  1
  Ni  Ni106  1  0.52275500  0.17290900  0.73746900  1
  Ni  Ni107  1  0.85842900  0.82180500  0.40127900  1
  Ni  Ni108  1  0.47724500  0.32709100  0.23746900  1
  Ni  Ni109  1  0.86735100  0.68595200  0.96288600  1
  Ni  Ni110  1  0.45051000  0.03329600  0.39089600  1
  Ni  Ni111  1  0.36735100  0.31404800  0.53711400  1
  Ni  Ni112  1  0.97207400  0.26019800  0.88662600  1
  Ni  Ni113  1  0.20092200  0.38640700  0.47018800  1
  Ni  Ni114  1  0.63264900  0.18595200  0.03711400  1
  Ni  Ni115  1  0.47207400  0.23980200  0.88662600  1
  Ni  Ni116  1  0.72762300  0.52299700  0.83206100  1
  Ni  Ni117  1  0.47207400  0.73980200  0.61337400  1
  Ni  Ni118  1  0.70092200  0.11359300  0.47018800  1
  Ni  Ni119  1  0.70092200  0.61359300  0.02981200  1
  Ni  Ni120  1  0.20838900  0.57577800  0.34452600  1
  Ni  Ni121  1  0.22762300  0.47700300  0.66793900  1
  Ni  Ni122  1  0.04949000  0.53329600  0.60910400  1
  Ni  Ni123  1  0.95051000  0.46670400  0.39089600  1
  Ni  Ni124  1  0.13264900  0.31404800  0.03711400  1
  Ni  Ni125  1  0.20838900  0.07577800  0.15547400  1
  Ni  Ni126  1  0.52792600  0.76019800  0.11337400  1
  Ni  Ni127  1  0.29161100  0.07577800  0.65547400  1
  Cu  Cu128  1  0.73895400  0.27203100  0.22248700  1
  Cu  Cu129  1  0.76104600  0.27203100  0.72248700  1
  Cu  Cu130  1  0.36634500  0.47664300  0.49372900  1
  Cu  Cu131  1  0.45436100  0.07346600  0.85799400  1
  Cu  Cu132  1  0.86634500  0.52335700  0.00627100  1
  Cu  Cu133  1  0.04563900  0.57346600  0.14200600  1
  Cu  Cu134  1  0.95436100  0.42653400  0.85799400  1
  Cu  Cu135  1  0.95436100  0.92653400  0.64200600  1
  Cu  Cu136  1  0.36634500  0.97664300  0.00627100  1
  Cu  Cu137  1  0.63365500  0.52335700  0.50627100  1
  Cu  Cu138  1  0.23895400  0.22796900  0.22248700  1
  Cu  Cu139  1  0.28915600  0.13036800  0.40137200  1
  Cu  Cu140  1  0.26104600  0.22796900  0.72248700  1
  Cu  Cu141  1  0.76104600  0.77203100  0.77751300  1
  Cu  Cu142  1  0.54563900  0.92653400  0.14200600  1
  Cu  Cu143  1  0.45436100  0.57346600  0.64200600  1
  Cu  Cu144  1  0.73895400  0.77203100  0.27751300  1
  Cu  Cu145  1  0.78915600  0.36963200  0.40137200  1
  Cu  Cu146  1  0.71084400  0.86963200  0.59862800  1
  Cu  Cu147  1  0.21084400  0.63036800  0.59862800  1
  Cu  Cu148  1  0.86634500  0.02335700  0.49372900  1
  Cu  Cu149  1  0.23895400  0.72796900  0.27751300  1
  Cu  Cu150  1  0.71084400  0.36963200  0.90137200  1
  Cu  Cu151  1  0.04563900  0.07346600  0.35799400  1
  Cu  Cu152  1  0.28915600  0.63036800  0.09862800  1
  Cu  Cu153  1  0.26104600  0.72796900  0.77751300  1
  Cu  Cu154  1  0.13365500  0.47664300  0.99372900  1
  Cu  Cu155  1  0.21084400  0.13036800  0.90137200  1
  Cu  Cu156  1  0.78915600  0.86963200  0.09862800  1
  Cu  Cu157  1  0.54563900  0.42653400  0.35799400  1
  Cu  Cu158  1  0.13365500  0.97664300  0.50627100  1
  Cu  Cu159  1  0.63365500  0.02335700  0.99372900  1
