# generated using pymatgen
data_Cu2Ni2C9
_symmetry_space_group_name_H-M   'P 1'
_cell_length_a   4.60890900
_cell_length_b   4.69012212
_cell_length_c   20.34447480
_cell_angle_alpha   90.12276674
_cell_angle_beta   96.18108207
_cell_angle_gamma   115.41682227
_symmetry_Int_Tables_number   1
_chemical_formula_structural   Cu2Ni2C9
_chemical_formula_sum   'Cu4 Ni4 C18'
_cell_volume   394.32513665
_cell_formula_units_Z   2
loop_
 _symmetry_equiv_pos_site_id
 _symmetry_equiv_pos_as_xyz
  1  'x, y, z'
loop_
 _atom_site_type_symbol
 _atom_site_label
 _atom_site_symmetry_multiplicity
 _atom_site_fract_x
 _atom_site_fract_y
 _atom_site_fract_z
 _atom_site_occupancy
  C  C0  1  0.00000000  0.00000000  0.00000000  1
  C  C1  1  0.50000000  0.00000000  0.50000000  1
  Ni  Ni2  1  0.40390500  0.80025800  0.15698400  1
  Ni  Ni3  1  0.85367900  0.75339700  0.65633300  1
  Ni  Ni4  1  0.14632100  0.24660300  0.34366700  1
  Ni  Ni5  1  0.59609500  0.19974200  0.84301600  1
  Cu  Cu6  1  0.37278600  0.74509500  0.06546300  1
  Cu  Cu7  1  0.79323900  0.67113400  0.56504800  1
  Cu  Cu8  1  0.20676100  0.32886600  0.43495200  1
  Cu  Cu9  1  0.62721400  0.25490500  0.93453700  1
  C  C10  1  0.16192000  0.38017000  0.05464300  1
  C  C11  1  0.15015600  0.78323900  0.54981400  1
  C  C12  1  0.84984400  0.21676100  0.45018600  1
  C  C13  1  0.83808000  0.61983000  0.94535700  1
  C  C14  1  0.89833300  0.95911800  0.32706500  1
  C  C15  1  0.46360900  0.57081800  0.18638300  1
  C  C16  1  0.87209600  0.21118800  0.82281000  1
  C  C17  1  0.35157200  0.91480600  0.82365300  1
  C  C18  1  0.57933700  0.74604400  0.67553700  1
  C  C19  1  0.92427200  0.53668900  0.68925300  1
  C  C20  1  0.07572800  0.46331100  0.31074700  1
  C  C21  1  0.42066300  0.25395600  0.32446300  1
  C  C22  1  0.64842800  0.08519400  0.17634700  1
  C  C23  1  0.12790400  0.78881200  0.17719000  1
  C  C24  1  0.53639100  0.42918200  0.81361700  1
  C  C25  1  0.10166700  0.04088200  0.67293500  1
