# generated using pymatgen
data_CuNi4
_symmetry_space_group_name_H-M   'P 1'
_cell_length_a   5.18446625
_cell_length_b   5.18446625
_cell_length_c   5.18446650
_cell_angle_alpha   65.98122530
_cell_angle_beta   65.98122530
_cell_angle_gamma   65.98121818
_symmetry_Int_Tables_number   1
_chemical_formula_structural   CuNi4
_chemical_formula_sum   'Cu3 Ni12'
_cell_volume   111.29297654
_cell_formula_units_Z   3
loop_
 _symmetry_equiv_pos_site_id
 _symmetry_equiv_pos_as_xyz
  1  'x, y, z'
loop_
 _atom_site_type_symbol
 _atom_site_label
 _atom_site_symmetry_multiplicity
 _atom_site_fract_x
 _atom_site_fract_y
 _atom_site_fract_z
 _atom_site_occupancy
  Ni  Ni0  1  0.80647200  0.30861000  0.80647200  1
  Ni  Ni1  1  0.80647200  0.80647200  0.30861000  1
  Ni  Ni2  1  0.30861000  0.80647200  0.80647200  1
  Ni  Ni3  1  0.19352800  0.69139000  0.19352800  1
  Ni  Ni4  1  0.19352800  0.19352800  0.69139000  1
  Ni  Ni5  1  0.69139000  0.19352800  0.19352800  1
  Ni  Ni6  1  0.99383000  0.67042700  0.99383000  1
  Ni  Ni7  1  0.99383000  0.99383000  0.67042700  1
  Ni  Ni8  1  0.67042700  0.99383000  0.99383000  1
  Ni  Ni9  1  0.00617000  0.32957300  0.00617000  1
  Ni  Ni10  1  0.00617000  0.00617000  0.32957300  1
  Ni  Ni11  1  0.32957300  0.00617000  0.00617000  1
  Cu  Cu12  1  0.61018900  0.61018900  0.61018900  1
  Cu  Cu13  1  0.38981100  0.38981100  0.38981100  1
  Cu  Cu14  1  0.50000000  0.50000000  0.50000000  1
