# generated using pymatgen
data_Cu10Ni4C17
_symmetry_space_group_name_H-M   'P 1'
_cell_length_a   7.22090173
_cell_length_b   8.46157087
_cell_length_c   10.68820471
_cell_angle_alpha   98.42994295
_cell_angle_beta   92.27676590
_cell_angle_gamma   99.72874700
_symmetry_Int_Tables_number   1
_chemical_formula_structural   Cu10Ni4C17
_chemical_formula_sum   'Cu20 Ni8 C34'
_cell_volume   635.31048398
_cell_formula_units_Z   2
loop_
 _symmetry_equiv_pos_site_id
 _symmetry_equiv_pos_as_xyz
  1  'x, y, z'
loop_
 _atom_site_type_symbol
 _atom_site_label
 _atom_site_symmetry_multiplicity
 _atom_site_fract_x
 _atom_site_fract_y
 _atom_site_fract_z
 _atom_site_occupancy
  C  C0  1  0.49999900  0.50000000  0.75000000  1
  C  C1  1  0.50000100  0.50000100  0.25000100  1
  Ni  Ni2  1  0.32574000  0.27890600  0.46722200  1
  Ni  Ni3  1  0.32622100  0.27882200  0.96647100  1
  Ni  Ni4  1  0.67426000  0.72109100  0.03277700  1
  Ni  Ni5  1  0.67377900  0.72118000  0.53352900  1
  Ni  Ni6  1  0.81916800  0.25810900  0.27305800  1
  Ni  Ni7  1  0.82011200  0.25832300  0.77378000  1
  Ni  Ni8  1  0.18083200  0.74189100  0.22694100  1
  Ni  Ni9  1  0.17988700  0.74167600  0.72622100  1
  Cu  Cu10  1  0.58328000  0.23800600  0.06489300  1
  Cu  Cu11  1  0.58257200  0.23806700  0.56683100  1
  Cu  Cu12  1  0.41672200  0.76199700  0.43510800  1
  Cu  Cu13  1  0.41742900  0.76193300  0.93316700  1
  Cu  Cu14  1  0.07890400  0.16340500  0.05201600  1
  Cu  Cu15  1  0.07879900  0.16330600  0.55275500  1
  Cu  Cu16  1  0.92109700  0.83660100  0.44798600  1
  Cu  Cu17  1  0.92120000  0.83668800  0.94724200  1
  Cu  Cu18  1  0.63141800  0.09616000  0.36405800  1
  Cu  Cu19  1  0.63202900  0.09547100  0.86353200  1
  Cu  Cu20  1  0.36858100  0.90384000  0.13594000  1
  Cu  Cu21  1  0.36796800  0.90453500  0.63647400  1
  Cu  Cu22  1  0.12703400  0.26644100  0.25967000  1
  Cu  Cu23  1  0.12777300  0.26813700  0.75964100  1
  Cu  Cu24  1  0.87296700  0.73356100  0.24033100  1
  Cu  Cu25  1  0.87222400  0.73185800  0.74035800  1
  Cu  Cu26  1  0.80481800  0.46433300  0.41868300  1
  Cu  Cu27  1  0.80637200  0.46454000  0.91890100  1
  Cu  Cu28  1  0.19518500  0.53566800  0.08131600  1
  Cu  Cu29  1  0.19362600  0.53545900  0.58109700  1
  C  C30  1  0.50463000  0.19471800  0.48226200  1
  C  C31  1  0.50484000  0.19421000  0.98055900  1
  C  C32  1  0.49537300  0.80528400  0.01773600  1
  C  C33  1  0.49516000  0.80579000  0.51944200  1
  C  C34  1  0.14630200  0.14557500  0.47409700  1
  C  C35  1  0.14705200  0.14546100  0.97371400  1
  C  C36  1  0.85370100  0.85442100  0.02590200  1
  C  C37  1  0.85294700  0.85454200  0.52628700  1
  C  C38  1  0.31651800  0.32227300  0.33320400  1
  C  C39  1  0.31521300  0.32361700  0.83289000  1
  C  C40  1  0.68348100  0.67772800  0.16679700  1
  C  C41  1  0.68478600  0.67638100  0.66710900  1
  C  C42  1  0.33904300  0.41977100  0.07611300  1
  C  C43  1  0.33743200  0.42015800  0.57660900  1
  C  C44  1  0.66096100  0.58023300  0.42388700  1
  C  C45  1  0.66256300  0.57983700  0.92339100  1
  C  C46  1  0.73099300  0.08492500  0.30305300  1
  C  C47  1  0.73257000  0.08463500  0.80325000  1
  C  C48  1  0.26900600  0.91507500  0.19694400  1
  C  C49  1  0.26742400  0.91536700  0.69675300  1
  C  C50  1  0.00072500  0.23169500  0.20365100  1
  C  C51  1  0.00110300  0.23222500  0.70355900  1
  C  C52  1  0.99927600  0.76830600  0.29634900  1
  C  C53  1  0.99889500  0.76777000  0.79644200  1
  C  C54  1  0.88471300  0.37551400  0.39956500  1
  C  C55  1  0.88624200  0.37539200  0.90045600  1
  C  C56  1  0.11528700  0.62448500  0.10043500  1
  C  C57  1  0.11375800  0.62460900  0.59954200  1
  C  C58  1  0.68130100  0.32501600  0.19222200  1
  C  C59  1  0.68100200  0.32538200  0.69403900  1
  C  C60  1  0.31870100  0.67498600  0.30777800  1
  C  C61  1  0.31900000  0.67461800  0.80596000  1
