# generated using pymatgen
data_Cu7NiC32
_symmetry_space_group_name_H-M   'P 1'
_cell_length_a   7.89655300
_cell_length_b   7.90199700
_cell_length_c   8.51734146
_cell_angle_alpha   88.72087073
_cell_angle_beta   90.00000000
_cell_angle_gamma   90.00000000
_symmetry_Int_Tables_number   1
_chemical_formula_structural   Cu7NiC32
_chemical_formula_sum   'Cu7 Ni1 C32'
_cell_volume   531.33721734
_cell_formula_units_Z   1
loop_
 _symmetry_equiv_pos_site_id
 _symmetry_equiv_pos_as_xyz
  1  'x, y, z'
loop_
 _atom_site_type_symbol
 _atom_site_label
 _atom_site_symmetry_multiplicity
 _atom_site_fract_x
 _atom_site_fract_y
 _atom_site_fract_z
 _atom_site_occupancy
  Ni  Ni0  1  0.50000000  0.72420800  0.76662500  1
  Cu  Cu1  1  0.50000000  0.71807600  0.20634700  1
  Cu  Cu2  1  0.50000000  0.23383800  0.19707100  1
  Cu  Cu3  1  0.50000000  0.21175200  0.75629900  1
  Cu  Cu4  1  0.00000000  0.78663700  0.24479800  1
  Cu  Cu5  1  0.00000000  0.76906100  0.80194100  1
  Cu  Cu6  1  0.00000000  0.28210100  0.78749000  1
  Cu  Cu7  1  0.00000000  0.27631000  0.23326700  1
  C  C8  1  0.25019100  0.99987300  0.99830000  1
  C  C9  1  0.25092200  0.50043600  0.99839800  1
  C  C10  1  0.74980900  0.99987300  0.99830000  1
  C  C11  1  0.74907800  0.50043600  0.99839800  1
  C  C12  1  0.25086700  0.50078800  0.50077000  1
  C  C13  1  0.25021000  0.99983200  0.50092200  1
  C  C14  1  0.74979000  0.99983200  0.50092200  1
  C  C15  1  0.74913300  0.50078800  0.50077000  1
  C  C16  1  0.27954900  0.24959700  0.96290700  1
  C  C17  1  0.29515800  0.75148400  0.42620200  1
  C  C18  1  0.29411700  0.95960900  0.73760800  1
  C  C19  1  0.29982900  0.44468500  0.26805500  1
  C  C20  1  0.50000000  0.97359500  0.03439700  1
  C  C21  1  0.50000000  0.46737900  0.58125100  1
  C  C22  1  0.50000000  0.51903600  0.99034300  1
  C  C23  1  0.50000000  0.07654000  0.46111600  1
  C  C24  1  0.70017100  0.44468500  0.26805500  1
  C  C25  1  0.70588300  0.95960900  0.73760800  1
  C  C26  1  0.70484200  0.75148400  0.42620200  1
  C  C27  1  0.72045100  0.24959700  0.96290700  1
  C  C28  1  0.78247200  0.75040100  0.03897400  1
  C  C29  1  0.79860100  0.24957700  0.56810000  1
  C  C30  1  0.80093600  0.04934900  0.26517300  1
  C  C31  1  0.80767800  0.55070700  0.73264200  1
  C  C32  1  0.00000000  0.92133700  0.53670500  1
  C  C33  1  0.00000000  0.52619400  0.41548100  1
  C  C34  1  0.00000000  0.47169200  0.01835700  1
  C  C35  1  0.00000000  0.02957100  0.97241200  1
  C  C36  1  0.19232200  0.55070700  0.73264200  1
  C  C37  1  0.19906400  0.04934900  0.26517300  1
  C  C38  1  0.20139900  0.24957700  0.56810000  1
  C  C39  1  0.21752800  0.75040100  0.03897400  1
