# generated using pymatgen
data_CuNi2C7
_symmetry_space_group_name_H-M   'P 1'
_cell_length_a   6.36087582
_cell_length_b   6.36087582
_cell_length_c   5.17959700
_cell_angle_alpha   90.00000000
_cell_angle_beta   90.00000000
_cell_angle_gamma   119.99999814
_symmetry_Int_Tables_number   1
_chemical_formula_structural   CuNi2C7
_chemical_formula_sum   'Cu1 Ni2 C7'
_cell_volume   181.49323636
_cell_formula_units_Z   1
loop_
 _symmetry_equiv_pos_site_id
 _symmetry_equiv_pos_as_xyz
  1  'x, y, z'
loop_
 _atom_site_type_symbol
 _atom_site_label
 _atom_site_symmetry_multiplicity
 _atom_site_fract_x
 _atom_site_fract_y
 _atom_site_fract_z
 _atom_site_occupancy
  Ni  Ni0  1  0.66666700  0.33333300  0.73177000  1
  Ni  Ni1  1  0.33333300  0.66666700  0.26823000  1
  Cu  Cu2  1  0.00000000  0.00000000  0.50000000  1
  C  C3  1  0.00000000  0.00000000  0.00000000  1
  C  C4  1  0.27670400  0.13835200  0.22929000  1
  C  C5  1  0.86164800  0.13835200  0.22929000  1
  C  C6  1  0.86164800  0.72329600  0.22929000  1
  C  C7  1  0.13835200  0.86164800  0.77071000  1
  C  C8  1  0.13835200  0.27670400  0.77071000  1
  C  C9  1  0.72329600  0.86164800  0.77071000  1
