# generated using pymatgen
data_Cu5Ni3C2
_symmetry_space_group_name_H-M   'P 1'
_cell_length_a   10.35783500
_cell_length_b   10.35783500
_cell_length_c   5.47975000
_cell_angle_alpha   90.00000000
_cell_angle_beta   90.00000000
_cell_angle_gamma   90.00000000
_symmetry_Int_Tables_number   1
_chemical_formula_structural   Cu5Ni3C2
_chemical_formula_sum   'Cu20 Ni12 C8'
_cell_volume   587.89358628
_cell_formula_units_Z   4
loop_
 _symmetry_equiv_pos_site_id
 _symmetry_equiv_pos_as_xyz
  1  'x, y, z'
loop_
 _atom_site_type_symbol
 _atom_site_label
 _atom_site_symmetry_multiplicity
 _atom_site_fract_x
 _atom_site_fract_y
 _atom_site_fract_z
 _atom_site_occupancy
  C  C0  1  0.93172800  0.23697300  0.00000000  1
  C  C1  1  0.43172800  0.26302700  0.50000000  1
  C  C2  1  0.23697300  0.06827200  0.00000000  1
  C  C3  1  0.76302700  0.93172800  0.00000000  1
  C  C4  1  0.26302700  0.56827200  0.50000000  1
  C  C5  1  0.56827200  0.73697300  0.50000000  1
  C  C6  1  0.06827200  0.76302700  0.00000000  1
  C  C7  1  0.73697300  0.43172800  0.50000000  1
  Ni  Ni8  1  0.35569700  0.37635000  0.00000000  1
  Ni  Ni9  1  0.64430300  0.62365000  0.00000000  1
  Ni  Ni10  1  0.62365000  0.35569700  0.00000000  1
  Ni  Ni11  1  0.12365000  0.14430300  0.50000000  1
  Ni  Ni12  1  0.37635000  0.64430300  0.00000000  1
  Ni  Ni13  1  0.50000000  0.00000000  0.75000000  1
  Ni  Ni14  1  0.14430300  0.87635000  0.50000000  1
  Ni  Ni15  1  0.85569700  0.12365000  0.50000000  1
  Ni  Ni16  1  0.87635000  0.85569700  0.50000000  1
  Ni  Ni17  1  0.50000000  0.00000000  0.25000000  1
  Ni  Ni18  1  0.00000000  0.50000000  0.75000000  1
  Ni  Ni19  1  0.00000000  0.50000000  0.25000000  1
  Cu  Cu20  1  0.50000000  0.50000000  0.23158600  1
  Cu  Cu21  1  0.67891400  0.17891400  0.75000000  1
  Cu  Cu22  1  0.32108600  0.82108600  0.75000000  1
  Cu  Cu23  1  0.82005500  0.47927900  0.00000000  1
  Cu  Cu24  1  0.32005500  0.02072100  0.50000000  1
  Cu  Cu25  1  0.17891400  0.32108600  0.75000000  1
  Cu  Cu26  1  0.67891400  0.17891400  0.25000000  1
  Cu  Cu27  1  0.52072100  0.82005500  0.00000000  1
  Cu  Cu28  1  0.32108600  0.82108600  0.25000000  1
  Cu  Cu29  1  0.17891400  0.32108600  0.25000000  1
  Cu  Cu30  1  0.17994500  0.52072100  0.00000000  1
  Cu  Cu31  1  0.47927900  0.17994500  0.00000000  1
  Cu  Cu32  1  0.82108600  0.67891400  0.25000000  1
  Cu  Cu33  1  0.97927900  0.32005500  0.50000000  1
  Cu  Cu34  1  0.00000000  0.00000000  0.73158600  1
  Cu  Cu35  1  0.50000000  0.50000000  0.76841400  1
  Cu  Cu36  1  0.02072100  0.67994500  0.50000000  1
  Cu  Cu37  1  0.82108600  0.67891400  0.75000000  1
  Cu  Cu38  1  0.00000000  0.00000000  0.26841400  1
  Cu  Cu39  1  0.67994500  0.97927900  0.50000000  1
