# generated using pymatgen
data_Cu(NiC5)4
_symmetry_space_group_name_H-M   'P 1'
_cell_length_a   22.84219342
_cell_length_b   22.84219342
_cell_length_c   22.84219401
_cell_angle_alpha   13.90107040
_cell_angle_beta   13.90107040
_cell_angle_gamma   13.90107108
_symmetry_Int_Tables_number   1
_chemical_formula_structural   Cu(NiC5)4
_chemical_formula_sum   'Cu2 Ni8 C40'
_cell_volume   598.66251658
_cell_formula_units_Z   2
loop_
 _symmetry_equiv_pos_site_id
 _symmetry_equiv_pos_as_xyz
  1  'x, y, z'
loop_
 _atom_site_type_symbol
 _atom_site_label
 _atom_site_symmetry_multiplicity
 _atom_site_fract_x
 _atom_site_fract_y
 _atom_site_fract_z
 _atom_site_occupancy
  Ni  Ni0  1  0.04794400  0.04794400  0.04794400  1
  Ni  Ni1  1  0.44985700  0.44985700  0.44985700  1
  Ni  Ni2  1  0.74975200  0.74975200  0.74975200  1
  Ni  Ni3  1  0.85000100  0.85000100  0.85000100  1
  Ni  Ni4  1  0.14999900  0.14999900  0.14999900  1
  Ni  Ni5  1  0.25024800  0.25024800  0.25024800  1
  Ni  Ni6  1  0.55014300  0.55014300  0.55014300  1
  Ni  Ni7  1  0.95205600  0.95205600  0.95205600  1
  Cu  Cu8  1  0.65245000  0.65245000  0.65245000  1
  Cu  Cu9  1  0.34755000  0.34755000  0.34755000  1
  C  C10  1  0.39955400  0.39955400  0.39955400  1
  C  C11  1  0.79993800  0.79993800  0.79993800  1
  C  C12  1  0.20006200  0.20006200  0.20006200  1
  C  C13  1  0.60044600  0.60044600  0.60044600  1
  C  C14  1  0.69887100  0.69887100  0.69887100  1
  C  C15  1  0.09966900  0.09966900  0.09966900  1
  C  C16  1  0.50000000  0.50000000  0.50000000  1
  C  C17  1  0.90033100  0.90033100  0.90033100  1
  C  C18  1  0.30112900  0.30112900  0.30112900  1
  C  C19  1  0.00000000  0.00000000  0.00000000  1
  C  C20  1  0.24678900  0.24678900  0.75644900  1
  C  C21  1  0.55104800  0.04334000  0.55104800  1
  C  C22  1  0.04334000  0.55104800  0.55104800  1
  C  C23  1  0.75644900  0.24678900  0.24678900  1
  C  C24  1  0.95344900  0.44169200  0.95344900  1
  C  C25  1  0.64662200  0.64662200  0.15786100  1
  C  C26  1  0.24678900  0.75644900  0.24678900  1
  C  C27  1  0.55104800  0.55104800  0.04334000  1
  C  C28  1  0.44169200  0.95344900  0.95344900  1
  C  C29  1  0.15786100  0.64662200  0.64662200  1
  C  C30  1  0.35337800  0.84213900  0.35337800  1
  C  C31  1  0.04655100  0.04655100  0.55830800  1
  C  C32  1  0.95344900  0.95344900  0.44169200  1
  C  C33  1  0.64662200  0.15786100  0.64662200  1
  C  C34  1  0.84213900  0.35337800  0.35337800  1
  C  C35  1  0.55830800  0.04655100  0.04655100  1
  C  C36  1  0.75321100  0.24355100  0.75321100  1
  C  C37  1  0.44895200  0.44895200  0.95666000  1
  C  C38  1  0.35337800  0.35337800  0.84213900  1
  C  C39  1  0.04655100  0.55830800  0.04655100  1
  C  C40  1  0.24355100  0.75321100  0.75321100  1
  C  C41  1  0.95666000  0.44895200  0.44895200  1
  C  C42  1  0.15451500  0.64456100  0.15451500  1
  C  C43  1  0.84548500  0.84548500  0.35543900  1
  C  C44  1  0.44895200  0.95666000  0.44895200  1
  C  C45  1  0.75321100  0.75321100  0.24355100  1
  C  C46  1  0.64456100  0.15451500  0.15451500  1
  C  C47  1  0.35543900  0.84548500  0.84548500  1
  C  C48  1  0.15451500  0.15451500  0.64456100  1
  C  C49  1  0.84548500  0.35543900  0.84548500  1
