# generated using pymatgen
data_CuNiC3
_symmetry_space_group_name_H-M   'P 1'
_cell_length_a   5.33636100
_cell_length_b   9.30085300
_cell_length_c   18.49296800
_cell_angle_alpha   90.00000000
_cell_angle_beta   90.00000000
_cell_angle_gamma   90.00000000
_symmetry_Int_Tables_number   1
_chemical_formula_structural   CuNiC3
_chemical_formula_sum   'Cu16 Ni16 C48'
_cell_volume   917.85610328
_cell_formula_units_Z   16
loop_
 _symmetry_equiv_pos_site_id
 _symmetry_equiv_pos_as_xyz
  1  'x, y, z'
loop_
 _atom_site_type_symbol
 _atom_site_label
 _atom_site_symmetry_multiplicity
 _atom_site_fract_x
 _atom_site_fract_y
 _atom_site_fract_z
 _atom_site_occupancy
  Ni  Ni0  1  0.59660600  0.14427700  0.37466400  1
  Ni  Ni1  1  0.59973400  0.49020400  0.37585200  1
  Ni  Ni2  1  0.90339400  0.64427700  0.62533600  1
  Ni  Ni3  1  0.09973400  0.00979600  0.37585200  1
  Ni  Ni4  1  0.90339400  0.14427700  0.87466400  1
  Ni  Ni5  1  0.09660600  0.85572300  0.12533600  1
  Ni  Ni6  1  0.40026600  0.00979600  0.87585200  1
  Ni  Ni7  1  0.59973400  0.99020400  0.12414800  1
  Ni  Ni8  1  0.40026600  0.50979600  0.62414800  1
  Ni  Ni9  1  0.90026600  0.49020400  0.87585200  1
  Ni  Ni10  1  0.40339400  0.35572300  0.87466400  1
  Ni  Ni11  1  0.59660600  0.64427700  0.12533600  1
  Ni  Ni12  1  0.09660600  0.35572300  0.37466400  1
  Ni  Ni13  1  0.90026600  0.99020400  0.62414800  1
  Ni  Ni14  1  0.09973400  0.50979600  0.12414800  1
  Ni  Ni15  1  0.40339400  0.85572300  0.62533600  1
  Cu  Cu16  1  0.28195600  0.16635900  0.52696900  1
  Cu  Cu17  1  0.21804400  0.66635900  0.47303100  1
  Cu  Cu18  1  0.91304800  0.66365900  0.27446100  1
  Cu  Cu19  1  0.28195600  0.66635900  0.97303100  1
  Cu  Cu20  1  0.08695200  0.33634100  0.72553900  1
  Cu  Cu21  1  0.91304800  0.16365900  0.22553900  1
  Cu  Cu22  1  0.41304800  0.83634100  0.27446100  1
  Cu  Cu23  1  0.41304800  0.33634100  0.22553900  1
  Cu  Cu24  1  0.58695200  0.66365900  0.77446100  1
  Cu  Cu25  1  0.21804400  0.16635900  0.02696900  1
  Cu  Cu26  1  0.58695200  0.16365900  0.72553900  1
  Cu  Cu27  1  0.78195600  0.33364100  0.52696900  1
  Cu  Cu28  1  0.08695200  0.83634100  0.77446100  1
  Cu  Cu29  1  0.71804400  0.33364100  0.02696900  1
  Cu  Cu30  1  0.78195600  0.83364100  0.97303100  1
  Cu  Cu31  1  0.71804400  0.83364100  0.47303100  1
  C  C32  1  0.58480300  0.66525100  0.68536000  1
  C  C33  1  0.71768400  0.83894100  0.56225200  1
  C  C34  1  0.91519700  0.66525100  0.18536000  1
  C  C35  1  0.08480300  0.33474900  0.81464000  1
  C  C36  1  0.66000800  0.74843100  0.30325700  1
  C  C37  1  0.08480300  0.83474900  0.68536000  1
  C  C38  1  0.20404000  0.01748300  0.56748000  1
  C  C39  1  0.78231600  0.33894100  0.43774800  1
  C  C40  1  0.42994900  0.28856100  0.05129100  1
  C  C41  1  0.79596000  0.98251700  0.43252000  1
  C  C42  1  0.89208000  0.00522800  0.18854700  1
  C  C43  1  0.21768400  0.16105900  0.93774800  1
  C  C44  1  0.78231600  0.83894100  0.06225200  1
  C  C45  1  0.79596000  0.48251700  0.06748000  1
  C  C46  1  0.58480300  0.16525100  0.81464000  1
  C  C47  1  0.39208000  0.99477200  0.31145300  1
  C  C48  1  0.21768400  0.66105900  0.56225200  1
  C  C49  1  0.29596000  0.01748300  0.06748000  1
  C  C50  1  0.92994900  0.71143900  0.44870900  1
  C  C51  1  0.57005100  0.71143900  0.94870900  1
  C  C52  1  0.92994900  0.21143900  0.05129100  1
  C  C53  1  0.10792000  0.99477200  0.81145300  1
  C  C54  1  0.42994900  0.78856100  0.44870900  1
  C  C55  1  0.16000800  0.75156900  0.30325700  1
  C  C56  1  0.57005100  0.21143900  0.55129100  1
  C  C57  1  0.33999200  0.75156900  0.80325700  1
  C  C58  1  0.60792000  0.00522800  0.68854700  1
  C  C59  1  0.41519700  0.33474900  0.31464000  1
  C  C60  1  0.39208000  0.49477200  0.18854700  1
  C  C61  1  0.60792000  0.50522800  0.81145300  1
  C  C62  1  0.28231600  0.16105900  0.43774800  1
  C  C63  1  0.70404000  0.48251700  0.56748000  1
  C  C64  1  0.10792000  0.49477200  0.68854700  1
  C  C65  1  0.16000800  0.25156900  0.19674300  1
  C  C66  1  0.07005100  0.28856100  0.55129100  1
  C  C67  1  0.28231600  0.66105900  0.06225200  1
  C  C68  1  0.89208000  0.50522800  0.31145300  1
  C  C69  1  0.91519700  0.16525100  0.31464000  1
  C  C70  1  0.07005100  0.78856100  0.94870900  1
  C  C71  1  0.66000800  0.24843100  0.19674300  1
  C  C72  1  0.83999200  0.24843100  0.69674300  1
  C  C73  1  0.70404000  0.98251700  0.93252000  1
  C  C74  1  0.41519700  0.83474900  0.18536000  1
  C  C75  1  0.20404000  0.51748300  0.93252000  1
  C  C76  1  0.29596000  0.51748300  0.43252000  1
  C  C77  1  0.33999200  0.25156900  0.69674300  1
  C  C78  1  0.83999200  0.74843100  0.80325700  1
  C  C79  1  0.71768400  0.33894100  0.93774800  1
