# generated using pymatgen
data_Cu16Ni4C21
_symmetry_space_group_name_H-M   'P 1'
_cell_length_a   11.47302200
_cell_length_b   11.47302200
_cell_length_c   17.50758000
_cell_angle_alpha   90.00000000
_cell_angle_beta   90.00000000
_cell_angle_gamma   90.00000000
_symmetry_Int_Tables_number   1
_chemical_formula_structural   Cu16Ni4C21
_chemical_formula_sum   'Cu32 Ni8 C42'
_cell_volume   2304.52684889
_cell_formula_units_Z   2
loop_
 _symmetry_equiv_pos_site_id
 _symmetry_equiv_pos_as_xyz
  1  'x, y, z'
loop_
 _atom_site_type_symbol
 _atom_site_label
 _atom_site_symmetry_multiplicity
 _atom_site_fract_x
 _atom_site_fract_y
 _atom_site_fract_z
 _atom_site_occupancy
  C  C0  1  0.13313100  0.86297800  0.59092800  1
  C  C1  1  0.86686900  0.13702200  0.59092800  1
  C  C2  1  0.13702200  0.86686900  0.90907200  1
  C  C3  1  0.86686900  0.86297800  0.40907200  1
  C  C4  1  0.13702200  0.13313100  0.90907200  1
  C  C5  1  0.86297800  0.13313100  0.09092800  1
  C  C6  1  0.13313100  0.86297800  0.40907200  1
  C  C7  1  0.13313100  0.13702200  0.40907200  1
  C  C8  1  0.86297800  0.86686900  0.09092800  1
  C  C9  1  0.86686900  0.13702200  0.40907200  1
  C  C10  1  0.86297800  0.13313100  0.90907200  1
  C  C11  1  0.86686900  0.86297800  0.59092800  1
  C  C12  1  0.86297800  0.86686900  0.90907200  1
  C  C13  1  0.13702200  0.86686900  0.09092800  1
  C  C14  1  0.13313100  0.13702200  0.59092800  1
  C  C15  1  0.13702200  0.13313100  0.09092800  1
  C  C16  1  0.62851400  0.00000000  0.00000000  1
  C  C17  1  0.00000000  0.37156600  0.00000000  1
  C  C18  1  0.00000000  0.37148600  0.50000000  1
  C  C19  1  0.37156600  0.00000000  0.50000000  1
  C  C20  1  0.00000000  0.62851400  0.50000000  1
  C  C21  1  0.62843400  0.00000000  0.50000000  1
  C  C22  1  0.00000000  0.00000000  0.75000000  1
  C  C23  1  0.00000000  0.00000000  0.25000000  1
  C  C24  1  0.37148600  0.00000000  0.00000000  1
  C  C25  1  0.00000000  0.62843400  0.00000000  1
  Ni  Ni26  1  0.50000000  0.82652000  0.74210000  1
  Ni  Ni27  1  0.50000000  0.17348000  0.74210000  1
  Ni  Ni28  1  0.17348000  0.50000000  0.24210000  1
  Ni  Ni29  1  0.50000000  0.17348000  0.25790000  1
  Ni  Ni30  1  0.82652000  0.50000000  0.75790000  1
  Ni  Ni31  1  0.82652000  0.50000000  0.24210000  1
  Ni  Ni32  1  0.17348000  0.50000000  0.75790000  1
  Ni  Ni33  1  0.50000000  0.82652000  0.25790000  1
  Cu  Cu34  1  0.00000000  0.83357300  0.68133800  1
  Cu  Cu35  1  0.26832000  0.00000000  0.39009100  1
  Cu  Cu36  1  0.00000000  0.50000000  0.40249500  1
  Cu  Cu37  1  0.00000000  0.83357300  0.31866200  1
  Cu  Cu38  1  0.00000000  0.73168000  0.10990900  1
  Cu  Cu39  1  0.50000000  0.00000000  0.90249500  1
  Cu  Cu40  1  0.83257200  0.26864700  0.50000000  1
  Cu  Cu41  1  0.73168000  0.00000000  0.39009100  1
  Cu  Cu42  1  0.16742800  0.26864700  0.50000000  1
  Cu  Cu43  1  0.16642700  0.00000000  0.81866200  1
  Cu  Cu44  1  0.50000000  0.14958300  0.50000000  1
  Cu  Cu45  1  0.00000000  0.73168000  0.89009100  1
  Cu  Cu46  1  0.50000000  0.00000000  0.09750500  1
  Cu  Cu47  1  0.83257200  0.73135300  0.50000000  1
  Cu  Cu48  1  0.83357300  0.00000000  0.18133800  1
  Cu  Cu49  1  0.85041700  0.50000000  0.00000000  1
  Cu  Cu50  1  0.73168000  0.00000000  0.60990900  1
  Cu  Cu51  1  0.16642700  0.00000000  0.18133800  1
  Cu  Cu52  1  0.26832000  0.00000000  0.60990900  1
  Cu  Cu53  1  0.00000000  0.26832000  0.10990900  1
  Cu  Cu54  1  0.14958300  0.50000000  0.00000000  1
  Cu  Cu55  1  0.00000000  0.26832000  0.89009100  1
  Cu  Cu56  1  0.73135300  0.16742800  0.00000000  1
  Cu  Cu57  1  0.00000000  0.50000000  0.59750500  1
  Cu  Cu58  1  0.00000000  0.16642700  0.31866200  1
  Cu  Cu59  1  0.73135300  0.83257200  0.00000000  1
  Cu  Cu60  1  0.83357300  0.00000000  0.81866200  1
  Cu  Cu61  1  0.26864700  0.83257200  0.00000000  1
  Cu  Cu62  1  0.16742800  0.73135300  0.50000000  1
  Cu  Cu63  1  0.50000000  0.85041700  0.50000000  1
  Cu  Cu64  1  0.26864700  0.16742800  0.00000000  1
  Cu  Cu65  1  0.00000000  0.16642700  0.68133800  1
  C  C66  1  0.39238700  0.82599200  0.74340600  1
  C  C67  1  0.82599200  0.60761300  0.75659400  1
  C  C68  1  0.82599200  0.39238700  0.24340600  1
  C  C69  1  0.39238700  0.17400800  0.25659400  1
  C  C70  1  0.60761300  0.82599200  0.25659400  1
  C  C71  1  0.82599200  0.60761300  0.24340600  1
  C  C72  1  0.60761300  0.17400800  0.74340600  1
  C  C73  1  0.60761300  0.17400800  0.25659400  1
  C  C74  1  0.82599200  0.39238700  0.75659400  1
  C  C75  1  0.17400800  0.60761300  0.24340600  1
  C  C76  1  0.17400800  0.39238700  0.24340600  1
  C  C77  1  0.17400800  0.60761300  0.75659400  1
  C  C78  1  0.39238700  0.17400800  0.74340600  1
  C  C79  1  0.17400800  0.39238700  0.75659400  1
  C  C80  1  0.39238700  0.82599200  0.25659400  1
  C  C81  1  0.60761300  0.82599200  0.74340600  1
