# generated using pymatgen
data_Cu2NiC7
_symmetry_space_group_name_H-M   'P 1'
_cell_length_a   8.29723051
_cell_length_b   8.29723051
_cell_length_c   5.62757211
_cell_angle_alpha   78.68337325
_cell_angle_beta   78.68337325
_cell_angle_gamma   134.41111822
_symmetry_Int_Tables_number   1
_chemical_formula_structural   Cu2NiC7
_chemical_formula_sum   'Cu4 Ni2 C14'
_cell_volume   238.62673388
_cell_formula_units_Z   2
loop_
 _symmetry_equiv_pos_site_id
 _symmetry_equiv_pos_as_xyz
  1  'x, y, z'
loop_
 _atom_site_type_symbol
 _atom_site_label
 _atom_site_symmetry_multiplicity
 _atom_site_fract_x
 _atom_site_fract_y
 _atom_site_fract_z
 _atom_site_occupancy
  C  C0  1  0.83444100  0.17341100  0.74902800  1
  C  C1  1  0.17341100  0.83444100  0.24902800  1
  Ni  Ni2  1  0.32594200  0.67030300  0.73878200  1
  Ni  Ni3  1  0.67030300  0.32594200  0.23878200  1
  Cu  Cu4  1  0.28136600  0.29093300  0.39785100  1
  Cu  Cu5  1  0.29093300  0.28136600  0.89785100  1
  Cu  Cu6  1  0.18537400  0.35173000  0.22124600  1
  Cu  Cu7  1  0.35173000  0.18537400  0.72124600  1
  C  C8  1  0.60820300  0.84270000  0.51448300  1
  C  C9  1  0.84270000  0.60820300  0.01448300  1
  C  C10  1  0.37787700  0.81862000  0.89822100  1
  C  C11  1  0.81862000  0.37787700  0.39822100  1
  C  C12  1  0.18943500  0.40288200  0.91705300  1
  C  C13  1  0.40288200  0.18943500  0.41705300  1
  C  C14  1  0.16964500  0.63593700  0.60139300  1
  C  C15  1  0.63593700  0.16964500  0.10139300  1
  C  C16  1  0.18504500  0.32164200  0.40294200  1
  C  C17  1  0.32164200  0.18504500  0.90294200  1
  C  C18  1  0.69341100  0.80510400  0.15800000  1
  C  C19  1  0.80510400  0.69341100  0.65800000  1
