# generated using pymatgen
data_CuNiC6
_symmetry_space_group_name_H-M   'P 1'
_cell_length_a   5.21873600
_cell_length_b   9.83921600
_cell_length_c   14.89225600
_cell_angle_alpha   90.00000000
_cell_angle_beta   90.00000000
_cell_angle_gamma   90.00000000
_symmetry_Int_Tables_number   1
_chemical_formula_structural   CuNiC6
_chemical_formula_sum   'Cu8 Ni8 C48'
_cell_volume   764.69159318
_cell_formula_units_Z   8
loop_
 _symmetry_equiv_pos_site_id
 _symmetry_equiv_pos_as_xyz
  1  'x, y, z'
loop_
 _atom_site_type_symbol
 _atom_site_label
 _atom_site_symmetry_multiplicity
 _atom_site_fract_x
 _atom_site_fract_y
 _atom_site_fract_z
 _atom_site_occupancy
  C  C0  1  0.49569600  0.02158000  0.03628800  1
  C  C1  1  0.00430400  0.97842000  0.53628800  1
  C  C2  1  0.99569600  0.47842000  0.96371200  1
  C  C3  1  0.50430400  0.52158000  0.46371200  1
  C  C4  1  0.48068300  0.75169100  0.23985200  1
  C  C5  1  0.01931700  0.24830900  0.73985200  1
  C  C6  1  0.98068300  0.74830900  0.76014800  1
  C  C7  1  0.51931700  0.25169100  0.26014800  1
  C  C8  1  0.90144100  0.51261000  0.21895000  1
  C  C9  1  0.59855900  0.48739000  0.71895000  1
  C  C10  1  0.40144100  0.98739000  0.78105000  1
  C  C11  1  0.09855900  0.01261000  0.28105000  1
  Ni  Ni12  1  0.97973600  0.80222900  0.12373000  1
  Ni  Ni13  1  0.52026400  0.19777100  0.62373000  1
  Ni  Ni14  1  0.47973600  0.69777100  0.87627000  1
  Ni  Ni15  1  0.02026400  0.30222900  0.37627100  1
  Ni  Ni16  1  0.98830300  0.72398600  0.36536700  1
  Ni  Ni17  1  0.51169700  0.27601400  0.86536700  1
  Ni  Ni18  1  0.48830300  0.77601400  0.63463300  1
  Ni  Ni19  1  0.01169700  0.22398600  0.13463300  1
  Cu  Cu20  1  0.35975300  0.47899700  0.14961900  1
  Cu  Cu21  1  0.14024700  0.52100300  0.64961900  1
  Cu  Cu22  1  0.85975300  0.02100300  0.85038100  1
  Cu  Cu23  1  0.64024700  0.97899700  0.35038100  1
  Cu  Cu24  1  0.52190900  0.57410100  0.08650600  1
  Cu  Cu25  1  0.97809100  0.42589900  0.58650600  1
  Cu  Cu26  1  0.02190900  0.92589900  0.91349400  1
  Cu  Cu27  1  0.47809100  0.07410100  0.41349400  1
  C  C28  1  0.70973500  0.84650500  0.15835900  1
  C  C29  1  0.79026500  0.15349500  0.65835900  1
  C  C30  1  0.20973500  0.65349500  0.84164100  1
  C  C31  1  0.29026500  0.34650500  0.34164100  1
  C  C32  1  0.00898800  0.64575700  0.12316200  1
  C  C33  1  0.49101200  0.35424300  0.62316200  1
  C  C34  1  0.50898800  0.85424300  0.87683800  1
  C  C35  1  0.99101200  0.14575700  0.37683800  1
  C  C36  1  0.02715800  0.86518400  0.03164400  1
  C  C37  1  0.47284200  0.13481600  0.53164400  1
  C  C38  1  0.52715800  0.63481600  0.96835600  1
  C  C39  1  0.97284200  0.36518400  0.46835600  1
  C  C40  1  0.18954800  0.86484900  0.19092900  1
  C  C41  1  0.31045200  0.13515100  0.69092900  1
  C  C42  1  0.68954800  0.63515100  0.80907100  1
  C  C43  1  0.81045200  0.36484900  0.30907100  1
  C  C44  1  0.77890500  0.65500000  0.30170600  1
  C  C45  1  0.72109500  0.34500000  0.80170600  1
  C  C46  1  0.27890500  0.84500000  0.69829400  1
  C  C47  1  0.22109500  0.15500000  0.19829400  1
  C  C48  1  0.25832200  0.68010900  0.33230400  1
  C  C49  1  0.24167800  0.31989100  0.83230400  1
  C  C50  1  0.75832200  0.81989100  0.66769600  1
  C  C51  1  0.74167800  0.18010900  0.16769600  1
  C  C52  1  0.94299000  0.88081400  0.36123900  1
  C  C53  1  0.55701000  0.11918600  0.86123900  1
  C  C54  1  0.44299000  0.61918600  0.63876100  1
  C  C55  1  0.05701000  0.38081400  0.13876100  1
  C  C56  1  0.94807100  0.67557800  0.46110100  1
  C  C57  1  0.55192900  0.32442200  0.96110100  1
  C  C58  1  0.44807100  0.82442200  0.53889900  1
  C  C59  1  0.05192900  0.17557800  0.03889900  1
  C  C60  1  0.51592700  0.53519800  0.14759700  1
  C  C61  1  0.98407300  0.46480200  0.64759700  1
  C  C62  1  0.01592700  0.96480200  0.85240300  1
  C  C63  1  0.48407300  0.03519800  0.35240300  1
