# generated using pymatgen
data_CuNiC7
_symmetry_space_group_name_H-M   'P 1'
_cell_length_a   8.98724700
_cell_length_b   8.98724700
_cell_length_c   8.98724700
_cell_angle_alpha   90.00000000
_cell_angle_beta   90.00000000
_cell_angle_gamma   90.00000000
_symmetry_Int_Tables_number   1
_chemical_formula_structural   CuNiC7
_chemical_formula_sum   'Cu6 Ni6 C42'
_cell_volume   725.90541018
_cell_formula_units_Z   6
loop_
 _symmetry_equiv_pos_site_id
 _symmetry_equiv_pos_as_xyz
  1  'x, y, z'
loop_
 _atom_site_type_symbol
 _atom_site_label
 _atom_site_symmetry_multiplicity
 _atom_site_fract_x
 _atom_site_fract_y
 _atom_site_fract_z
 _atom_site_occupancy
  C  C0  1  0.82128700  0.82128700  0.17871300  1
  C  C1  1  0.82128700  0.17871300  0.82128700  1
  C  C2  1  0.17871300  0.82128700  0.82128700  1
  C  C3  1  0.17871300  0.17871300  0.17871300  1
  C  C4  1  0.32128700  0.32128700  0.67871300  1
  C  C5  1  0.32128700  0.67871300  0.32128700  1
  C  C6  1  0.67871300  0.32128700  0.32128700  1
  C  C7  1  0.67871300  0.67871300  0.67871300  1
  Ni  Ni8  1  0.75000000  0.00000000  0.50000000  1
  Ni  Ni9  1  0.00000000  0.50000000  0.75000000  1
  Ni  Ni10  1  0.25000000  0.00000000  0.50000000  1
  Ni  Ni11  1  0.50000000  0.75000000  0.00000000  1
  Ni  Ni12  1  0.50000000  0.25000000  0.00000000  1
  Ni  Ni13  1  0.00000000  0.50000000  0.25000000  1
  Cu  Cu14  1  0.75000000  0.50000000  0.00000000  1
  Cu  Cu15  1  0.00000000  0.75000000  0.50000000  1
  Cu  Cu16  1  0.25000000  0.50000000  0.00000000  1
  Cu  Cu17  1  0.50000000  0.00000000  0.75000000  1
  Cu  Cu18  1  0.50000000  0.00000000  0.25000000  1
  Cu  Cu19  1  0.00000000  0.25000000  0.50000000  1
  C  C20  1  0.00000000  0.00000000  0.00000000  1
  C  C21  1  0.50000000  0.50000000  0.50000000  1
  C  C22  1  0.57916000  0.57916000  0.42084000  1
  C  C23  1  0.57916000  0.42084000  0.57916000  1
  C  C24  1  0.07916000  0.07916000  0.92084000  1
  C  C25  1  0.07916000  0.92084000  0.07916000  1
  C  C26  1  0.42084000  0.57916000  0.57916000  1
  C  C27  1  0.42084000  0.42084000  0.42084000  1
  C  C28  1  0.92084000  0.92084000  0.92084000  1
  C  C29  1  0.92084000  0.07916000  0.07916000  1
  C  C30  1  0.56180300  0.86036100  0.14961700  1
  C  C31  1  0.56180300  0.13963900  0.85038300  1
  C  C32  1  0.85038300  0.56180300  0.13963900  1
  C  C33  1  0.85038300  0.43819700  0.86036100  1
  C  C34  1  0.86036100  0.14961700  0.56180300  1
  C  C35  1  0.86036100  0.85038300  0.43819700  1
  C  C36  1  0.06180300  0.35038300  0.63963900  1
  C  C37  1  0.06180300  0.64961700  0.36036100  1
  C  C38  1  0.13963900  0.85038300  0.56180300  1
  C  C39  1  0.13963900  0.14961700  0.43819700  1
  C  C40  1  0.14961700  0.56180300  0.86036100  1
  C  C41  1  0.14961700  0.43819700  0.13963900  1
  C  C42  1  0.35038300  0.36036100  0.93819700  1
  C  C43  1  0.35038300  0.63963900  0.06180300  1
  C  C44  1  0.36036100  0.06180300  0.64961700  1
  C  C45  1  0.36036100  0.93819700  0.35038300  1
  C  C46  1  0.43819700  0.86036100  0.85038300  1
  C  C47  1  0.43819700  0.13963900  0.14961700  1
  C  C48  1  0.63963900  0.06180300  0.35038300  1
  C  C49  1  0.63963900  0.93819700  0.64961700  1
  C  C50  1  0.64961700  0.36036100  0.06180300  1
  C  C51  1  0.64961700  0.63963900  0.93819700  1
  C  C52  1  0.93819700  0.35038300  0.36036100  1
  C  C53  1  0.93819700  0.64961700  0.63963900  1
