# generated using pymatgen
data_Cu2Ni2C31
_symmetry_space_group_name_H-M   'P 1'
_cell_length_a   10.08222470
_cell_length_b   10.08222470
_cell_length_c   6.64779865
_cell_angle_alpha   77.20447524
_cell_angle_beta   77.20447524
_cell_angle_gamma   41.19326658
_symmetry_Int_Tables_number   1
_chemical_formula_structural   Cu2Ni2C31
_chemical_formula_sum   'Cu2 Ni2 C31'
_cell_volume   432.41843544
_cell_formula_units_Z   1
loop_
 _symmetry_equiv_pos_site_id
 _symmetry_equiv_pos_as_xyz
  1  'x, y, z'
loop_
 _atom_site_type_symbol
 _atom_site_label
 _atom_site_symmetry_multiplicity
 _atom_site_fract_x
 _atom_site_fract_y
 _atom_site_fract_z
 _atom_site_occupancy
  C  C0  1  0.00000000  0.00000000  0.00000000  1
  C  C1  1  0.81728100  0.04351400  0.69003700  1
  C  C2  1  0.04351400  0.81728100  0.69003700  1
  C  C3  1  0.18271900  0.95648600  0.30996300  1
  C  C4  1  0.95648600  0.18271900  0.30996300  1
  C  C5  1  0.82678500  0.33557800  0.70083900  1
  C  C6  1  0.33557800  0.82678500  0.70083900  1
  C  C7  1  0.17321500  0.66442200  0.29916100  1
  C  C8  1  0.66442200  0.17321500  0.29916100  1
  C  C9  1  0.77755500  0.40083300  0.92715300  1
  C  C10  1  0.40083300  0.77755500  0.92715300  1
  C  C11  1  0.22244500  0.59916700  0.07284700  1
  C  C12  1  0.59916700  0.22244500  0.07284700  1
  Ni  Ni13  1  0.27426000  0.27426000  0.71156900  1
  Ni  Ni14  1  0.72574000  0.72574000  0.28843100  1
  Cu  Cu15  1  0.37546800  0.37546800  0.68972500  1
  Cu  Cu16  1  0.62453200  0.62453200  0.31027500  1
  C  C17  1  0.38269200  0.38269200  0.90404100  1
  C  C18  1  0.61730800  0.61730800  0.09595900  1
  C  C19  1  0.22707200  0.57508400  0.57554800  1
  C  C20  1  0.57508400  0.22707200  0.57554800  1
  C  C21  1  0.77292800  0.42491600  0.42445200  1
  C  C22  1  0.42491600  0.77292800  0.42445200  1
  C  C23  1  0.94884200  0.94884200  0.74608900  1
  C  C24  1  0.05115800  0.05115800  0.25391100  1
  C  C25  1  0.85686100  0.28634200  0.84594300  1
  C  C26  1  0.28634200  0.85686100  0.84594300  1
  C  C27  1  0.14313900  0.71365800  0.15405700  1
  C  C28  1  0.71365800  0.14313900  0.15405700  1
  C  C29  1  0.26070900  0.26070900  0.52018600  1
  C  C30  1  0.73929100  0.73929100  0.47981400  1
  C  C31  1  0.08877000  0.39910300  0.81450900  1
  C  C32  1  0.39910300  0.08877000  0.81450900  1
  C  C33  1  0.91123000  0.60089700  0.18549100  1
  C  C34  1  0.60089700  0.91123000  0.18549100  1
