# generated using pymatgen
data_Cu9(Ni3C11)2
_symmetry_space_group_name_H-M   'P 1'
_cell_length_a   8.03980552
_cell_length_b   8.03980552
_cell_length_c   12.30338767
_cell_angle_alpha   69.18127509
_cell_angle_beta   69.18127509
_cell_angle_gamma   79.44441077
_symmetry_Int_Tables_number   1
_chemical_formula_structural   Cu9(Ni3C11)2
_chemical_formula_sum   'Cu18 Ni12 C44'
_cell_volume   693.34138185
_cell_formula_units_Z   2
loop_
 _symmetry_equiv_pos_site_id
 _symmetry_equiv_pos_as_xyz
  1  'x, y, z'
loop_
 _atom_site_type_symbol
 _atom_site_label
 _atom_site_symmetry_multiplicity
 _atom_site_fract_x
 _atom_site_fract_y
 _atom_site_fract_z
 _atom_site_occupancy
  C  C0  1  0.88392400  0.24347000  0.61144400  1
  C  C1  1  0.24347000  0.88392400  0.61144400  1
  C  C2  1  0.11607600  0.75653000  0.38855600  1
  C  C3  1  0.75653000  0.11607600  0.38855600  1
  C  C4  1  0.37051200  0.96705800  0.15138900  1
  C  C5  1  0.96705800  0.37051200  0.15138900  1
  C  C6  1  0.62948800  0.03294200  0.84861100  1
  C  C7  1  0.03294200  0.62948800  0.84861100  1
  C  C8  1  0.43634900  0.75445000  0.18331000  1
  C  C9  1  0.75445000  0.43634900  0.18331000  1
  C  C10  1  0.56365100  0.24555000  0.81669000  1
  C  C11  1  0.24555000  0.56365100  0.81669000  1
  C  C12  1  0.80821700  0.27612100  0.92315500  1
  C  C13  1  0.27612100  0.80821700  0.92315500  1
  C  C14  1  0.19178300  0.72387900  0.07684500  1
  C  C15  1  0.72387900  0.19178300  0.07684500  1
  C  C16  1  0.94763400  0.18571400  0.00595400  1
  C  C17  1  0.18571400  0.94763400  0.00595400  1
  C  C18  1  0.05236600  0.81428600  0.99404600  1
  C  C19  1  0.81428600  0.05236600  0.99404600  1
  C  C20  1  0.82775100  0.66554500  0.69208000  1
  C  C21  1  0.66554500  0.82775100  0.69208000  1
  C  C22  1  0.17224900  0.33445500  0.30792000  1
  C  C23  1  0.33445500  0.17224900  0.30792000  1
  C  C24  1  0.64178500  0.64178500  0.66718700  1
  C  C25  1  0.35821500  0.35821500  0.33281300  1
  C  C26  1  0.63454100  0.63454100  0.80838400  1
  C  C27  1  0.36545900  0.36545900  0.19161600  1
  C  C28  1  0.40400500  0.40400500  0.65962900  1
  C  C29  1  0.59599500  0.59599500  0.34037100  1
  C  C30  1  0.19392400  0.35687300  0.68031300  1
  C  C31  1  0.35687300  0.19392400  0.68031300  1
  C  C32  1  0.80607600  0.64312700  0.31968700  1
  C  C33  1  0.64312700  0.80607600  0.31968700  1
  C  C34  1  0.36079600  0.36079600  0.55014900  1
  C  C35  1  0.63920400  0.63920400  0.44985100  1
  C  C36  1  0.28831100  0.28831100  0.00151400  1
  C  C37  1  0.71168900  0.71168900  0.99848600  1
  C  C38  1  0.17710700  0.82289300  0.00000000  1
  C  C39  1  0.82289300  0.17710700  0.00000000  1
  C  C40  1  0.69097900  0.69097900  0.71584000  1
  C  C41  1  0.30902100  0.30902100  0.28416000  1
  C  C42  1  0.67082200  0.67082200  0.35623300  1
  C  C43  1  0.32917800  0.32917800  0.64376700  1
  Ni  Ni44  1  0.17727900  0.41490600  0.06664100  1
  Ni  Ni45  1  0.41490600  0.17727900  0.06664100  1
  Ni  Ni46  1  0.82272100  0.58509400  0.93335900  1
  Ni  Ni47  1  0.58509400  0.82272100  0.93335900  1
  Ni  Ni48  1  0.82764600  0.82764600  0.00839200  1
  Ni  Ni49  1  0.17235400  0.17235400  0.99160800  1
  Ni  Ni50  1  0.60587500  0.60587500  0.12693000  1
  Ni  Ni51  1  0.39412500  0.39412500  0.87307000  1
  Ni  Ni52  1  0.34242500  0.84394700  0.21045200  1
  Ni  Ni53  1  0.84394700  0.34242500  0.21045200  1
  Ni  Ni54  1  0.65757500  0.15605300  0.78954800  1
  Ni  Ni55  1  0.15605300  0.65757500  0.78954800  1
  Cu  Cu56  1  0.03146900  0.03146900  0.29797100  1
  Cu  Cu57  1  0.96853100  0.96853100  0.70202900  1
  Cu  Cu58  1  0.83078700  0.83078700  0.46367000  1
  Cu  Cu59  1  0.16921300  0.16921300  0.53633000  1
  Cu  Cu60  1  0.04261900  0.68350100  0.27065800  1
  Cu  Cu61  1  0.68350100  0.04261900  0.27065800  1
  Cu  Cu62  1  0.95738100  0.31649900  0.72934200  1
  Cu  Cu63  1  0.31649900  0.95738100  0.72934200  1
  Cu  Cu64  1  0.06924700  0.73046500  0.58242800  1
  Cu  Cu65  1  0.73046500  0.06924700  0.58242800  1
  Cu  Cu66  1  0.93075300  0.26953500  0.41757200  1
  Cu  Cu67  1  0.26953500  0.93075300  0.41757200  1
  Cu  Cu68  1  0.32219100  0.57535100  0.40142900  1
  Cu  Cu69  1  0.57535100  0.32219100  0.40142900  1
  Cu  Cu70  1  0.67780900  0.42464900  0.59857100  1
  Cu  Cu71  1  0.42464900  0.67780900  0.59857100  1
  Cu  Cu72  1  0.00000000  0.50000000  0.50000000  1
  Cu  Cu73  1  0.50000000  0.00000000  0.50000000  1
