# generated using pymatgen
data_Cu(Ni3C5)5
_symmetry_space_group_name_H-M   'P 1'
_cell_length_a   17.24219377
_cell_length_b   17.24219377
_cell_length_c   17.24219312
_cell_angle_alpha   50.47068297
_cell_angle_beta   50.47068297
_cell_angle_gamma   50.47068393
_symmetry_Int_Tables_number   1
_chemical_formula_structural   Cu(Ni3C5)5
_chemical_formula_sum   'Cu4 Ni60 C100'
_cell_volume   2809.36924174
_cell_formula_units_Z   4
loop_
 _symmetry_equiv_pos_site_id
 _symmetry_equiv_pos_as_xyz
  1  'x, y, z'
loop_
 _atom_site_type_symbol
 _atom_site_label
 _atom_site_symmetry_multiplicity
 _atom_site_fract_x
 _atom_site_fract_y
 _atom_site_fract_z
 _atom_site_occupancy
  Ni  Ni0  1  0.28255300  0.08183400  0.43187700  1
  Ni  Ni1  1  0.19844600  0.02969300  0.72131800  1
  Ni  Ni2  1  0.48566700  0.18428400  0.31941500  1
  Ni  Ni3  1  0.44327600  0.10119300  0.60823800  1
  Ni  Ni4  1  0.20865600  0.07887300  0.90160200  1
  Ni  Ni5  1  0.69195300  0.18143500  0.38794400  1
  Ni  Ni6  1  0.49504400  0.00674200  0.84594400  1
  Ni  Ni7  1  0.48235000  0.28018800  0.62645800  1
  Ni  Ni8  1  0.98227600  0.12862400  0.28275700  1
  Ni  Ni9  1  0.79202400  0.08555800  0.58918900  1
  Ni  Ni10  1  0.40117700  0.24960100  0.90414700  1
  Ni  Ni11  1  0.68166600  0.02386600  0.88907700  1
  Ni  Ni12  1  0.68198800  0.38103800  0.52667700  1
  Ni  Ni13  1  0.98562700  0.18780100  0.49612500  1
  Ni  Ni14  1  0.64646700  0.30306300  0.79985400  1
  Ni  Ni15  1  0.43187700  0.28255300  0.08183400  1
  Ni  Ni16  1  0.92251500  0.09260400  0.79337700  1
  Ni  Ni17  1  0.88826200  0.39218500  0.58719300  1
  Ni  Ni18  1  0.72131800  0.19844600  0.02969300  1
  Ni  Ni19  1  0.67927200  0.48371300  0.82704000  1
  Ni  Ni20  1  0.18428400  0.31941500  0.48566700  1
  Ni  Ni21  1  0.97711400  0.27733000  0.79949300  1
  Ni  Ni22  1  0.60823800  0.44327600  0.10119300  1
  Ni  Ni23  1  0.90160200  0.20865600  0.07887300  1
  Ni  Ni24  1  0.88224600  0.57849200  0.72663400  1
  Ni  Ni25  1  0.18143500  0.38794400  0.69195300  1
  Ni  Ni26  1  0.84594400  0.49504400  0.00674200  1
  Ni  Ni27  1  0.62645800  0.48235000  0.28018800  1
  Ni  Ni28  1  0.12862400  0.28275700  0.98227600  1
  Ni  Ni29  1  0.08555800  0.58918900  0.79202400  1
  Ni  Ni30  1  0.90414700  0.40117700  0.24960100  1
  Ni  Ni31  1  0.88907700  0.68166600  0.02386600  1
  Ni  Ni32  1  0.38103800  0.52667700  0.68198800  1
  Ni  Ni33  1  0.18780100  0.49612500  0.98562700  1
  Ni  Ni34  1  0.79985400  0.64646700  0.30306300  1
  Ni  Ni35  1  0.08183400  0.43187700  0.28255300  1
  Ni  Ni36  1  0.09260400  0.79337700  0.92251500  1
  Ni  Ni37  1  0.39218500  0.58719300  0.88826200  1
  Ni  Ni38  1  0.02969300  0.72131800  0.19844600  1
  Ni  Ni39  1  0.82704000  0.67927200  0.48371300  1
  Ni  Ni40  1  0.31941500  0.48566700  0.18428400  1
  Ni  Ni41  1  0.27733000  0.79949300  0.97711400  1
  Ni  Ni42  1  0.10119300  0.60823800  0.44327600  1
  Ni  Ni43  1  0.07887300  0.90160200  0.20865600  1
  Ni  Ni44  1  0.57849200  0.72663400  0.88224600  1
  Ni  Ni45  1  0.38794400  0.69195300  0.18143500  1
  Ni  Ni46  1  0.00674200  0.84594400  0.49504400  1
  Ni  Ni47  1  0.28018800  0.62645800  0.48235000  1
  Ni  Ni48  1  0.28275700  0.98227600  0.12862400  1
  Ni  Ni49  1  0.58918900  0.79202400  0.08555800  1
  Ni  Ni50  1  0.24960100  0.90414700  0.40117700  1
  Ni  Ni51  1  0.02386600  0.88907700  0.68166600  1
  Ni  Ni52  1  0.52667700  0.68198800  0.38103800  1
  Ni  Ni53  1  0.49612500  0.98562700  0.18780100  1
  Ni  Ni54  1  0.30306300  0.79985400  0.64646700  1
  Ni  Ni55  1  0.79337700  0.92251500  0.09260400  1
  Ni  Ni56  1  0.58719300  0.88826200  0.39218500  1
  Ni  Ni57  1  0.48371300  0.82704000  0.67927200  1
  Ni  Ni58  1  0.79949300  0.97711400  0.27733000  1
  Ni  Ni59  1  0.72663400  0.88224600  0.57849200  1
  Cu  Cu60  1  0.20069800  0.20069800  0.20069800  1
  Cu  Cu61  1  0.39987100  0.39987100  0.39987100  1
  Cu  Cu62  1  0.59995100  0.59995100  0.59995100  1
  Cu  Cu63  1  0.79969100  0.79969100  0.79969100  1
  C  C64  1  0.05466000  0.05466000  0.05466000  1
  C  C65  1  0.12307100  0.12307100  0.12307100  1
  C  C66  1  0.12470500  0.12165300  0.31590000  1
  C  C67  1  0.31590000  0.12470500  0.12165300  1
  C  C68  1  0.23896800  0.23896800  0.23896800  1
  C  C69  1  0.44309100  0.07989500  0.32903100  1
  C  C70  1  0.65538500  0.01526600  0.27747100  1
  C  C71  1  0.26991500  0.14970000  0.52976500  1
  C  C72  1  0.32044400  0.32044400  0.32044400  1
  C  C73  1  0.77911500  0.14713200  0.14756500  1
  C  C74  1  0.14713200  0.14756500  0.77911500  1
  C  C75  1  0.68041500  0.04919600  0.41978500  1
  C  C76  1  0.32331800  0.32234200  0.51595600  1
  C  C77  1  0.51595600  0.32331800  0.32234200  1
  C  C78  1  0.37321600  0.12353100  0.75008900  1
  C  C79  1  0.88431800  0.12501400  0.24409600  1
  C  C80  1  0.55962000  0.16121900  0.55829600  1
  C  C81  1  0.43841100  0.43841100  0.43841100  1
  C  C82  1  0.81920800  0.07776800  0.45494200  1
  C  C83  1  0.32696400  0.07205100  0.95773700  1
  C  C84  1  0.52418200  0.14695300  0.77048200  1
  C  C85  1  0.64160300  0.28236300  0.52795400  1
  C  C86  1  0.85635800  0.21698000  0.47850200  1
  C  C87  1  0.46930100  0.35503200  0.73096200  1
  C  C88  1  0.52065100  0.52065100  0.52065100  1
  C  C89  1  0.54679800  0.17190000  0.92561100  1
  C  C90  1  0.92605200  0.04894700  0.67634800  1
  C  C91  1  0.96068100  0.35982700  0.36081200  1
  C  C92  1  0.35982700  0.36081200  0.96068100  1
  C  C93  1  0.87281100  0.26152500  0.61768100  1
  C  C94  1  0.75168700  0.13238700  0.87107200  1
  C  C95  1  0.71532100  0.52299100  0.52257400  1
  C  C96  1  0.52299100  0.52257400  0.71532100  1
  C  C97  1  0.57229100  0.32914800  0.94153500  1
  C  C98  1  0.07989500  0.32903100  0.44309100  1
  C  C99  1  0.75347100  0.36957600  0.75352300  1
  C  C100  1  0.63839800  0.63839800  0.63839800  1
  C  C101  1  0.01526600  0.27747100  0.65538500  1
  C  C102  1  0.52976500  0.26991500  0.14970000  1
  C  C103  1  0.89034200  0.16387600  0.89063000  1
  C  C104  1  0.72606000  0.34894300  0.96854600  1
  C  C105  1  0.83908700  0.48254200  0.72565700  1
  C  C106  1  0.04919600  0.41978500  0.68041500  1
  C  C107  1  0.66933600  0.55492600  0.92918300  1
  C  C108  1  0.71963800  0.71963800  0.71963800  1
  C  C109  1  0.75008900  0.37321600  0.12353100  1
  C  C110  1  0.12501400  0.24409600  0.88431800  1
  C  C111  1  0.16121900  0.55829600  0.55962000  1
  C  C112  1  0.55829600  0.55962000  0.16121900  1
  C  C113  1  0.07776800  0.45494200  0.81920800  1
  C  C114  1  0.95773700  0.32696400  0.07205100  1
  C  C115  1  0.72068000  0.72474500  0.91578000  1
  C  C116  1  0.91578000  0.72068000  0.72474500  1
  C  C117  1  0.77048200  0.52418200  0.14695300  1
  C  C118  1  0.28236300  0.52795400  0.64160300  1
  C  C119  1  0.95855000  0.55977500  0.96077900  1
  C  C120  1  0.83844800  0.83844800  0.83844800  1
  C  C121  1  0.21698000  0.47850200  0.85635800  1
  C  C122  1  0.73096200  0.46930100  0.35503200  1
  C  C123  1  0.12165300  0.31590000  0.12470500  1
  C  C124  1  0.92561100  0.54679800  0.17190000  1
  C  C125  1  0.04894700  0.67634800  0.92605200  1
  C  C126  1  0.26152500  0.61768100  0.87281100  1
  C  C127  1  0.87107200  0.75168700  0.13238700  1
  C  C128  1  0.92669600  0.92669600  0.92669600  1
  C  C129  1  0.94153500  0.57229100  0.32914800  1
  C  C130  1  0.32903100  0.44309100  0.07989500  1
  C  C131  1  0.36957600  0.75352300  0.75347100  1
  C  C132  1  0.75352300  0.75347100  0.36957600  1
  C  C133  1  0.27747100  0.65538500  0.01526600  1
  C  C134  1  0.14970000  0.52976500  0.26991500  1
  C  C135  1  0.89063000  0.89034200  0.16387600  1
  C  C136  1  0.16387600  0.89063000  0.89034200  1
  C  C137  1  0.96854600  0.72606000  0.34894300  1
  C  C138  1  0.48254200  0.72565700  0.83908700  1
  C  C139  1  0.14756500  0.77911500  0.14713200  1
  C  C140  1  0.41978500  0.68041500  0.04919600  1
  C  C141  1  0.92918300  0.66933600  0.55492600  1
  C  C142  1  0.32234200  0.51595600  0.32331800  1
  C  C143  1  0.12353100  0.75008900  0.37321600  1
  C  C144  1  0.24409600  0.88431800  0.12501400  1
  C  C145  1  0.45494200  0.81920800  0.07776800  1
  C  C146  1  0.07205100  0.95773700  0.32696400  1
  C  C147  1  0.14695300  0.77048200  0.52418200  1
  C  C148  1  0.52795400  0.64160300  0.28236300  1
  C  C149  1  0.55977500  0.96077900  0.95855000  1
  C  C150  1  0.96077900  0.95855000  0.55977500  1
  C  C151  1  0.47850200  0.85635800  0.21698000  1
  C  C152  1  0.35503200  0.73096200  0.46930100  1
  C  C153  1  0.17190000  0.92561100  0.54679800  1
  C  C154  1  0.67634800  0.92605200  0.04894700  1
  C  C155  1  0.36081200  0.96068100  0.35982700  1
  C  C156  1  0.61768100  0.87281100  0.26152500  1
  C  C157  1  0.13238700  0.87107200  0.75168700  1
  C  C158  1  0.52257400  0.71532100  0.52299100  1
  C  C159  1  0.32914800  0.94153500  0.57229100  1
  C  C160  1  0.34894300  0.96854600  0.72606000  1
  C  C161  1  0.72565700  0.83908700  0.48254200  1
  C  C162  1  0.55492600  0.92918300  0.66933600  1
  C  C163  1  0.72474500  0.91578000  0.72068000  1
