# generated using pymatgen
data_CuNiC5
_symmetry_space_group_name_H-M   'P 1'
_cell_length_a   6.79977300
_cell_length_b   6.84221600
_cell_length_c   18.06872600
_cell_angle_alpha   90.00000000
_cell_angle_beta   90.00000000
_cell_angle_gamma   90.00000000
_symmetry_Int_Tables_number   1
_chemical_formula_structural   CuNiC5
_chemical_formula_sum   'Cu8 Ni8 C40'
_cell_volume   840.65679369
_cell_formula_units_Z   8
loop_
 _symmetry_equiv_pos_site_id
 _symmetry_equiv_pos_as_xyz
  1  'x, y, z'
loop_
 _atom_site_type_symbol
 _atom_site_label
 _atom_site_symmetry_multiplicity
 _atom_site_fract_x
 _atom_site_fract_y
 _atom_site_fract_z
 _atom_site_occupancy
  C  C0  1  0.02917300  0.98816000  0.67644800  1
  C  C1  1  0.97082700  0.01184000  0.32355200  1
  C  C2  1  0.02917300  0.51184000  0.17644800  1
  C  C3  1  0.97082700  0.48816000  0.82355200  1
  C  C4  1  0.47082700  0.01184000  0.17644800  1
  C  C5  1  0.52917300  0.51184000  0.32355200  1
  C  C6  1  0.47082700  0.48816000  0.67644800  1
  C  C7  1  0.52917300  0.98816000  0.82355200  1
  Ni  Ni8  1  0.70179900  0.22484600  0.99333100  1
  Ni  Ni9  1  0.20179900  0.22484600  0.50666900  1
  Ni  Ni10  1  0.29820100  0.77515400  0.00666900  1
  Ni  Ni11  1  0.20179900  0.27515400  0.00666900  1
  Ni  Ni12  1  0.79820100  0.77515400  0.49333100  1
  Ni  Ni13  1  0.29820100  0.72484600  0.50666900  1
  Ni  Ni14  1  0.70179900  0.27515400  0.49333100  1
  Ni  Ni15  1  0.79820100  0.72484600  0.99333100  1
  Cu  Cu16  1  0.46083000  0.98065100  0.39657700  1
  Cu  Cu17  1  0.03917000  0.01934900  0.89657700  1
  Cu  Cu18  1  0.03917000  0.48065100  0.39657700  1
  Cu  Cu19  1  0.96083000  0.51934900  0.60342300  1
  Cu  Cu20  1  0.53917000  0.01934900  0.60342300  1
  Cu  Cu21  1  0.53917000  0.48065100  0.10342300  1
  Cu  Cu22  1  0.46083000  0.51934900  0.89657700  1
  Cu  Cu23  1  0.96083000  0.98065100  0.10342300  1
  C  C24  1  0.88940000  0.65243100  0.40195300  1
  C  C25  1  0.75489500  0.03268600  0.07017800  1
  C  C26  1  0.38940000  0.65243100  0.09804700  1
  C  C27  1  0.46322300  0.30549300  0.05169800  1
  C  C28  1  0.53677700  0.69450700  0.94830200  1
  C  C29  1  0.61060000  0.15243100  0.40195300  1
  C  C30  1  0.11060000  0.15243100  0.09804700  1
  C  C31  1  0.74510500  0.53268600  0.07017800  1
  C  C32  1  0.05866500  0.08886000  0.81691500  1
  C  C33  1  0.96322300  0.30549300  0.44830200  1
  C  C34  1  0.25489500  0.03268600  0.42982200  1
  C  C35  1  0.11060000  0.34756900  0.59804700  1
  C  C36  1  0.88940000  0.84756900  0.90195300  1
  C  C37  1  0.55866500  0.08886000  0.68308500  1
  C  C38  1  0.44133500  0.58886000  0.81691500  1
  C  C39  1  0.55866500  0.41114000  0.18308500  1
  C  C40  1  0.75489500  0.46731400  0.57017800  1
  C  C41  1  0.46322300  0.19450700  0.55169800  1
  C  C42  1  0.44133500  0.91114000  0.31691500  1
  C  C43  1  0.94133500  0.58886000  0.68308500  1
  C  C44  1  0.25489500  0.46731400  0.92982200  1
  C  C45  1  0.24510500  0.96731400  0.92982200  1
  C  C46  1  0.38940000  0.84756900  0.59804700  1
  C  C47  1  0.53677700  0.80549300  0.44830200  1
  C  C48  1  0.24510500  0.53268600  0.42982200  1
  C  C49  1  0.05866500  0.41114000  0.31691500  1
  C  C50  1  0.94133500  0.91114000  0.18308500  1
  C  C51  1  0.96322300  0.19450700  0.94830200  1
  C  C52  1  0.03677700  0.80549300  0.05169800  1
  C  C53  1  0.61060000  0.34756900  0.90195300  1
  C  C54  1  0.03677700  0.69450700  0.55169800  1
  C  C55  1  0.74510500  0.96731400  0.57017800  1
