# generated using pymatgen
data_Cu2NiC4
_symmetry_space_group_name_H-M   'P 1'
_cell_length_a   5.15890900
_cell_length_b   8.04694117
_cell_length_c   15.16298689
_cell_angle_alpha   83.76725357
_cell_angle_beta   83.06798592
_cell_angle_gamma   81.20090080
_symmetry_Int_Tables_number   1
_chemical_formula_structural   Cu2NiC4
_chemical_formula_sum   'Cu16 Ni8 C32'
_cell_volume   614.90184429
_cell_formula_units_Z   8
loop_
 _symmetry_equiv_pos_site_id
 _symmetry_equiv_pos_as_xyz
  1  'x, y, z'
loop_
 _atom_site_type_symbol
 _atom_site_label
 _atom_site_symmetry_multiplicity
 _atom_site_fract_x
 _atom_site_fract_y
 _atom_site_fract_z
 _atom_site_occupancy
  C  C0  1  0.96101500  0.05581700  0.76069100  1
  C  C1  1  0.03898500  0.94418300  0.23930900  1
  Ni  Ni2  1  0.53724300  0.89908900  0.65747700  1
  Ni  Ni3  1  0.17759100  0.32930400  0.21126500  1
  Ni  Ni4  1  0.82240900  0.67069600  0.78873500  1
  Ni  Ni5  1  0.61504400  0.77826600  0.14283000  1
  Ni  Ni6  1  0.81161700  0.59081000  0.30907200  1
  Ni  Ni7  1  0.38495600  0.22173400  0.85717000  1
  Ni  Ni8  1  0.18838300  0.40919000  0.69092800  1
  Ni  Ni9  1  0.46275700  0.10091100  0.34252300  1
  Cu  Cu10  1  0.26402100  0.65402300  0.03323700  1
  Cu  Cu11  1  0.58565100  0.28877000  0.06686800  1
  Cu  Cu12  1  0.74592700  0.45737200  0.05288400  1
  Cu  Cu13  1  0.73597900  0.34597700  0.96676300  1
  Cu  Cu14  1  0.03077900  0.68406200  0.53060400  1
  Cu  Cu15  1  0.18525300  0.71747100  0.42579800  1
  Cu  Cu16  1  0.25407300  0.54262800  0.94711600  1
  Cu  Cu17  1  0.92154500  0.26117000  0.04905700  1
  Cu  Cu18  1  0.35137400  0.72319400  0.51497200  1
  Cu  Cu19  1  0.81474700  0.28252900  0.57420200  1
  Cu  Cu20  1  0.96922100  0.31593800  0.46939600  1
  Cu  Cu21  1  0.09671400  0.87201200  0.49236100  1
  Cu  Cu22  1  0.41434900  0.71123000  0.93313200  1
  Cu  Cu23  1  0.64862600  0.27680600  0.48502800  1
  Cu  Cu24  1  0.90328600  0.12798800  0.50763900  1
  Cu  Cu25  1  0.07845500  0.73883000  0.95094300  1
  C  C26  1  0.25125600  0.66415900  0.96560200  1
  C  C27  1  0.16804400  0.74654900  0.49101200  1
  C  C28  1  0.74874400  0.33584100  0.03439800  1
  C  C29  1  0.83195600  0.25345100  0.50898800  1
  C  C30  1  0.98522800  0.28408900  0.70104800  1
  C  C31  1  0.75922900  0.03422500  0.33224600  1
  C  C32  1  0.63960300  0.63181500  0.22666600  1
  C  C33  1  0.36199900  0.16945300  0.42986700  1
  C  C34  1  0.24338900  0.45428600  0.13631200  1
  C  C35  1  0.43260400  0.25291400  0.26037000  1
  C  C36  1  0.02409600  0.59291800  0.70871300  1
  C  C37  1  0.05752300  0.17821700  0.18691500  1
  C  C38  1  0.70807500  0.69585000  0.05862200  1
  C  C39  1  0.01477200  0.71591100  0.29895200  1
  C  C40  1  0.94247700  0.82178300  0.81308500  1
  C  C41  1  0.56739600  0.74708600  0.73963000  1
  C  C42  1  0.78163800  0.91328900  0.16228400  1
  C  C43  1  0.75661100  0.54571400  0.86368800  1
  C  C44  1  0.69825800  0.03204800  0.68341100  1
  C  C45  1  0.36039700  0.36818500  0.77333400  1
  C  C46  1  0.32105900  0.85483400  0.14973100  1
  C  C47  1  0.29192500  0.30415000  0.94137800  1
  C  C48  1  0.67894100  0.14516600  0.85026900  1
  C  C49  1  0.30174200  0.96795200  0.31658900  1
  C  C50  1  0.63800100  0.83054700  0.57013300  1
  C  C51  1  0.65266900  0.57158700  0.39612800  1
  C  C52  1  0.97590400  0.40708200  0.29128700  1
  C  C53  1  0.24077100  0.96577500  0.66775400  1
  C  C54  1  0.34733100  0.42841300  0.60387200  1
  C  C55  1  0.21836200  0.08671100  0.83771600  1
