# generated using pymatgen
data_CuNiC5
_symmetry_space_group_name_H-M   'P 1'
_cell_length_a   5.57979300
_cell_length_b   7.36809300
_cell_length_c   9.12810000
_cell_angle_alpha   90.00000000
_cell_angle_beta   90.00000000
_cell_angle_gamma   90.00000000
_symmetry_Int_Tables_number   1
_chemical_formula_structural   CuNiC5
_chemical_formula_sum   'Cu4 Ni4 C20'
_cell_volume   375.27840647
_cell_formula_units_Z   4
loop_
 _symmetry_equiv_pos_site_id
 _symmetry_equiv_pos_as_xyz
  1  'x, y, z'
loop_
 _atom_site_type_symbol
 _atom_site_label
 _atom_site_symmetry_multiplicity
 _atom_site_fract_x
 _atom_site_fract_y
 _atom_site_fract_z
 _atom_site_occupancy
  Ni  Ni0  1  0.25000000  0.99931700  0.56776900  1
  Ni  Ni1  1  0.25000000  0.50068300  0.06776900  1
  Ni  Ni2  1  0.75000000  0.49931700  0.93223100  1
  Ni  Ni3  1  0.75000000  0.00068300  0.43223100  1
  C  C4  1  0.25000000  0.62621400  0.74817900  1
  C  C5  1  0.75000000  0.12621400  0.75182100  1
  C  C6  1  0.75000000  0.37378600  0.25182100  1
  C  C7  1  0.25000000  0.87378600  0.24817900  1
  Cu  Cu8  1  0.75000000  0.81343700  0.08670600  1
  Cu  Cu9  1  0.75000000  0.68656300  0.58670600  1
  Cu  Cu10  1  0.25000000  0.31343700  0.41329400  1
  Cu  Cu11  1  0.25000000  0.18656300  0.91329400  1
  C  C12  1  0.03131100  0.14809500  0.44246800  1
  C  C13  1  0.25000000  0.10764100  0.74414100  1
  C  C14  1  0.75000000  0.60764100  0.75585900  1
  C  C15  1  0.75000000  0.54111700  0.46271900  1
  C  C16  1  0.25000000  0.04111700  0.03728100  1
  C  C17  1  0.96868900  0.64809500  0.05753200  1
  C  C18  1  0.46868900  0.35190500  0.94246800  1
  C  C19  1  0.46868900  0.14809500  0.44246800  1
  C  C20  1  0.25000000  0.39235900  0.24414100  1
  C  C21  1  0.75000000  0.95888300  0.96271900  1
  C  C22  1  0.25000000  0.45888300  0.53728100  1
  C  C23  1  0.53131100  0.64809500  0.05753200  1
  C  C24  1  0.53131100  0.85190500  0.55753200  1
  C  C25  1  0.03131100  0.35190500  0.94246800  1
  C  C26  1  0.75000000  0.89235900  0.25585900  1
  C  C27  1  0.96868900  0.85190500  0.55753200  1
