# generated using pymatgen
data_Cu12Ni6C25
_symmetry_space_group_name_H-M   'P 1'
_cell_length_a   10.03379312
_cell_length_b   10.03379312
_cell_length_c   10.03379298
_cell_angle_alpha   99.55708391
_cell_angle_beta   99.55708391
_cell_angle_gamma   99.55707851
_symmetry_Int_Tables_number   1
_chemical_formula_structural   Cu12Ni6C25
_chemical_formula_sum   'Cu24 Ni12 C50'
_cell_volume   962.66201336
_cell_formula_units_Z   2
loop_
 _symmetry_equiv_pos_site_id
 _symmetry_equiv_pos_as_xyz
  1  'x, y, z'
loop_
 _atom_site_type_symbol
 _atom_site_label
 _atom_site_symmetry_multiplicity
 _atom_site_fract_x
 _atom_site_fract_y
 _atom_site_fract_z
 _atom_site_occupancy
  C  C0  1  0.53315800  0.19148400  0.98925200  1
  C  C1  1  0.19148400  0.98925200  0.53315800  1
  C  C2  1  0.98925200  0.53315800  0.19148400  1
  C  C3  1  0.46684200  0.80851600  0.01074800  1
  C  C4  1  0.80851600  0.01074800  0.46684200  1
  C  C5  1  0.01074800  0.46684200  0.80851600  1
  Ni  Ni6  1  0.57565200  0.69112500  0.33344800  1
  Ni  Ni7  1  0.69112500  0.33344800  0.57565200  1
  Ni  Ni8  1  0.33344800  0.57565200  0.69112500  1
  Ni  Ni9  1  0.42434800  0.30887500  0.66655200  1
  Ni  Ni10  1  0.30887500  0.66655200  0.42434800  1
  Ni  Ni11  1  0.66655200  0.42434800  0.30887500  1
  Ni  Ni12  1  0.88421000  0.23646300  0.97886500  1
  Ni  Ni13  1  0.23646300  0.97886500  0.88421000  1
  Ni  Ni14  1  0.97886500  0.88421000  0.23646300  1
  Ni  Ni15  1  0.11579000  0.76353700  0.02113500  1
  Ni  Ni16  1  0.76353700  0.02113500  0.11579000  1
  Ni  Ni17  1  0.02113500  0.11579000  0.76353700  1
  Cu  Cu18  1  0.57919300  0.89050000  0.61298200  1
  Cu  Cu19  1  0.89050000  0.61298200  0.57919300  1
  Cu  Cu20  1  0.61298200  0.57919300  0.89050000  1
  Cu  Cu21  1  0.42080700  0.10950000  0.38701800  1
  Cu  Cu22  1  0.10950000  0.38701800  0.42080700  1
  Cu  Cu23  1  0.38701800  0.42080700  0.10950000  1
  Cu  Cu24  1  0.38741200  0.03547500  0.21652000  1
  Cu  Cu25  1  0.03547500  0.21652000  0.38741200  1
  Cu  Cu26  1  0.21652000  0.38741200  0.03547500  1
  Cu  Cu27  1  0.61258800  0.96452500  0.78348000  1
  Cu  Cu28  1  0.96452500  0.78348000  0.61258800  1
  Cu  Cu29  1  0.78348000  0.61258800  0.96452500  1
  Cu  Cu30  1  0.34042000  0.39255600  0.93670100  1
  Cu  Cu31  1  0.39255600  0.93670100  0.34042000  1
  Cu  Cu32  1  0.93670100  0.34042000  0.39255600  1
  Cu  Cu33  1  0.65958000  0.60744400  0.06329900  1
  Cu  Cu34  1  0.60744400  0.06329900  0.65958000  1
  Cu  Cu35  1  0.06329900  0.65958000  0.60744400  1
  Cu  Cu36  1  0.46082800  0.96422900  0.68424500  1
  Cu  Cu37  1  0.96422900  0.68424500  0.46082800  1
  Cu  Cu38  1  0.68424500  0.46082800  0.96422900  1
  Cu  Cu39  1  0.53917200  0.03577100  0.31575500  1
  Cu  Cu40  1  0.03577100  0.31575500  0.53917200  1
  Cu  Cu41  1  0.31575500  0.53917200  0.03577100  1
  C  C42  1  0.56481000  0.97082400  0.68560500  1
  C  C43  1  0.97082400  0.68560500  0.56481000  1
  C  C44  1  0.68560500  0.56481000  0.97082400  1
  C  C45  1  0.43519000  0.02917600  0.31439500  1
  C  C46  1  0.02917600  0.31439500  0.43519000  1
  C  C47  1  0.31439500  0.43519000  0.02917600  1
  C  C48  1  0.41939300  0.61635400  0.33686200  1
  C  C49  1  0.61635400  0.33686200  0.41939300  1
  C  C50  1  0.33686200  0.41939300  0.61635400  1
  C  C51  1  0.58060700  0.38364600  0.66313800  1
  C  C52  1  0.38364600  0.66313800  0.58060700  1
  C  C53  1  0.66313800  0.58060700  0.38364600  1
  C  C54  1  0.18518800  0.58027100  0.69639000  1
  C  C55  1  0.58027100  0.69639000  0.18518800  1
  C  C56  1  0.69639000  0.18518800  0.58027100  1
  C  C57  1  0.81481200  0.41972900  0.30361000  1
  C  C58  1  0.41972900  0.30361000  0.81481200  1
  C  C59  1  0.30361000  0.81481200  0.41972900  1
  C  C60  1  0.82059500  0.44223800  0.62030800  1
  C  C61  1  0.44223800  0.62030800  0.82059500  1
  C  C62  1  0.62030800  0.82059500  0.44223800  1
  C  C63  1  0.17940500  0.55776200  0.37969200  1
  C  C64  1  0.55776200  0.37969200  0.17940500  1
  C  C65  1  0.37969200  0.17940500  0.55776200  1
  C  C66  1  0.12056800  0.85182300  0.90048900  1
  C  C67  1  0.85182300  0.90048900  0.12056800  1
  C  C68  1  0.90048900  0.12056800  0.85182300  1
  C  C69  1  0.87943200  0.14817700  0.09951100  1
  C  C70  1  0.14817700  0.09951100  0.87943200  1
  C  C71  1  0.09951100  0.87943200  0.14817700  1
  C  C72  1  0.94002900  0.74961600  0.28082600  1
  C  C73  1  0.74961600  0.28082600  0.94002900  1
  C  C74  1  0.28082600  0.94002900  0.74961600  1
  C  C75  1  0.05997100  0.25038400  0.71917400  1
  C  C76  1  0.25038400  0.71917400  0.05997100  1
  C  C77  1  0.71917400  0.05997100  0.25038400  1
  C  C78  1  0.34627200  0.02451400  0.01493100  1
  C  C79  1  0.02451400  0.01493100  0.34627200  1
  C  C80  1  0.01493100  0.34627200  0.02451400  1
  C  C81  1  0.65372800  0.97548600  0.98506900  1
  C  C82  1  0.97548600  0.98506900  0.65372800  1
  C  C83  1  0.98506900  0.65372800  0.97548600  1
  C  C84  1  0.75022200  0.75022200  0.75022200  1
  C  C85  1  0.24977800  0.24977800  0.24977800  1
