# generated using pymatgen
data_Cu4Ni13C3
_symmetry_space_group_name_H-M   'P 1'
_cell_length_a   17.10275508
_cell_length_b   17.10275515
_cell_length_c   17.10275516
_cell_angle_alpha   109.47122066
_cell_angle_beta   109.47122075
_cell_angle_gamma   109.47122042
_symmetry_Int_Tables_number   1
_chemical_formula_structural   Cu4Ni13C3
_chemical_formula_sum   'Cu32 Ni104 C24'
_cell_volume   3851.02504280
_cell_formula_units_Z   8
loop_
 _symmetry_equiv_pos_site_id
 _symmetry_equiv_pos_as_xyz
  1  'x, y, z'
loop_
 _atom_site_type_symbol
 _atom_site_label
 _atom_site_symmetry_multiplicity
 _atom_site_fract_x
 _atom_site_fract_y
 _atom_site_fract_z
 _atom_site_occupancy
  C  C0  1  0.87558613  0.62441387  0.75000000  1
  C  C1  1  0.12510507  0.37489493  0.25000000  1
  C  C2  1  0.12558613  0.75000000  0.37441387  1
  C  C3  1  0.75000000  0.37441387  0.12558613  1
  C  C4  1  0.37489493  0.25000000  0.12510507  1
  C  C5  1  0.25021013  0.87510507  0.12510507  1
  C  C6  1  0.12510507  0.25021013  0.87510507  1
  C  C7  1  0.37441387  0.12558613  0.75000000  1
  C  C8  1  0.87510507  0.25000000  0.62489493  1
  C  C9  1  0.75117225  0.12558613  0.87558613  1
  C  C10  1  0.62489493  0.24978987  0.37489493  1
  C  C11  1  0.62441387  0.37441387  0.74882775  1
  C  C12  1  0.12558613  0.87558613  0.75117225  1
  C  C13  1  0.62441387  0.75000000  0.87558613  1
  C  C14  1  0.25000000  0.12510507  0.37489493  1
  C  C15  1  0.37441387  0.74882775  0.62441387  1
  C  C16  1  0.62489493  0.87510507  0.25000000  1
  C  C17  1  0.87558613  0.75117225  0.12558613  1
  C  C18  1  0.87510507  0.12510507  0.25021013  1
  C  C19  1  0.74882775  0.62441387  0.37441387  1
  C  C20  1  0.25000000  0.62489493  0.87510507  1
  C  C21  1  0.24978987  0.37489493  0.62489493  1
  C  C22  1  0.75000000  0.87558613  0.62441387  1
  C  C23  1  0.37489493  0.62489493  0.24978987  1
  Ni  Ni24  1  0.42338988  0.07643502  0.34645805  1
  Ni  Ni25  1  0.07643502  0.22997697  0.65304514  1
  Ni  Ni26  1  0.00177008  0.50000000  0.00000000  1
  Ni  Ni27  1  0.57755419  0.34605739  0.92320935  1
  Ni  Ni28  1  0.93068344  0.07410564  0.85653586  1
  Ni  Ni29  1  0.92320935  0.57755419  0.34605739  1
  Ni  Ni30  1  0.64346414  0.71756978  0.07414759  1
  Ni  Ni31  1  0.07977642  0.92128786  0.15872215  1
  Ni  Ni32  1  0.26256571  0.84151144  0.92128786  1
  Ni  Ni33  1  0.84151144  0.92128786  0.26256571  1
  Ni  Ni34  1  0.65848856  0.23743429  0.57871214  1
  Ni  Ni35  1  0.64346414  0.42589436  0.56931656  1
  Ni  Ni36  1  0.35657780  0.78243022  0.42589436  1
  Ni  Ni37  1  0.65434484  0.57679065  0.92284804  1
  Ni  Ni38  1  0.57871214  0.65848856  0.23743429  1
  Ni  Ni39  1  0.84695486  0.07693183  0.42338988  1
  Ni  Ni40  1  0.57871214  0.42022358  0.34127785  1
  Ni  Ni41  1  0.22997697  0.65304514  0.07643502  1
  Ni  Ni42  1  0.85653586  0.42585241  0.78243022  1
  Ni  Ni43  1  0.07643502  0.34645805  0.42338988  1
  Ni  Ni44  1  0.07693183  0.42338988  0.84695486  1
  Ni  Ni45  1  0.93068344  0.35657780  0.07414759  1
  Ni  Ni46  1  0.85653586  0.93068344  0.07410564  1
  Ni  Ni47  1  0.71756978  0.07414759  0.64346414  1
  Ni  Ni48  1  0.92128786  0.26256571  0.84151144  1
  Ni  Ni49  1  0.71756978  0.14342220  0.07410564  1
  Ni  Ni50  1  0.57894573  0.84151144  0.42022358  1
  Ni  Ni51  1  0.22997697  0.07693183  0.15354195  1
  Ni  Ni52  1  0.42022358  0.57894573  0.84151144  1
  Ni  Ni53  1  0.35657780  0.07414759  0.93068344  1
  Ni  Ni54  1  0.92128786  0.15872215  0.07977642  1
  Ni  Ni55  1  0.92320935  0.84565516  0.57715196  1
  Ni  Ni56  1  0.07410564  0.85653586  0.93068344  1
  Ni  Ni57  1  0.42306817  0.65304514  0.07661012  1
  Ni  Ni58  1  0.14342220  0.56931656  0.42585241  1
  Ni  Ni59  1  0.23743429  0.15872215  0.57894573  1
  Ni  Ni60  1  0.57755419  0.73149680  0.65434484  1
  Ni  Ni61  1  0.49822992  0.50000000  1.00000000  1
  Ni  Ni62  1  0.57894573  0.23743429  0.15872215  1
  Ni  Ni63  1  0.84565516  0.76850320  0.92244581  1
  Ni  Ni64  1  0.07414759  0.64346414  0.71756978  1
  Ni  Ni65  1  0.15394261  0.92244581  0.57679065  1
  Ni  Ni66  1  0.49822992  0.49822992  0.49822992  1
  Ni  Ni67  1  0.73149680  0.57715196  0.15394261  1
  Ni  Ni68  1  0.65434484  0.57755419  0.73149680  1
  Ni  Ni69  1  0.57715196  0.92320935  0.84565516  1
  Ni  Ni70  1  0.92105427  0.07977642  0.65848856  1
  Ni  Ni71  1  0.56931656  0.64346414  0.42589436  1
  Ni  Ni72  1  0.92284804  0.76850320  0.34605739  1
  Ni  Ni73  1  0.56931656  0.42585241  0.14342220  1
  Ni  Ni74  1  0.15394261  0.73149680  0.57715196  1
  Ni  Ni75  1  0.42589436  0.56931656  0.64346414  1
  Ni  Ni76  1  0.84695486  0.27002303  0.42356498  1
  Ni  Ni77  1  0.42585241  0.78243022  0.85653586  1
  Ni  Ni78  1  0.34645805  0.42338988  0.07643502  1
  Ni  Ni79  1  0.78243022  0.42589436  0.35657780  1
  Ni  Ni80  1  0.84565516  0.57715196  0.92320935  1
  Ni  Ni81  1  0.07410564  0.71756978  0.14342220  1
  Ni  Ni82  1  0.15354195  0.22997697  0.07693183  1
  Ni  Ni83  1  0.23743429  0.57871214  0.65848856  1
  Ni  Ni84  1  0.65848856  0.92105427  0.07977642  1
  Ni  Ni85  1  0.34605739  0.92284804  0.76850320  1
  Ni  Ni86  1  0.50000000  0.00000000  0.49822992  1
  Ni  Ni87  1  0.42338988  0.84695486  0.07693183  1
  Ni  Ni88  1  0.92244581  0.84565516  0.76850320  1
  Ni  Ni89  1  0.34605739  0.92320935  0.57755419  1
  Ni  Ni90  1  0.65304514  0.07643502  0.22997697  1
  Ni  Ni91  1  0.15354195  0.42356498  0.07661012  1
  Ni  Ni92  1  0.15872215  0.07977642  0.92128786  1
  Ni  Ni93  1  0.57679065  0.92284804  0.65434484  1
  Ni  Ni94  1  0.00177008  0.00177008  0.00177008  1
  Ni  Ni95  1  0.78243022  0.85653586  0.42585241  1
  Ni  Ni96  1  0.76850320  0.92244581  0.84565516  1
  Ni  Ni97  1  0.92105427  0.34127785  0.26256571  1
  Ni  Ni98  1  0.42589436  0.35657780  0.78243022  1
  Ni  Ni99  1  0.34127785  0.57871214  0.42022358  1
  Ni  Ni100  1  0.07661012  0.15354195  0.42356498  1
  Ni  Ni101  1  0.00000000  0.49822992  0.50000000  1
  Ni  Ni102  1  0.07414759  0.93068344  0.35657780  1
  Ni  Ni103  1  0.42022358  0.34127785  0.57871214  1
  Ni  Ni104  1  0.65304514  0.07661012  0.42306817  1
  Ni  Ni105  1  0.42356498  0.07661012  0.15354195  1
  Ni  Ni106  1  0.27002303  0.42356498  0.84695486  1
  Ni  Ni107  1  0.34127785  0.26256571  0.92105427  1
  Ni  Ni108  1  0.50000000  0.00000000  0.00177008  1
  Ni  Ni109  1  0.26256571  0.92105427  0.34127785  1
  Ni  Ni110  1  0.57715196  0.15394261  0.73149680  1
  Ni  Ni111  1  0.07693183  0.15354195  0.22997697  1
  Ni  Ni112  1  0.27002303  0.34645805  0.42306817  1
  Ni  Ni113  1  0.14342220  0.07410564  0.71756978  1
  Ni  Ni114  1  0.57679065  0.15394261  0.92244581  1
  Ni  Ni115  1  1.00000000  0.00177008  0.50000000  1
  Ni  Ni116  1  0.92244581  0.57679065  0.15394261  1
  Ni  Ni117  1  0.92284804  0.65434484  0.57679065  1
  Ni  Ni118  1  0.07661012  0.42306817  0.65304514  1
  Ni  Ni119  1  0.34645805  0.42306817  0.27002303  1
  Ni  Ni120  1  0.76850320  0.34605739  0.92284804  1
  Ni  Ni121  1  0.42356498  0.84695486  0.27002303  1
  Ni  Ni122  1  0.42585241  0.14342220  0.56931656  1
  Ni  Ni123  1  0.42306817  0.27002303  0.34645805  1
  Ni  Ni124  1  0.84151144  0.42022358  0.57894573  1
  Ni  Ni125  1  0.15872215  0.57894573  0.23743429  1
  Ni  Ni126  1  0.07977642  0.65848856  0.92105427  1
  Ni  Ni127  1  0.73149680  0.65434484  0.57755419  1
  Cu  Cu128  1  0.50024783  0.75024783  0.50049567  1
  Cu  Cu129  1  0.24982775  0.49965550  0.49982775  1
  Cu  Cu130  1  0.49965550  0.49982775  0.24982775  1
  Cu  Cu131  1  0.75024783  0.50049567  0.50024783  1
  Cu  Cu132  1  0.00034450  0.25017225  0.00017225  1
  Cu  Cu133  1  0.50000000  0.00000000  0.75000000  1
  Cu  Cu134  1  0.25000000  0.75024783  0.74975217  1
  Cu  Cu135  1  0.74975217  0.99975217  0.99950433  1
  Cu  Cu136  1  0.00017225  0.49982775  0.75000000  1
  Cu  Cu137  1  0.25000000  0.25000000  0.25000000  1
  Cu  Cu138  1  0.25000000  0.50000000  0.00000000  1
  Cu  Cu139  1  0.74975217  0.25000000  0.75024783  1
  Cu  Cu140  1  0.99975217  0.99950433  0.74975217  1
  Cu  Cu141  1  0.50000000  0.00000000  0.25000000  1
  Cu  Cu142  1  0.00017225  0.00034450  0.25017225  1
  Cu  Cu143  1  0.00000000  0.25000000  0.50000000  1
  Cu  Cu144  1  0.25017225  0.00017225  0.00034450  1
  Cu  Cu145  1  0.49982775  0.75000000  0.00017225  1
  Cu  Cu146  1  0.75000000  0.24982775  0.25017225  1
  Cu  Cu147  1  0.49982775  0.24982775  0.49965550  1
  Cu  Cu148  1  0.75024783  0.74975217  0.25000000  1
  Cu  Cu149  1  0.50024783  0.25000000  0.99975217  1
  Cu  Cu150  1  0.75000000  0.75000000  0.75000000  1
  Cu  Cu151  1  0.50049567  0.50024783  0.75024783  1
  Cu  Cu152  1  0.00000000  0.75000000  0.50000000  1
  Cu  Cu153  1  0.25017225  0.75000000  0.24982775  1
  Cu  Cu154  1  0.25000000  0.99975217  0.50024783  1
  Cu  Cu155  1  0.75000000  0.00017225  0.49982775  1
  Cu  Cu156  1  0.99950433  0.74975217  0.99975217  1
  Cu  Cu157  1  0.75000000  0.50000000  0.00000000  1
  Cu  Cu158  1  0.99975217  0.50024783  0.25000000  1
  Cu  Cu159  1  0.24982775  0.25017225  0.75000000  1
