# generated using pymatgen
data_Cu5(NiC6)2
_symmetry_space_group_name_H-M   'P 1'
_cell_length_a   7.44740004
_cell_length_b   7.44740004
_cell_length_c   11.14171800
_cell_angle_alpha   90.00000000
_cell_angle_beta   90.00000000
_cell_angle_gamma   103.51264292
_symmetry_Int_Tables_number   1
_chemical_formula_structural   Cu5(NiC6)2
_chemical_formula_sum   'Cu10 Ni4 C24'
_cell_volume   600.85547812
_cell_formula_units_Z   2
loop_
 _symmetry_equiv_pos_site_id
 _symmetry_equiv_pos_as_xyz
  1  'x, y, z'
loop_
 _atom_site_type_symbol
 _atom_site_label
 _atom_site_symmetry_multiplicity
 _atom_site_fract_x
 _atom_site_fract_y
 _atom_site_fract_z
 _atom_site_occupancy
  C  C0  1  0.58772600  0.41227400  0.25000000  1
  C  C1  1  0.41227400  0.58772600  0.75000000  1
  Ni  Ni2  1  0.67532100  0.67532100  0.50000000  1
  Ni  Ni3  1  0.67532100  0.67532100  0.00000000  1
  Ni  Ni4  1  0.32467900  0.32467900  0.50000000  1
  Ni  Ni5  1  0.32467900  0.32467900  0.00000000  1
  Cu  Cu6  1  0.00132000  0.99868000  0.75000000  1
  Cu  Cu7  1  0.77980900  0.22019100  0.47536500  1
  Cu  Cu8  1  0.22019100  0.77980900  0.52463500  1
  Cu  Cu9  1  0.05922400  0.48984800  0.25000000  1
  Cu  Cu10  1  0.48984800  0.05922400  0.75000000  1
  Cu  Cu11  1  0.22019100  0.77980900  0.97536500  1
  Cu  Cu12  1  0.51015200  0.94077600  0.25000000  1
  Cu  Cu13  1  0.99868000  0.00132000  0.25000000  1
  Cu  Cu14  1  0.94077600  0.51015200  0.75000000  1
  Cu  Cu15  1  0.77980900  0.22019100  0.02463500  1
  C  C16  1  0.19953600  0.47630600  0.60801100  1
  C  C17  1  0.47630600  0.19953600  0.39198900  1
  C  C18  1  0.19953600  0.47630600  0.89198900  1
  C  C19  1  0.26146700  0.10725900  0.89260200  1
  C  C20  1  0.10725900  0.26146700  0.39260200  1
  C  C21  1  0.89274100  0.73853300  0.60739800  1
  C  C22  1  0.43846300  0.56153700  0.39829200  1
  C  C23  1  0.73853300  0.89274100  0.39260200  1
  C  C24  1  0.10725900  0.26146700  0.10739800  1
  C  C25  1  0.73853300  0.89274100  0.10739800  1
  C  C26  1  0.43846300  0.56153700  0.10170800  1
  C  C27  1  0.20161000  0.79839000  0.75000000  1
  C  C28  1  0.52369400  0.80046400  0.60801100  1
  C  C29  1  0.56153700  0.43846300  0.89829200  1
  C  C30  1  0.52369400  0.80046400  0.89198900  1
  C  C31  1  0.79839000  0.20161000  0.25000000  1
  C  C32  1  0.47630600  0.19953600  0.10801100  1
  C  C33  1  0.89274100  0.73853300  0.89260200  1
  C  C34  1  0.26146700  0.10725900  0.60739800  1
  C  C35  1  0.56153700  0.43846300  0.60170800  1
  C  C36  1  0.80046400  0.52369400  0.39198900  1
  C  C37  1  0.80046400  0.52369400  0.10801100  1
