# generated using pymatgen
data_CuNiC
_symmetry_space_group_name_H-M   'P 1'
_cell_length_a   7.90055500
_cell_length_b   15.42150518
_cell_length_c   19.07903918
_cell_angle_alpha   104.55358339
_cell_angle_beta   101.83444807
_cell_angle_gamma   104.79065803
_symmetry_Int_Tables_number   1
_chemical_formula_structural   CuNiC
_chemical_formula_sum   'Cu48 Ni48 C48'
_cell_volume   2083.44903472
_cell_formula_units_Z   48
loop_
 _symmetry_equiv_pos_site_id
 _symmetry_equiv_pos_as_xyz
  1  'x, y, z'
loop_
 _atom_site_type_symbol
 _atom_site_label
 _atom_site_symmetry_multiplicity
 _atom_site_fract_x
 _atom_site_fract_y
 _atom_site_fract_z
 _atom_site_occupancy
  C  C0  1  0.93454600  0.56556400  0.78709300  1
  C  C1  1  0.07935800  0.93196900  0.71115800  1
  C  C2  1  0.76706900  0.85960400  0.07756100  1
  C  C3  1  0.42084100  0.58083800  0.94874900  1
  C  C4  1  0.22850800  0.13922400  0.92222700  1
  C  C5  1  0.60380400  0.07924900  0.44679600  1
  C  C6  1  0.76961500  0.54794700  0.32344000  1
  C  C7  1  0.22641600  0.45391900  0.67770100  1
  C  C8  1  0.66717700  0.35508100  0.57642500  1
  C  C9  1  0.60286900  0.04603300  0.82086200  1
  C  C10  1  0.57975300  0.42378500  0.05253100  1
  C  C11  1  0.06159900  0.43226200  0.21015800  1
  C  C12  1  0.91792100  0.06530900  0.28796900  1
  C  C13  1  0.32948000  0.64106800  0.42138200  1
  C  C14  1  0.40427500  0.95278700  0.17721600  1
  C  C15  1  0.39318100  0.92085700  0.55079100  1
  Ni  Ni16  1  0.48077300  0.67587100  0.21610800  1
  Ni  Ni17  1  0.82077200  0.91520300  0.38771400  1
  Ni  Ni18  1  0.25845300  0.88890200  0.33365700  1
  Ni  Ni19  1  0.51678100  0.32316500  0.78368000  1
  Ni  Ni20  1  0.84641400  0.60785800  0.54045400  1
  Ni  Ni21  1  0.14073500  0.41799400  0.39426200  1
  Ni  Ni22  1  0.36239300  0.87871100  0.99339800  1
  Ni  Ni23  1  0.80025900  0.10829600  0.03952300  1
  Ni  Ni24  1  0.55173500  0.24448200  0.34008800  1
  Ni  Ni25  1  0.74035500  0.11229700  0.66846400  1
  Ni  Ni26  1  0.33548000  0.15496300  0.53120300  1
  Ni  Ni27  1  0.44796500  0.75482700  0.66036500  1
  Ni  Ni28  1  0.56866200  0.84098600  0.84609200  1
  Ni  Ni29  1  0.63739400  0.12100500  0.00595200  1
  Ni  Ni30  1  0.33506600  0.29963400  0.16512200  1
  Ni  Ni31  1  0.46806400  0.25477300  0.16098200  1
  Ni  Ni32  1  0.01767100  0.58410300  0.11232900  1
  Ni  Ni33  1  0.17571800  0.08449600  0.61205000  1
  Ni  Ni34  1  0.86119700  0.58130600  0.60602800  1
  Ni  Ni35  1  0.17198300  0.91653300  0.89410200  1
  Ni  Ni36  1  0.15404200  0.39262600  0.46030200  1
  Ni  Ni37  1  0.01016400  0.37729000  0.49293100  1
  Ni  Ni38  1  0.00174400  0.25913700  0.70469600  1
  Ni  Ni39  1  0.36922900  0.19883400  0.33576500  1
  Ni  Ni40  1  0.61912400  0.33971800  0.34520600  1
  Ni  Ni41  1  0.15305600  0.34546400  0.97076400  1
  Ni  Ni42  1  0.18114900  0.12708400  0.55528700  1
  Ni  Ni43  1  0.82517400  0.08371100  0.10588400  1
  Ni  Ni44  1  0.66499200  0.69922700  0.83512000  1
  Ni  Ni45  1  0.84634100  0.65296600  0.03024800  1
  Ni  Ni46  1  0.46437700  0.38836800  0.83295300  1
  Ni  Ni47  1  0.98965700  0.62127600  0.50711500  1
  Ni  Ni48  1  0.19868100  0.89162200  0.96045100  1
  Ni  Ni49  1  0.53690400  0.61250600  0.16696300  1
  Ni  Ni50  1  0.98317100  0.41569200  0.88930300  1
  Ni  Ni51  1  0.43428400  0.15923700  0.15551500  1
  Ni  Ni52  1  0.63010000  0.80077500  0.66499900  1
  Ni  Ni53  1  0.00039200  0.37138500  0.94503500  1
  Ni  Ni54  1  0.53770500  0.24003300  0.79502900  1
  Ni  Ni55  1  0.38291800  0.65902900  0.65427700  1
  Ni  Ni56  1  0.90899700  0.17651400  0.71714200  1
  Ni  Ni57  1  0.53474100  0.74586300  0.84148000  1
  Ni  Ni58  1  0.99920600  0.62715900  0.05567500  1
  Ni  Ni59  1  0.09042000  0.82561600  0.28447100  1
  Ni  Ni60  1  0.66127900  0.84622900  0.46917900  1
  Ni  Ni61  1  0.45988900  0.75895300  0.20440300  1
  Ni  Ni62  1  0.81358900  0.87088000  0.44339000  1
  Ni  Ni63  1  0.99618100  0.74203800  0.29519100  1
  Cu  Cu64  1  0.03588700  0.54797800  0.15936300  1
  Cu  Cu65  1  0.42094000  0.44381100  0.87317900  1
  Cu  Cu66  1  0.87882900  0.55631800  0.65954700  1
  Cu  Cu67  1  0.58412500  0.56068100  0.12541600  1
  Cu  Cu68  1  0.21678300  0.16048500  0.33030400  1
  Cu  Cu69  1  0.31758800  0.38209700  0.49572100  1
  Cu  Cu70  1  0.22700000  0.33874800  0.16993200  1
  Cu  Cu71  1  0.32513300  0.57953200  0.65011400  1
  Cu  Cu72  1  0.88996400  0.36502700  0.52027800  1
  Cu  Cu73  1  0.12839700  0.44256300  0.34049600  1
  Cu  Cu74  1  0.91832900  0.67288300  0.30518700  1
  Cu  Cu75  1  0.35378900  0.69225300  0.83095900  1
  Cu  Cu76  1  0.46505700  0.17697400  0.51010700  1
  Cu  Cu77  1  0.60107500  0.05715200  0.62843900  1
  Cu  Cu78  1  0.39925400  0.94304300  0.37334900  1
  Cu  Cu79  1  0.78377900  0.83789300  0.67098900  1
  Cu  Cu80  1  0.56078700  0.17168400  0.80533900  1
  Cu  Cu81  1  0.40665300  0.08001700  0.15255700  1
  Cu  Cu82  1  0.49998000  0.13085500  0.97813900  1
  Cu  Cu83  1  0.87054700  0.36664400  0.98525100  1
  Cu  Cu84  1  0.68353600  0.61881500  0.50557200  1
  Cu  Cu85  1  0.00575800  0.85036200  0.22425000  1
  Cu  Cu86  1  0.05922100  0.88179700  0.99530100  1
  Cu  Cu87  1  0.97784900  0.86491900  0.48314300  1
  Cu  Cu88  1  0.07754900  0.32713900  0.69267000  1
  Cu  Cu89  1  0.16678400  0.04813800  0.65874900  1
  Cu  Cu90  1  0.01847900  0.13409400  0.51529600  1
  Cu  Cu91  1  0.43082600  0.65106100  0.27608100  1
  Cu  Cu92  1  0.96625700  0.45511700  0.84455300  1
  Cu  Cu93  1  0.50055400  0.86952500  0.02187300  1
  Cu  Cu94  1  0.67866200  0.41850800  0.34771100  1
  Cu  Cu95  1  0.83130400  0.95384300  0.34230300  1
  Cu  Cu96  1  0.71539000  0.67245600  0.00804000  1
  Cu  Cu97  1  0.66839300  0.19040800  0.33028200  1
  Cu  Cu98  1  0.99556300  0.15169300  0.77680900  1
  Cu  Cu99  1  0.83729500  0.06023900  0.16013200  1
  Cu  Cu100  1  0.57093700  0.34864700  0.72448100  1
  Cu  Cu101  1  0.32946600  0.80781900  0.66979700  1
  Cu  Cu102  1  0.53386100  0.82737600  0.49204300  1
  Cu  Cu103  1  0.58717900  0.91924400  0.84764400  1
  Cu  Cu104  1  0.93988300  0.11911700  0.00481600  1
  Cu  Cu105  1  0.15959600  0.94018800  0.83989700  1
  Cu  Cu106  1  0.28361300  0.32563200  0.99311400  1
  Cu  Cu107  1  0.10814100  0.63152600  0.47829200  1
  Cu  Cu108  1  0.64771500  0.30905400  0.17060900  1
  Cu  Cu109  1  0.13183800  0.63417900  0.01686800  1
  Cu  Cu110  1  0.44191800  0.82789200  0.19389200  1
  Cu  Cu111  1  0.77387400  0.66154500  0.82732500  1
  C  C112  1  0.44806700  0.39323400  0.46692400  1
  C  C113  1  0.23100500  0.72985500  0.82622000  1
  C  C114  1  0.67026900  0.64099900  0.44538300  1
  C  C115  1  0.44066800  0.57452400  0.28561500  1
  C  C116  1  0.17100000  0.76933400  0.67148800  1
  C  C117  1  0.08126100  0.92737500  0.21521800  1
  C  C118  1  0.12026100  0.89770900  0.46350800  1
  C  C119  1  0.55299900  0.60681200  0.53417300  1
  C  C120  1  0.26023500  0.60078000  0.03653900  1
  C  C121  1  0.85274500  0.79368800  0.17972300  1
  C  C122  1  0.91452800  0.13948200  0.94383200  1
  C  C123  1  0.77040500  0.27119600  0.17210600  1
  C  C124  1  0.91953900  0.07452800  0.78585500  1
  C  C125  1  0.38837700  0.89536500  0.67599900  1
  C  C126  1  0.60852300  0.10313200  0.32511300  1
  C  C127  1  0.56721400  0.42693700  0.71712600  1
  C  C128  1  0.31943000  0.60484700  0.82562900  1
  C  C129  1  0.33208800  0.36287300  0.55716400  1
  C  C130  1  0.15102100  0.20631200  0.82021100  1
  C  C131  1  0.68134800  0.39673800  0.17748000  1
  C  C132  1  0.87477900  0.10288900  0.53452000  1
  C  C133  1  0.37559700  0.70650100  0.32014100  1
  C  C134  1  0.08820200  0.10887000  0.03420700  1
  C  C135  1  0.12191500  0.66984100  0.96504100  1
  C  C136  1  0.88384500  0.33327700  0.03830500  1
  C  C137  1  0.62442600  0.29251000  0.67996200  1
  C  C138  1  0.08419900  0.86376600  0.05724400  1
  C  C139  1  0.91185000  0.89211100  0.96511700  1
  C  C140  1  0.01555400  0.16840100  0.46273400  1
  C  C141  1  0.98477100  0.83099300  0.53586100  1
  C  C142  1  0.74050400  0.39867400  0.96529600  1
  C  C143  1  0.82553700  0.22738700  0.32654500  1
