# generated using pymatgen
data_Cu12Ni4C
_symmetry_space_group_name_H-M   'P 1'
_cell_length_a   12.56163800
_cell_length_b   11.30298300
_cell_length_c   16.51777472
_cell_angle_alpha   71.56599452
_cell_angle_beta   90.00000000
_cell_angle_gamma   90.00000000
_symmetry_Int_Tables_number   1
_chemical_formula_structural   Cu12Ni4C
_chemical_formula_sum   'Cu48 Ni16 C4'
_cell_volume   2224.92064103
_cell_formula_units_Z   4
loop_
 _symmetry_equiv_pos_site_id
 _symmetry_equiv_pos_as_xyz
  1  'x, y, z'
loop_
 _atom_site_type_symbol
 _atom_site_label
 _atom_site_symmetry_multiplicity
 _atom_site_fract_x
 _atom_site_fract_y
 _atom_site_fract_z
 _atom_site_occupancy
  C  C0  1  0.27689500  0.29890000  0.79678500  1
  C  C1  1  0.77689500  0.70110000  0.70321500  1
  C  C2  1  0.22310500  0.29890000  0.29678500  1
  C  C3  1  0.72310500  0.70110000  0.20321500  1
  Ni  Ni4  1  0.77608500  0.49740500  0.21908800  1
  Ni  Ni5  1  0.58119700  0.98119900  0.01990000  1
  Ni  Ni6  1  0.27608500  0.50259500  0.28091200  1
  Ni  Ni7  1  0.91880300  0.98119900  0.51990000  1
  Ni  Ni8  1  0.41880300  0.01880100  0.98010000  1
  Ni  Ni9  1  0.08119700  0.01880100  0.48010000  1
  Ni  Ni10  1  0.06668200  0.34595400  0.22791200  1
  Ni  Ni11  1  0.43331800  0.34595400  0.72791200  1
  Ni  Ni12  1  0.22391500  0.50259500  0.78091200  1
  Ni  Ni13  1  0.30912200  0.29776900  0.17878300  1
  Ni  Ni14  1  0.80912200  0.70223100  0.32121700  1
  Ni  Ni15  1  0.72391500  0.49740500  0.71908800  1
  Ni  Ni16  1  0.56668200  0.65404600  0.27208800  1
  Ni  Ni17  1  0.93331800  0.65404600  0.77208800  1
  Ni  Ni18  1  0.69087800  0.70223100  0.82121700  1
  Ni  Ni19  1  0.19087800  0.29776900  0.67878300  1
  Cu  Cu20  1  0.82443000  0.36778800  0.80168700  1
  Cu  Cu21  1  0.10212600  0.28936500  0.41294400  1
  Cu  Cu22  1  0.09503100  0.45562900  0.62815900  1
  Cu  Cu23  1  0.75550300  0.45364400  0.61045700  1
  Cu  Cu24  1  0.25550300  0.54635600  0.88954300  1
  Cu  Cu25  1  0.70652800  0.92146700  0.15851100  1
  Cu  Cu26  1  0.06304400  0.00079900  0.07785000  1
  Cu  Cu27  1  0.11926100  0.84008100  0.49360100  1
  Cu  Cu28  1  0.39787400  0.28936500  0.91294400  1
  Cu  Cu29  1  0.57202200  0.83859600  0.79575000  1
  Cu  Cu30  1  0.70635000  0.96968200  0.37897900  1
  Cu  Cu31  1  0.38215500  0.29145300  0.37928000  1
  Cu  Cu32  1  0.17557000  0.63221200  0.19831300  1
  Cu  Cu33  1  0.88215500  0.70854700  0.12072000  1
  Cu  Cu34  1  0.90496900  0.54437100  0.37184100  1
  Cu  Cu35  1  0.96451500  0.19208400  0.24497700  1
  Cu  Cu36  1  0.61926100  0.15991900  0.00639900  1
  Cu  Cu37  1  0.40496900  0.45562900  0.12815900  1
  Cu  Cu38  1  0.61784500  0.70854700  0.62072000  1
  Cu  Cu39  1  0.07202200  0.16140400  0.70425000  1
  Cu  Cu40  1  0.24449700  0.54635600  0.38954300  1
  Cu  Cu41  1  0.79347200  0.92146700  0.65851100  1
  Cu  Cu42  1  0.79365000  0.96968200  0.87897900  1
  Cu  Cu43  1  0.88073900  0.15991900  0.50639900  1
  Cu  Cu44  1  0.42797800  0.16140400  0.20425000  1
  Cu  Cu45  1  0.38073900  0.84008100  0.99360100  1
  Cu  Cu46  1  0.29347200  0.07853300  0.84148900  1
  Cu  Cu47  1  0.58245600  0.60370000  0.40372000  1
  Cu  Cu48  1  0.46451500  0.80791600  0.25502300  1
  Cu  Cu49  1  0.53548500  0.19208400  0.74497700  1
  Cu  Cu50  1  0.67557000  0.36778800  0.30168700  1
  Cu  Cu51  1  0.93695600  0.99920100  0.92215000  1
  Cu  Cu52  1  0.59503100  0.54437100  0.87184100  1
  Cu  Cu53  1  0.03548500  0.80791600  0.75502300  1
  Cu  Cu54  1  0.20635000  0.03031800  0.12102100  1
  Cu  Cu55  1  0.32443000  0.63221200  0.69831300  1
  Cu  Cu56  1  0.20652800  0.07853300  0.34148900  1
  Cu  Cu57  1  0.41754400  0.39630000  0.59628000  1
  Cu  Cu58  1  0.74449700  0.45364400  0.11045700  1
  Cu  Cu59  1  0.89787400  0.71063500  0.58705600  1
  Cu  Cu60  1  0.56304400  0.99920100  0.42215000  1
  Cu  Cu61  1  0.60212600  0.71063500  0.08705600  1
  Cu  Cu62  1  0.91754400  0.60370000  0.90372000  1
  Cu  Cu63  1  0.29365000  0.03031800  0.62102100  1
  Cu  Cu64  1  0.92797800  0.83859600  0.29575000  1
  Cu  Cu65  1  0.43695600  0.00079900  0.57785000  1
  Cu  Cu66  1  0.08245600  0.39630000  0.09628000  1
  Cu  Cu67  1  0.11784500  0.29145300  0.87928000  1
