# generated using pymatgen
data_Cu3Ni3C13
_symmetry_space_group_name_H-M   'P 1'
_cell_length_a   9.98896350
_cell_length_b   9.98896350
_cell_length_c   10.29275800
_cell_angle_alpha   90.00000000
_cell_angle_beta   90.00000000
_cell_angle_gamma   119.99999666
_symmetry_Int_Tables_number   1
_chemical_formula_structural   Cu3Ni3C13
_chemical_formula_sum   'Cu9 Ni9 C39'
_cell_volume   889.41256445
_cell_formula_units_Z   3
loop_
 _symmetry_equiv_pos_site_id
 _symmetry_equiv_pos_as_xyz
  1  'x, y, z'
loop_
 _atom_site_type_symbol
 _atom_site_label
 _atom_site_symmetry_multiplicity
 _atom_site_fract_x
 _atom_site_fract_y
 _atom_site_fract_z
 _atom_site_occupancy
  C  C0  1  0.00000000  0.00000000  0.16056300  1
  C  C1  1  0.33333300  0.66666700  0.17918800  1
  C  C2  1  0.00000000  0.00000000  0.83943700  1
  C  C3  1  0.33333300  0.66666700  0.82081200  1
  C  C4  1  0.00000000  0.00000000  0.50000000  1
  C  C5  1  0.33333300  0.66666700  0.50000000  1
  Ni  Ni6  1  0.26278300  0.94994300  0.35160100  1
  Ni  Ni7  1  0.05005700  0.31284000  0.35160100  1
  Ni  Ni8  1  0.64298900  0.92434300  0.00000000  1
  Ni  Ni9  1  0.68716000  0.73721700  0.64839900  1
  Ni  Ni10  1  0.28135500  0.35701100  0.00000000  1
  Ni  Ni11  1  0.26278300  0.94994300  0.64839900  1
  Ni  Ni12  1  0.07565700  0.71864500  0.00000000  1
  Ni  Ni13  1  0.05005700  0.31284000  0.64839900  1
  Ni  Ni14  1  0.68716000  0.73721700  0.35160100  1
  Cu  Cu15  1  0.93690300  0.60569900  0.67701900  1
  Cu  Cu16  1  0.39430100  0.33120400  0.32298100  1
  Cu  Cu17  1  0.65139500  0.58560800  0.00000000  1
  Cu  Cu18  1  0.93421300  0.34860500  0.00000000  1
  Cu  Cu19  1  0.66879600  0.06309700  0.67701900  1
  Cu  Cu20  1  0.41439200  0.06578700  0.00000000  1
  Cu  Cu21  1  0.93690300  0.60569900  0.32298100  1
  Cu  Cu22  1  0.39430100  0.33120400  0.67701900  1
  Cu  Cu23  1  0.66879600  0.06309700  0.32298100  1
  C  C24  1  0.16301700  0.17327500  0.00000000  1
  C  C25  1  0.29350000  0.03392300  0.50000000  1
  C  C26  1  0.96607700  0.25957600  0.50000000  1
  C  C27  1  0.40403800  0.42037700  0.12445300  1
  C  C28  1  0.12543200  0.19817600  0.32990100  1
  C  C29  1  0.35715000  0.09267900  0.75166400  1
  C  C30  1  0.18244200  0.49220800  0.65155100  1
  C  C31  1  0.01633900  0.59596200  0.12445300  1
  C  C32  1  0.30976600  0.81755800  0.34844900  1
  C  C33  1  0.18244200  0.49220800  0.34844900  1
  C  C34  1  0.80182400  0.92725500  0.32990100  1
  C  C35  1  0.30976600  0.81755800  0.65155100  1
  C  C36  1  0.90732100  0.26447100  0.75166400  1
  C  C37  1  0.35715000  0.09267900  0.24833600  1
  C  C38  1  0.01025800  0.83698300  0.00000000  1
  C  C39  1  0.73552900  0.64285000  0.75166400  1
  C  C40  1  0.73552900  0.64285000  0.24833600  1
  C  C41  1  0.74042400  0.70650000  0.50000000  1
  C  C42  1  0.53773800  0.73288000  0.00000000  1
  C  C43  1  0.12543200  0.19817600  0.67009900  1
  C  C44  1  0.57962300  0.98366100  0.87554700  1
  C  C45  1  0.07274500  0.87456800  0.32990100  1
  C  C46  1  0.90732100  0.26447100  0.24833600  1
  C  C47  1  0.50779200  0.69023400  0.65155100  1
  C  C48  1  0.07274500  0.87456800  0.67009900  1
  C  C49  1  0.57962300  0.98366100  0.12445300  1
  C  C50  1  0.26712000  0.80485700  0.00000000  1
  C  C51  1  0.19514300  0.46226200  0.00000000  1
  C  C52  1  0.50779200  0.69023400  0.34844900  1
  C  C53  1  0.80182400  0.92725500  0.67009900  1
  C  C54  1  0.82672500  0.98974200  0.00000000  1
  C  C55  1  0.01633900  0.59596200  0.87554700  1
  C  C56  1  0.40403800  0.42037700  0.87554700  1
