# generated using pymatgen
data_Cu4NiC12
_symmetry_space_group_name_H-M   'P 1'
_cell_length_a   8.30680000
_cell_length_b   10.07002700
_cell_length_c   13.52105700
_cell_angle_alpha   90.00000000
_cell_angle_beta   90.00000000
_cell_angle_gamma   90.00000000
_symmetry_Int_Tables_number   1
_chemical_formula_structural   Cu4NiC12
_chemical_formula_sum   'Cu16 Ni4 C48'
_cell_volume   1131.03236557
_cell_formula_units_Z   4
loop_
 _symmetry_equiv_pos_site_id
 _symmetry_equiv_pos_as_xyz
  1  'x, y, z'
loop_
 _atom_site_type_symbol
 _atom_site_label
 _atom_site_symmetry_multiplicity
 _atom_site_fract_x
 _atom_site_fract_y
 _atom_site_fract_z
 _atom_site_occupancy
  Ni  Ni0  1  0.13588300  0.25000000  0.50000000  1
  Ni  Ni1  1  0.36411700  0.75000000  0.00000000  1
  Ni  Ni2  1  0.86411700  0.75000000  0.50000000  1
  Ni  Ni3  1  0.63588300  0.25000000  0.00000000  1
  Cu  Cu4  1  0.46497500  0.00796800  0.16083200  1
  Cu  Cu5  1  0.16938400  0.50240600  0.13683500  1
  Cu  Cu6  1  0.66938400  0.50240600  0.36316500  1
  Cu  Cu7  1  0.16938400  0.99759400  0.86316500  1
  Cu  Cu8  1  0.33061600  0.00240600  0.36316500  1
  Cu  Cu9  1  0.83061600  0.49759400  0.86316500  1
  Cu  Cu10  1  0.96497500  0.49203200  0.66083200  1
  Cu  Cu11  1  0.83061600  0.00240600  0.13683500  1
  Cu  Cu12  1  0.03502500  0.99203200  0.66083200  1
  Cu  Cu13  1  0.96497500  0.00796800  0.33916800  1
  Cu  Cu14  1  0.03502500  0.50796800  0.33916800  1
  Cu  Cu15  1  0.53502500  0.99203200  0.83916800  1
  Cu  Cu16  1  0.33061600  0.49759400  0.63683500  1
  Cu  Cu17  1  0.46497500  0.49203200  0.83916800  1
  Cu  Cu18  1  0.53502500  0.50796800  0.16083200  1
  Cu  Cu19  1  0.66938400  0.99759400  0.63683500  1
  C  C20  1  0.15060400  0.52435300  0.67762200  1
  C  C21  1  0.12362500  0.12163800  0.64299200  1
  C  C22  1  0.94367800  0.38587000  0.58223200  1
  C  C23  1  0.59126900  0.37694200  0.39416600  1
  C  C24  1  0.59126900  0.12305800  0.60583400  1
  C  C25  1  0.41169900  0.43233700  0.73525400  1
  C  C26  1  0.84939600  0.47564700  0.32237800  1
  C  C27  1  0.91169900  0.06766300  0.23525400  1
  C  C28  1  0.58830100  0.56766300  0.26474600  1
  C  C29  1  0.17354200  0.61645300  0.06259400  1
  C  C30  1  0.67354200  0.61645300  0.43740600  1
  C  C31  1  0.32645800  0.38354700  0.56259400  1
  C  C32  1  0.40873100  0.87694200  0.39416600  1
  C  C33  1  0.82645800  0.11645300  0.06259400  1
  C  C34  1  0.62362500  0.37836200  0.14299200  1
  C  C35  1  0.12362500  0.37836200  0.35700800  1
  C  C36  1  0.37637500  0.62163800  0.85700800  1
  C  C37  1  0.91169900  0.43233700  0.76474600  1
  C  C38  1  0.65060400  0.52435300  0.82237800  1
  C  C39  1  0.41169900  0.06766300  0.26474600  1
  C  C40  1  0.90873100  0.87694200  0.10583400  1
  C  C41  1  0.84939600  0.02435300  0.67762200  1
  C  C42  1  0.44367800  0.38587000  0.91776800  1
  C  C43  1  0.05632200  0.88587000  0.58223200  1
  C  C44  1  0.15060400  0.97564700  0.32237800  1
  C  C45  1  0.87637500  0.62163800  0.64299200  1
  C  C46  1  0.55632200  0.88587000  0.91776800  1
  C  C47  1  0.87637500  0.87836200  0.35700800  1
  C  C48  1  0.05632200  0.61413000  0.41776800  1
  C  C49  1  0.55632200  0.61413000  0.08223200  1
  C  C50  1  0.58830100  0.93233700  0.73525400  1
  C  C51  1  0.17354200  0.88354700  0.93740600  1
  C  C52  1  0.82645800  0.38354700  0.93740600  1
  C  C53  1  0.34939600  0.02435300  0.82237800  1
  C  C54  1  0.62362500  0.12163800  0.85700800  1
  C  C55  1  0.08830100  0.56766300  0.23525400  1
  C  C56  1  0.90873100  0.62305800  0.89416600  1
  C  C57  1  0.09126900  0.37694200  0.10583400  1
  C  C58  1  0.34939600  0.47564700  0.17762200  1
  C  C59  1  0.65060400  0.97564700  0.17762200  1
  C  C60  1  0.32645800  0.11645300  0.43740600  1
  C  C61  1  0.94367800  0.11413000  0.41776800  1
  C  C62  1  0.09126900  0.12305800  0.89416600  1
  C  C63  1  0.37637500  0.87836200  0.14299200  1
  C  C64  1  0.44367800  0.11413000  0.08223200  1
  C  C65  1  0.67354200  0.88354700  0.56259400  1
  C  C66  1  0.40873100  0.62305800  0.60583400  1
  C  C67  1  0.08830100  0.93233700  0.76474600  1
