# generated using pymatgen
data_Cu2NiC50
_symmetry_space_group_name_H-M   'P 1'
_cell_length_a   7.22006100
_cell_length_b   7.22006100
_cell_length_c   21.13694600
_cell_angle_alpha   90.00000000
_cell_angle_beta   90.00000000
_cell_angle_gamma   90.00000000
_symmetry_Int_Tables_number   1
_chemical_formula_structural   Cu2NiC50
_chemical_formula_sum   'Cu4 Ni2 C100'
_cell_volume   1101.85379421
_cell_formula_units_Z   2
loop_
 _symmetry_equiv_pos_site_id
 _symmetry_equiv_pos_as_xyz
  1  'x, y, z'
loop_
 _atom_site_type_symbol
 _atom_site_label
 _atom_site_symmetry_multiplicity
 _atom_site_fract_x
 _atom_site_fract_y
 _atom_site_fract_z
 _atom_site_occupancy
  C  C0  1  0.50000000  0.50000000  0.29543900  1
  C  C1  1  0.50000000  0.50000000  0.70456100  1
  C  C2  1  0.00000000  0.00000000  0.20456100  1
  C  C3  1  0.00000000  0.00000000  0.79543900  1
  Ni  Ni4  1  0.50000000  0.50000000  0.50000000  1
  Ni  Ni5  1  0.00000000  0.00000000  0.00000000  1
  Cu  Cu6  1  0.00000000  0.50000000  0.25000000  1
  Cu  Cu7  1  0.00000000  0.50000000  0.75000000  1
  Cu  Cu8  1  0.50000000  0.00000000  0.25000000  1
  Cu  Cu9  1  0.50000000  0.00000000  0.75000000  1
  C  C10  1  0.84458900  0.15442500  0.41538600  1
  C  C11  1  0.15541100  0.84557500  0.41538600  1
  C  C12  1  0.15541100  0.15442500  0.58461400  1
  C  C13  1  0.84458900  0.84557500  0.58461400  1
  C  C14  1  0.65541100  0.34557500  0.08461400  1
  C  C15  1  0.34458900  0.65442500  0.08461400  1
  C  C16  1  0.34458900  0.34557500  0.91538600  1
  C  C17  1  0.65541100  0.65442500  0.91538600  1
  C  C18  1  0.15442500  0.84458900  0.58461400  1
  C  C19  1  0.84557500  0.15541100  0.58461400  1
  C  C20  1  0.15442500  0.15541100  0.41538600  1
  C  C21  1  0.84557500  0.84458900  0.41538600  1
  C  C22  1  0.34557500  0.65541100  0.91538600  1
  C  C23  1  0.65442500  0.34458900  0.91538600  1
  C  C24  1  0.34557500  0.34458900  0.08461400  1
  C  C25  1  0.65442500  0.65541100  0.08461400  1
  C  C26  1  0.89603500  0.33066000  0.37570100  1
  C  C27  1  0.10396500  0.66934000  0.37570100  1
  C  C28  1  0.10396500  0.33066000  0.62429900  1
  C  C29  1  0.89603500  0.66934000  0.62429900  1
  C  C30  1  0.60396500  0.16934000  0.12429900  1
  C  C31  1  0.39603500  0.83066000  0.12429900  1
  C  C32  1  0.39603500  0.16934000  0.87570100  1
  C  C33  1  0.60396500  0.83066000  0.87570100  1
  C  C34  1  0.33066000  0.89603500  0.62429900  1
  C  C35  1  0.66934000  0.10396500  0.62429900  1
  C  C36  1  0.33066000  0.10396500  0.37570100  1
  C  C37  1  0.66934000  0.89603500  0.37570100  1
  C  C38  1  0.16934000  0.60396500  0.87570100  1
  C  C39  1  0.83066000  0.39603500  0.87570100  1
  C  C40  1  0.16934000  0.39603500  0.12429900  1
  C  C41  1  0.83066000  0.60396500  0.12429900  1
  C  C42  1  0.84186100  0.41678400  0.47156800  1
  C  C43  1  0.15813900  0.58321600  0.47156800  1
  C  C44  1  0.15813900  0.41678400  0.52843200  1
  C  C45  1  0.84186100  0.58321600  0.52843200  1
  C  C46  1  0.65813900  0.08321600  0.02843200  1
  C  C47  1  0.34186100  0.91678400  0.02843200  1
  C  C48  1  0.34186100  0.08321600  0.97156800  1
  C  C49  1  0.65813900  0.91678400  0.97156800  1
  C  C50  1  0.41678400  0.84186100  0.52843200  1
  C  C51  1  0.58321600  0.15813900  0.52843200  1
  C  C52  1  0.41678400  0.15813900  0.47156800  1
  C  C53  1  0.58321600  0.84186100  0.47156800  1
  C  C54  1  0.08321600  0.65813900  0.97156800  1
  C  C55  1  0.91678400  0.34186100  0.97156800  1
  C  C56  1  0.08321600  0.34186100  0.02843200  1
  C  C57  1  0.91678400  0.65813900  0.02843200  1
  C  C58  1  0.50000000  0.50000000  0.38140300  1
  C  C59  1  0.50000000  0.50000000  0.61859700  1
  C  C60  1  0.00000000  0.00000000  0.11859700  1
  C  C61  1  0.00000000  0.00000000  0.88140300  1
  C  C62  1  0.50000000  0.50000000  0.20945100  1
  C  C63  1  0.50000000  0.50000000  0.79054900  1
  C  C64  1  0.00000000  0.00000000  0.29054900  1
  C  C65  1  0.00000000  0.00000000  0.70945100  1
  C  C66  1  0.76934700  0.50000000  0.50000000  1
  C  C67  1  0.23065300  0.50000000  0.50000000  1
  C  C68  1  0.73065300  0.00000000  0.00000000  1
  C  C69  1  0.26934700  0.00000000  0.00000000  1
  C  C70  1  0.50000000  0.76934700  0.50000000  1
  C  C71  1  0.50000000  0.23065300  0.50000000  1
  C  C72  1  0.00000000  0.73065300  0.00000000  1
  C  C73  1  0.00000000  0.26934700  0.00000000  1
  C  C74  1  0.81689100  0.45638100  0.30010600  1
  C  C75  1  0.18310900  0.54361900  0.30010600  1
  C  C76  1  0.18310900  0.45638100  0.69989400  1
  C  C77  1  0.81689100  0.54361900  0.69989400  1
  C  C78  1  0.68310900  0.04361900  0.19989400  1
  C  C79  1  0.31689100  0.95638100  0.19989400  1
  C  C80  1  0.31689100  0.04361900  0.80010600  1
  C  C81  1  0.68310900  0.95638100  0.80010600  1
  C  C82  1  0.45638100  0.81689100  0.69989400  1
  C  C83  1  0.54361900  0.18310900  0.69989400  1
  C  C84  1  0.45638100  0.18310900  0.30010600  1
  C  C85  1  0.54361900  0.81689100  0.30010600  1
  C  C86  1  0.04361900  0.68310900  0.80010600  1
  C  C87  1  0.95638100  0.31689100  0.80010600  1
  C  C88  1  0.04361900  0.31689100  0.19989400  1
  C  C89  1  0.95638100  0.68310900  0.19989400  1
  C  C90  1  0.92617600  0.26567900  0.41563100  1
  C  C91  1  0.07382400  0.73432100  0.41563100  1
  C  C92  1  0.07382400  0.26567900  0.58436900  1
  C  C93  1  0.92617600  0.73432100  0.58436900  1
  C  C94  1  0.57382400  0.23432100  0.08436900  1
  C  C95  1  0.42617600  0.76567900  0.08436900  1
  C  C96  1  0.42617600  0.23432100  0.91563100  1
  C  C97  1  0.57382400  0.76567900  0.91563100  1
  C  C98  1  0.26567900  0.92617600  0.58436900  1
  C  C99  1  0.73432100  0.07382400  0.58436900  1
  C  C100  1  0.26567900  0.07382400  0.41563100  1
  C  C101  1  0.73432100  0.92617600  0.41563100  1
  C  C102  1  0.23432100  0.57382400  0.91563100  1
  C  C103  1  0.76567900  0.42617600  0.91563100  1
  C  C104  1  0.23432100  0.42617600  0.08436900  1
  C  C105  1  0.76567900  0.57382400  0.08436900  1
