# generated using pymatgen
data_Cu(Ni3C5)2
_symmetry_space_group_name_H-M   'P 1'
_cell_length_a   7.45074391
_cell_length_b   7.45074391
_cell_length_c   7.45074391
_cell_angle_alpha   109.47122063
_cell_angle_beta   109.47122063
_cell_angle_gamma   109.47122063
_symmetry_Int_Tables_number   1
_chemical_formula_structural   Cu(Ni3C5)2
_chemical_formula_sum   'Cu1 Ni6 C10'
_cell_volume   318.40290254
_cell_formula_units_Z   1
loop_
 _symmetry_equiv_pos_site_id
 _symmetry_equiv_pos_as_xyz
  1  'x, y, z'
loop_
 _atom_site_type_symbol
 _atom_site_label
 _atom_site_symmetry_multiplicity
 _atom_site_fract_x
 _atom_site_fract_y
 _atom_site_fract_z
 _atom_site_occupancy
  C  C0  1  0.00000000  0.00000000  0.50000000  1
  C  C1  1  0.50000000  0.50000000  0.50000000  1
  C  C2  1  0.00000000  0.50000000  0.00000000  1
  C  C3  1  0.50000000  0.00000000  0.00000000  1
  Ni  Ni4  1  0.75000000  0.50000000  0.25000000  1
  Ni  Ni5  1  0.50000000  0.75000000  0.25000000  1
  Ni  Ni6  1  0.75000000  0.25000000  0.50000000  1
  Ni  Ni7  1  0.25000000  0.75000000  0.50000000  1
  Ni  Ni8  1  0.25000000  0.50000000  0.75000000  1
  Ni  Ni9  1  0.50000000  0.25000000  0.75000000  1
  Cu  Cu10  1  0.00000000  0.00000000  0.00000000  1
  C  C11  1  0.28788800  0.28788800  0.00000000  1
  C  C12  1  0.00000000  0.28788800  0.28788800  1
  C  C13  1  0.00000000  0.71211200  0.71211200  1
  C  C14  1  0.71211200  0.71211200  0.00000000  1
  C  C15  1  0.28788800  0.00000000  0.28788800  1
  C  C16  1  0.71211200  0.00000000  0.71211200  1
