# generated using pymatgen
data_Cu6Ni6C5
_symmetry_space_group_name_H-M   'P 1'
_cell_length_a   4.12589100
_cell_length_b   8.26166900
_cell_length_c   19.22560000
_cell_angle_alpha   90.00000000
_cell_angle_beta   90.00000000
_cell_angle_gamma   90.00000000
_symmetry_Int_Tables_number   1
_chemical_formula_structural   Cu6Ni6C5
_chemical_formula_sum   'Cu12 Ni12 C10'
_cell_volume   655.33813952
_cell_formula_units_Z   2
loop_
 _symmetry_equiv_pos_site_id
 _symmetry_equiv_pos_as_xyz
  1  'x, y, z'
loop_
 _atom_site_type_symbol
 _atom_site_label
 _atom_site_symmetry_multiplicity
 _atom_site_fract_x
 _atom_site_fract_y
 _atom_site_fract_z
 _atom_site_occupancy
  C  C0  1  0.50000000  0.99207900  0.68227800  1
  C  C1  1  0.00000000  0.00066900  0.12992300  1
  C  C2  1  0.50000000  0.49207900  0.31772200  1
  C  C3  1  0.50000000  0.50792100  0.68227800  1
  C  C4  1  0.00000000  0.99933100  0.87007700  1
  C  C5  1  0.50000000  0.00792100  0.31772200  1
  C  C6  1  0.00000000  0.00000000  0.50000000  1
  C  C7  1  0.00000000  0.49933100  0.12992300  1
  C  C8  1  0.00000000  0.50066900  0.87007700  1
  C  C9  1  0.00000000  0.50000000  0.50000000  1
  Ni  Ni10  1  0.50000000  0.75000000  0.55828000  1
  Ni  Ni11  1  0.00000000  0.75000000  0.25822300  1
  Ni  Ni12  1  0.00000000  0.25000000  0.74177700  1
  Ni  Ni13  1  0.50000000  0.75000000  0.07517200  1
  Ni  Ni14  1  0.00000000  0.25000000  0.25376100  1
  Ni  Ni15  1  0.50000000  0.25000000  0.92482800  1
  Ni  Ni16  1  0.50000000  0.25000000  0.07232700  1
  Ni  Ni17  1  0.50000000  0.75000000  0.92767300  1
  Ni  Ni18  1  0.00000000  0.75000000  0.74623900  1
  Ni  Ni19  1  0.00000000  0.75000000  0.37307600  1
  Ni  Ni20  1  0.00000000  0.25000000  0.62692400  1
  Ni  Ni21  1  0.50000000  0.25000000  0.44172000  1
  Cu  Cu22  1  0.00000000  0.75000000  0.62113200  1
  Cu  Cu23  1  0.50000000  0.25000000  0.19376800  1
  Cu  Cu24  1  0.50000000  0.25000000  0.56699200  1
  Cu  Cu25  1  0.00000000  0.25000000  0.37886800  1
  Cu  Cu26  1  0.50000000  0.25000000  0.80193000  1
  Cu  Cu27  1  0.00000000  0.25000000  0.99928000  1
  Cu  Cu28  1  0.50000000  0.75000000  0.80623200  1
  Cu  Cu29  1  0.50000000  0.75000000  0.19807000  1
  Cu  Cu30  1  0.00000000  0.75000000  0.00072000  1
  Cu  Cu31  1  0.50000000  0.00000000  0.00000000  1
  Cu  Cu32  1  0.50000000  0.50000000  0.00000000  1
  Cu  Cu33  1  0.50000000  0.75000000  0.43300800  1
