# generated using pymatgen
data_Cu12Ni13C6
_symmetry_space_group_name_H-M   'P 1'
_cell_length_a   7.72664200
_cell_length_b   10.12924474
_cell_length_c   14.97611505
_cell_angle_alpha   95.65127545
_cell_angle_beta   92.91010666
_cell_angle_gamma   108.77866312
_symmetry_Int_Tables_number   1
_chemical_formula_structural   Cu12Ni13C6
_chemical_formula_sum   'Cu24 Ni26 C12'
_cell_volume   1100.08200992
_cell_formula_units_Z   2
loop_
 _symmetry_equiv_pos_site_id
 _symmetry_equiv_pos_as_xyz
  1  'x, y, z'
loop_
 _atom_site_type_symbol
 _atom_site_label
 _atom_site_symmetry_multiplicity
 _atom_site_fract_x
 _atom_site_fract_y
 _atom_site_fract_z
 _atom_site_occupancy
  C  C0  1  0.46175100  0.63529400  0.66448700  1
  C  C1  1  0.82264200  0.22640000  0.13338600  1
  C  C2  1  0.84626600  0.48926400  0.23281000  1
  C  C3  1  0.15373400  0.51073600  0.76719000  1
  C  C4  1  0.53824900  0.36470600  0.33551300  1
  C  C5  1  0.32087300  0.86578200  0.70160800  1
  C  C6  1  0.17735800  0.77360000  0.86661400  1
  C  C7  1  0.67912700  0.13421800  0.29839200  1
  Ni  Ni8  1  0.93885200  0.41808100  0.82492700  1
  Ni  Ni9  1  0.67796700  0.12860000  0.42525200  1
  Ni  Ni10  1  0.56708900  0.99749400  0.72539300  1
  Ni  Ni11  1  0.70070900  0.57834600  0.16918800  1
  Ni  Ni12  1  0.33966800  0.25221600  0.39666900  1
  Ni  Ni13  1  0.99035300  0.67997300  0.93910200  1
  Ni  Ni14  1  0.11806500  0.94277000  0.89207400  1
  Ni  Ni15  1  0.38072700  0.71646800  0.78873400  1
  Ni  Ni16  1  0.92265700  0.63215200  0.33342500  1
  Ni  Ni17  1  0.78318600  0.98565800  0.28721800  1
  Ni  Ni18  1  0.29929100  0.42165400  0.83081200  1
  Ni  Ni19  1  0.43291100  0.00250600  0.27460700  1
  Ni  Ni20  1  0.35805200  0.82054500  0.96770900  1
  Ni  Ni21  1  0.07734300  0.36784800  0.66657500  1
  Ni  Ni22  1  0.66033200  0.74778400  0.60333100  1
  Ni  Ni23  1  0.53210700  0.46957900  0.66132400  1
  Ni  Ni24  1  0.46789300  0.53042000  0.33867600  1
  Ni  Ni25  1  0.21681400  0.01434200  0.71278200  1
  Ni  Ni26  1  0.61927300  0.28353200  0.21126600  1
  Ni  Ni27  1  0.70262800  0.42774700  0.44182300  1
  Ni  Ni28  1  0.00964700  0.32002700  0.06089800  1
  Ni  Ni29  1  0.64194800  0.17945500  0.03229100  1
  Ni  Ni30  1  0.32203300  0.87140000  0.57474800  1
  Ni  Ni31  1  0.29737200  0.57225300  0.55817700  1
  Ni  Ni32  1  0.88193500  0.05723000  0.10792600  1
  Ni  Ni33  1  0.06114800  0.58191900  0.17507300  1
  C  C34  1  0.97681400  0.31426500  0.28430300  1
  C  C35  1  0.02318600  0.68573500  0.71569700  1
  C  C36  1  0.60702600  0.72942000  0.81973800  1
  C  C37  1  0.39297400  0.27058000  0.18026200  1
  Cu  Cu38  1  0.80905500  0.35667800  0.85806000  1
  Cu  Cu39  1  0.12404300  0.37705700  0.01734400  1
  Cu  Cu40  1  0.91877100  0.95594300  0.09007100  1
  Cu  Cu41  1  0.60951700  0.62939000  0.13092000  1
  Cu  Cu42  1  0.57074500  0.36803400  0.66256700  1
  Cu  Cu43  1  0.08122900  0.04405700  0.90992900  1
  Cu  Cu44  1  0.32375800  0.87843100  0.49779500  1
  Cu  Cu45  1  0.28396100  0.92523600  0.26170500  1
  Cu  Cu46  1  0.19094500  0.64332200  0.14194000  1
  Cu  Cu47  1  0.02714400  0.28228900  0.60467900  1
  Cu  Cu48  1  0.46967400  0.84717100  0.02776000  1
  Cu  Cu49  1  0.67624200  0.12156900  0.50220500  1
  Cu  Cu50  1  0.53032600  0.15282900  0.97224000  1
  Cu  Cu51  1  0.20104800  0.53280800  0.49188800  1
  Cu  Cu52  1  0.79895200  0.46719200  0.50811200  1
  Cu  Cu53  1  0.97285600  0.71771100  0.39532100  1
  Cu  Cu54  1  0.42925500  0.63196600  0.33743300  1
  Cu  Cu55  1  0.71603900  0.07476400  0.73829500  1
  Cu  Cu56  1  0.15950400  0.10736900  0.71810300  1
  Cu  Cu57  1  0.22196300  0.18236800  0.43350700  1
  Cu  Cu58  1  0.39048300  0.37061000  0.86908000  1
  Cu  Cu59  1  0.87595700  0.62294300  0.98265600  1
  Cu  Cu60  1  0.84049600  0.89263100  0.28189700  1
  Cu  Cu61  1  0.77803700  0.81763200  0.56649300  1
