# generated using pymatgen
data_Cu(NiC4)2
_symmetry_space_group_name_H-M   'P 1'
_cell_length_a   9.76649700
_cell_length_b   5.19524600
_cell_length_c   9.75699388
_cell_angle_alpha   88.48918143
_cell_angle_beta   90.00000000
_cell_angle_gamma   90.00000000
_symmetry_Int_Tables_number   1
_chemical_formula_structural   Cu(NiC4)2
_chemical_formula_sum   'Cu4 Ni8 C32'
_cell_volume   494.89146927
_cell_formula_units_Z   4
loop_
 _symmetry_equiv_pos_site_id
 _symmetry_equiv_pos_as_xyz
  1  'x, y, z'
loop_
 _atom_site_type_symbol
 _atom_site_label
 _atom_site_symmetry_multiplicity
 _atom_site_fract_x
 _atom_site_fract_y
 _atom_site_fract_z
 _atom_site_occupancy
  C  C0  1  0.39525600  0.79714900  0.04976700  1
  C  C1  1  0.46955800  0.82158900  0.06384400  1
  C  C2  1  0.24842500  0.44628600  0.15405800  1
  C  C3  1  0.52357500  0.45362200  0.23251200  1
  C  C4  1  0.35041300  0.65784900  0.46080700  1
  C  C5  1  0.59726700  0.65290400  0.39775300  1
  C  C6  1  0.39207300  0.91508800  0.37386500  1
  C  C7  1  0.16315600  0.72132800  0.28006200  1
  C  C8  1  0.10474400  0.79714900  0.54976700  1
  C  C9  1  0.03044200  0.82158900  0.56384400  1
  C  C10  1  0.25157500  0.44628600  0.65405800  1
  C  C11  1  0.33684400  0.72132800  0.78006200  1
  C  C12  1  0.14958700  0.65784900  0.96080700  1
  C  C13  1  0.97642500  0.45362200  0.73251200  1
  C  C14  1  0.90273300  0.65290400  0.89775300  1
  C  C15  1  0.10792700  0.91508800  0.87386500  1
  C  C16  1  0.60474400  0.20285100  0.95023300  1
  C  C17  1  0.53044200  0.17841100  0.93615600  1
  C  C18  1  0.47642500  0.54637800  0.76748800  1
  C  C19  1  0.64958700  0.34215100  0.53919300  1
  C  C20  1  0.75157500  0.55371400  0.84594200  1
  C  C21  1  0.60792700  0.08491200  0.62613500  1
  C  C22  1  0.40273300  0.34709600  0.60224700  1
  C  C23  1  0.83684400  0.27867200  0.71993800  1
  C  C24  1  0.89525600  0.20285100  0.45023300  1
  C  C25  1  0.96955800  0.17841100  0.43615600  1
  C  C26  1  0.09726700  0.34709600  0.10224700  1
  C  C27  1  0.74842500  0.55371400  0.34594200  1
  C  C28  1  0.66315600  0.27867200  0.21993800  1
  C  C29  1  0.02357500  0.54637800  0.26748800  1
  C  C30  1  0.89207300  0.08491200  0.12613500  1
  C  C31  1  0.85041300  0.34215100  0.03919300  1
  Ni  Ni32  1  0.08752200  0.66826500  0.21303900  1
  Ni  Ni33  1  0.41247800  0.66826500  0.71303900  1
  Ni  Ni34  1  0.91247800  0.33173500  0.78696100  1
  Ni  Ni35  1  0.58752200  0.33173500  0.28696100  1
  Ni  Ni36  1  0.65719000  0.49230000  0.38760500  1
  Ni  Ni37  1  0.84281000  0.49230000  0.88760500  1
  Ni  Ni38  1  0.34281000  0.50770000  0.61239500  1
  Ni  Ni39  1  0.15719000  0.50770000  0.11239500  1
  Cu  Cu40  1  0.36270500  0.73651800  0.36381000  1
  Cu  Cu41  1  0.13729500  0.73651800  0.86381000  1
  Cu  Cu42  1  0.63729500  0.26348200  0.63619000  1
  Cu  Cu43  1  0.86270500  0.26348200  0.13619000  1
