# generated using pymatgen
data_Cu2Ni2C
_symmetry_space_group_name_H-M   'P 1'
_cell_length_a   12.75830700
_cell_length_b   10.23551800
_cell_length_c   21.58022539
_cell_angle_alpha   88.49156595
_cell_angle_beta   90.00000000
_cell_angle_gamma   90.00000000
_symmetry_Int_Tables_number   1
_chemical_formula_structural   Cu2Ni2C
_chemical_formula_sum   'Cu64 Ni64 C32'
_cell_volume   2817.13931696
_cell_formula_units_Z   32
loop_
 _symmetry_equiv_pos_site_id
 _symmetry_equiv_pos_as_xyz
  1  'x, y, z'
loop_
 _atom_site_type_symbol
 _atom_site_label
 _atom_site_symmetry_multiplicity
 _atom_site_fract_x
 _atom_site_fract_y
 _atom_site_fract_z
 _atom_site_occupancy
  C  C0  1  0.18678300  0.44125400  0.50577800  1
  C  C1  1  0.31321700  0.44125400  0.00577800  1
  C  C2  1  0.84826800  0.96731000  0.10748200  1
  C  C3  1  0.93156400  0.73814500  0.17345200  1
  C  C4  1  0.78385400  0.81232500  0.69072700  1
  C  C5  1  0.81321700  0.55874600  0.49422200  1
  C  C6  1  0.26392400  0.41288200  0.38206800  1
  C  C7  1  0.28385400  0.18767500  0.80927300  1
  C  C8  1  0.71614600  0.81232500  0.19072700  1
  C  C9  1  0.43156400  0.26185500  0.32654800  1
  C  C10  1  0.69317800  0.80570000  0.05538600  1
  C  C11  1  0.80682200  0.80570000  0.55538600  1
  C  C12  1  0.34826800  0.03269000  0.39251800  1
  C  C13  1  0.73607600  0.58711800  0.61793200  1
  C  C14  1  0.68678300  0.55874600  0.99422200  1
  C  C15  1  0.30682200  0.19430000  0.94461400  1
  C  C16  1  0.56843600  0.73814500  0.67345200  1
  C  C17  1  0.06843600  0.26185500  0.82654800  1
  C  C18  1  0.76392400  0.58711800  0.11793200  1
  C  C19  1  0.19317800  0.19430000  0.44461400  1
  C  C20  1  0.21614600  0.18767500  0.30927300  1
  C  C21  1  0.23607600  0.41288200  0.88206800  1
  C  C22  1  0.15173200  0.03269000  0.89251800  1
  C  C23  1  0.65173200  0.96731000  0.60748200  1
  Ni  Ni24  1  0.25287300  0.89572500  0.37582700  1
  Ni  Ni25  1  0.66211300  0.37743200  0.98706900  1
  Ni  Ni26  1  0.81546500  0.55178300  0.94762100  1
  Ni  Ni27  1  0.04093700  0.17121700  0.75224700  1
  Ni  Ni28  1  0.92407600  0.26503500  0.85130000  1
  Ni  Ni29  1  0.16211300  0.62256800  0.51293100  1
  Ni  Ni30  1  0.39650600  0.39097100  0.07497000  1
  Ni  Ni31  1  0.77337300  0.96569100  0.73841900  1
  Ni  Ni32  1  0.21716100  0.52260300  0.31556700  1
  Ni  Ni33  1  0.22662700  0.03430900  0.26158100  1
  Ni  Ni34  1  0.10349400  0.39097100  0.57497000  1
  Ni  Ni35  1  0.87952100  0.04825400  0.02956600  1
  Ni  Ni36  1  0.34142800  0.55831400  0.41214600  1
  Ni  Ni37  1  0.22657100  0.29346700  0.23649000  1
  Ni  Ni38  1  0.42407600  0.73496500  0.64870000  1
  Ni  Ni39  1  0.44353500  0.42932000  0.28844700  1
  Ni  Ni40  1  0.07592400  0.73496500  0.14870000  1
  Ni  Ni41  1  0.84142800  0.44168600  0.08785400  1
  Ni  Ni42  1  0.79240300  0.85896400  0.47024600  1
  Ni  Ni43  1  0.74712700  0.10427500  0.62417300  1
  Ni  Ni44  1  0.41654400  0.06980400  0.93677600  1
  Ni  Ni45  1  0.18453500  0.44821700  0.05237900  1
  Ni  Ni46  1  0.75287300  0.10427500  0.12417300  1
  Ni  Ni47  1  0.71716100  0.47739700  0.18443300  1
  Ni  Ni48  1  0.83788700  0.37743200  0.48706900  1
  Ni  Ni49  1  0.96663600  0.04423900  0.14636500  1
  Ni  Ni50  1  0.45906300  0.17121700  0.25224700  1
  Ni  Ni51  1  0.46663600  0.95576100  0.35363500  1
  Ni  Ni52  1  0.89650600  0.60902900  0.42503000  1
  Ni  Ni53  1  0.33788700  0.62256800  0.01293100  1
  Ni  Ni54  1  0.53336400  0.04423900  0.64636500  1
  Ni  Ni55  1  0.95906300  0.82878300  0.24775300  1
  Ni  Ni56  1  0.56602600  0.81093300  0.19145100  1
  Ni  Ni57  1  0.70759700  0.85896400  0.97024600  1
  Ni  Ni58  1  0.60349400  0.60902900  0.92503000  1
  Ni  Ni59  1  0.65857200  0.44168600  0.58785400  1
  Ni  Ni60  1  0.12047900  0.95174600  0.97043400  1
  Ni  Ni61  1  0.37952100  0.95174600  0.47043400  1
  Ni  Ni62  1  0.77342900  0.70653300  0.76351000  1
  Ni  Ni63  1  0.72657100  0.70653300  0.26351000  1
  Ni  Ni64  1  0.78283900  0.47739700  0.68443300  1
  Ni  Ni65  1  0.28283900  0.52260300  0.81556700  1
  Ni  Ni66  1  0.05646500  0.42932000  0.78844700  1
  Ni  Ni67  1  0.58345600  0.93019600  0.06322400  1
  Ni  Ni68  1  0.68453500  0.55178300  0.44762100  1
  Ni  Ni69  1  0.93397400  0.81093300  0.69145100  1
  Ni  Ni70  1  0.91654400  0.93019600  0.56322400  1
  Ni  Ni71  1  0.57592400  0.26503500  0.35130000  1
  Ni  Ni72  1  0.08345600  0.06980400  0.43677600  1
  Ni  Ni73  1  0.72662700  0.96569100  0.23841900  1
  Ni  Ni74  1  0.20759700  0.14103600  0.52975400  1
  Ni  Ni75  1  0.94353500  0.57068000  0.21155300  1
  Ni  Ni76  1  0.31546500  0.44821700  0.55237900  1
  Ni  Ni77  1  0.15857200  0.55831400  0.91214600  1
  Ni  Ni78  1  0.29240300  0.14103600  0.02975400  1
  Ni  Ni79  1  0.03336400  0.95576100  0.85363500  1
  Ni  Ni80  1  0.62047900  0.04825400  0.52956600  1
  Ni  Ni81  1  0.06602600  0.18906700  0.30854900  1
  Ni  Ni82  1  0.27337300  0.03430900  0.76158100  1
  Ni  Ni83  1  0.43397400  0.18906700  0.80854900  1
  Ni  Ni84  1  0.27342900  0.29346700  0.73649000  1
  Ni  Ni85  1  0.54093700  0.82878300  0.74775300  1
  Ni  Ni86  1  0.24712700  0.89572500  0.87582700  1
  Ni  Ni87  1  0.55646500  0.57068000  0.71155300  1
  C  C88  1  0.09153100  0.38071900  0.42042400  1
  C  C89  1  0.90846900  0.61928100  0.57957600  1
  C  C90  1  0.40846900  0.38071900  0.92042400  1
  C  C91  1  0.37993600  0.24928000  0.43584500  1
  C  C92  1  0.59153100  0.61928100  0.07957600  1
  C  C93  1  0.12006400  0.24928000  0.93584500  1
  C  C94  1  0.87993600  0.75072000  0.06415500  1
  C  C95  1  0.62006400  0.75072000  0.56415500  1
  Cu  Cu96  1  0.16311900  0.73290400  0.13354200  1
  Cu  Cu97  1  0.69364400  0.18924900  0.13037800  1
  Cu  Cu98  1  0.48205400  0.99196900  0.93124500  1
  Cu  Cu99  1  0.01794600  0.99196900  0.43124500  1
  Cu  Cu100  1  0.77901500  0.89799100  0.41964700  1
  Cu  Cu101  1  0.73148000  0.64477100  0.30943800  1
  Cu  Cu102  1  0.10459500  0.45276000  0.07781200  1
  Cu  Cu103  1  0.80635600  0.18924900  0.63037800  1
  Cu  Cu104  1  0.18776000  0.59089200  0.27524700  1
  Cu  Cu105  1  0.35358400  0.73411300  0.01724100  1
  Cu  Cu106  1  0.26852000  0.35522900  0.69056200  1
  Cu  Cu107  1  0.23148000  0.35522900  0.19056200  1
  Cu  Cu108  1  0.72098500  0.89799100  0.91964700  1
  Cu  Cu109  1  0.94792000  0.64246900  0.38308300  1
  Cu  Cu110  1  0.73319500  0.05449600  0.27076600  1
  Cu  Cu111  1  0.05208000  0.35753100  0.61691700  1
  Cu  Cu112  1  0.53692300  0.90185900  0.33137900  1
  Cu  Cu113  1  0.19364400  0.81075100  0.36962200  1
  Cu  Cu114  1  0.55208000  0.64246900  0.88308300  1
  Cu  Cu115  1  0.39540500  0.45276000  0.57781200  1
  Cu  Cu116  1  0.39605500  0.90273700  0.51863500  1
  Cu  Cu117  1  0.22098500  0.10200900  0.58035300  1
  Cu  Cu118  1  0.83688100  0.26709600  0.86645800  1
  Cu  Cu119  1  0.98205400  0.00803100  0.56875500  1
  Cu  Cu120  1  0.52449000  0.88349800  0.79321200  1
  Cu  Cu121  1  0.64641600  0.26588700  0.98275900  1
  Cu  Cu122  1  0.33688100  0.73290400  0.63354200  1
  Cu  Cu123  1  0.27901500  0.10200900  0.08035300  1
  Cu  Cu124  1  0.39112500  0.64783600  0.42713900  1
  Cu  Cu125  1  0.23319500  0.94550400  0.22923400  1
  Cu  Cu126  1  0.76852000  0.64477100  0.80943800  1
  Cu  Cu127  1  0.68776000  0.40910800  0.22475300  1
  Cu  Cu128  1  0.81224000  0.40910800  0.72475300  1
  Cu  Cu129  1  0.76680500  0.05449600  0.77076600  1
  Cu  Cu130  1  0.10394500  0.90273700  0.01863500  1
  Cu  Cu131  1  0.60887500  0.35216400  0.57286100  1
  Cu  Cu132  1  0.89112500  0.35216400  0.07286100  1
  Cu  Cu133  1  0.96307700  0.90185900  0.83137900  1
  Cu  Cu134  1  0.03692300  0.09814100  0.16862100  1
  Cu  Cu135  1  0.89605500  0.09726300  0.98136500  1
  Cu  Cu136  1  0.51794600  0.00803100  0.06875500  1
  Cu  Cu137  1  0.47551000  0.11650200  0.20678800  1
  Cu  Cu138  1  0.54335300  0.47099800  0.73760500  1
  Cu  Cu139  1  0.04335300  0.52900200  0.76239500  1
  Cu  Cu140  1  0.85358400  0.26588700  0.48275900  1
  Cu  Cu141  1  0.31224000  0.59089200  0.77524700  1
  Cu  Cu142  1  0.97506700  0.18927700  0.30617100  1
  Cu  Cu143  1  0.14641600  0.73411300  0.51724100  1
  Cu  Cu144  1  0.44792000  0.35753100  0.11691700  1
  Cu  Cu145  1  0.97551000  0.88349800  0.29321200  1
  Cu  Cu146  1  0.02449000  0.11650200  0.70678800  1
  Cu  Cu147  1  0.47506700  0.81072300  0.19382900  1
  Cu  Cu148  1  0.46307700  0.09814100  0.66862100  1
  Cu  Cu149  1  0.30635600  0.81075100  0.86962200  1
  Cu  Cu150  1  0.95664700  0.47099800  0.23760500  1
  Cu  Cu151  1  0.60394500  0.09726300  0.48136500  1
  Cu  Cu152  1  0.66311900  0.26709600  0.36645800  1
  Cu  Cu153  1  0.60459500  0.54724000  0.42218800  1
  Cu  Cu154  1  0.02493300  0.81072300  0.69382900  1
  Cu  Cu155  1  0.26680500  0.94550400  0.72923400  1
  Cu  Cu156  1  0.10887500  0.64783600  0.92713900  1
  Cu  Cu157  1  0.45664700  0.52900200  0.26239500  1
  Cu  Cu158  1  0.89540500  0.54724000  0.92218800  1
  Cu  Cu159  1  0.52493300  0.18927700  0.80617100  1
