# generated using pymatgen
data_CuNi3C11
_symmetry_space_group_name_H-M   'P 1'
_cell_length_a   8.32824500
_cell_length_b   8.32824500
_cell_length_c   13.93411000
_cell_angle_alpha   90.00000000
_cell_angle_beta   90.00000000
_cell_angle_gamma   90.00000000
_symmetry_Int_Tables_number   1
_chemical_formula_structural   CuNi3C11
_chemical_formula_sum   'Cu2 Ni6 C22'
_cell_volume   966.46519861
_cell_formula_units_Z   2
loop_
 _symmetry_equiv_pos_site_id
 _symmetry_equiv_pos_as_xyz
  1  'x, y, z'
loop_
 _atom_site_type_symbol
 _atom_site_label
 _atom_site_symmetry_multiplicity
 _atom_site_fract_x
 _atom_site_fract_y
 _atom_site_fract_z
 _atom_site_occupancy
  Ni  Ni0  1  0.00000000  0.00000000  0.72285300  1
  Ni  Ni1  1  0.50000000  0.50000000  0.72285300  1
  Ni  Ni2  1  0.50000000  0.50000000  0.27714700  1
  Ni  Ni3  1  0.00000000  0.00000000  0.27714700  1
  Ni  Ni4  1  0.50000000  0.50000000  0.00000000  1
  Ni  Ni5  1  0.00000000  0.00000000  0.00000000  1
  Cu  Cu6  1  0.00000000  0.50000000  0.00000000  1
  Cu  Cu7  1  0.50000000  0.00000000  0.00000000  1
  C  C8  1  0.50000000  0.00000000  0.75414500  1
  C  C9  1  0.50000000  0.00000000  0.24585500  1
  C  C10  1  0.00000000  0.50000000  0.75414500  1
  C  C11  1  0.00000000  0.50000000  0.24585500  1
  C  C12  1  0.50000000  0.00000000  0.50000000  1
  C  C13  1  0.00000000  0.50000000  0.50000000  1
  C  C14  1  0.33569900  0.83569900  0.62320400  1
  C  C15  1  0.18088100  0.68088100  0.85271300  1
  C  C16  1  0.83569900  0.33569900  0.37679600  1
  C  C17  1  0.33569900  0.16430100  0.37679600  1
  C  C18  1  0.68088100  0.81911900  0.85271300  1
  C  C19  1  0.68088100  0.18088100  0.14728700  1
  C  C20  1  0.81911900  0.68088100  0.14728700  1
  C  C21  1  0.31911900  0.81911900  0.14728700  1
  C  C22  1  0.83569900  0.66430100  0.62320400  1
  C  C23  1  0.81911900  0.31911900  0.85271300  1
  C  C24  1  0.66430100  0.83569900  0.37679600  1
  C  C25  1  0.66430100  0.16430100  0.62320400  1
  C  C26  1  0.16430100  0.66430100  0.37679600  1
  C  C27  1  0.18088100  0.31911900  0.14728700  1
  C  C28  1  0.16430100  0.33569900  0.62320400  1
  C  C29  1  0.31911900  0.18088100  0.85271300  1
