# generated using pymatgen
data_Cu5Ni2C3
_symmetry_space_group_name_H-M   'P 1'
_cell_length_a   8.09988200
_cell_length_b   8.22027192
_cell_length_c   9.28161315
_cell_angle_alpha   64.92353983
_cell_angle_beta   75.55520624
_cell_angle_gamma   65.53520088
_symmetry_Int_Tables_number   1
_chemical_formula_structural   Cu5Ni2C3
_chemical_formula_sum   'Cu10 Ni4 C6'
_cell_volume   507.43996383
_cell_formula_units_Z   2
loop_
 _symmetry_equiv_pos_site_id
 _symmetry_equiv_pos_as_xyz
  1  'x, y, z'
loop_
 _atom_site_type_symbol
 _atom_site_label
 _atom_site_symmetry_multiplicity
 _atom_site_fract_x
 _atom_site_fract_y
 _atom_site_fract_z
 _atom_site_occupancy
  C  C0  1  0.69587200  0.85383000  0.86423200  1
  C  C1  1  0.30412800  0.14617000  0.13576800  1
  C  C2  1  0.89025300  0.24401200  0.91274400  1
  C  C3  1  0.10974700  0.75598800  0.08725600  1
  Ni  Ni4  1  0.88931700  0.95455100  0.37288500  1
  Ni  Ni5  1  0.55071500  0.38336300  0.19151900  1
  Ni  Ni6  1  0.44928500  0.61663700  0.80848100  1
  Ni  Ni7  1  0.11068300  0.04544900  0.62711500  1
  C  C8  1  0.75136300  0.54054000  0.40725200  1
  C  C9  1  0.24863700  0.45946000  0.59274800  1
  Cu  Cu10  1  0.81660100  0.43470300  0.09170900  1
  Cu  Cu11  1  0.86912500  0.69158100  0.58947800  1
  Cu  Cu12  1  0.78780100  0.91972000  0.18323300  1
  Cu  Cu13  1  0.63189500  0.17787400  0.45097900  1
  Cu  Cu14  1  0.37814700  0.65111500  0.24738400  1
  Cu  Cu15  1  0.62185300  0.34888500  0.75261600  1
  Cu  Cu16  1  0.36810500  0.82212600  0.54902100  1
  Cu  Cu17  1  0.21219900  0.08028000  0.81676700  1
  Cu  Cu18  1  0.13087500  0.30841900  0.41052200  1
  Cu  Cu19  1  0.18339900  0.56529700  0.90829100  1
