# generated using pymatgen
data_Cu5NiC3
_symmetry_space_group_name_H-M   'P 1'
_cell_length_a   8.87900106
_cell_length_b   8.87900106
_cell_length_c   8.87900106
_cell_angle_alpha   141.12061711
_cell_angle_beta   141.12061711
_cell_angle_gamma   56.15568801
_symmetry_Int_Tables_number   1
_chemical_formula_structural   Cu5NiC3
_chemical_formula_sum   'Cu10 Ni2 C6'
_cell_volume   273.63861571
_cell_formula_units_Z   2
loop_
 _symmetry_equiv_pos_site_id
 _symmetry_equiv_pos_as_xyz
  1  'x, y, z'
loop_
 _atom_site_type_symbol
 _atom_site_label
 _atom_site_symmetry_multiplicity
 _atom_site_fract_x
 _atom_site_fract_y
 _atom_site_fract_z
 _atom_site_occupancy
  C  C0  1  0.11694400  0.61694400  0.50000000  1
  C  C1  1  0.38305600  0.88305600  0.50000000  1
  C  C2  1  0.88305600  0.38305600  0.50000000  1
  C  C3  1  0.61694400  0.11694400  0.50000000  1
  C  C4  1  0.00000000  0.00000000  0.00000000  1
  C  C5  1  0.50000000  0.50000000  0.00000000  1
  Ni  Ni6  1  0.23352500  0.23352500  0.00000000  1
  Ni  Ni7  1  0.76647500  0.76647500  0.00000000  1
  Cu  Cu8  1  0.59059200  0.59059200  0.72792100  1
  Cu  Cu9  1  0.13733000  0.40940800  0.00000000  1
  Cu  Cu10  1  0.85037000  0.85037000  0.00000000  1
  Cu  Cu11  1  0.14963000  0.14963000  0.00000000  1
  Cu  Cu12  1  0.40940800  0.13733000  0.00000000  1
  Cu  Cu13  1  0.86267000  0.86267000  0.27207900  1
  Cu  Cu14  1  0.72055300  0.72055300  0.44668000  1
  Cu  Cu15  1  0.27944700  0.72612600  0.00000000  1
  Cu  Cu16  1  0.72612600  0.27944700  0.00000000  1
  Cu  Cu17  1  0.27387400  0.27387400  0.55332000  1
