# generated using pymatgen
data_Cu14Ni2C13
_symmetry_space_group_name_H-M   'P 1'
_cell_length_a   7.89589500
_cell_length_b   7.89608013
_cell_length_c   11.22306801
_cell_angle_alpha   90.00269071
_cell_angle_beta   90.00372347
_cell_angle_gamma   60.00409301
_symmetry_Int_Tables_number   1
_chemical_formula_structural   Cu14Ni2C13
_chemical_formula_sum   'Cu28 Ni4 C26'
_cell_volume   606.00059044
_cell_formula_units_Z   2
loop_
 _symmetry_equiv_pos_site_id
 _symmetry_equiv_pos_as_xyz
  1  'x, y, z'
loop_
 _atom_site_type_symbol
 _atom_site_label
 _atom_site_symmetry_multiplicity
 _atom_site_fract_x
 _atom_site_fract_y
 _atom_site_fract_z
 _atom_site_occupancy
  C  C0  1  0.99994400  0.00010700  0.74960500  1
  C  C1  1  0.00065600  0.99961400  0.25023400  1
  C  C2  1  0.77466900  0.29160300  0.39011400  1
  C  C3  1  0.77457200  0.29173900  0.89003800  1
  C  C4  1  0.29197300  0.93363000  0.39015300  1
  C  C5  1  0.29164900  0.93375300  0.89001900  1
  C  C6  1  0.93355000  0.77447800  0.39019500  1
  C  C7  1  0.93359600  0.77473100  0.89003800  1
  C  C8  1  0.22537300  0.70820100  0.10984000  1
  C  C9  1  0.22541300  0.70822600  0.60989500  1
  C  C10  1  0.70836800  0.06628200  0.10998500  1
  C  C11  1  0.70806600  0.06632300  0.60988200  1
  C  C12  1  0.06623100  0.22534000  0.11000800  1
  C  C13  1  0.06633900  0.22548300  0.60984400  1
  C  C14  1  0.92068100  0.35255400  0.33725000  1
  C  C15  1  0.92035800  0.35276200  0.83692700  1
  C  C16  1  0.35286000  0.72664500  0.33730100  1
  C  C17  1  0.35260800  0.72696400  0.83692700  1
  C  C18  1  0.72680400  0.92062700  0.33716100  1
  C  C19  1  0.72683900  0.92041500  0.83688400  1
  C  C20  1  0.07934900  0.64733900  0.16277600  1
  C  C21  1  0.07951800  0.64733300  0.66303700  1
  C  C22  1  0.64756600  0.27311800  0.16289200  1
  C  C23  1  0.64722900  0.27313200  0.66300900  1
  C  C24  1  0.27330100  0.07952200  0.16282200  1
  C  C25  1  0.27308600  0.07966200  0.66308700  1
  Ni  Ni26  1  0.33327700  0.33336300  0.41050800  1
  Ni  Ni27  1  0.33328500  0.33333700  0.91043700  1
  Ni  Ni28  1  0.66661200  0.66671600  0.08951300  1
  Ni  Ni29  1  0.66661600  0.66673400  0.58956600  1
  Cu  Cu30  1  0.33330000  0.33332100  0.05704800  1
  Cu  Cu31  1  0.33329100  0.33333800  0.55713300  1
  Cu  Cu32  1  0.66660300  0.66675300  0.44294300  1
  Cu  Cu33  1  0.66660500  0.66671800  0.94287200  1
  Cu  Cu34  1  0.90975800  0.23977600  0.36266000  1
  Cu  Cu35  1  0.90953500  0.23993800  0.86240300  1
  Cu  Cu36  1  0.24014300  0.85032400  0.36274700  1
  Cu  Cu37  1  0.23977800  0.85064800  0.86239900  1
  Cu  Cu38  1  0.85063400  0.90948100  0.36262800  1
  Cu  Cu39  1  0.85044300  0.90966700  0.86237100  1
  Cu  Cu40  1  0.09040700  0.76008200  0.13745200  1
  Cu  Cu41  1  0.09039000  0.76007200  0.63741600  1
  Cu  Cu42  1  0.76031700  0.14935200  0.13763800  1
  Cu  Cu43  1  0.75996400  0.14957800  0.63738900  1
  Cu  Cu44  1  0.14961900  0.09029800  0.13752700  1
  Cu  Cu45  1  0.14946700  0.09050400  0.63740900  1
  Cu  Cu46  1  0.48902400  0.39885500  0.35938000  1
  Cu  Cu47  1  0.48902500  0.39884300  0.85929300  1
  Cu  Cu48  1  0.39875300  0.11216500  0.35935300  1
  Cu  Cu49  1  0.39875400  0.11216300  0.85925600  1
  Cu  Cu50  1  0.11209700  0.48907200  0.35936100  1
  Cu  Cu51  1  0.11209400  0.48906900  0.85928100  1
  Cu  Cu52  1  0.51083900  0.60125000  0.14064100  1
  Cu  Cu53  1  0.51090000  0.60119400  0.64070400  1
  Cu  Cu54  1  0.60116300  0.88788200  0.14066900  1
  Cu  Cu55  1  0.60110400  0.88792100  0.64072900  1
  Cu  Cu56  1  0.88779300  0.51097200  0.14064800  1
  Cu  Cu57  1  0.88781400  0.51103100  0.64070500  1
