# generated using pymatgen
data_CuNiC3
_symmetry_space_group_name_H-M   'P 1'
_cell_length_a   7.72916400
_cell_length_b   7.76442700
_cell_length_c   11.06881933
_cell_angle_alpha   65.46915073
_cell_angle_beta   90.00000000
_cell_angle_gamma   90.00000000
_symmetry_Int_Tables_number   1
_chemical_formula_structural   CuNiC3
_chemical_formula_sum   'Cu4 Ni4 C12'
_cell_volume   604.30961011
_cell_formula_units_Z   4
loop_
 _symmetry_equiv_pos_site_id
 _symmetry_equiv_pos_as_xyz
  1  'x, y, z'
loop_
 _atom_site_type_symbol
 _atom_site_label
 _atom_site_symmetry_multiplicity
 _atom_site_fract_x
 _atom_site_fract_y
 _atom_site_fract_z
 _atom_site_occupancy
  Ni  Ni0  1  0.87925300  0.77068700  0.24991700  1
  Ni  Ni1  1  0.37925300  0.22931300  0.25008300  1
  Ni  Ni2  1  0.62074700  0.77068700  0.74991700  1
  Ni  Ni3  1  0.12074700  0.22931300  0.75008300  1
  Cu  Cu4  1  0.63153100  0.97671300  0.05222700  1
  Cu  Cu5  1  0.13153100  0.02328700  0.44777300  1
  Cu  Cu6  1  0.86846900  0.97671300  0.55222700  1
  Cu  Cu7  1  0.36846900  0.02328700  0.94777300  1
  C  C8  1  0.32933800  0.54750200  0.66522700  1
  C  C9  1  0.18735300  0.09149600  0.07851800  1
  C  C10  1  0.21489200  0.73406500  0.45165600  1
  C  C11  1  0.71489200  0.26593500  0.04834400  1
  C  C12  1  0.68735300  0.90850400  0.42148200  1
  C  C13  1  0.82933800  0.45249800  0.83477300  1
  C  C14  1  0.17066200  0.54750200  0.16522700  1
  C  C15  1  0.31264700  0.09149600  0.57851800  1
  C  C16  1  0.28510800  0.73406500  0.95165600  1
  C  C17  1  0.78510800  0.26593500  0.54834400  1
  C  C18  1  0.81264700  0.90850400  0.92148200  1
  C  C19  1  0.67066200  0.45249800  0.33477300  1
