# generated using pymatgen
data_Cu3(Ni3C4)4
_symmetry_space_group_name_H-M   'P 1'
_cell_length_a   12.01494027
_cell_length_b   12.01494027
_cell_length_c   12.01494027
_cell_angle_alpha   109.47122063
_cell_angle_beta   109.47122063
_cell_angle_gamma   109.47122063
_symmetry_Int_Tables_number   1
_chemical_formula_structural   Cu3(Ni3C4)4
_chemical_formula_sum   'Cu12 Ni48 C64'
_cell_volume   1335.18965197
_cell_formula_units_Z   4
loop_
 _symmetry_equiv_pos_site_id
 _symmetry_equiv_pos_as_xyz
  1  'x, y, z'
loop_
 _atom_site_type_symbol
 _atom_site_label
 _atom_site_symmetry_multiplicity
 _atom_site_fract_x
 _atom_site_fract_y
 _atom_site_fract_z
 _atom_site_occupancy
  C  C0  1  0.00000000  0.50000000  0.00000000  1
  C  C1  1  0.50000000  0.00000000  0.00000000  1
  C  C2  1  0.00000000  0.00000000  0.50000000  1
  C  C3  1  0.50000000  0.50000000  0.50000000  1
  Ni  Ni4  1  0.91913400  0.62162500  0.87262800  1
  Ni  Ni5  1  0.25100300  0.87837500  0.79750800  1
  Ni  Ni6  1  0.24899700  0.04650500  0.62737200  1
  Ni  Ni7  1  0.58086600  0.45349500  0.70249200  1
  Ni  Ni8  1  0.87262800  0.91913400  0.62162500  1
  Ni  Ni9  1  0.79750800  0.25100300  0.87837500  1
  Ni  Ni10  1  0.62737200  0.24899700  0.04650500  1
  Ni  Ni11  1  0.70249200  0.58086600  0.45349500  1
  Ni  Ni12  1  0.62162500  0.87262800  0.91913400  1
  Ni  Ni13  1  0.87837500  0.79750800  0.25100300  1
  Ni  Ni14  1  0.04650500  0.62737200  0.24899700  1
  Ni  Ni15  1  0.45349500  0.70249200  0.58086600  1
  Ni  Ni16  1  0.08086600  0.37837500  0.12737200  1
  Ni  Ni17  1  0.74899700  0.12162500  0.20249200  1
  Ni  Ni18  1  0.75100300  0.95349500  0.37262800  1
  Ni  Ni19  1  0.41913400  0.54650500  0.29750800  1
  Ni  Ni20  1  0.12737200  0.08086600  0.37837500  1
  Ni  Ni21  1  0.20249200  0.74899700  0.12162500  1
  Ni  Ni22  1  0.37262800  0.75100300  0.95349500  1
  Ni  Ni23  1  0.29750800  0.41913400  0.54650500  1
  Ni  Ni24  1  0.37837500  0.12737200  0.08086600  1
  Ni  Ni25  1  0.12162500  0.20249200  0.74899700  1
  Ni  Ni26  1  0.95349500  0.37262800  0.75100300  1
  Ni  Ni27  1  0.54650500  0.29750800  0.41913400  1
  Ni  Ni28  1  0.88306500  0.64764100  0.99414500  1
  Ni  Ni29  1  0.34650300  0.85235900  0.73542400  1
  Ni  Ni30  1  0.15349700  0.88892000  0.50585500  1
  Ni  Ni31  1  0.61693500  0.61108000  0.76457600  1
  Ni  Ni32  1  0.99414500  0.88306500  0.64764100  1
  Ni  Ni33  1  0.73542400  0.34650300  0.85235900  1
  Ni  Ni34  1  0.50585500  0.15349700  0.88892000  1
  Ni  Ni35  1  0.76457600  0.61693500  0.61108000  1
  Ni  Ni36  1  0.64764100  0.99414500  0.88306500  1
  Ni  Ni37  1  0.85235900  0.73542400  0.34650300  1
  Ni  Ni38  1  0.88892000  0.50585500  0.15349700  1
  Ni  Ni39  1  0.61108000  0.76457600  0.61693500  1
  Ni  Ni40  1  0.11693500  0.35235900  0.00585500  1
  Ni  Ni41  1  0.65349700  0.14764100  0.26457600  1
  Ni  Ni42  1  0.84650300  0.11108000  0.49414500  1
  Ni  Ni43  1  0.38306500  0.38892000  0.23542400  1
  Ni  Ni44  1  0.00585500  0.11693500  0.35235900  1
  Ni  Ni45  1  0.26457600  0.65349700  0.14764100  1
  Ni  Ni46  1  0.49414500  0.84650300  0.11108000  1
  Ni  Ni47  1  0.23542400  0.38306500  0.38892000  1
  Ni  Ni48  1  0.35235900  0.00585500  0.11693500  1
  Ni  Ni49  1  0.14764100  0.26457600  0.65349700  1
  Ni  Ni50  1  0.11108000  0.49414500  0.84650300  1
  Ni  Ni51  1  0.38892000  0.23542400  0.38306500  1
  Cu  Cu52  1  0.21533500  0.96533500  0.25000000  1
  Cu  Cu53  1  0.28466500  0.53466500  0.75000000  1
  Cu  Cu54  1  0.25000000  0.21533500  0.96533500  1
  Cu  Cu55  1  0.75000000  0.28466500  0.53466500  1
  Cu  Cu56  1  0.96533500  0.25000000  0.21533500  1
  Cu  Cu57  1  0.53466500  0.75000000  0.28466500  1
  Cu  Cu58  1  0.78466500  0.03466500  0.75000000  1
  Cu  Cu59  1  0.71533500  0.46533500  0.25000000  1
  Cu  Cu60  1  0.75000000  0.78466500  0.03466500  1
  Cu  Cu61  1  0.25000000  0.71533500  0.46533500  1
  Cu  Cu62  1  0.03466500  0.75000000  0.78466500  1
  Cu  Cu63  1  0.46533500  0.25000000  0.71533500  1
  C  C64  1  0.91935700  0.59838600  0.94463400  1
  C  C65  1  0.34624900  0.90161400  0.82097100  1
  C  C66  1  0.15375100  0.97472200  0.55536600  1
  C  C67  1  0.58064300  0.52527800  0.67902900  1
  C  C68  1  0.94463400  0.91935700  0.59838600  1
  C  C69  1  0.82097100  0.34624900  0.90161400  1
  C  C70  1  0.55536600  0.15375100  0.97472200  1
  C  C71  1  0.67902900  0.58064300  0.52527800  1
  C  C72  1  0.59838600  0.94463400  0.91935700  1
  C  C73  1  0.90161400  0.82097100  0.34624900  1
  C  C74  1  0.97472200  0.55536600  0.15375100  1
  C  C75  1  0.52527800  0.67902900  0.58064300  1
  C  C76  1  0.08064300  0.40161400  0.05536600  1
  C  C77  1  0.65375100  0.09838600  0.17902900  1
  C  C78  1  0.84624900  0.02527800  0.44463400  1
  C  C79  1  0.41935700  0.47472200  0.32097100  1
  C  C80  1  0.05536600  0.08064300  0.40161400  1
  C  C81  1  0.17902900  0.65375100  0.09838600  1
  C  C82  1  0.44463400  0.84624900  0.02527800  1
  C  C83  1  0.32097100  0.41935700  0.47472200  1
  C  C84  1  0.40161400  0.05536600  0.08064300  1
  C  C85  1  0.09838600  0.17902900  0.65375100  1
  C  C86  1  0.02527800  0.44463400  0.84624900  1
  C  C87  1  0.47472200  0.32097100  0.41935700  1
  C  C88  1  0.27977300  0.93321200  0.19022100  1
  C  C89  1  0.25700900  0.56678800  0.84656000  1
  C  C90  1  0.24299100  0.08955200  0.30977900  1
  C  C91  1  0.22022700  0.41044800  0.65344000  1
  C  C92  1  0.19022100  0.27977300  0.93321200  1
  C  C93  1  0.84656000  0.25700900  0.56678800  1
  C  C94  1  0.30977900  0.24299100  0.08955200  1
  C  C95  1  0.65344000  0.22022700  0.41044800  1
  C  C96  1  0.93321200  0.19022100  0.27977300  1
  C  C97  1  0.56678800  0.84656000  0.25700900  1
  C  C98  1  0.08955200  0.30977900  0.24299100  1
  C  C99  1  0.41044800  0.65344000  0.22022700  1
  C  C100  1  0.72022700  0.06678800  0.80977900  1
  C  C101  1  0.74299100  0.43321200  0.15344000  1
  C  C102  1  0.75700900  0.91044800  0.69022100  1
  C  C103  1  0.77977300  0.58955200  0.34656000  1
  C  C104  1  0.80977900  0.72022700  0.06678800  1
  C  C105  1  0.15344000  0.74299100  0.43321200  1
  C  C106  1  0.69022100  0.75700900  0.91044800  1
  C  C107  1  0.34656000  0.77977300  0.58955200  1
  C  C108  1  0.06678800  0.80977900  0.72022700  1
  C  C109  1  0.43321200  0.15344000  0.74299100  1
  C  C110  1  0.91044800  0.69022100  0.75700900  1
  C  C111  1  0.58955200  0.34656000  0.77977300  1
  C  C112  1  0.12598600  0.87598600  0.25000000  1
  C  C113  1  0.37401400  0.62401400  0.75000000  1
  C  C114  1  0.25000000  0.12598600  0.87598600  1
  C  C115  1  0.75000000  0.37401400  0.62401400  1
  C  C116  1  0.87598600  0.25000000  0.12598600  1
  C  C117  1  0.62401400  0.75000000  0.37401400  1
  C  C118  1  0.87401400  0.12401400  0.75000000  1
  C  C119  1  0.62598600  0.37598600  0.25000000  1
  C  C120  1  0.75000000  0.87401400  0.12401400  1
  C  C121  1  0.25000000  0.62598600  0.37598600  1
  C  C122  1  0.12401400  0.75000000  0.87401400  1
  C  C123  1  0.37598600  0.25000000  0.62598600  1
