# generated using pymatgen
data_Cu2NiC6
_symmetry_space_group_name_H-M   'P 1'
_cell_length_a   10.23660900
_cell_length_b   8.45942200
_cell_length_c   8.92807008
_cell_angle_alpha   82.32824072
_cell_angle_beta   90.00000000
_cell_angle_gamma   90.00000000
_symmetry_Int_Tables_number   1
_chemical_formula_structural   Cu2NiC6
_chemical_formula_sum   'Cu8 Ni4 C24'
_cell_volume   766.21310647
_cell_formula_units_Z   4
loop_
 _symmetry_equiv_pos_site_id
 _symmetry_equiv_pos_as_xyz
  1  'x, y, z'
loop_
 _atom_site_type_symbol
 _atom_site_label
 _atom_site_symmetry_multiplicity
 _atom_site_fract_x
 _atom_site_fract_y
 _atom_site_fract_z
 _atom_site_occupancy
  C  C0  1  0.94721700  0.34786300  0.75434000  1
  C  C1  1  0.44721700  0.15213700  0.24566000  1
  C  C2  1  0.05278300  0.65213700  0.24566000  1
  C  C3  1  0.55278300  0.84786300  0.75434000  1
  C  C4  1  0.92965600  0.41409200  0.05746400  1
  C  C5  1  0.42965600  0.08590800  0.94253600  1
  C  C6  1  0.07034400  0.58590800  0.94253600  1
  C  C7  1  0.57034400  0.91409200  0.05746400  1
  C  C8  1  0.10571400  0.32803200  0.95008500  1
  C  C9  1  0.60571400  0.17196800  0.04991500  1
  C  C10  1  0.89428600  0.67196800  0.04991500  1
  C  C11  1  0.39428600  0.82803200  0.95008500  1
  C  C12  1  0.00271200  0.44118200  0.55743800  1
  C  C13  1  0.50271200  0.05881800  0.44256200  1
  C  C14  1  0.99728800  0.55881800  0.44256200  1
  C  C15  1  0.49728800  0.94118200  0.55743800  1
  C  C16  1  0.05393100  0.28429500  0.58924500  1
  C  C17  1  0.55393100  0.21570500  0.41075500  1
  C  C18  1  0.94606900  0.71570500  0.41075500  1
  C  C19  1  0.44606900  0.78429500  0.58924500  1
  C  C20  1  0.03643800  0.16786900  0.69634200  1
  C  C21  1  0.53643800  0.33213100  0.30365800  1
  C  C22  1  0.96356200  0.83213100  0.30365800  1
  C  C23  1  0.46356200  0.66786900  0.69634200  1
  Ni  Ni24  1  0.03103300  0.40792000  0.92060000  1
  Ni  Ni25  1  0.53103300  0.09208000  0.07940000  1
  Ni  Ni26  1  0.96896700  0.59208000  0.07940000  1
  Ni  Ni27  1  0.46896700  0.90792000  0.92060000  1
  Cu  Cu28  1  0.95458700  0.26212100  0.21527000  1
  Cu  Cu29  1  0.45458700  0.23787900  0.78473000  1
  Cu  Cu30  1  0.04541300  0.73787900  0.78473000  1
  Cu  Cu31  1  0.54541300  0.76212100  0.21527000  1
  Cu  Cu32  1  0.76055200  0.41451800  0.97575200  1
  Cu  Cu33  1  0.26055200  0.08548200  0.02424800  1
  Cu  Cu34  1  0.23944800  0.58548200  0.02424800  1
  Cu  Cu35  1  0.73944800  0.91451800  0.97575200  1
