# generated using pymatgen
data_Cu3NiC2
_symmetry_space_group_name_H-M   'P 1'
_cell_length_a   6.43663874
_cell_length_b   6.43663874
_cell_length_c   17.62289384
_cell_angle_alpha   79.66283102
_cell_angle_beta   79.66283102
_cell_angle_gamma   90.74581870
_symmetry_Int_Tables_number   1
_chemical_formula_structural   Cu3NiC2
_chemical_formula_sum   'Cu12 Ni4 C8'
_cell_volume   705.84139304
_cell_formula_units_Z   4
loop_
 _symmetry_equiv_pos_site_id
 _symmetry_equiv_pos_as_xyz
  1  'x, y, z'
loop_
 _atom_site_type_symbol
 _atom_site_label
 _atom_site_symmetry_multiplicity
 _atom_site_fract_x
 _atom_site_fract_y
 _atom_site_fract_z
 _atom_site_occupancy
  C  C0  1  0.76545700  0.59128800  0.91555900  1
  C  C1  1  0.23454300  0.40871200  0.08444100  1
  C  C2  1  0.40871200  0.23454300  0.58444100  1
  C  C3  1  0.59128800  0.76545700  0.41555900  1
  C  C4  1  0.63663200  0.36336800  0.25000000  1
  C  C5  1  0.36336800  0.63663200  0.75000000  1
  C  C6  1  0.16277100  0.83722900  0.25000000  1
  C  C7  1  0.83722900  0.16277100  0.75000000  1
  Ni  Ni8  1  0.94330100  0.71003400  0.59899300  1
  Ni  Ni9  1  0.28996600  0.05669900  0.90100700  1
  Ni  Ni10  1  0.05669900  0.28996600  0.40100700  1
  Ni  Ni11  1  0.71003400  0.94330100  0.09899300  1
  Cu  Cu12  1  0.89191100  0.32298500  0.60818300  1
  Cu  Cu13  1  0.73342200  0.32306800  0.10708000  1
  Cu  Cu14  1  0.32306800  0.73342200  0.60708000  1
  Cu  Cu15  1  0.26657800  0.67693200  0.89292000  1
  Cu  Cu16  1  0.32298500  0.89191100  0.10818300  1
  Cu  Cu17  1  0.10808900  0.67701500  0.39181700  1
  Cu  Cu18  1  0.67701500  0.10808900  0.89181700  1
  Cu  Cu19  1  0.26685900  0.21058600  0.76693000  1
  Cu  Cu20  1  0.78941400  0.73314100  0.73307000  1
  Cu  Cu21  1  0.73314100  0.78941400  0.23307000  1
  Cu  Cu22  1  0.21058600  0.26685900  0.26693000  1
  Cu  Cu23  1  0.67693200  0.26657800  0.39292000  1
