# generated using pymatgen
data_Cu11Ni2C15
_symmetry_space_group_name_H-M   'P 1'
_cell_length_a   6.89685300
_cell_length_b   16.17558000
_cell_length_c   17.87718500
_cell_angle_alpha   90.00000000
_cell_angle_beta   90.00000000
_cell_angle_gamma   90.00000000
_symmetry_Int_Tables_number   1
_chemical_formula_structural   Cu11Ni2C15
_chemical_formula_sum   'Cu44 Ni8 C60'
_cell_volume   1994.38943932
_cell_formula_units_Z   4
loop_
 _symmetry_equiv_pos_site_id
 _symmetry_equiv_pos_as_xyz
  1  'x, y, z'
loop_
 _atom_site_type_symbol
 _atom_site_label
 _atom_site_symmetry_multiplicity
 _atom_site_fract_x
 _atom_site_fract_y
 _atom_site_fract_z
 _atom_site_occupancy
  C  C0  1  0.66810200  0.66641800  0.69247600  1
  C  C1  1  0.33189800  0.16641800  0.80752400  1
  C  C2  1  0.83189800  0.66641800  0.19247600  1
  C  C3  1  0.33189800  0.33358200  0.30752400  1
  C  C4  1  0.16810200  0.33358200  0.80752400  1
  C  C5  1  0.66810200  0.83358200  0.19247600  1
  C  C6  1  0.83189800  0.83358200  0.69247600  1
  C  C7  1  0.16810200  0.16641800  0.30752400  1
  Ni  Ni8  1  0.49007600  0.29291300  0.74037900  1
  Ni  Ni9  1  0.00992400  0.29291300  0.24037900  1
  Ni  Ni10  1  0.50992400  0.79291300  0.75962100  1
  Ni  Ni11  1  0.49007600  0.20708700  0.24037900  1
  Ni  Ni12  1  0.50992400  0.70708700  0.25962100  1
  Ni  Ni13  1  0.99007600  0.79291300  0.25962100  1
  Ni  Ni14  1  0.99007600  0.70708700  0.75962100  1
  Ni  Ni15  1  0.00992400  0.20708700  0.74037900  1
  C  C16  1  0.67008200  0.83126300  0.34792600  1
  C  C17  1  0.82991800  0.83126300  0.84792600  1
  C  C18  1  0.82991800  0.66873700  0.34792600  1
  C  C19  1  0.17008200  0.16873700  0.15207400  1
  C  C20  1  0.67008200  0.66873700  0.84792600  1
  C  C21  1  0.32991800  0.33126300  0.15207400  1
  C  C22  1  0.17008200  0.33126300  0.65207400  1
  C  C23  1  0.32991800  0.16873700  0.65207400  1
  Cu  Cu24  1  0.56587700  0.35885200  0.10584200  1
  Cu  Cu25  1  0.08626600  0.07621000  0.25798400  1
  Cu  Cu26  1  0.93412300  0.14114800  0.10584200  1
  Cu  Cu27  1  0.70923600  0.57895300  0.39655500  1
  Cu  Cu28  1  0.41373400  0.42379000  0.25798400  1
  Cu  Cu29  1  0.18494200  0.38528400  0.37478500  1
  Cu  Cu30  1  0.25000000  0.25000000  0.56737800  1
  Cu  Cu31  1  0.75000000  0.75000000  0.93262200  1
  Cu  Cu32  1  0.02513500  0.66950000  0.12674900  1
  Cu  Cu33  1  0.06587700  0.85885200  0.89415800  1
  Cu  Cu34  1  0.02513500  0.83050000  0.62674900  1
  Cu  Cu35  1  0.29076400  0.42104700  0.60344500  1
  Cu  Cu36  1  0.31505800  0.38528400  0.87478500  1
  Cu  Cu37  1  0.43412300  0.64114800  0.89415800  1
  Cu  Cu38  1  0.20923600  0.42104700  0.10344500  1
  Cu  Cu39  1  0.79076400  0.57895300  0.89655500  1
  Cu  Cu40  1  0.18494200  0.11471600  0.87478500  1
  Cu  Cu41  1  0.58626600  0.92379000  0.24201600  1
  Cu  Cu42  1  0.47486500  0.66950000  0.62674900  1
  Cu  Cu43  1  0.56587700  0.14114800  0.60584200  1
  Cu  Cu44  1  0.58626600  0.57621000  0.74201600  1
  Cu  Cu45  1  0.93412300  0.35885200  0.60584200  1
  Cu  Cu46  1  0.20923600  0.07895300  0.60344500  1
  Cu  Cu47  1  0.79076400  0.92104700  0.39655500  1
  Cu  Cu48  1  0.31505800  0.11471600  0.37478500  1
  Cu  Cu49  1  0.29076400  0.07895300  0.10344500  1
  Cu  Cu50  1  0.68494200  0.61471600  0.12521500  1
  Cu  Cu51  1  0.52513500  0.16950000  0.87325100  1
  Cu  Cu52  1  0.25000000  0.25000000  0.06737800  1
  Cu  Cu53  1  0.70923600  0.92104700  0.89655500  1
  Cu  Cu54  1  0.68494200  0.88528400  0.62521500  1
  Cu  Cu55  1  0.81505800  0.61471600  0.62521500  1
  Cu  Cu56  1  0.75000000  0.75000000  0.43262200  1
  Cu  Cu57  1  0.43412300  0.85885200  0.39415800  1
  Cu  Cu58  1  0.97486500  0.16950000  0.37325100  1
  Cu  Cu59  1  0.91373400  0.57621000  0.24201600  1
  Cu  Cu60  1  0.91373400  0.92379000  0.74201600  1
  Cu  Cu61  1  0.52513500  0.33050000  0.37325100  1
  Cu  Cu62  1  0.97486500  0.33050000  0.87325100  1
  Cu  Cu63  1  0.06587700  0.64114800  0.39415800  1
  Cu  Cu64  1  0.81505800  0.88528400  0.12521500  1
  Cu  Cu65  1  0.41373400  0.07621000  0.75798400  1
  Cu  Cu66  1  0.47486500  0.83050000  0.12674900  1
  Cu  Cu67  1  0.08626600  0.42379000  0.75798400  1
  C  C68  1  0.63493000  0.52398600  0.42713400  1
  C  C69  1  0.86507000  0.52398600  0.92713400  1
  C  C70  1  0.02539300  0.49099200  0.74941300  1
  C  C71  1  0.52539300  0.99099200  0.25058700  1
  C  C72  1  0.25000000  0.25000000  0.00104200  1
  C  C73  1  0.47460700  0.49099200  0.24941300  1
  C  C74  1  0.52539300  0.50900800  0.75058700  1
  C  C75  1  0.02539300  0.00900800  0.24941300  1
  C  C76  1  0.21173900  0.87578300  0.92315200  1
  C  C77  1  0.40540400  0.41991100  0.91957300  1
  C  C78  1  0.13493000  0.02398600  0.57286600  1
  C  C79  1  0.65069100  0.16929800  0.91628000  1
  C  C80  1  0.59459600  0.58008900  0.08042700  1
  C  C81  1  0.28826100  0.87578300  0.42315200  1
  C  C82  1  0.63493000  0.97601400  0.92713400  1
  C  C83  1  0.78826100  0.37578300  0.57684800  1
  C  C84  1  0.75000000  0.75000000  0.99895800  1
  C  C85  1  0.84930900  0.33070200  0.91628000  1
  C  C86  1  0.71173900  0.37578300  0.07684800  1
  C  C87  1  0.21173900  0.62421700  0.42315200  1
  C  C88  1  0.40540400  0.08008900  0.41957300  1
  C  C89  1  0.34930900  0.66929800  0.58372000  1
  C  C90  1  0.97460700  0.99099200  0.75058700  1
  C  C91  1  0.15069100  0.66929800  0.08372000  1
  C  C92  1  0.47460700  0.00900800  0.74941300  1
  C  C93  1  0.90540400  0.91991100  0.08042700  1
  C  C94  1  0.78826100  0.12421700  0.07684800  1
  C  C95  1  0.90540400  0.58008900  0.58042700  1
  C  C96  1  0.97460700  0.50900800  0.25058700  1
  C  C97  1  0.15069100  0.83070200  0.58372000  1
  C  C98  1  0.25000000  0.25000000  0.50104200  1
  C  C99  1  0.36507000  0.02398600  0.07286600  1
  C  C100  1  0.65069100  0.33070200  0.41628000  1
  C  C101  1  0.09459600  0.41991100  0.41957300  1
  C  C102  1  0.84930900  0.16929800  0.41628000  1
  C  C103  1  0.13493000  0.47601400  0.07286600  1
  C  C104  1  0.09459600  0.08008900  0.91957300  1
  C  C105  1  0.71173900  0.12421700  0.57684800  1
  C  C106  1  0.34930900  0.83070200  0.08372000  1
  C  C107  1  0.59459600  0.91991100  0.58042700  1
  C  C108  1  0.86507000  0.97601400  0.42713400  1
  C  C109  1  0.75000000  0.75000000  0.49895900  1
  C  C110  1  0.28826100  0.62421700  0.92315200  1
  C  C111  1  0.36507000  0.47601400  0.57286600  1
