# generated using pymatgen
data_Cu3NiC2
_symmetry_space_group_name_H-M   'P 1'
_cell_length_a   6.86880600
_cell_length_b   6.88225240
_cell_length_c   6.90554027
_cell_angle_alpha   80.45659872
_cell_angle_beta   70.59530323
_cell_angle_gamma   60.06460946
_symmetry_Int_Tables_number   1
_chemical_formula_structural   Cu3NiC2
_chemical_formula_sum   'Cu6 Ni2 C4'
_cell_volume   266.82357878
_cell_formula_units_Z   2
loop_
 _symmetry_equiv_pos_site_id
 _symmetry_equiv_pos_as_xyz
  1  'x, y, z'
loop_
 _atom_site_type_symbol
 _atom_site_label
 _atom_site_symmetry_multiplicity
 _atom_site_fract_x
 _atom_site_fract_y
 _atom_site_fract_z
 _atom_site_occupancy
  C  C0  1  0.82261700  0.16855100  0.00384700  1
  C  C1  1  0.16564500  0.50109100  0.00216400  1
  C  C2  1  0.99116800  0.83144900  0.50384700  1
  C  C3  1  0.66673600  0.49890900  0.50216400  1
  Ni  Ni4  1  0.50892700  0.82644900  0.99341800  1
  Ni  Ni5  1  0.33537600  0.17355100  0.49341800  1
  Cu  Cu6  1  0.87923000  0.83218600  0.87753800  1
  Cu  Cu7  1  0.53778900  0.49900500  0.87558100  1
  Cu  Cu8  1  0.36699900  0.82731200  0.38318900  1
  Cu  Cu9  1  0.19431100  0.17268800  0.88318900  1
  Cu  Cu10  1  0.03679400  0.50099500  0.37558100  1
  Cu  Cu11  1  0.71141600  0.16781400  0.37753800  1
