# generated using pymatgen
data_Cu2NiC4
_symmetry_space_group_name_H-M   'P 1'
_cell_length_a   7.36285800
_cell_length_b   9.16550200
_cell_length_c   10.55640000
_cell_angle_alpha   90.00000000
_cell_angle_beta   90.00000000
_cell_angle_gamma   90.00000000
_symmetry_Int_Tables_number   1
_chemical_formula_structural   Cu2NiC4
_chemical_formula_sum   'Cu16 Ni8 C32'
_cell_volume   712.39115605
_cell_formula_units_Z   8
loop_
 _symmetry_equiv_pos_site_id
 _symmetry_equiv_pos_as_xyz
  1  'x, y, z'
loop_
 _atom_site_type_symbol
 _atom_site_label
 _atom_site_symmetry_multiplicity
 _atom_site_fract_x
 _atom_site_fract_y
 _atom_site_fract_z
 _atom_site_occupancy
  Ni  Ni0  1  0.91461200  0.19192600  0.08193900  1
  Ni  Ni1  1  0.08538800  0.80807400  0.91806100  1
  Ni  Ni2  1  0.58538800  0.69192600  0.91806100  1
  Ni  Ni3  1  0.41461200  0.80807400  0.41806100  1
  Ni  Ni4  1  0.91461200  0.69192600  0.41806100  1
  Ni  Ni5  1  0.41461200  0.30807400  0.08193900  1
  Ni  Ni6  1  0.08538800  0.30807400  0.58193900  1
  Ni  Ni7  1  0.58538800  0.19192600  0.58193900  1
  Cu  Cu8  1  0.28881800  0.61991200  0.68391900  1
  Cu  Cu9  1  0.09613200  0.38199700  0.28018200  1
  Cu  Cu10  1  0.59613200  0.61800300  0.21981800  1
  Cu  Cu11  1  0.71118200  0.38008800  0.31608100  1
  Cu  Cu12  1  0.40386800  0.38199700  0.78018200  1
  Cu  Cu13  1  0.78881800  0.38008800  0.81608100  1
  Cu  Cu14  1  0.21118200  0.11991200  0.31608100  1
  Cu  Cu15  1  0.90386800  0.11800300  0.78018200  1
  Cu  Cu16  1  0.90386800  0.61800300  0.71981800  1
  Cu  Cu17  1  0.09613200  0.88199700  0.21981800  1
  Cu  Cu18  1  0.40386800  0.88199700  0.71981800  1
  Cu  Cu19  1  0.28881800  0.11991200  0.81608100  1
  Cu  Cu20  1  0.78881800  0.88008800  0.68391900  1
  Cu  Cu21  1  0.59613200  0.11800300  0.28018200  1
  Cu  Cu22  1  0.21118200  0.61991200  0.18391900  1
  Cu  Cu23  1  0.71118200  0.88008800  0.18391900  1
  C  C24  1  0.60613400  0.54768300  0.58224000  1
  C  C25  1  0.10613400  0.95231700  0.58224000  1
  C  C26  1  0.89386600  0.04768300  0.41776000  1
  C  C27  1  0.39386600  0.45231700  0.41776000  1
  C  C28  1  0.10613400  0.45231700  0.91776000  1
  C  C29  1  0.60613400  0.04768300  0.91776000  1
  C  C30  1  0.89386600  0.54768300  0.08224000  1
  C  C31  1  0.39386600  0.95231700  0.08224000  1
  C  C32  1  0.60194700  0.06791400  0.09609200  1
  C  C33  1  0.92255300  0.21660900  0.34441600  1
  C  C34  1  0.79416900  0.45090400  0.62503100  1
  C  C35  1  0.10194700  0.93208600  0.40390800  1
  C  C36  1  0.57744700  0.21660900  0.84441600  1
  C  C37  1  0.39805300  0.43208600  0.59609200  1
  C  C38  1  0.70583100  0.45090400  0.12503100  1
  C  C39  1  0.92255300  0.71660900  0.15558400  1
  C  C40  1  0.29416900  0.54909600  0.87496900  1
  C  C41  1  0.20583100  0.54909600  0.37496900  1
  C  C42  1  0.07744700  0.78339100  0.65558400  1
  C  C43  1  0.42255300  0.28339100  0.34441600  1
  C  C44  1  0.10194700  0.43208600  0.09609200  1
  C  C45  1  0.57744700  0.71660900  0.65558400  1
  C  C46  1  0.42255300  0.78339100  0.15558400  1
  C  C47  1  0.20583100  0.04909600  0.12503100  1
  C  C48  1  0.07744700  0.28339100  0.84441600  1
  C  C49  1  0.60194700  0.56791400  0.40390800  1
  C  C50  1  0.79416900  0.95090400  0.87496900  1
  C  C51  1  0.29416900  0.04909600  0.62503100  1
  C  C52  1  0.39805300  0.93208600  0.90390800  1
  C  C53  1  0.89805300  0.56791400  0.90390800  1
  C  C54  1  0.89805300  0.06791400  0.59609200  1
  C  C55  1  0.70583100  0.95090400  0.37496900  1
