# generated using pymatgen
data_Cu2Ni10C23
_symmetry_space_group_name_H-M   'P 1'
_cell_length_a   6.68982722
_cell_length_b   6.68982722
_cell_length_c   9.47919743
_cell_angle_alpha   87.06748970
_cell_angle_beta   87.06748970
_cell_angle_gamma   60.54650779
_symmetry_Int_Tables_number   1
_chemical_formula_structural   Cu2Ni10C23
_chemical_formula_sum   'Cu2 Ni10 C23'
_cell_volume   368.75173396
_cell_formula_units_Z   1
loop_
 _symmetry_equiv_pos_site_id
 _symmetry_equiv_pos_as_xyz
  1  'x, y, z'
loop_
 _atom_site_type_symbol
 _atom_site_label
 _atom_site_symmetry_multiplicity
 _atom_site_fract_x
 _atom_site_fract_y
 _atom_site_fract_z
 _atom_site_occupancy
  C  C0  1  0.66884600  0.66848700  0.10730900  1
  C  C1  1  0.33151300  0.33115400  0.89269100  1
  C  C2  1  0.69272900  0.30727100  0.50000000  1
  C  C3  1  0.21142800  0.78857200  0.50000000  1
  Ni  Ni4  1  0.69283600  0.80250500  0.53211600  1
  Ni  Ni5  1  0.19749500  0.30716400  0.46788400  1
  Ni  Ni6  1  0.64660500  0.68080700  0.77770600  1
  Ni  Ni7  1  0.31919300  0.35339500  0.22229400  1
  Ni  Ni8  1  0.82220600  0.94284800  0.73192000  1
  Ni  Ni9  1  0.05715200  0.17779400  0.26808000  1
  Ni  Ni10  1  0.20432300  0.86080300  0.82755900  1
  Ni  Ni11  1  0.13919700  0.79567700  0.17244100  1
  Ni  Ni12  1  0.85822200  0.24658100  0.86424100  1
  Ni  Ni13  1  0.75341900  0.14177800  0.13575900  1
  Cu  Cu14  1  0.05743000  0.35916800  0.66402400  1
  Cu  Cu15  1  0.64083200  0.94257000  0.33597600  1
  C  C16  1  0.07404800  0.78658900  0.76189500  1
  C  C17  1  0.21341100  0.92595200  0.23810500  1
  C  C18  1  0.92220800  0.88791700  0.12383000  1
  C  C19  1  0.11208300  0.07779200  0.87617000  1
  C  C20  1  0.80180300  0.91632600  0.57473600  1
  C  C21  1  0.08367400  0.19819700  0.42526400  1
  C  C22  1  0.66865300  0.88015500  0.81413700  1
  C  C23  1  0.11984500  0.33134700  0.18586300  1
  C  C24  1  0.61849100  0.68066800  0.61941700  1
  C  C25  1  0.31933200  0.38150900  0.38058300  1
  C  C26  1  0.19164400  0.35151800  0.61070100  1
  C  C27  1  0.64848200  0.80835600  0.38929900  1
  C  C28  1  0.75978400  0.18146500  0.74996800  1
  C  C29  1  0.81853500  0.24021600  0.25003200  1
  C  C30  1  0.84874200  0.46893700  0.82635500  1
  C  C31  1  0.53106300  0.15125800  0.17364500  1
  C  C32  1  0.43358100  0.69870100  0.84886500  1
  C  C33  1  0.30129900  0.56641900  0.15113500  1
  C  C34  1  0.73459700  0.26540300  0.00000000  1
