# generated using pymatgen
data_Cu4(NiC6)3
_symmetry_space_group_name_H-M   'P 1'
_cell_length_a   10.12582200
_cell_length_b   15.60442000
_cell_length_c   17.46712265
_cell_angle_alpha   72.72129075
_cell_angle_beta   90.00000000
_cell_angle_gamma   90.00000000
_symmetry_Int_Tables_number   1
_chemical_formula_structural   Cu4(NiC6)3
_chemical_formula_sum   'Cu32 Ni24 C144'
_cell_volume   2635.38518858
_cell_formula_units_Z   8
loop_
 _symmetry_equiv_pos_site_id
 _symmetry_equiv_pos_as_xyz
  1  'x, y, z'
loop_
 _atom_site_type_symbol
 _atom_site_label
 _atom_site_symmetry_multiplicity
 _atom_site_fract_x
 _atom_site_fract_y
 _atom_site_fract_z
 _atom_site_occupancy
  C  C0  1  0.53305500  0.73485600  0.66729300  1
  C  C1  1  0.14587000  0.21647800  0.83092900  1
  C  C2  1  0.03305500  0.76514400  0.33270700  1
  C  C3  1  0.64587000  0.28352200  0.16907100  1
  C  C4  1  0.35413000  0.71647800  0.83092900  1
  C  C5  1  0.46694500  0.26514400  0.33270700  1
  C  C6  1  0.85413000  0.78352200  0.16907100  1
  C  C7  1  0.96694500  0.23485600  0.66729300  1
  C  C8  1  0.81487700  0.33574900  0.35295600  1
  C  C9  1  0.34183900  0.39135900  0.51106900  1
  C  C10  1  0.62175500  0.07377600  0.84364800  1
  C  C11  1  0.37824500  0.92622400  0.15635200  1
  C  C12  1  0.45970600  0.96922400  0.58550800  1
  C  C13  1  0.00563100  0.11318600  0.41672300  1
  C  C14  1  0.92465400  0.80360400  0.66467200  1
  C  C15  1  0.66235900  0.99590000  0.79059600  1
  C  C16  1  0.18223600  0.70651200  0.17023200  1
  C  C17  1  0.04029400  0.46922400  0.58550800  1
  C  C18  1  0.09617900  0.65946600  0.73675500  1
  C  C19  1  0.83764100  0.49590000  0.79059600  1
  C  C20  1  0.21699800  0.87787500  0.97899900  1
  C  C21  1  0.79572100  0.53483100  0.51438700  1
  C  C22  1  0.64898800  0.76950900  0.93532000  1
  C  C23  1  0.98996500  0.98565400  0.20636300  1
  C  C24  1  0.48185300  0.39329300  0.68275900  1
  C  C25  1  0.84183900  0.10864100  0.48893100  1
  C  C26  1  0.57534600  0.30360400  0.66467200  1
  C  C27  1  0.81776400  0.29348800  0.82976800  1
  C  C28  1  0.29269600  0.47037100  0.01925500  1
  C  C29  1  0.59745300  0.42237000  0.83590200  1
  C  C30  1  0.85101200  0.26950900  0.93532000  1
  C  C31  1  0.90382100  0.34053400  0.26324500  1
  C  C32  1  0.31436600  0.73218900  0.09828600  1
  C  C33  1  0.64250800  0.09316100  0.97257900  1
  C  C34  1  0.48906000  0.18615400  0.64340500  1
  C  C35  1  0.31776400  0.20651200  0.17023200  1
  C  C36  1  0.67336300  0.96250600  0.39947900  1
  C  C37  1  0.59617900  0.84053400  0.26324500  1
  C  C38  1  0.71699800  0.62212500  0.02100100  1
  C  C39  1  0.01003500  0.01434600  0.79363700  1
  C  C40  1  0.34877700  0.50089300  0.52563800  1
  C  C41  1  0.35101200  0.23049100  0.06468000  1
  C  C42  1  0.16235900  0.50410000  0.20940400  1
  C  C43  1  0.84877700  0.99910700  0.47436200  1
  C  C44  1  0.42465400  0.69639600  0.33532800  1
  C  C45  1  0.68512300  0.83574900  0.35295600  1
  C  C46  1  0.15816100  0.89135900  0.51106900  1
  C  C47  1  0.60233600  0.04478500  0.31512400  1
  C  C48  1  0.68223600  0.79348800  0.82976800  1
  C  C49  1  0.18512300  0.66425100  0.64704400  1
  C  C50  1  0.63258000  0.49680300  0.73839400  1
  C  C51  1  0.65122300  0.49910700  0.47436200  1
  C  C52  1  0.79269600  0.02962900  0.98074500  1
  C  C53  1  0.49436900  0.61318600  0.41672300  1
  C  C54  1  0.65816100  0.60864100  0.48893100  1
  C  C55  1  0.17336300  0.53749400  0.60052100  1
  C  C56  1  0.40254700  0.57763000  0.16409800  1
  C  C57  1  0.14250800  0.40683900  0.02742100  1
  C  C58  1  0.31487700  0.16425100  0.64704400  1
  C  C59  1  0.89766400  0.54478500  0.31512400  1
  C  C60  1  0.17154000  0.53836900  0.10276700  1
  C  C61  1  0.48996500  0.51434600  0.79363700  1
  C  C62  1  0.70427900  0.03483100  0.51438700  1
  C  C63  1  0.54029400  0.03077600  0.41449200  1
  C  C64  1  0.32663700  0.03749400  0.60052100  1
  C  C65  1  0.01094000  0.68615400  0.64340500  1
  C  C66  1  0.10233600  0.45521500  0.68487600  1
  C  C67  1  0.86742000  0.99680300  0.73839400  1
  C  C68  1  0.68563400  0.26781100  0.90171400  1
  C  C69  1  0.33764100  0.00410000  0.20940400  1
  C  C70  1  0.29572100  0.96516900  0.48561300  1
  C  C71  1  0.39766400  0.95521500  0.68487600  1
  C  C72  1  0.78300200  0.12212500  0.02100100  1
  C  C73  1  0.35749200  0.90683900  0.02742100  1
  C  C74  1  0.20427900  0.46516900  0.48561300  1
  C  C75  1  0.82846000  0.46163100  0.89723300  1
  C  C76  1  0.18563400  0.23218900  0.09828600  1
  C  C77  1  0.14898800  0.73049100  0.06468000  1
  C  C78  1  0.99436900  0.88681400  0.58327700  1
  C  C79  1  0.32846000  0.03836900  0.10276700  1
  C  C80  1  0.50563100  0.38681400  0.58327700  1
  C  C81  1  0.98906000  0.31384600  0.35659500  1
  C  C82  1  0.98185300  0.10670700  0.31724100  1
  C  C83  1  0.40382100  0.15946600  0.73675500  1
  C  C84  1  0.07534600  0.19639600  0.33532800  1
  C  C85  1  0.20730400  0.97037100  0.01925500  1
  C  C86  1  0.51094000  0.81384600  0.35659500  1
  C  C87  1  0.36742000  0.50319700  0.26160600  1
  C  C88  1  0.67154000  0.96163100  0.89723300  1
  C  C89  1  0.95970600  0.53077600  0.41449200  1
  C  C90  1  0.51814700  0.60670700  0.31724100  1
  C  C91  1  0.90254700  0.92237000  0.83590200  1
  C  C92  1  0.87824500  0.57377600  0.84364800  1
  C  C93  1  0.09745300  0.07763000  0.16409800  1
  C  C94  1  0.15122300  0.00089300  0.52563800  1
  C  C95  1  0.28300200  0.37787500  0.97899900  1
  C  C96  1  0.01814700  0.89329300  0.68275900  1
  C  C97  1  0.85749200  0.59316100  0.97257900  1
  C  C98  1  0.82663700  0.46250600  0.39947900  1
  C  C99  1  0.81436600  0.76781100  0.90171400  1
  C  C100  1  0.51003500  0.48565400  0.20636300  1
  C  C101  1  0.13258000  0.00319700  0.26160600  1
  C  C102  1  0.12175500  0.42622400  0.15635200  1
  C  C103  1  0.70730400  0.52962900  0.98074500  1
  C  C104  1  0.18738700  0.48185600  0.15713100  1
  C  C105  1  0.24880000  0.90330500  0.02840400  1
  C  C106  1  0.74894100  0.17630700  0.34316300  1
  C  C107  1  0.78880000  0.25312100  0.88990600  1
  C  C108  1  0.31261300  0.98185600  0.15713100  1
  C  C109  1  0.28588100  0.44247900  0.52852900  1
  C  C110  1  0.86320000  0.12801000  0.84092300  1
  C  C111  1  0.25120000  0.40330500  0.02840400  1
  C  C112  1  0.21411900  0.94247900  0.52852900  1
  C  C113  1  0.21120000  0.74687900  0.11009400  1
  C  C114  1  0.87118200  0.52976800  0.37824500  1
  C  C115  1  0.39554500  0.19393400  0.67233000  1
  C  C116  1  0.24894100  0.32369300  0.65683700  1
  C  C117  1  0.51058300  0.65270400  0.35398200  1
  C  C118  1  0.37118200  0.97023200  0.62175500  1
  C  C119  1  0.89554500  0.30606600  0.32767000  1
  C  C120  1  0.98941700  0.15270400  0.35398200  1
  C  C121  1  0.62881800  0.02976800  0.37824500  1
  C  C122  1  0.75105900  0.67630700  0.34316300  1
  C  C123  1  0.12881800  0.47023200  0.62175500  1
  C  C124  1  0.68738700  0.01814400  0.84286900  1
  C  C125  1  0.75120000  0.09669500  0.97159600  1
  C  C126  1  0.90716300  0.99257900  0.79818100  1
  C  C127  1  0.01058300  0.84729600  0.64601800  1
  C  C128  1  0.81261300  0.51814400  0.84286900  1
  C  C129  1  0.25105900  0.82369300  0.65683700  1
  C  C130  1  0.74880000  0.59669500  0.97159600  1
  C  C131  1  0.59283700  0.49257900  0.79818100  1
  C  C132  1  0.60445500  0.80606600  0.32767000  1
  C  C133  1  0.48941700  0.34729600  0.64601800  1
  C  C134  1  0.09283700  0.00742100  0.20181900  1
  C  C135  1  0.13680000  0.87199000  0.15907700  1
  C  C136  1  0.28880000  0.24687900  0.11009400  1
  C  C137  1  0.71411900  0.55752100  0.47147100  1
  C  C138  1  0.71120000  0.75312100  0.88990600  1
  C  C139  1  0.40716300  0.50742100  0.20181900  1
  C  C140  1  0.63680000  0.62801000  0.84092300  1
  C  C141  1  0.10445500  0.69393400  0.67233000  1
  C  C142  1  0.78588100  0.05752100  0.47147100  1
  C  C143  1  0.36320000  0.37199000  0.15907700  1
  Ni  Ni144  1  0.27244000  0.90832200  0.60818700  1
  Ni  Ni145  1  0.62773300  0.70990500  0.34319000  1
  Ni  Ni146  1  0.17466100  0.95272000  0.16578700  1
  Ni  Ni147  1  0.15148000  0.27427800  0.70370200  1
  Ni  Ni148  1  0.53941100  0.67781400  0.79390600  1
  Ni  Ni149  1  0.19997800  0.84189100  0.10338200  1
  Ni  Ni150  1  0.67466100  0.54728000  0.83421300  1
  Ni  Ni151  1  0.30002200  0.34189100  0.10338200  1
  Ni  Ni152  1  0.77244000  0.59167800  0.39181300  1
  Ni  Ni153  1  0.34852000  0.77427800  0.70370200  1
  Ni  Ni154  1  0.37226700  0.29009500  0.65681000  1
  Ni  Ni155  1  0.12773300  0.79009500  0.65681000  1
  Ni  Ni156  1  0.84852000  0.72572200  0.29629800  1
  Ni  Ni157  1  0.65148000  0.22572200  0.29629800  1
  Ni  Ni158  1  0.87226700  0.20990500  0.34319000  1
  Ni  Ni159  1  0.80002200  0.15810900  0.89661800  1
  Ni  Ni160  1  0.82533900  0.04728000  0.83421300  1
  Ni  Ni161  1  0.69997800  0.65810900  0.89661800  1
  Ni  Ni162  1  0.32533900  0.45272000  0.16578700  1
  Ni  Ni163  1  0.46058900  0.32218600  0.20609400  1
  Ni  Ni164  1  0.03941100  0.82218600  0.20609400  1
  Ni  Ni165  1  0.96058900  0.17781400  0.79390600  1
  Ni  Ni166  1  0.22756000  0.40832200  0.60818700  1
  Ni  Ni167  1  0.72756000  0.09167800  0.39181300  1
  Cu  Cu168  1  0.57217800  0.38944000  0.36693500  1
  Cu  Cu169  1  0.49383600  0.18343400  0.47301600  1
  Cu  Cu170  1  0.40424500  0.65257900  0.97221600  1
  Cu  Cu171  1  0.25874800  0.33083000  0.35484600  1
  Cu  Cu172  1  0.42782200  0.61056000  0.63306500  1
  Cu  Cu173  1  0.33861700  0.13715000  0.32160400  1
  Cu  Cu174  1  0.91958600  0.63917500  0.15577000  1
  Cu  Cu175  1  0.23511200  0.07048800  0.83691200  1
  Cu  Cu176  1  0.08041400  0.36082500  0.84423000  1
  Cu  Cu177  1  0.90424500  0.84742100  0.02778400  1
  Cu  Cu178  1  0.76488800  0.92951200  0.16308800  1
  Cu  Cu179  1  0.58041400  0.13917500  0.15577000  1
  Cu  Cu180  1  0.92782200  0.88944000  0.36693500  1
  Cu  Cu181  1  0.13092200  0.75996200  0.85441700  1
  Cu  Cu182  1  0.09575500  0.15257900  0.97221600  1
  Cu  Cu183  1  0.74125200  0.66917000  0.64515400  1
  Cu  Cu184  1  0.73511200  0.42951200  0.16308800  1
  Cu  Cu185  1  0.07217800  0.11056000  0.63306500  1
  Cu  Cu186  1  0.50616400  0.81656600  0.52698400  1
  Cu  Cu187  1  0.41958600  0.86082500  0.84423000  1
  Cu  Cu188  1  0.66138300  0.86285000  0.67839600  1
  Cu  Cu189  1  0.75874800  0.16917000  0.64515400  1
  Cu  Cu190  1  0.16138300  0.63715000  0.32160400  1
  Cu  Cu191  1  0.63092200  0.74003800  0.14558300  1
  Cu  Cu192  1  0.83861700  0.36285000  0.67839600  1
  Cu  Cu193  1  0.99383600  0.31656600  0.52698400  1
  Cu  Cu194  1  0.24125200  0.83083000  0.35484600  1
  Cu  Cu195  1  0.59575500  0.34742100  0.02778400  1
  Cu  Cu196  1  0.00616400  0.68343400  0.47301600  1
  Cu  Cu197  1  0.26488800  0.57048800  0.83691200  1
  Cu  Cu198  1  0.36907800  0.25996200  0.85441700  1
  Cu  Cu199  1  0.86907800  0.24003800  0.14558300  1
