# generated using pymatgen
data_Cu2Ni2C39
_symmetry_space_group_name_H-M   'P 1'
_cell_length_a   7.35089100
_cell_length_b   7.40722050
_cell_length_c   11.54771255
_cell_angle_alpha   82.23769715
_cell_angle_beta   83.67866101
_cell_angle_gamma   66.40522123
_symmetry_Int_Tables_number   1
_chemical_formula_structural   Cu2Ni2C39
_chemical_formula_sum   'Cu2 Ni2 C39'
_cell_volume   569.83523222
_cell_formula_units_Z   1
loop_
 _symmetry_equiv_pos_site_id
 _symmetry_equiv_pos_as_xyz
  1  'x, y, z'
loop_
 _atom_site_type_symbol
 _atom_site_label
 _atom_site_symmetry_multiplicity
 _atom_site_fract_x
 _atom_site_fract_y
 _atom_site_fract_z
 _atom_site_occupancy
  C  C0  1  0.50000000  0.50000000  0.50000000  1
  C  C1  1  0.16465700  0.65720100  0.37794500  1
  C  C2  1  0.83534300  0.34279900  0.62205500  1
  C  C3  1  0.58619300  0.77973300  0.20711300  1
  C  C4  1  0.41380700  0.22026700  0.79288700  1
  C  C5  1  0.89620400  0.74368600  0.22999000  1
  C  C6  1  0.10379600  0.25631400  0.77001000  1
  C  C7  1  0.17017100  0.12654300  0.34044200  1
  C  C8  1  0.82982900  0.87345700  0.65955800  1
  C  C9  1  0.71774200  0.72111100  0.47030300  1
  C  C10  1  0.28225800  0.27888900  0.52969700  1
  C  C11  1  0.80689600  0.60053600  0.71277200  1
  C  C12  1  0.19310400  0.39946400  0.28722800  1
  C  C13  1  0.44777700  0.15321200  0.74496400  1
  C  C14  1  0.55222300  0.84678800  0.25503600  1
  C  C15  1  0.86020800  0.57535200  0.65352000  1
  C  C16  1  0.13979200  0.42464800  0.34648000  1
  C  C17  1  0.76001700  0.50513400  0.91566500  1
  C  C18  1  0.23998300  0.49486600  0.08433500  1
  C  C19  1  0.63035400  0.15228700  0.01710100  1
  C  C20  1  0.36964600  0.84771300  0.98289900  1
  Ni  Ni21  1  0.64338900  0.63236200  0.95297400  1
  Ni  Ni22  1  0.35661100  0.36763800  0.04702600  1
  Cu  Cu23  1  0.91523900  0.07754800  0.74351700  1
  Cu  Cu24  1  0.08476100  0.92245200  0.25648300  1
  C  C25  1  0.52607700  0.25772400  0.06503900  1
  C  C26  1  0.47392300  0.74227600  0.93496100  1
  C  C27  1  0.77676400  0.26796800  0.19789500  1
  C  C28  1  0.22323600  0.73203200  0.80210500  1
  C  C29  1  0.74843900  0.57181700  0.49366100  1
  C  C30  1  0.25156100  0.42818300  0.50633900  1
  C  C31  1  0.05295400  0.93895200  0.53883000  1
  C  C32  1  0.94704600  0.06104800  0.46117000  1
  C  C33  1  0.69684200  0.38263000  0.26622700  1
  C  C34  1  0.30315800  0.61737000  0.73377300  1
  C  C35  1  0.85746200  0.12093200  0.86581900  1
  C  C36  1  0.14253800  0.87906800  0.13418100  1
  C  C37  1  0.78028200  0.93307600  0.73388600  1
  C  C38  1  0.21971800  0.06692400  0.26611400  1
  C  C39  1  0.76385100  0.25750500  0.65794600  1
  C  C40  1  0.23614900  0.74249500  0.34205400  1
  C  C41  1  0.10584900  0.18182300  0.70575700  1
  C  C42  1  0.89415100  0.81817700  0.29424300  1
