# generated using pymatgen
data_Cu3(NiC7)2
_symmetry_space_group_name_H-M   'P 1'
_cell_length_a   10.26593800
_cell_length_b   10.23496700
_cell_length_c   20.42782530
_cell_angle_alpha   89.95157808
_cell_angle_beta   90.00000000
_cell_angle_gamma   90.00000000
_symmetry_Int_Tables_number   1
_chemical_formula_structural   Cu3(NiC7)2
_chemical_formula_sum   'Cu24 Ni16 C112'
_cell_volume   2146.38222775
_cell_formula_units_Z   8
loop_
 _symmetry_equiv_pos_site_id
 _symmetry_equiv_pos_as_xyz
  1  'x, y, z'
loop_
 _atom_site_type_symbol
 _atom_site_label
 _atom_site_symmetry_multiplicity
 _atom_site_fract_x
 _atom_site_fract_y
 _atom_site_fract_z
 _atom_site_occupancy
  C  C0  1  0.56388000  0.19797800  0.96911200  1
  C  C1  1  0.30259300  0.03951500  0.65637500  1
  C  C2  1  0.78527600  0.93495400  0.85137700  1
  C  C3  1  0.93521000  0.31475800  0.71697100  1
  C  C4  1  0.28527600  0.06504600  0.14862300  1
  C  C5  1  0.69989700  0.53983000  0.09944300  1
  C  C6  1  0.68713100  0.54532700  0.60372500  1
  C  C7  1  0.06388000  0.80202200  0.03088800  1
  C  C8  1  0.55385100  0.17140500  0.47671200  1
  C  C9  1  0.43521000  0.68524200  0.28302900  1
  C  C10  1  0.92776700  0.32254400  0.22058800  1
  C  C11  1  0.42776700  0.67745600  0.77941200  1
  C  C12  1  0.19989700  0.46017000  0.90055700  1
  C  C13  1  0.05385100  0.82859500  0.52328800  1
  C  C14  1  0.80259300  0.96048500  0.34362500  1
  C  C15  1  0.18713100  0.45467300  0.39627500  1
  Ni  Ni16  1  0.15601900  0.09950600  0.33326600  1
  Ni  Ni17  1  0.84896100  0.58599000  0.92376600  1
  Ni  Ni18  1  0.08394200  0.68393200  0.70067500  1
  Ni  Ni19  1  0.42546400  0.84481700  0.95016800  1
  Ni  Ni20  1  0.89622000  0.19165600  0.54096300  1
  Ni  Ni21  1  0.57551400  0.32546800  0.78881300  1
  Ni  Ni22  1  0.63318100  0.89988600  0.16802900  1
  Ni  Ni23  1  0.58394200  0.31606800  0.29932500  1
  Ni  Ni24  1  0.92546400  0.15518300  0.04983200  1
  Ni  Ni25  1  0.34896100  0.41401000  0.07623400  1
  Ni  Ni26  1  0.33829400  0.38857600  0.58472600  1
  Ni  Ni27  1  0.65601900  0.90049400  0.66673400  1
  Ni  Ni28  1  0.83829400  0.61142400  0.41527400  1
  Ni  Ni29  1  0.39622000  0.80834400  0.45903700  1
  Ni  Ni30  1  0.07551400  0.67453200  0.21118700  1
  Ni  Ni31  1  0.13318100  0.10011400  0.83197100  1
  Cu  Cu32  1  0.24709100  0.38103900  0.73903500  1
  Cu  Cu33  1  0.62268100  0.21584700  0.13339700  1
  Cu  Cu34  1  0.45530700  0.01242300  0.80586500  1
  Cu  Cu35  1  0.73190900  0.86974300  0.01471700  1
  Cu  Cu36  1  0.95530700  0.98757700  0.19413500  1
  Cu  Cu37  1  0.95906200  0.99282500  0.68643300  1
  Cu  Cu38  1  0.86264500  0.27012000  0.88868200  1
  Cu  Cu39  1  0.12209200  0.78586400  0.36149400  1
  Cu  Cu40  1  0.03440900  0.48199800  0.06545900  1
  Cu  Cu41  1  0.53440900  0.51800200  0.93454100  1
  Cu  Cu42  1  0.62209200  0.21413600  0.63850600  1
  Cu  Cu43  1  0.87258900  0.28924400  0.38303300  1
  Cu  Cu44  1  0.54166600  0.50356400  0.44772400  1
  Cu  Cu45  1  0.23190900  0.13025700  0.98528300  1
  Cu  Cu46  1  0.04166600  0.49643600  0.55227600  1
  Cu  Cu47  1  0.36264500  0.72988000  0.11131800  1
  Cu  Cu48  1  0.76346100  0.61630700  0.75794400  1
  Cu  Cu49  1  0.12268100  0.78415300  0.86660300  1
  Cu  Cu50  1  0.72817700  0.88314800  0.50959400  1
  Cu  Cu51  1  0.26346100  0.38369300  0.24205600  1
  Cu  Cu52  1  0.22817700  0.11685200  0.49040600  1
  Cu  Cu53  1  0.37258900  0.71075600  0.61696700  1
  Cu  Cu54  1  0.74709100  0.61896100  0.26096500  1
  Cu  Cu55  1  0.45906200  0.00717500  0.31356700  1
  C  C56  1  0.30510800  0.01586400  0.79405700  1
  C  C57  1  0.18116900  0.51869700  0.74706500  1
  C  C58  1  0.50130300  0.14799000  0.83180800  1
  C  C59  1  0.67598900  0.49158900  0.96081400  1
  C  C60  1  0.72301500  0.27248800  0.58923600  1
  C  C61  1  0.59122600  0.07064900  0.61740800  1
  C  C62  1  0.56067300  0.40154300  0.39204700  1
  C  C63  1  0.68753800  0.80005400  0.07871200  1
  C  C64  1  0.93318400  0.40618900  0.88990700  1
  C  C65  1  0.58149700  0.88759900  0.48839700  1
  C  C66  1  0.80001400  0.77306800  0.96562800  1
  C  C67  1  0.89740100  0.59703700  0.72259400  1
  C  C68  1  0.46225800  0.62246800  0.42168600  1
  C  C69  1  0.11999500  0.76822300  0.79169200  1
  C  C70  1  0.49594200  0.90234700  0.85494400  1
  C  C71  1  0.61999500  0.23177700  0.20830800  1
  C  C72  1  0.67327000  0.22410600  0.71054000  1
  C  C73  1  0.28521400  0.97418200  0.49414300  1
  C  C74  1  0.43242700  0.44884000  0.98056600  1
  C  C75  1  0.80510800  0.98413600  0.20594300  1
  C  C76  1  0.51375100  0.66681300  0.93084900  1
  C  C77  1  0.78521400  0.02581800  0.50585700  1
  C  C78  1  0.49518900  0.79684800  0.62680900  1
  C  C79  1  0.31772300  0.72905000  0.54678600  1
  C  C80  1  0.49508200  0.29503900  0.63315400  1
  C  C81  1  0.11360400  0.06489800  0.02094500  1
  C  C82  1  0.89381400  0.60494400  0.24503400  1
  C  C83  1  0.39381400  0.39505600  0.75496600  1
  C  C84  1  0.07201900  0.92488000  0.88342800  1
  C  C85  1  0.09122600  0.92935100  0.38259200  1
  C  C86  1  0.67890900  0.72234600  0.72222300  1
  C  C87  1  0.68116900  0.48130300  0.25293500  1
  C  C88  1  0.68701900  0.48508100  0.74809000  1
  C  C89  1  0.51082800  0.45942400  0.86529600  1
  C  C90  1  0.06067300  0.59845700  0.60795300  1
  C  C91  1  0.82612000  0.95860200  0.72064600  1
  C  C92  1  0.72415800  0.67423600  0.33139300  1
  C  C93  1  0.52027900  0.13313700  0.34383700  1
  C  C94  1  0.17741300  0.28994200  0.79013800  1
  C  C95  1  0.76363200  0.24144400  0.10603700  1
  C  C96  1  0.18701900  0.51491900  0.25191000  1
  C  C97  1  0.27269200  0.75711200  0.67052200  1
  C  C98  1  0.01082800  0.54057600  0.13470400  1
  C  C99  1  0.27926900  0.34365500  0.16872800  1
  C  C100  1  0.32612000  0.04139800  0.27935400  1
  C  C101  1  0.25066500  0.17553600  0.42033600  1
  C  C102  1  0.93365000  0.09815800  0.63223900  1
  C  C103  1  0.17890900  0.27765400  0.27777700  1
  C  C104  1  0.31112500  0.19650600  0.54154300  1
  C  C105  1  0.05688700  0.05616600  0.73558100  1
  C  C106  1  0.96225800  0.37753200  0.57831400  1
  C  C107  1  0.39740100  0.40296300  0.27740600  1
  C  C108  1  0.00130300  0.85201000  0.16819200  1
  C  C109  1  0.17758300  0.44835000  0.52680000  1
  C  C110  1  0.33912400  0.02817600  0.96620700  1
  C  C111  1  0.77926900  0.65634500  0.83127200  1
  C  C112  1  0.03441500  0.67891100  0.90186800  1
  C  C113  1  0.75066500  0.82446400  0.57966400  1
  C  C114  1  0.22301500  0.72751200  0.41076400  1
  C  C115  1  0.02027900  0.86686300  0.65616300  1
  C  C116  1  0.93880600  0.16959800  0.84540800  1
  C  C117  1  0.61360400  0.93510200  0.97905500  1
  C  C118  1  0.81112500  0.80349400  0.45845700  1
  C  C119  1  0.93242700  0.55116000  0.01943400  1
  C  C120  1  0.83912400  0.97182400  0.03379300  1
  C  C121  1  0.01375100  0.33318700  0.06915100  1
  C  C122  1  0.17598900  0.50841100  0.03918600  1
  C  C123  1  0.22658500  0.71711100  0.14384200  1
  C  C124  1  0.01993400  0.02662200  0.26062400  1
  C  C125  1  0.26363200  0.75855600  0.89396300  1
  C  C126  1  0.99594200  0.09765300  0.14505600  1
  C  C127  1  0.67758300  0.55165000  0.47320000  1
  C  C128  1  0.43318400  0.59381100  0.11009300  1
  C  C129  1  0.99508200  0.70496100  0.36684600  1
  C  C130  1  0.99518900  0.20315200  0.37319100  1
  C  C131  1  0.53441500  0.32108900  0.09813200  1
  C  C132  1  0.22415800  0.32576400  0.66860700  1
  C  C133  1  0.55688700  0.94383400  0.26441900  1
  C  C134  1  0.57201900  0.07512000  0.11657200  1
  C  C135  1  0.84119500  0.21202000  0.95891400  1
  C  C136  1  0.43880600  0.83040200  0.15459200  1
  C  C137  1  0.51993400  0.97337800  0.73937600  1
  C  C138  1  0.72658500  0.28288900  0.85615800  1
  C  C139  1  0.77269200  0.24288800  0.32947800  1
  C  C140  1  0.47030800  0.43136700  0.50516000  1
  C  C141  1  0.17327000  0.77589400  0.28946000  1
  C  C142  1  0.67741300  0.71005800  0.20986200  1
  C  C143  1  0.90961200  0.43546300  0.37085800  1
  C  C144  1  0.30001400  0.22693200  0.03437200  1
  C  C145  1  0.97030800  0.56863300  0.49484000  1
  C  C146  1  0.08149700  0.11240100  0.51160300  1
  C  C147  1  0.18753800  0.19994600  0.92128800  1
  C  C148  1  0.43365000  0.90184200  0.36776100  1
  C  C149  1  0.40961200  0.56453700  0.62914200  1
  C  C150  1  0.34119500  0.78798000  0.04108600  1
  C  C151  1  0.81772300  0.27095000  0.45321400  1
