# generated using pymatgen
data_Cu9NiC39
_symmetry_space_group_name_H-M   'P 1'
_cell_length_a   5.55738521
_cell_length_b   5.58375841
_cell_length_c   27.84977620
_cell_angle_alpha   60.40292858
_cell_angle_beta   60.24174027
_cell_angle_gamma   60.16660024
_symmetry_Int_Tables_number   1
_chemical_formula_structural   Cu9NiC39
_chemical_formula_sum   'Cu9 Ni1 C39'
_cell_volume   614.82292878
_cell_formula_units_Z   1
loop_
 _symmetry_equiv_pos_site_id
 _symmetry_equiv_pos_as_xyz
  1  'x, y, z'
loop_
 _atom_site_type_symbol
 _atom_site_label
 _atom_site_symmetry_multiplicity
 _atom_site_fract_x
 _atom_site_fract_y
 _atom_site_fract_z
 _atom_site_occupancy
  C  C0  1  0.23604900  0.75160300  0.15408400  1
  C  C1  1  0.75360400  0.25671100  0.04548400  1
  C  C2  1  0.25002700  0.75095000  0.34856200  1
  C  C3  1  0.70768200  0.26322500  0.25600700  1
  C  C4  1  0.25036900  0.74011100  0.55157000  1
  C  C5  1  0.75121600  0.26196000  0.44695300  1
  C  C6  1  0.25254200  0.74126200  0.75079800  1
  C  C7  1  0.75157900  0.25991300  0.64743500  1
  C  C8  1  0.26407800  0.74046200  0.94897600  1
  C  C9  1  0.75215000  0.25792000  0.84782600  1
  Ni  Ni10  1  0.53007300  0.97512400  0.20282500  1
  Cu  Cu11  1  0.97051800  0.52697900  0.09485300  1
  Cu  Cu12  1  0.99932100  0.50322800  0.29858000  1
  Cu  Cu13  1  0.00004700  0.50130000  0.49952200  1
  Cu  Cu14  1  0.49838600  0.99681800  0.40185400  1
  Cu  Cu15  1  0.00063700  0.49989700  0.69968700  1
  Cu  Cu16  1  0.50136500  0.00065200  0.59937700  1
  Cu  Cu17  1  0.00109100  0.50147100  0.89908600  1
  Cu  Cu18  1  0.50209600  0.00096200  0.79916000  1
  Cu  Cu19  1  0.49536900  0.00234400  0.00098400  1
  C  C20  1  0.26898100  0.18602500  0.06621700  1
  C  C21  1  0.30207300  0.69206300  0.04624600  1
  C  C22  1  0.24303200  0.18351100  0.26286300  1
  C  C23  1  0.27102000  0.72734400  0.24173800  1
  C  C24  1  0.81091000  0.71382500  0.03403100  1
  C  C25  1  0.21980100  0.29610500  0.35560900  1
  C  C26  1  0.73747800  0.28844500  0.15907000  1
  C  C27  1  0.24557200  0.16469300  0.46734300  1
  C  C28  1  0.76178500  0.83301200  0.13109000  1
  C  C29  1  0.29190400  0.70536400  0.44123100  1
  C  C30  1  0.77135500  0.67440500  0.24975500  1
  C  C31  1  0.20227800  0.29635100  0.55947100  1
  C  C32  1  0.70602000  0.28451700  0.36217400  1
  C  C33  1  0.24928300  0.16627500  0.66693500  1
  C  C34  1  0.74180800  0.82778500  0.33641300  1
  C  C35  1  0.29552500  0.70333200  0.64152800  1
  C  C36  1  0.79588200  0.69714200  0.44172100  1
  C  C37  1  0.20201900  0.29470700  0.75979900  1
  C  C38  1  0.70275300  0.29574200  0.56003200  1
  C  C39  1  0.25255400  0.16813500  0.86612200  1
  C  C40  1  0.74789600  0.83458400  0.53347000  1
  C  C41  1  0.29644500  0.70228300  0.84226500  1
  C  C42  1  0.79535400  0.70284500  0.64113400  1
  C  C43  1  0.20220800  0.28744800  0.96024800  1
  C  C44  1  0.70312700  0.29670600  0.75935800  1
  C  C45  1  0.74828200  0.83257100  0.73362700  1
  C  C46  1  0.79746400  0.70444800  0.84018800  1
  C  C47  1  0.70491100  0.29897800  0.95696600  1
  C  C48  1  0.74067900  0.83186700  0.93321000  1
