# generated using pymatgen
data_Cu9Ni9C5
_symmetry_space_group_name_H-M   'P 1'
_cell_length_a   6.97209400
_cell_length_b   9.39229726
_cell_length_c   13.16161295
_cell_angle_alpha   94.83288204
_cell_angle_beta   95.23050788
_cell_angle_gamma   110.47618592
_symmetry_Int_Tables_number   1
_chemical_formula_structural   Cu9Ni9C5
_chemical_formula_sum   'Cu18 Ni18 C10'
_cell_volume   797.80241891
_cell_formula_units_Z   2
loop_
 _symmetry_equiv_pos_site_id
 _symmetry_equiv_pos_as_xyz
  1  'x, y, z'
loop_
 _atom_site_type_symbol
 _atom_site_label
 _atom_site_symmetry_multiplicity
 _atom_site_fract_x
 _atom_site_fract_y
 _atom_site_fract_z
 _atom_site_occupancy
  C  C0  1  0.12670600  0.89114900  0.24553000  1
  C  C1  1  0.87329400  0.10885100  0.75447000  1
  C  C2  1  0.42949300  0.27452300  0.16180400  1
  C  C3  1  0.57050700  0.72547700  0.83819600  1
  C  C4  1  0.28605600  0.18971100  0.34380900  1
  C  C5  1  0.71394400  0.81028900  0.65619100  1
  C  C6  1  0.05483600  0.11123300  0.17103400  1
  C  C7  1  0.49739700  0.93629100  0.75085700  1
  C  C8  1  0.50260300  0.06370900  0.24914300  1
  C  C9  1  0.94516400  0.88876700  0.82896600  1
  Ni  Ni10  1  0.78848900  0.22967500  0.67654700  1
  Ni  Ni11  1  0.09228500  0.78301600  0.12408800  1
  Ni  Ni12  1  0.50401700  0.35801100  0.38966600  1
  Ni  Ni13  1  0.69945100  0.38695100  0.18835200  1
  Ni  Ni14  1  0.21151100  0.77032500  0.32345300  1
  Ni  Ni15  1  0.57490000  0.79339000  0.96745200  1
  Ni  Ni16  1  0.27285800  0.07925300  0.44689800  1
  Ni  Ni17  1  0.89649200  0.73140800  0.61591600  1
  Ni  Ni18  1  0.10350800  0.26859200  0.38408400  1
  Ni  Ni19  1  0.64711900  0.56392700  0.85434900  1
  Ni  Ni20  1  0.86655600  0.81146800  0.27530400  1
  Ni  Ni21  1  0.13344400  0.18853200  0.72469600  1
  Ni  Ni22  1  0.49598300  0.64198900  0.61033400  1
  Ni  Ni23  1  0.72714200  0.92074700  0.55310200  1
  Ni  Ni24  1  0.42510000  0.20661000  0.03254800  1
  Ni  Ni25  1  0.90771500  0.21698400  0.87591200  1
  Ni  Ni26  1  0.30054900  0.61304900  0.81164800  1
  Ni  Ni27  1  0.35288100  0.43607300  0.14565100  1
  Cu  Cu28  1  0.26166400  0.68926400  0.37183000  1
  Cu  Cu29  1  0.73833600  0.31073600  0.62817000  1
  Cu  Cu30  1  0.69932900  0.75286700  0.29311300  1
  Cu  Cu31  1  0.57770200  0.83749800  0.05305100  1
  Cu  Cu32  1  0.93764100  0.28727500  0.95642100  1
  Cu  Cu33  1  0.12541200  0.54087000  0.79652600  1
  Cu  Cu34  1  0.06235900  0.71272500  0.04357900  1
  Cu  Cu35  1  0.98737300  0.32005300  0.41370900  1
  Cu  Cu36  1  0.31132500  0.54302600  0.13384900  1
  Cu  Cu37  1  0.42229800  0.16250200  0.94694900  1
  Cu  Cu38  1  0.73024500  0.98386600  0.48039400  1
  Cu  Cu39  1  0.30067100  0.24713300  0.70688700  1
  Cu  Cu40  1  0.35627000  0.53295600  0.57549400  1
  Cu  Cu41  1  0.68867500  0.45697400  0.86615100  1
  Cu  Cu42  1  0.26975500  0.01613400  0.51960600  1
  Cu  Cu43  1  0.87458800  0.45913000  0.20347400  1
  Cu  Cu44  1  0.01262700  0.67994700  0.58629100  1
  Cu  Cu45  1  0.64373000  0.46704400  0.42450600  1
