# generated using pymatgen
data_Cu4NiC6
_symmetry_space_group_name_H-M   'P 1'
_cell_length_a   8.37600700
_cell_length_b   8.37600700
_cell_length_c   12.10942000
_cell_angle_alpha   90.00000000
_cell_angle_beta   90.00000000
_cell_angle_gamma   90.00000000
_symmetry_Int_Tables_number   1
_chemical_formula_structural   Cu4NiC6
_chemical_formula_sum   'Cu16 Ni4 C24'
_cell_volume   849.56655208
_cell_formula_units_Z   4
loop_
 _symmetry_equiv_pos_site_id
 _symmetry_equiv_pos_as_xyz
  1  'x, y, z'
loop_
 _atom_site_type_symbol
 _atom_site_label
 _atom_site_symmetry_multiplicity
 _atom_site_fract_x
 _atom_site_fract_y
 _atom_site_fract_z
 _atom_site_occupancy
  Ni  Ni0  1  0.00000000  0.50000000  0.34219900  1
  Ni  Ni1  1  0.50000000  0.00000000  0.65780100  1
  Ni  Ni2  1  0.00000000  0.50000000  0.84219900  1
  Ni  Ni3  1  0.50000000  0.00000000  0.15780100  1
  Cu  Cu4  1  0.11940400  0.83378100  0.09554100  1
  Cu  Cu5  1  0.38059600  0.33378100  0.40445900  1
  Cu  Cu6  1  0.33378100  0.61940400  0.59554100  1
  Cu  Cu7  1  0.38059600  0.66621900  0.90445900  1
  Cu  Cu8  1  0.16621900  0.88059600  0.40445900  1
  Cu  Cu9  1  0.11940400  0.16621900  0.59554100  1
  Cu  Cu10  1  0.83378100  0.88059600  0.90445900  1
  Cu  Cu11  1  0.83378100  0.11940400  0.40445900  1
  Cu  Cu12  1  0.33378100  0.38059600  0.09554100  1
  Cu  Cu13  1  0.61940400  0.33378100  0.90445900  1
  Cu  Cu14  1  0.66621900  0.38059600  0.59554100  1
  Cu  Cu15  1  0.66621900  0.61940400  0.09554100  1
  Cu  Cu16  1  0.16621900  0.11940400  0.90445900  1
  Cu  Cu17  1  0.61940400  0.66621900  0.40445900  1
  Cu  Cu18  1  0.88059600  0.16621900  0.09554100  1
  Cu  Cu19  1  0.88059600  0.83378100  0.59554100  1
  C  C20  1  0.65613200  0.34386800  0.25000000  1
  C  C21  1  0.15613200  0.84386800  0.75000000  1
  C  C22  1  0.34386800  0.34386800  0.75000000  1
  C  C23  1  0.84386800  0.15613200  0.75000000  1
  C  C24  1  0.15613200  0.15613200  0.25000000  1
  C  C25  1  0.84386800  0.84386800  0.25000000  1
  C  C26  1  0.34386800  0.65613200  0.25000000  1
  C  C27  1  0.65613200  0.65613200  0.75000000  1
  C  C28  1  0.12273000  0.18118500  0.39504700  1
  C  C29  1  0.87727000  0.18118500  0.89504700  1
  C  C30  1  0.18118500  0.12273000  0.10495300  1
  C  C31  1  0.87727000  0.81881500  0.39504700  1
  C  C32  1  0.81881500  0.12273000  0.60495300  1
  C  C33  1  0.31881500  0.37727000  0.89504700  1
  C  C34  1  0.62273000  0.68118500  0.60495300  1
  C  C35  1  0.37727000  0.68118500  0.10495300  1
  C  C36  1  0.62273000  0.31881500  0.10495300  1
  C  C37  1  0.37727000  0.31881500  0.60495300  1
  C  C38  1  0.12273000  0.81881500  0.89504700  1
  C  C39  1  0.31881500  0.62273000  0.39504700  1
  C  C40  1  0.68118500  0.62273000  0.89504700  1
  C  C41  1  0.68118500  0.37727000  0.39504700  1
  C  C42  1  0.81881500  0.87727000  0.10495300  1
  C  C43  1  0.18118500  0.87727000  0.60495300  1
