# generated using pymatgen
data_Cu36Ni10C13
_symmetry_space_group_name_H-M   'P 1'
_cell_length_a   17.25483619
_cell_length_b   17.25483619
_cell_length_c   28.28950794
_cell_angle_alpha   54.02349944
_cell_angle_beta   54.02349944
_cell_angle_gamma   30.81480833
_symmetry_Int_Tables_number   1
_chemical_formula_structural   Cu36Ni10C13
_chemical_formula_sum   'Cu72 Ni20 C26'
_cell_volume   3421.05130712
_cell_formula_units_Z   2
loop_
 _symmetry_equiv_pos_site_id
 _symmetry_equiv_pos_as_xyz
  1  'x, y, z'
loop_
 _atom_site_type_symbol
 _atom_site_label
 _atom_site_symmetry_multiplicity
 _atom_site_fract_x
 _atom_site_fract_y
 _atom_site_fract_z
 _atom_site_occupancy
  C  C0  1  0.28931000  0.69656400  0.07332900  1
  C  C1  1  0.45969900  0.73124400  0.62692600  1
  C  C2  1  0.69656400  0.28931000  0.57332900  1
  C  C3  1  0.13521500  0.74257500  0.66347700  1
  C  C4  1  0.86478500  0.25742500  0.33652300  1
  C  C5  1  0.54030100  0.26875600  0.37307400  1
  C  C6  1  0.71069000  0.30343600  0.92667100  1
  C  C7  1  0.26875600  0.54030100  0.87307400  1
  C  C8  1  0.25742500  0.86478500  0.83652300  1
  C  C9  1  0.53211100  0.89387800  0.26365800  1
  C  C10  1  0.80545700  0.75184200  0.39935100  1
  C  C11  1  0.46788900  0.10612200  0.73634200  1
  C  C12  1  0.73124400  0.45969900  0.12692600  1
  C  C13  1  0.89387800  0.53211100  0.76365800  1
  C  C14  1  0.30343600  0.71069000  0.42667100  1
  C  C15  1  0.10612200  0.46788900  0.23634200  1
  C  C16  1  0.74257500  0.13521500  0.16347700  1
  C  C17  1  0.75184200  0.80545700  0.89935100  1
  C  C18  1  0.19454300  0.24815800  0.60064900  1
  C  C19  1  0.24815800  0.19454300  0.10064900  1
  C  C20  1  0.88509300  0.77721000  0.05543200  1
  C  C21  1  0.22279000  0.11490700  0.44456800  1
  C  C22  1  0.21540900  0.78459100  0.25000000  1
  C  C23  1  0.77721000  0.88509300  0.55543200  1
  C  C24  1  0.78459100  0.21540900  0.75000000  1
  C  C25  1  0.11490700  0.22279000  0.94456800  1
  Ni  Ni26  1  0.86649300  0.97754200  0.89980400  1
  Ni  Ni27  1  0.86315600  0.48745200  0.39111800  1
  Ni  Ni28  1  0.57056100  0.82171100  0.65175400  1
  Ni  Ni29  1  0.02245800  0.13350700  0.60019600  1
  Ni  Ni30  1  0.82171100  0.57056100  0.15175400  1
  Ni  Ni31  1  0.13684400  0.51254800  0.60888200  1
  Ni  Ni32  1  0.29332700  0.51279900  0.24641900  1
  Ni  Ni33  1  0.42943900  0.17828900  0.34824600  1
  Ni  Ni34  1  0.70667300  0.48720100  0.75358100  1
  Ni  Ni35  1  0.72340800  0.47091700  0.97040600  1
  Ni  Ni36  1  0.51254800  0.13684400  0.10888200  1
  Ni  Ni37  1  0.13350700  0.02245800  0.10019600  1
  Ni  Ni38  1  0.17828900  0.42943900  0.84824600  1
  Ni  Ni39  1  0.47091700  0.72340800  0.47040600  1
  Ni  Ni40  1  0.51279900  0.29332700  0.74641900  1
  Ni  Ni41  1  0.97754200  0.86649300  0.39980400  1
  Ni  Ni42  1  0.52908300  0.27659200  0.52959400  1
  Ni  Ni43  1  0.27659200  0.52908300  0.02959400  1
  Ni  Ni44  1  0.48745200  0.86315600  0.89111800  1
  Ni  Ni45  1  0.48720100  0.70667300  0.25358100  1
  Cu  Cu46  1  0.57544300  0.75207100  0.16234800  1
  Cu  Cu47  1  0.79432200  0.50322500  0.98655700  1
  Cu  Cu48  1  0.45161500  0.47168900  0.23906500  1
  Cu  Cu49  1  0.02446800  0.91738900  0.82030300  1
  Cu  Cu50  1  0.21000500  0.32741800  0.67088500  1
  Cu  Cu51  1  0.91385400  0.25522400  0.75560800  1
  Cu  Cu52  1  0.20567800  0.49677500  0.01344300  1
  Cu  Cu53  1  0.32888800  0.90264500  0.40916500  1
  Cu  Cu54  1  0.92156600  0.36417600  0.19117300  1
  Cu  Cu55  1  0.63582400  0.07843400  0.30882700  1
  Cu  Cu56  1  0.83458700  0.86319700  0.44213000  1
  Cu  Cu57  1  0.24792900  0.42455700  0.33765200  1
  Cu  Cu58  1  0.74477600  0.08614600  0.74439200  1
  Cu  Cu59  1  0.90264500  0.32888800  0.90916500  1
  Cu  Cu60  1  0.50322500  0.79432200  0.48655700  1
  Cu  Cu61  1  0.33879200  0.79516800  0.12352800  1
  Cu  Cu62  1  0.06285400  0.56735900  0.54719400  1
  Cu  Cu63  1  0.09735500  0.67111200  0.09083500  1
  Cu  Cu64  1  0.56735900  0.06285400  0.04719400  1
  Cu  Cu65  1  0.14654700  0.36958000  0.82317000  1
  Cu  Cu66  1  0.34698200  0.60610200  0.96131300  1
  Cu  Cu67  1  0.54838500  0.52831100  0.76093500  1
  Cu  Cu68  1  0.35825300  0.42678000  0.18887100  1
  Cu  Cu69  1  0.67258200  0.78999500  0.82911500  1
  Cu  Cu70  1  0.52831100  0.54838500  0.26093500  1
  Cu  Cu71  1  0.51319100  0.68996900  0.93622300  1
  Cu  Cu72  1  0.39264600  0.12167700  0.43920300  1
  Cu  Cu73  1  0.67111200  0.09735500  0.59083500  1
  Cu  Cu74  1  0.36417600  0.92156600  0.69117300  1
  Cu  Cu75  1  0.08261100  0.97553200  0.67969700  1
  Cu  Cu76  1  0.79516800  0.33879200  0.62352800  1
  Cu  Cu77  1  0.31003100  0.48680900  0.56377700  1
  Cu  Cu78  1  0.39389800  0.65301800  0.53868700  1
  Cu  Cu79  1  0.28786100  0.03082600  0.86398500  1
  Cu  Cu80  1  0.97553200  0.08261100  0.17969700  1
  Cu  Cu81  1  0.32741800  0.21000500  0.17088500  1
  Cu  Cu82  1  0.43264100  0.93714600  0.95280600  1
  Cu  Cu83  1  0.64174700  0.57322000  0.81112900  1
  Cu  Cu84  1  0.20483200  0.66120800  0.37647200  1
  Cu  Cu85  1  0.68996900  0.51319100  0.43622300  1
  Cu  Cu86  1  0.49677500  0.20567800  0.51344300  1
  Cu  Cu87  1  0.07843400  0.63582400  0.80882700  1
  Cu  Cu88  1  0.36958000  0.14654700  0.32317000  1
  Cu  Cu89  1  0.03082600  0.28786100  0.36398500  1
  Cu  Cu90  1  0.91738900  0.02446800  0.32030300  1
  Cu  Cu91  1  0.42678000  0.35825300  0.68887100  1
  Cu  Cu92  1  0.93714600  0.43264100  0.45280600  1
  Cu  Cu93  1  0.78999500  0.67258200  0.32911500  1
  Cu  Cu94  1  0.87832300  0.60735400  0.06079700  1
  Cu  Cu95  1  0.57322000  0.64174700  0.31112900  1
  Cu  Cu96  1  0.71213900  0.96917400  0.13601500  1
  Cu  Cu97  1  0.60610200  0.34698200  0.46131300  1
  Cu  Cu98  1  0.08614600  0.74477600  0.24439200  1
  Cu  Cu99  1  0.25522400  0.91385400  0.25560800  1
  Cu  Cu100  1  0.94600300  0.92838700  0.45842200  1
  Cu  Cu101  1  0.13680300  0.16541300  0.05787000  1
  Cu  Cu102  1  0.47168900  0.45161500  0.73906500  1
  Cu  Cu103  1  0.07161300  0.05399700  0.04157800  1
  Cu  Cu104  1  0.85345300  0.63042000  0.17683000  1
  Cu  Cu105  1  0.12167700  0.39264600  0.93920300  1
  Cu  Cu106  1  0.75207100  0.57544300  0.66234800  1
  Cu  Cu107  1  0.63042000  0.85345300  0.67683000  1
  Cu  Cu108  1  0.92838700  0.94600300  0.95842200  1
  Cu  Cu109  1  0.86319700  0.83458700  0.94213000  1
  Cu  Cu110  1  0.60735400  0.87832300  0.56079700  1
  Cu  Cu111  1  0.96917400  0.71213900  0.63601500  1
  Cu  Cu112  1  0.48680900  0.31003100  0.06377700  1
  Cu  Cu113  1  0.66120800  0.20483200  0.87647200  1
  Cu  Cu114  1  0.05399700  0.07161300  0.54157800  1
  Cu  Cu115  1  0.65301800  0.39389800  0.03868700  1
  Cu  Cu116  1  0.42455700  0.24792900  0.83765200  1
  Cu  Cu117  1  0.16541300  0.13680300  0.55787000  1
