# generated using pymatgen
data_Cu3Ni2
_symmetry_space_group_name_H-M   'P 1'
_cell_length_a   3.92183400
_cell_length_b   6.71190016
_cell_length_c   8.06374800
_cell_angle_alpha   90.00000000
_cell_angle_beta   90.00000000
_cell_angle_gamma   106.98703300
_symmetry_Int_Tables_number   1
_chemical_formula_structural   Cu3Ni2
_chemical_formula_sum   'Cu6 Ni4'
_cell_volume   203.00091504
_cell_formula_units_Z   2
loop_
 _symmetry_equiv_pos_site_id
 _symmetry_equiv_pos_as_xyz
  1  'x, y, z'
loop_
 _atom_site_type_symbol
 _atom_site_label
 _atom_site_symmetry_multiplicity
 _atom_site_fract_x
 _atom_site_fract_y
 _atom_site_fract_z
 _atom_site_occupancy
  Ni  Ni0  1  0.00000000  0.00000000  0.50000000  1
  Ni  Ni1  1  0.00000000  0.00000000  0.00000000  1
  Ni  Ni2  1  0.25764200  0.51528400  0.25000000  1
  Ni  Ni3  1  0.74235800  0.48471600  0.75000000  1
  Cu  Cu4  1  0.46513600  0.93027200  0.25000000  1
  Cu  Cu5  1  0.53486400  0.06972800  0.75000000  1
  Cu  Cu6  1  0.33775200  0.67550400  0.56644900  1
  Cu  Cu7  1  0.66224800  0.32449600  0.43355100  1
  Cu  Cu8  1  0.33775200  0.67550400  0.93355100  1
  Cu  Cu9  1  0.66224800  0.32449600  0.06644900  1
