# generated using pymatgen
data_Cu3NiC15
_symmetry_space_group_name_H-M   'P 1'
_cell_length_a   9.84358700
_cell_length_b   9.84358700
_cell_length_c   9.84358700
_cell_angle_alpha   90.00000000
_cell_angle_beta   90.00000000
_cell_angle_gamma   90.00000000
_symmetry_Int_Tables_number   1
_chemical_formula_structural   Cu3NiC15
_chemical_formula_sum   'Cu12 Ni4 C60'
_cell_volume   953.80622415
_cell_formula_units_Z   4
loop_
 _symmetry_equiv_pos_site_id
 _symmetry_equiv_pos_as_xyz
  1  'x, y, z'
loop_
 _atom_site_type_symbol
 _atom_site_label
 _atom_site_symmetry_multiplicity
 _atom_site_fract_x
 _atom_site_fract_y
 _atom_site_fract_z
 _atom_site_occupancy
  C  C0  1  0.04031900  0.95968100  0.45968100  1
  C  C1  1  0.18108400  0.68108400  0.81891600  1
  C  C2  1  0.31891600  0.31891600  0.31891600  1
  C  C3  1  0.45968100  0.04031900  0.95968100  1
  C  C4  1  0.54031900  0.54031900  0.54031900  1
  C  C5  1  0.68108400  0.81891600  0.18108400  1
  C  C6  1  0.81891600  0.18108400  0.68108400  1
  C  C7  1  0.95968100  0.45968100  0.04031900  1
  C  C8  1  0.16374500  0.33625500  0.66374500  1
  C  C9  1  0.33625500  0.66374500  0.16374500  1
  C  C10  1  0.66374500  0.16374500  0.33625500  1
  C  C11  1  0.83625500  0.83625500  0.83625500  1
  Ni  Ni12  1  0.10808200  0.10808200  0.10808200  1
  Ni  Ni13  1  0.39191800  0.89191800  0.60808200  1
  Ni  Ni14  1  0.60808200  0.39191800  0.89191800  1
  Ni  Ni15  1  0.89191800  0.60808200  0.39191800  1
  Cu  Cu16  1  0.02137500  0.79607200  0.12799100  1
  Cu  Cu17  1  0.12799100  0.02137500  0.79607200  1
  Cu  Cu18  1  0.20392800  0.62799100  0.47862500  1
  Cu  Cu19  1  0.29607200  0.37200900  0.97862500  1
  Cu  Cu20  1  0.37200900  0.97862500  0.29607200  1
  Cu  Cu21  1  0.47862500  0.20392800  0.62799100  1
  Cu  Cu22  1  0.52137500  0.70392800  0.87200900  1
  Cu  Cu23  1  0.62799100  0.47862500  0.20392800  1
  Cu  Cu24  1  0.70392800  0.87200900  0.52137500  1
  Cu  Cu25  1  0.79607200  0.12799100  0.02137500  1
  Cu  Cu26  1  0.87200900  0.52137500  0.70392800  1
  Cu  Cu27  1  0.97862500  0.29607200  0.37200900  1
  C  C28  1  0.00979500  0.44621400  0.72825000  1
  C  C29  1  0.01724300  0.94592400  0.17064500  1
  C  C30  1  0.04970900  0.20434300  0.26834300  1
  C  C31  1  0.05378600  0.27175000  0.50979500  1
  C  C32  1  0.05407600  0.67064500  0.48275700  1
  C  C33  1  0.10237700  0.17063100  0.74983300  1
  C  C34  1  0.17064500  0.01724300  0.94592400  1
  C  C35  1  0.17063100  0.74983300  0.10237700  1
  C  C36  1  0.20434300  0.26834300  0.04970900  1
  C  C37  1  0.22825000  0.49020500  0.55378600  1
  C  C38  1  0.23165700  0.95029100  0.70434300  1
  C  C39  1  0.24983300  0.39762300  0.82936900  1
  C  C40  1  0.25016700  0.60237700  0.32936900  1
  C  C41  1  0.26834300  0.04970900  0.20434300  1
  C  C42  1  0.27175000  0.50979500  0.05378600  1
  C  C43  1  0.29565700  0.73165700  0.54970900  1
  C  C44  1  0.32936900  0.25016700  0.60237700  1
  C  C45  1  0.32935500  0.98275700  0.44592400  1
  C  C46  1  0.39762300  0.82936900  0.24983300  1
  C  C47  1  0.44592400  0.32935500  0.98275700  1
  C  C48  1  0.44621400  0.72825000  0.00979500  1
  C  C49  1  0.45029100  0.79565700  0.76834300  1
  C  C50  1  0.48275700  0.05407600  0.67064500  1
  C  C51  1  0.49020500  0.55378600  0.22825000  1
  C  C52  1  0.50979500  0.05378600  0.27175000  1
  C  C53  1  0.51724300  0.55407600  0.82935500  1
  C  C54  1  0.54970900  0.29565700  0.73165700  1
  C  C55  1  0.55378600  0.22825000  0.49020500  1
  C  C56  1  0.55407600  0.82935500  0.51724300  1
  C  C57  1  0.60237700  0.32936900  0.25016700  1
  C  C58  1  0.67064500  0.48275700  0.05407600  1
  C  C59  1  0.67063100  0.75016700  0.89762300  1
  C  C60  1  0.70434300  0.23165700  0.95029100  1
  C  C61  1  0.72825000  0.00979500  0.44621400  1
  C  C62  1  0.73165700  0.54970900  0.29565700  1
  C  C63  1  0.74983300  0.10237700  0.17063100  1
  C  C64  1  0.75016700  0.89762300  0.67063100  1
  C  C65  1  0.76834300  0.45029100  0.79565700  1
  C  C66  1  0.77175000  0.99020500  0.94621400  1
  C  C67  1  0.79565700  0.76834300  0.45029100  1
  C  C68  1  0.82936900  0.24983300  0.39762300  1
  C  C69  1  0.82935500  0.51724300  0.55407600  1
  C  C70  1  0.89762300  0.67063100  0.75016700  1
  C  C71  1  0.94592400  0.17064500  0.01724300  1
  C  C72  1  0.94621400  0.77175000  0.99020500  1
  C  C73  1  0.95029100  0.70434300  0.23165700  1
  C  C74  1  0.98275700  0.44592400  0.32935500  1
  C  C75  1  0.99020500  0.94621400  0.77175000  1
