# generated using pymatgen
data_Cu16NiC6
_symmetry_space_group_name_H-M   'P 1'
_cell_length_a   10.10145500
_cell_length_b   13.17703700
_cell_length_c   17.15814600
_cell_angle_alpha   90.00000000
_cell_angle_beta   90.00000000
_cell_angle_gamma   90.00000000
_symmetry_Int_Tables_number   1
_chemical_formula_structural   Cu16NiC6
_chemical_formula_sum   'Cu64 Ni4 C24'
_cell_volume   2283.87356548
_cell_formula_units_Z   4
loop_
 _symmetry_equiv_pos_site_id
 _symmetry_equiv_pos_as_xyz
  1  'x, y, z'
loop_
 _atom_site_type_symbol
 _atom_site_label
 _atom_site_symmetry_multiplicity
 _atom_site_fract_x
 _atom_site_fract_y
 _atom_site_fract_z
 _atom_site_occupancy
  C  C0  1  0.88213700  0.15025300  0.72806500  1
  C  C1  1  0.38213700  0.65025300  0.77193500  1
  C  C2  1  0.15726000  0.34977600  0.65501000  1
  C  C3  1  0.34274000  0.15022400  0.15501000  1
  C  C4  1  0.34274000  0.34977600  0.15501000  1
  C  C5  1  0.38213700  0.84974700  0.77193500  1
  C  C6  1  0.28648600  0.75000000  0.89491400  1
  C  C7  1  0.65726000  0.65022400  0.84499000  1
  C  C8  1  0.15726000  0.15022400  0.65501000  1
  C  C9  1  0.11786300  0.84974700  0.27193500  1
  C  C10  1  0.61786300  0.15025300  0.22806500  1
  C  C11  1  0.84274000  0.84977600  0.34499000  1
  C  C12  1  0.21351400  0.75000000  0.39491400  1
  C  C13  1  0.61786300  0.34974700  0.22806500  1
  C  C14  1  0.84274000  0.65022400  0.34499000  1
  C  C15  1  0.56447300  0.75000000  0.96894000  1
  C  C16  1  0.43552700  0.25000000  0.03106000  1
  C  C17  1  0.71351400  0.25000000  0.10508600  1
  C  C18  1  0.93552700  0.75000000  0.46894000  1
  C  C19  1  0.78648600  0.25000000  0.60508600  1
  C  C20  1  0.11786300  0.65025300  0.27193500  1
  C  C21  1  0.06447300  0.25000000  0.53106000  1
  C  C22  1  0.65726000  0.84977600  0.84499000  1
  C  C23  1  0.88213700  0.34974700  0.72806500  1
  Ni  Ni24  1  0.98945800  0.25000000  0.65150700  1
  Ni  Ni25  1  0.01054200  0.75000000  0.34849300  1
  Ni  Ni26  1  0.48945800  0.75000000  0.84849300  1
  Ni  Ni27  1  0.51054200  0.25000000  0.15150700  1
  Cu  Cu28  1  0.90021200  0.86494200  0.20575000  1
  Cu  Cu29  1  0.88004100  0.13080200  0.50917800  1
  Cu  Cu30  1  0.61995900  0.36919800  0.00917800  1
  Cu  Cu31  1  0.11995900  0.86919800  0.49082200  1
  Cu  Cu32  1  0.74172600  0.62663400  0.97519700  1
  Cu  Cu33  1  0.92115500  0.75000000  0.60917800  1
  Cu  Cu34  1  0.77745700  0.25000000  0.82755900  1
  Cu  Cu35  1  0.09978800  0.36494200  0.79425000  1
  Cu  Cu36  1  0.57884500  0.75000000  0.10917800  1
  Cu  Cu37  1  0.24172600  0.12663400  0.52480300  1
  Cu  Cu38  1  0.67606300  0.00110300  0.32241000  1
  Cu  Cu39  1  0.59978800  0.86494200  0.70575000  1
  Cu  Cu40  1  0.48807600  0.51525200  0.85046600  1
  Cu  Cu41  1  0.66288100  0.37516600  0.67861200  1
  Cu  Cu42  1  0.85224600  0.75000000  0.82263200  1
  Cu  Cu43  1  0.33711900  0.87516600  0.32138800  1
  Cu  Cu44  1  0.16288100  0.87516600  0.82138800  1
  Cu  Cu45  1  0.59886100  0.25000000  0.51956000  1
  Cu  Cu46  1  0.88004100  0.36919800  0.50917800  1
  Cu  Cu47  1  0.33711900  0.62483400  0.32138800  1
  Cu  Cu48  1  0.01192400  0.98474800  0.35046600  1
  Cu  Cu49  1  0.83711900  0.12483400  0.17861200  1
  Cu  Cu50  1  0.25827400  0.37336600  0.02480300  1
  Cu  Cu51  1  0.40021200  0.13505800  0.29425000  1
  Cu  Cu52  1  0.17606300  0.99889700  0.17759000  1
  Cu  Cu53  1  0.61995900  0.13080200  0.00917800  1
  Cu  Cu54  1  0.38004100  0.86919800  0.99082200  1
  Cu  Cu55  1  0.75827400  0.87336600  0.47519700  1
  Cu  Cu56  1  0.24172600  0.37336600  0.52480300  1
  Cu  Cu57  1  0.51192400  0.48474800  0.14953400  1
  Cu  Cu58  1  0.98807600  0.48474800  0.64953400  1
  Cu  Cu59  1  0.74172600  0.87336600  0.97519700  1
  Cu  Cu60  1  0.42115500  0.25000000  0.89082200  1
  Cu  Cu61  1  0.90113900  0.25000000  0.01956000  1
  Cu  Cu62  1  0.25827400  0.12663400  0.02480300  1
  Cu  Cu63  1  0.14775400  0.25000000  0.17736800  1
  Cu  Cu64  1  0.82393700  0.00110300  0.82241000  1
  Cu  Cu65  1  0.16288100  0.62483400  0.82138800  1
  Cu  Cu66  1  0.75827400  0.62663400  0.47519700  1
  Cu  Cu67  1  0.40113900  0.75000000  0.48044000  1
  Cu  Cu68  1  0.51192400  0.01525200  0.14953400  1
  Cu  Cu69  1  0.83711900  0.37516600  0.17861200  1
  Cu  Cu70  1  0.48807600  0.98474800  0.85046600  1
  Cu  Cu71  1  0.22254300  0.75000000  0.17244100  1
  Cu  Cu72  1  0.66288100  0.12483400  0.67861200  1
  Cu  Cu73  1  0.40021200  0.36494200  0.29425000  1
  Cu  Cu74  1  0.59978800  0.63505800  0.70575000  1
  Cu  Cu75  1  0.09978800  0.13505800  0.79425000  1
  Cu  Cu76  1  0.64775400  0.75000000  0.32263200  1
  Cu  Cu77  1  0.07884500  0.25000000  0.39082200  1
  Cu  Cu78  1  0.82393700  0.49889700  0.82241000  1
  Cu  Cu79  1  0.27745700  0.75000000  0.67244100  1
  Cu  Cu80  1  0.35224600  0.25000000  0.67736800  1
  Cu  Cu81  1  0.38004100  0.63080200  0.99082200  1
  Cu  Cu82  1  0.32393700  0.99889700  0.67759000  1
  Cu  Cu83  1  0.17606300  0.50110300  0.17759000  1
  Cu  Cu84  1  0.11995900  0.63080200  0.49082200  1
  Cu  Cu85  1  0.01192400  0.51525200  0.35046600  1
  Cu  Cu86  1  0.09886100  0.75000000  0.98044000  1
  Cu  Cu87  1  0.72254300  0.25000000  0.32755900  1
  Cu  Cu88  1  0.67606300  0.49889700  0.32241000  1
  Cu  Cu89  1  0.90021200  0.63505800  0.20575000  1
  Cu  Cu90  1  0.32393700  0.50110300  0.67759000  1
  Cu  Cu91  1  0.98807600  0.01525200  0.64953400  1
