# generated using pymatgen
data_Cu4Ni4C3
_symmetry_space_group_name_H-M   'P 1'
_cell_length_a   15.37969310
_cell_length_b   15.37969310
_cell_length_c   15.37969347
_cell_angle_alpha   32.44401191
_cell_angle_beta   32.44401191
_cell_angle_gamma   32.44401421
_symmetry_Int_Tables_number   1
_chemical_formula_structural   Cu4Ni4C3
_chemical_formula_sum   'Cu16 Ni16 C12'
_cell_volume   930.89838015
_cell_formula_units_Z   4
loop_
 _symmetry_equiv_pos_site_id
 _symmetry_equiv_pos_as_xyz
  1  'x, y, z'
loop_
 _atom_site_type_symbol
 _atom_site_label
 _atom_site_symmetry_multiplicity
 _atom_site_fract_x
 _atom_site_fract_y
 _atom_site_fract_z
 _atom_site_occupancy
  C  C0  1  0.75000000  0.33237900  0.16762100  1
  C  C1  1  0.83237900  0.25000000  0.66762100  1
  C  C2  1  0.50000000  0.50000000  0.50000000  1
  C  C3  1  0.66762100  0.83237900  0.25000000  1
  C  C4  1  0.33237900  0.16762100  0.75000000  1
  C  C5  1  0.00000000  0.00000000  0.00000000  1
  C  C6  1  0.25000000  0.66762100  0.83237900  1
  C  C7  1  0.16762100  0.75000000  0.33237900  1
  C  C8  1  0.18509900  0.18509900  0.18509900  1
  C  C9  1  0.68509900  0.68509900  0.68509900  1
  C  C10  1  0.31490100  0.31490100  0.31490100  1
  C  C11  1  0.81490100  0.81490100  0.81490100  1
  Ni  Ni12  1  0.54711700  0.22607700  0.12327700  1
  Ni  Ni13  1  0.22607700  0.12327700  0.54711700  1
  Ni  Ni14  1  0.13898800  0.13898800  0.13898800  1
  Ni  Ni15  1  0.27392300  0.95288300  0.37672300  1
  Ni  Ni16  1  0.87672300  0.45288300  0.77392300  1
  Ni  Ni17  1  0.63898800  0.63898800  0.63898800  1
  Ni  Ni18  1  0.12327700  0.54711700  0.22607700  1
  Ni  Ni19  1  0.95288300  0.37672300  0.27392300  1
  Ni  Ni20  1  0.36101200  0.36101200  0.36101200  1
  Ni  Ni21  1  0.45288300  0.77392300  0.87672300  1
  Ni  Ni22  1  0.37672300  0.27392300  0.95288300  1
  Ni  Ni23  1  0.04711700  0.62327700  0.72607700  1
  Ni  Ni24  1  0.77392300  0.87672300  0.45288300  1
  Ni  Ni25  1  0.86101200  0.86101200  0.86101200  1
  Ni  Ni26  1  0.72607700  0.04711700  0.62327700  1
  Ni  Ni27  1  0.62327700  0.72607700  0.04711700  1
  Cu  Cu28  1  0.31646900  0.82973100  0.98438100  1
  Cu  Cu29  1  0.17026900  0.01561900  0.68353100  1
  Cu  Cu30  1  0.67026900  0.18353100  0.51561900  1
  Cu  Cu31  1  0.32973100  0.81646900  0.48438100  1
  Cu  Cu32  1  0.01561900  0.68353100  0.17026900  1
  Cu  Cu33  1  0.88782200  0.88782200  0.88782200  1
  Cu  Cu34  1  0.82973100  0.98438100  0.31646900  1
  Cu  Cu35  1  0.38782200  0.38782200  0.38782200  1
  Cu  Cu36  1  0.61217800  0.61217800  0.61217800  1
  Cu  Cu37  1  0.51561900  0.67026900  0.18353100  1
  Cu  Cu38  1  0.68353100  0.17026900  0.01561900  1
  Cu  Cu39  1  0.48438100  0.32973100  0.81646900  1
  Cu  Cu40  1  0.98438100  0.31646900  0.82973100  1
  Cu  Cu41  1  0.81646900  0.48438100  0.32973100  1
  Cu  Cu42  1  0.11217800  0.11217800  0.11217800  1
  Cu  Cu43  1  0.18353100  0.51561900  0.67026900  1
