# generated using pymatgen
data_Cu11Ni3C17
_symmetry_space_group_name_H-M   'P 1'
_cell_length_a   7.48772656
_cell_length_b   20.26390763
_cell_length_c   22.61864394
_cell_angle_alpha   92.38406799
_cell_angle_beta   95.14934497
_cell_angle_gamma   97.44520207
_symmetry_Int_Tables_number   1
_chemical_formula_structural   Cu11Ni3C17
_chemical_formula_sum   'Cu66 Ni18 C102'
_cell_volume   3384.34602793
_cell_formula_units_Z   6
loop_
 _symmetry_equiv_pos_site_id
 _symmetry_equiv_pos_as_xyz
  1  'x, y, z'
loop_
 _atom_site_type_symbol
 _atom_site_label
 _atom_site_symmetry_multiplicity
 _atom_site_fract_x
 _atom_site_fract_y
 _atom_site_fract_z
 _atom_site_occupancy
  Ni  Ni0  1  0.11265844  0.22216921  0.57669817  1
  Ni  Ni1  1  0.11471631  0.02870888  0.85446773  1
  Ni  Ni2  1  0.16525899  0.44564772  0.42359513  1
  Ni  Ni3  1  0.88528369  0.97129112  0.14553227  1
  Ni  Ni4  1  0.51790229  0.11018211  0.41720457  1
  Ni  Ni5  1  0.08003503  0.50654000  0.84534271  1
  Ni  Ni6  1  0.78221224  0.35990713  0.85040253  1
  Ni  Ni7  1  0.83474101  0.55435228  0.57640487  1
  Ni  Ni8  1  0.40821196  0.17577222  0.85369191  1
  Ni  Ni9  1  0.91996497  0.49346000  0.15465729  1
  Ni  Ni10  1  0.21778776  0.64009287  0.14959747  1
  Ni  Ni11  1  0.76137752  0.84087407  0.85541536  1
  Ni  Ni12  1  0.54943963  0.30502022  0.14993700  1
  Ni  Ni13  1  0.59178804  0.82422778  0.14630809  1
  Ni  Ni14  1  0.48209771  0.88981789  0.58279543  1
  Ni  Ni15  1  0.45056037  0.69497978  0.85006300  1
  Ni  Ni16  1  0.88734156  0.77783079  0.42330183  1
  Ni  Ni17  1  0.23862248  0.15912593  0.14458464  1
  Cu  Cu18  1  0.08853473  0.41623499  0.99509665  1
  Cu  Cu19  1  0.30745843  0.46055466  0.72203179  1
  Cu  Cu20  1  0.91895321  0.88460843  0.29429716  1
  Cu  Cu21  1  0.11177089  0.71018936  0.29874134  1
  Cu  Cu22  1  0.25222106  0.74907316  0.00804948  1
  Cu  Cu23  1  0.66001355  0.62224847  0.72013308  1
  Cu  Cu24  1  0.94756161  0.61124960  0.42075197  1
  Cu  Cu25  1  0.31976678  0.27440685  0.41343662  1
  Cu  Cu26  1  0.68023322  0.72559315  0.58656338  1
  Cu  Cu27  1  0.40831750  0.88317462  0.28115916  1
  Cu  Cu28  1  0.58848022  0.51928662  0.86293971  1
  Cu  Cu29  1  0.29378140  0.95365853  0.72684846  1
  Cu  Cu30  1  0.28762228  0.35156604  0.86385914  1
  Cu  Cu31  1  0.62989127  0.01542513  0.86341583  1
  Cu  Cu32  1  0.71237772  0.64843396  0.13614086  1
  Cu  Cu33  1  0.98656147  0.78779766  0.72153855  1
  Cu  Cu34  1  0.01343853  0.21220234  0.27846145  1
  Cu  Cu35  1  0.83243462  0.37061960  0.30124664  1
  Cu  Cu36  1  0.92094186  0.19638409  0.86206045  1
  Cu  Cu37  1  0.51265155  0.37768472  0.57210019  1
  Cu  Cu38  1  0.43498720  0.28615775  0.71812386  1
  Cu  Cu39  1  0.69254157  0.53944534  0.27796821  1
  Cu  Cu40  1  0.33998645  0.37775153  0.27986692  1
  Cu  Cu41  1  0.58536406  0.41784616  0.00763722  1
  Cu  Cu42  1  0.70621860  0.04634147  0.27315154  1
  Cu  Cu43  1  0.37010873  0.98457487  0.13658417  1
  Cu  Cu44  1  0.41151978  0.48071338  0.13706029  1
  Cu  Cu45  1  0.91365043  0.08690157  0.00663499  1
  Cu  Cu46  1  0.56501280  0.71384225  0.28187614  1
  Cu  Cu47  1  0.16633882  0.72547770  0.55766659  1
  Cu  Cu48  1  0.08104679  0.11539157  0.70570284  1
  Cu  Cu49  1  0.22158521  0.95481418  0.44180474  1
  Cu  Cu50  1  0.64353707  0.45617296  0.42453038  1
  Cu  Cu51  1  0.16756538  0.62938040  0.69875336  1
  Cu  Cu52  1  0.78914259  0.45469372  0.70385946  1
  Cu  Cu53  1  0.74784308  0.14982209  0.13465216  1
  Cu  Cu54  1  0.05243839  0.38875040  0.57924803  1
  Cu  Cu55  1  0.98700695  0.87734415  0.57850286  1
  Cu  Cu56  1  0.71703292  0.95335265  0.41468529  1
  Cu  Cu57  1  0.41463594  0.58215384  0.99236278  1
  Cu  Cu58  1  0.21085741  0.54530628  0.29614054  1
  Cu  Cu59  1  0.35646293  0.54382704  0.57546962  1
  Cu  Cu60  1  0.25215692  0.85017791  0.86534784  1
  Cu  Cu61  1  0.75488726  0.74849545  0.99748388  1
  Cu  Cu62  1  0.05104966  0.32354610  0.13693493  1
  Cu  Cu63  1  0.59168250  0.11682538  0.71884084  1
  Cu  Cu64  1  0.48734845  0.62231528  0.42789981  1
  Cu  Cu65  1  0.08634957  0.91309843  0.99336501  1
  Cu  Cu66  1  0.88822911  0.28981064  0.70125866  1
  Cu  Cu67  1  0.41073034  0.08147746  0.99775501  1
  Cu  Cu68  1  0.52262474  0.21339938  0.28832810  1
  Cu  Cu69  1  0.19914535  0.04808486  0.28601664  1
  Cu  Cu70  1  0.47737526  0.78660062  0.71167190  1
  Cu  Cu71  1  0.83366118  0.27452230  0.44233341  1
  Cu  Cu72  1  0.94895034  0.67645390  0.86306507  1
  Cu  Cu73  1  0.80085465  0.95191514  0.71398336  1
  Cu  Cu74  1  0.28296708  0.04664735  0.58531471  1
  Cu  Cu75  1  0.58926966  0.91852254  0.00224499  1
  Cu  Cu76  1  0.07905814  0.80361591  0.13793955  1
  Cu  Cu77  1  0.01299305  0.12265585  0.42149714  1
  Cu  Cu78  1  0.58456596  0.20263081  0.57472527  1
  Cu  Cu79  1  0.24511274  0.25150455  0.00251612  1
  Cu  Cu80  1  0.77841479  0.04518582  0.55819526  1
  Cu  Cu81  1  0.74777894  0.25092684  0.99195052  1
  Cu  Cu82  1  0.91146527  0.58376501  0.00490335  1
  Cu  Cu83  1  0.41543404  0.79736919  0.42527473  1
  C  C84  1  0.29916296  0.68815227  0.21601491  1
  C  C85  1  0.23904225  0.30224949  0.60101195  1
  C  C86  1  0.36235514  0.47724159  0.03878620  1
  C  C87  1  0.96868929  0.59131241  0.31570628  1
  C  C88  1  0.92029880  0.43110538  0.82393107  1
  C  C89  1  0.39208102  0.78365901  0.32119036  1
  C  C90  1  0.62394661  0.17936004  0.89323590  1
  C  C91  1  0.27766619  0.23405705  0.88346938  1
  C  C92  1  0.31339762  0.05837916  0.68976701  1
  C  C93  1  0.59077960  0.77341751  0.86917945  1
  C  C94  1  0.97690661  0.10523030  0.31065924  1
  C  C95  1  0.26756854  0.48384457  0.89021471  1
  C  C96  1  0.87992509  0.79182597  0.49975578  1
  C  C97  1  0.31540861  0.85451239  0.96314410  1
  C  C98  1  0.42362633  0.90340285  0.39560589  1
  C  C99  1  0.64182968  0.06034019  0.37294977  1
  C  C100  1  0.92690963  0.43332315  0.40212900  1
  C  C101  1  0.38575105  0.56563753  0.68210505  1
  C  C102  1  0.19795109  0.96274042  0.89164094  1
  C  C103  1  0.96911751  0.19333333  0.96097624  1
  C  C104  1  0.55239447  0.63374809  0.88864697  1
  C  C105  1  0.03131071  0.40868759  0.68429372  1
  C  C106  1  0.63764486  0.52275841  0.96121380  1
  C  C107  1  0.35817032  0.93965981  0.62705023  1
  C  C108  1  0.70622377  0.73076721  0.69139382  1
  C  C109  1  0.03088249  0.80666667  0.03902376  1
  C  C110  1  0.60474111  0.39031001  0.88588926  1
  C  C111  1  0.04388860  0.43742850  0.11764927  1
  C  C112  1  0.39738888  0.05626955  0.46420514  1
  C  C113  1  0.30807363  0.35799062  0.96210964  1
  C  C114  1  0.80204891  0.03725958  0.10835906  1
  C  C115  1  0.04002079  0.17836836  0.10346762  1
  C  C116  1  0.98123502  0.77348371  0.61641524  1
  C  C117  1  0.57637367  0.09659715  0.60439411  1
  C  C118  1  0.74116659  0.47550707  0.60114912  1
  C  C119  1  0.10836019  0.76946641  0.40028896  1
  C  C120  1  0.01876498  0.22651629  0.38358476  1
  C  C121  1  0.37605339  0.82063996  0.10676410  1
  C  C122  1  0.59480121  0.82198375  0.22472815  1
  C  C123  1  0.93034859  0.06180533  0.88348240  1
  C  C124  1  0.07309037  0.56667685  0.59787100  1
  C  C125  1  0.43354633  0.68312906  0.77103225  1
  C  C126  1  0.33454822  0.70712904  0.64156258  1
  C  C127  1  0.63955799  0.84913900  0.62776926  1
  C  C128  1  0.95611140  0.56257150  0.88235073  1
  C  C129  1  0.69013463  0.90779808  0.13079472  1
  C  C130  1  0.13917632  0.53262841  0.77514286  1
  C  C131  1  0.65446890  0.35175666  0.66327403  1
  C  C132  1  0.60261112  0.94373045  0.53579486  1
  C  C133  1  0.40922040  0.22658249  0.13082055  1
  C  C134  1  0.66721403  0.90879350  0.88665163  1
  C  C135  1  0.34553110  0.64824334  0.33672597  1
  C  C136  1  0.61424895  0.43436247  0.31789495  1
  C  C137  1  0.07970120  0.56889462  0.17606893  1
  C  C138  1  0.74737326  0.61775751  0.61912914  1
  C  C139  1  0.92415279  0.31503156  0.89578904  1
  C  C140  1  0.02309339  0.89476970  0.68934076  1
  C  C141  1  0.91779354  0.02673470  0.64651137  1
  C  C142  1  0.40519879  0.17801625  0.77527185  1
  C  C143  1  0.31178247  0.83154497  0.54084678  1
  C  C144  1  0.22812076  0.44202037  0.50016939  1
  C  C145  1  0.36044201  0.15086100  0.37223074  1
  C  C146  1  0.30986537  0.09220192  0.86920528  1
  C  C147  1  0.89163981  0.23053359  0.59971104  1
  C  C148  1  0.06316503  0.01185652  0.77612618  1
  C  C149  1  0.75057170  0.28511551  0.12178540  1
  C  C150  1  0.25262674  0.38224249  0.38087086  1
  C  C151  1  0.70083704  0.31184773  0.78398509  1
  C  C152  1  0.12007491  0.20817403  0.50024422  1
  C  C153  1  0.37062626  0.97487090  0.03890901  1
  C  C154  1  0.76095775  0.69775051  0.39898805  1
  C  C155  1  0.03851666  0.31423544  0.03900555  1
  C  C156  1  0.77187924  0.55797963  0.49983061  1
  C  C157  1  0.33285057  0.44237262  0.61735329  1
  C  C158  1  0.39525889  0.60968999  0.11411074  1
  C  C159  1  0.95997921  0.82163164  0.89653238  1
  C  C160  1  0.68459139  0.14548761  0.03685590  1
  C  C161  1  0.07584721  0.68496844  0.10421096  1
  C  C162  1  0.33278597  0.09120650  0.11334837  1
  C  C163  1  0.72233381  0.76594295  0.11653062  1
  C  C164  1  0.21152846  0.15364291  0.22093749  1
  C  C165  1  0.68660238  0.94162084  0.31023299  1
  C  C166  1  0.93683497  0.98814348  0.22387382  1
  C  C167  1  0.96148334  0.68576456  0.96099445  1
  C  C168  1  0.78847154  0.84635709  0.77906251  1
  C  C169  1  0.20578730  0.15937577  0.61841934  1
  C  C170  1  0.60791898  0.21634099  0.67880964  1
  C  C171  1  0.73243146  0.51615543  0.10978529  1
  C  C172  1  0.68821753  0.16845503  0.45915322  1
  C  C173  1  0.06965141  0.93819467  0.11651760  1
  C  C174  1  0.08220646  0.97326530  0.35348863  1
  C  C175  1  0.29377623  0.26923279  0.30860618  1
  C  C176  1  0.66545178  0.29287096  0.35843742  1
  C  C177  1  0.79421270  0.84062423  0.38158066  1
  C  C178  1  0.66714943  0.55762738  0.38264671  1
  C  C179  1  0.56645367  0.31687094  0.22896775  1
  C  C180  1  0.62937374  0.02512910  0.96109099  1
  C  C181  1  0.86082368  0.46737159  0.22485714  1
  C  C182  1  0.44760553  0.36625191  0.11135303  1
  C  C183  1  0.25883341  0.52449293  0.39885088  1
  C  C184  1  0.24942830  0.71488449  0.87821460  1
  C  C185  1  0.69192637  0.64200938  0.03789036  1
