# generated using pymatgen
data_Cu2Ni2C
_symmetry_space_group_name_H-M   'P 1'
_cell_length_a   5.63253906
_cell_length_b   5.63253906
_cell_length_c   6.19785663
_cell_angle_alpha   105.47051433
_cell_angle_beta   105.47051433
_cell_angle_gamma   114.39161700
_symmetry_Int_Tables_number   1
_chemical_formula_structural   Cu2Ni2C
_chemical_formula_sum   'Cu4 Ni4 C2'
_cell_volume   155.87007584
_cell_formula_units_Z   2
loop_
 _symmetry_equiv_pos_site_id
 _symmetry_equiv_pos_as_xyz
  1  'x, y, z'
loop_
 _atom_site_type_symbol
 _atom_site_label
 _atom_site_symmetry_multiplicity
 _atom_site_fract_x
 _atom_site_fract_y
 _atom_site_fract_z
 _atom_site_occupancy
  C  C0  1  0.50000000  0.50000000  0.00000000  1
  C  C1  1  0.75000000  0.25000000  0.50000000  1
  Ni  Ni2  1  0.17398300  0.82601700  0.00000000  1
  Ni  Ni3  1  0.42398300  0.57601700  0.50000000  1
  Ni  Ni4  1  0.82601700  0.17398300  0.00000000  1
  Ni  Ni5  1  0.07601700  0.92398300  0.50000000  1
  Cu  Cu6  1  0.86914700  0.86914700  0.73829400  1
  Cu  Cu7  1  0.11914700  0.61914700  0.23829400  1
  Cu  Cu8  1  0.38085300  0.88085300  0.76170600  1
  Cu  Cu9  1  0.13085300  0.13085300  0.26170600  1
