# generated using pymatgen
data_Cu2Ni2C5
_symmetry_space_group_name_H-M   'P 1'
_cell_length_a   11.05456500
_cell_length_b   6.81902400
_cell_length_c   9.80828426
_cell_angle_alpha   47.07981183
_cell_angle_beta   90.00000000
_cell_angle_gamma   90.00000000
_symmetry_Int_Tables_number   1
_chemical_formula_structural   Cu2Ni2C5
_chemical_formula_sum   'Cu8 Ni8 C20'
_cell_volume   541.43675546
_cell_formula_units_Z   4
loop_
 _symmetry_equiv_pos_site_id
 _symmetry_equiv_pos_as_xyz
  1  'x, y, z'
loop_
 _atom_site_type_symbol
 _atom_site_label
 _atom_site_symmetry_multiplicity
 _atom_site_fract_x
 _atom_site_fract_y
 _atom_site_fract_z
 _atom_site_occupancy
  C  C0  1  0.78339500  0.10548900  0.85390300  1
  C  C1  1  0.71660500  0.10548900  0.35390300  1
  C  C2  1  0.21660500  0.89451100  0.14609700  1
  C  C3  1  0.28339500  0.89451100  0.64609700  1
  C  C4  1  0.56092200  0.52805100  0.61839000  1
  C  C5  1  0.93907800  0.52805100  0.11839000  1
  C  C6  1  0.43907800  0.47194900  0.38161000  1
  C  C7  1  0.06092200  0.47194900  0.88161000  1
  C  C8  1  0.62526800  0.56640700  0.45707800  1
  C  C9  1  0.87473200  0.56640700  0.95707800  1
  C  C10  1  0.37473200  0.43359300  0.54292200  1
  C  C11  1  0.12526800  0.43359300  0.04292200  1
  C  C12  1  0.63752700  0.50421200  0.90049100  1
  C  C13  1  0.86247300  0.50421200  0.40049100  1
  C  C14  1  0.36247300  0.49578800  0.09950900  1
  C  C15  1  0.13752700  0.49578800  0.59950900  1
  C  C16  1  0.56418200  0.23957000  0.01174300  1
  C  C17  1  0.93581800  0.23957000  0.51174300  1
  C  C18  1  0.43581800  0.76043000  0.98825700  1
  C  C19  1  0.06418200  0.76043000  0.48825700  1
  Ni  Ni20  1  0.58144300  0.92746000  0.70812800  1
  Ni  Ni21  1  0.91855700  0.92746000  0.20812800  1
  Ni  Ni22  1  0.41855700  0.07254000  0.29187200  1
  Ni  Ni23  1  0.08144300  0.07254000  0.79187200  1
  Ni  Ni24  1  0.60328300  0.65775500  0.20084000  1
  Ni  Ni25  1  0.89671700  0.65775500  0.70084000  1
  Ni  Ni26  1  0.39671700  0.34224500  0.79916000  1
  Ni  Ni27  1  0.10328300  0.34224500  0.29916000  1
  Cu  Cu28  1  0.64017500  0.56353700  0.55858400  1
  Cu  Cu29  1  0.85982500  0.56353700  0.05858400  1
  Cu  Cu30  1  0.35982500  0.43646300  0.44141600  1
  Cu  Cu31  1  0.14017500  0.43646300  0.94141600  1
  Cu  Cu32  1  0.64697800  0.30649500  0.99310400  1
  Cu  Cu33  1  0.85302200  0.30649500  0.49310400  1
  Cu  Cu34  1  0.35302200  0.69350500  0.00689600  1
  Cu  Cu35  1  0.14697800  0.69350500  0.50689600  1
