# generated using pymatgen
data_Cu14Ni2C63
_symmetry_space_group_name_H-M   'P 1'
_cell_length_a   5.53601100
_cell_length_b   9.68122116
_cell_length_c   18.53673074
_cell_angle_alpha   100.36556893
_cell_angle_beta   90.69256806
_cell_angle_gamma   90.57890830
_symmetry_Int_Tables_number   1
_chemical_formula_structural   Cu14Ni2C63
_chemical_formula_sum   'Cu14 Ni2 C63'
_cell_volume   977.12111982
_cell_formula_units_Z   1
loop_
 _symmetry_equiv_pos_site_id
 _symmetry_equiv_pos_as_xyz
  1  'x, y, z'
loop_
 _atom_site_type_symbol
 _atom_site_label
 _atom_site_symmetry_multiplicity
 _atom_site_fract_x
 _atom_site_fract_y
 _atom_site_fract_z
 _atom_site_occupancy
  C  C0  1  0.48932900  0.17436200  0.06276600  1
  C  C1  1  0.99506700  0.43688400  0.31118700  1
  C  C2  1  0.01688100  0.69661200  0.06279600  1
  C  C3  1  0.50026500  0.68785500  0.56336800  1
  C  C4  1  0.49797500  0.94039000  0.31299200  1
  C  C5  1  0.48784500  0.57004700  0.19502200  1
  C  C6  1  0.00298600  0.93612800  0.81196800  1
  C  C7  1  0.00022000  0.18738100  0.56260600  1
  C  C8  1  0.99745200  0.06614500  0.18839900  1
  C  C9  1  0.00138800  0.81282800  0.43717300  1
  C  C10  1  0.49956800  0.43748100  0.81018000  1
  C  C11  1  0.50078700  0.06279400  0.68844000  1
  C  C12  1  0.49849800  0.31288600  0.43715100  1
  C  C13  1  0.99773100  0.31126700  0.93636400  1
  C  C14  1  0.99999400  0.56304800  0.68782700  1
  C  C15  1  0.50192500  0.80892700  0.93771700  1
  Ni  Ni16  1  0.02221100  0.36859300  0.12783300  1
  Ni  Ni17  1  0.48192100  0.50339200  0.99349900  1
  Cu  Cu18  1  0.99602500  0.00249200  0.99847400  1
  Cu  Cu19  1  0.49865500  0.62558400  0.37693200  1
  Cu  Cu20  1  0.50720600  0.87280900  0.12547200  1
  Cu  Cu21  1  0.00000200  0.87518900  0.62474600  1
  Cu  Cu22  1  0.00024900  0.12568900  0.37526600  1
  Cu  Cu23  1  0.99213500  0.75084700  0.24986100  1
  Cu  Cu24  1  0.50360200  0.12566800  0.87696300  1
  Cu  Cu25  1  0.50043200  0.37468200  0.62444200  1
  Cu  Cu26  1  0.50029600  0.00047500  0.50045100  1
  Cu  Cu27  1  0.50236500  0.24830600  0.24873100  1
  Cu  Cu28  1  0.99976900  0.62320600  0.87555300  1
  Cu  Cu29  1  0.00011400  0.24994800  0.75005900  1
  Cu  Cu30  1  0.99934700  0.50001900  0.50018600  1
  Cu  Cu31  1  0.49928400  0.75074600  0.75018500  1
  C  C32  1  0.77338300  0.27999000  0.18506100  1
  C  C33  1  0.96480600  0.54944000  0.20167200  1
  C  C34  1  0.98693300  0.20532100  0.04254800  1
  C  C35  1  0.21674900  0.95510100  0.07993000  1
  C  C36  1  0.21360000  0.69903500  0.32675100  1
  C  C37  1  0.21571500  0.47839200  0.06555000  1
  C  C38  1  0.28424000  0.52803800  0.43805900  1
  C  C39  1  0.28619500  0.77808100  0.18919000  1
  C  C40  1  0.28807800  0.28715100  0.17319300  1
  C  C41  1  0.49688000  0.79507000  0.45505000  1
  C  C42  1  0.50428200  0.04182100  0.20496200  1
  C  C43  1  0.49592500  0.45637700  0.29639700  1
  C  C44  1  0.51565000  0.70332200  0.04957600  1
  C  C45  1  0.71436100  0.95491800  0.58004600  1
  C  C46  1  0.71699000  0.20667000  0.32917500  1
  C  C47  1  0.70886600  0.72449700  0.31346300  1
  C  C48  1  0.71795700  0.97015600  0.06223400  1
  C  C49  1  0.78461500  0.77789800  0.68759300  1
  C  C50  1  0.78447200  0.02717900  0.43728600  1
  C  C51  1  0.79125200  0.80045800  0.17091600  1
  C  C52  1  0.78623700  0.54477300  0.41940700  1
  C  C53  1  0.00101100  0.04564900  0.70484400  1
  C  C54  1  0.99899300  0.29497900  0.45505700  1
  C  C55  1  0.99840500  0.70548600  0.54449600  1
  C  C56  1  0.00031000  0.95568600  0.29587100  1
  C  C57  1  0.21482100  0.45517300  0.57993900  1
  C  C58  1  0.22188000  0.20687900  0.83051600  1
  C  C59  1  0.21398900  0.97209600  0.56189100  1
  C  C60  1  0.21598300  0.22244900  0.31335900  1
  C  C61  1  0.28490500  0.27796500  0.68746000  1
  C  C62  1  0.28684400  0.02725300  0.93811100  1
  C  C63  1  0.28495700  0.79567100  0.66930700  1
  C  C64  1  0.28453000  0.04478000  0.42044400  1
  C  C65  1  0.50075500  0.54556700  0.70389600  1
  C  C66  1  0.51891100  0.29212800  0.96077900  1
  C  C67  1  0.49911000  0.20524400  0.54452300  1
  C  C68  1  0.49887900  0.95497500  0.79477500  1
  C  C69  1  0.71267100  0.70206700  0.83061700  1
  C  C70  1  0.71469800  0.47242700  0.56206200  1
  C  C71  1  0.71743600  0.22216100  0.81311500  1
  C  C72  1  0.80145900  0.52831000  0.94301300  1
  C  C73  1  0.78372000  0.29367400  0.66943900  1
  C  C74  1  0.78333800  0.03743100  0.91762400  1
  C  C75  1  0.00360500  0.79741600  0.95438700  1
  C  C76  1  0.99312800  0.45380900  0.79390200  1
  C  C77  1  0.21083700  0.72231600  0.80963000  1
  C  C78  1  0.28961900  0.55279100  0.91402400  1
