# generated using pymatgen
data_Cu(Ni3C2)3
_symmetry_space_group_name_H-M   'P 1'
_cell_length_a   5.16264200
_cell_length_b   6.69905000
_cell_length_c   13.29881696
_cell_angle_alpha   77.30254131
_cell_angle_beta   90.00000000
_cell_angle_gamma   90.00000000
_symmetry_Int_Tables_number   1
_chemical_formula_structural   Cu(Ni3C2)3
_chemical_formula_sum   'Cu2 Ni18 C12'
_cell_volume   448.68880216
_cell_formula_units_Z   2
loop_
 _symmetry_equiv_pos_site_id
 _symmetry_equiv_pos_as_xyz
  1  'x, y, z'
loop_
 _atom_site_type_symbol
 _atom_site_label
 _atom_site_symmetry_multiplicity
 _atom_site_fract_x
 _atom_site_fract_y
 _atom_site_fract_z
 _atom_site_occupancy
  C  C0  1  0.25000000  0.27339800  0.41652500  1
  C  C1  1  0.25000000  0.21459000  0.07500600  1
  C  C2  1  0.75000000  0.72660200  0.58347500  1
  C  C3  1  0.75000000  0.78541000  0.92499400  1
  C  C4  1  0.75000000  0.77175800  0.23920600  1
  C  C5  1  0.25000000  0.22824200  0.76079400  1
  C  C6  1  0.25000000  0.66813800  0.12882200  1
  C  C7  1  0.25000000  0.78543100  0.72704000  1
  C  C8  1  0.75000000  0.21456900  0.27296000  1
  C  C9  1  0.25000000  0.74648500  0.42611800  1
  C  C10  1  0.75000000  0.25351500  0.57388200  1
  C  C11  1  0.75000000  0.33186200  0.87117800  1
  Ni  Ni12  1  0.03161000  0.67992500  0.39641400  1
  Ni  Ni13  1  0.03405100  0.87901100  0.73718000  1
  Ni  Ni14  1  0.25000000  0.86436100  0.49062500  1
  Ni  Ni15  1  0.53161000  0.32007500  0.60358600  1
  Ni  Ni16  1  0.96944800  0.40122300  0.89555100  1
  Ni  Ni17  1  0.46594900  0.87901100  0.73718000  1
  Ni  Ni18  1  0.03055200  0.59877700  0.10444900  1
  Ni  Ni19  1  0.25000000  0.80757700  0.18404000  1
  Ni  Ni20  1  0.96839000  0.32007500  0.60358600  1
  Ni  Ni21  1  0.96594900  0.12098900  0.26282000  1
  Ni  Ni22  1  0.25000000  0.60890100  0.70258300  1
  Ni  Ni23  1  0.46944800  0.59877700  0.10444900  1
  Ni  Ni24  1  0.75000000  0.13563900  0.50937500  1
  Ni  Ni25  1  0.75000000  0.19242300  0.81596000  1
  Ni  Ni26  1  0.53405100  0.12098900  0.26282000  1
  Ni  Ni27  1  0.53055200  0.40122300  0.89555100  1
  Ni  Ni28  1  0.46839000  0.67992500  0.39641400  1
  Ni  Ni29  1  0.75000000  0.39109900  0.29741700  1
  Cu  Cu30  1  0.75000000  0.01423500  0.07435200  1
  Cu  Cu31  1  0.25000000  0.98576500  0.92564800  1
