# generated using pymatgen
data_Cu2NiC4
_symmetry_space_group_name_H-M   'P 1'
_cell_length_a   5.91499792
_cell_length_b   5.91418543
_cell_length_c   5.91598213
_cell_angle_alpha   60.00870289
_cell_angle_beta   60.01420954
_cell_angle_gamma   60.00249365
_symmetry_Int_Tables_number   1
_chemical_formula_structural   Cu2NiC4
_chemical_formula_sum   'Cu4 Ni2 C8'
_cell_volume   146.36753356
_cell_formula_units_Z   2
loop_
 _symmetry_equiv_pos_site_id
 _symmetry_equiv_pos_as_xyz
  1  'x, y, z'
loop_
 _atom_site_type_symbol
 _atom_site_label
 _atom_site_symmetry_multiplicity
 _atom_site_fract_x
 _atom_site_fract_y
 _atom_site_fract_z
 _atom_site_occupancy
  Ni  Ni0  1  0.12527100  0.12478100  0.12517300  1
  Ni  Ni1  1  0.87472500  0.87522400  0.87482900  1
  Cu  Cu2  1  0.50000100  0.50000000  0.00000100  1
  Cu  Cu3  1  0.99999900  0.49999700  0.49999800  1
  Cu  Cu4  1  0.50000100  0.00000000  0.49999900  1
  Cu  Cu5  1  0.50000300  0.49999800  0.50000400  1
  C  C6  1  0.27305600  0.74243200  0.74208300  1
  C  C7  1  0.25759600  0.72757600  0.25758500  1
  C  C8  1  0.72694300  0.25756800  0.25791700  1
  C  C9  1  0.25759400  0.25724400  0.25757700  1
  C  C10  1  0.25790700  0.25755500  0.72698900  1
  C  C11  1  0.74240500  0.27242400  0.74241400  1
  C  C12  1  0.74209300  0.74244500  0.27301000  1
  C  C13  1  0.74240600  0.74275600  0.74242200  1
