# generated using pymatgen
data_Cu3(Ni2C)2
_symmetry_space_group_name_H-M   'P 1'
_cell_length_a   6.95894900
_cell_length_b   9.94723300
_cell_length_c   16.75924100
_cell_angle_alpha   90.00000000
_cell_angle_beta   90.00000000
_cell_angle_gamma   90.00000000
_symmetry_Int_Tables_number   1
_chemical_formula_structural   Cu3(Ni2C)2
_chemical_formula_sum   'Cu12 Ni16 C8'
_cell_volume   1160.11299272
_cell_formula_units_Z   4
loop_
 _symmetry_equiv_pos_site_id
 _symmetry_equiv_pos_as_xyz
  1  'x, y, z'
loop_
 _atom_site_type_symbol
 _atom_site_label
 _atom_site_symmetry_multiplicity
 _atom_site_fract_x
 _atom_site_fract_y
 _atom_site_fract_z
 _atom_site_occupancy
  Ni  Ni0  1  0.45333500  0.47838000  0.35092000  1
  Ni  Ni1  1  0.04666500  0.97838000  0.35092000  1
  Ni  Ni2  1  0.80945300  0.13267600  0.75000000  1
  Ni  Ni3  1  0.30945300  0.36732400  0.25000000  1
  Ni  Ni4  1  0.95333500  0.02162000  0.64908000  1
  Ni  Ni5  1  0.24305800  0.24413200  0.75000000  1
  Ni  Ni6  1  0.54666500  0.52162000  0.64908000  1
  Ni  Ni7  1  0.54666500  0.52162000  0.85092000  1
  Ni  Ni8  1  0.74305800  0.25586800  0.25000000  1
  Ni  Ni9  1  0.25694200  0.74413200  0.75000000  1
  Ni  Ni10  1  0.95333500  0.02162000  0.85092000  1
  Ni  Ni11  1  0.45333500  0.47838000  0.14908000  1
  Ni  Ni12  1  0.75694200  0.75586800  0.25000000  1
  Ni  Ni13  1  0.69054700  0.63267600  0.75000000  1
  Ni  Ni14  1  0.19054700  0.86732400  0.25000000  1
  Ni  Ni15  1  0.04666500  0.97838000  0.14908000  1
  Cu  Cu16  1  0.76643200  0.88928600  0.14974700  1
  Cu  Cu17  1  0.73356800  0.38928600  0.14974700  1
  Cu  Cu18  1  0.23356800  0.11071400  0.85025300  1
  Cu  Cu19  1  0.54142300  0.81815200  0.75000000  1
  Cu  Cu20  1  0.26643200  0.61071400  0.85025300  1
  Cu  Cu21  1  0.76643200  0.88928600  0.35025300  1
  Cu  Cu22  1  0.04142300  0.68184800  0.25000000  1
  Cu  Cu23  1  0.26643200  0.61071400  0.64974700  1
  Cu  Cu24  1  0.73356800  0.38928600  0.35025300  1
  Cu  Cu25  1  0.95857700  0.31815200  0.75000000  1
  Cu  Cu26  1  0.45857700  0.18184800  0.25000000  1
  Cu  Cu27  1  0.23356800  0.11071400  0.64974700  1
  C  C28  1  0.72204000  0.64551100  0.95844200  1
  C  C29  1  0.27796000  0.35448900  0.04155800  1
  C  C30  1  0.27796000  0.35448900  0.45844200  1
  C  C31  1  0.77796000  0.14551100  0.95844200  1
  C  C32  1  0.77796000  0.14551100  0.54155800  1
  C  C33  1  0.22204000  0.85448900  0.04155800  1
  C  C34  1  0.22204000  0.85448900  0.45844200  1
  C  C35  1  0.72204000  0.64551100  0.54155800  1
