# generated using pymatgen
data_Cu(NiC2)2
_symmetry_space_group_name_H-M   'P 1'
_cell_length_a   7.41906336
_cell_length_b   7.41906336
_cell_length_c   7.41906336
_cell_angle_alpha   109.48989481
_cell_angle_beta   109.48989481
_cell_angle_gamma   109.43387874
_symmetry_Int_Tables_number   1
_chemical_formula_structural   Cu(NiC2)2
_chemical_formula_sum   'Cu2 Ni4 C8'
_cell_volume   314.35850219
_cell_formula_units_Z   2
loop_
 _symmetry_equiv_pos_site_id
 _symmetry_equiv_pos_as_xyz
  1  'x, y, z'
loop_
 _atom_site_type_symbol
 _atom_site_label
 _atom_site_symmetry_multiplicity
 _atom_site_fract_x
 _atom_site_fract_y
 _atom_site_fract_z
 _atom_site_occupancy
  Ni  Ni0  1  0.74821500  0.12500000  0.12321500  1
  Ni  Ni1  1  0.37500000  0.25178500  0.37678500  1
  Ni  Ni2  1  0.00178500  0.62500000  0.87678500  1
  Ni  Ni3  1  0.87500000  0.99821500  0.62321500  1
  Cu  Cu4  1  0.50000000  0.50000000  0.00000000  1
  Cu  Cu5  1  0.25000000  0.75000000  0.50000000  1
  C  C6  1  0.26796900  0.01912500  0.90072400  1
  C  C7  1  0.76912500  0.51796900  0.40072400  1
  C  C8  1  0.48203100  0.88275500  0.25115600  1
  C  C9  1  0.63275500  0.73203100  0.75115600  1
  C  C10  1  0.11724500  0.36840100  0.59927600  1
  C  C11  1  0.63159900  0.23087500  0.74884400  1
  C  C12  1  0.98087500  0.88159900  0.24884400  1
  C  C13  1  0.11840100  0.36724500  0.09927600  1
