# generated using pymatgen
data_Cu(NiC)3
_symmetry_space_group_name_H-M   'P 1'
_cell_length_a   6.47228600
_cell_length_b   8.50548000
_cell_length_c   11.20680900
_cell_angle_alpha   90.00000000
_cell_angle_beta   90.00000000
_cell_angle_gamma   90.00000000
_symmetry_Int_Tables_number   1
_chemical_formula_structural   Cu(NiC)3
_chemical_formula_sum   'Cu4 Ni12 C12'
_cell_volume   616.93370499
_cell_formula_units_Z   4
loop_
 _symmetry_equiv_pos_site_id
 _symmetry_equiv_pos_as_xyz
  1  'x, y, z'
loop_
 _atom_site_type_symbol
 _atom_site_label
 _atom_site_symmetry_multiplicity
 _atom_site_fract_x
 _atom_site_fract_y
 _atom_site_fract_z
 _atom_site_occupancy
  C  C0  1  0.25000000  0.00073100  0.28555700  1
  C  C1  1  0.75000000  0.99926900  0.71444300  1
  C  C2  1  0.25000000  0.50073100  0.21444300  1
  C  C3  1  0.75000000  0.49926900  0.78555700  1
  C  C4  1  0.25000000  0.17531800  0.91779100  1
  C  C5  1  0.75000000  0.82468200  0.08220900  1
  C  C6  1  0.25000000  0.67531800  0.58220900  1
  C  C7  1  0.75000000  0.32468200  0.41779100  1
  C  C8  1  0.25000000  0.24754400  0.58349500  1
  C  C9  1  0.75000000  0.75245600  0.41650500  1
  C  C10  1  0.25000000  0.74754400  0.91650500  1
  C  C11  1  0.75000000  0.25245600  0.08349500  1
  Ni  Ni12  1  0.75000000  0.70068300  0.54693000  1
  Ni  Ni13  1  0.25000000  0.29931700  0.45307000  1
  Ni  Ni14  1  0.25000000  0.79931700  0.04693000  1
  Ni  Ni15  1  0.75000000  0.20068300  0.95307000  1
  Ni  Ni16  1  0.55081600  0.71863600  0.34866200  1
  Ni  Ni17  1  0.05081600  0.28136400  0.65133800  1
  Ni  Ni18  1  0.94918400  0.21863600  0.15133800  1
  Ni  Ni19  1  0.44918400  0.78136400  0.84866200  1
  Ni  Ni20  1  0.44918400  0.28136400  0.65133800  1
  Ni  Ni21  1  0.94918400  0.71863600  0.34866200  1
  Ni  Ni22  1  0.05081600  0.78136400  0.84866200  1
  Ni  Ni23  1  0.55081600  0.21863600  0.15133800  1
  Cu  Cu24  1  0.75000000  0.44998800  0.07387800  1
  Cu  Cu25  1  0.25000000  0.55001200  0.92612200  1
  Cu  Cu26  1  0.25000000  0.05001200  0.57387800  1
  Cu  Cu27  1  0.75000000  0.94998800  0.42612200  1
