# generated using pymatgen
data_Cu(NiC2)2
_symmetry_space_group_name_H-M   'P 1'
_cell_length_a   6.00262400
_cell_length_b   5.98753792
_cell_length_c   29.98170199
_cell_angle_alpha   59.84726648
_cell_angle_beta   59.67897706
_cell_angle_gamma   59.86266654
_symmetry_Int_Tables_number   1
_chemical_formula_structural   Cu(NiC2)2
_chemical_formula_sum   'Cu10 Ni20 C40'
_cell_volume   758.42915793
_cell_formula_units_Z   10
loop_
 _symmetry_equiv_pos_site_id
 _symmetry_equiv_pos_as_xyz
  1  'x, y, z'
loop_
 _atom_site_type_symbol
 _atom_site_label
 _atom_site_symmetry_multiplicity
 _atom_site_fract_x
 _atom_site_fract_y
 _atom_site_fract_z
 _atom_site_occupancy
  Ni  Ni0  1  0.25073600  0.24779300  0.05082200  1
  Ni  Ni1  1  0.12203300  0.62780700  0.12450900  1
  Ni  Ni2  1  0.62756500  0.12301600  0.12441800  1
  Ni  Ni3  1  0.99330100  0.99303800  0.40130300  1
  Ni  Ni4  1  0.25189700  0.25225300  0.25041200  1
  Ni  Ni5  1  0.62755000  0.62741900  0.12450800  1
  Ni  Ni6  1  0.25553200  0.25676800  0.44845400  1
  Ni  Ni7  1  0.62466400  0.62478700  0.22499300  1
  Ni  Ni8  1  0.99337000  0.99252600  0.60166800  1
  Ni  Ni9  1  0.62825600  0.62820500  0.32453500  1
  Ni  Ni10  1  0.99494300  0.99584600  0.79983700  1
  Ni  Ni11  1  0.25566800  0.25582300  0.64942400  1
  Ni  Ni12  1  0.62393300  0.62634300  0.42537300  1
  Ni  Ni13  1  0.62459200  0.62484800  0.52507300  1
  Ni  Ni14  1  0.62572600  0.62487500  0.62516000  1
  Ni  Ni15  1  0.25897900  0.24913300  0.84915300  1
  Ni  Ni16  1  0.62400800  0.62453300  0.72549300  1
  Ni  Ni17  1  0.62774300  0.11669200  0.92691800  1
  Ni  Ni18  1  0.62507900  0.62269600  0.82453600  1
  Ni  Ni19  1  0.62702700  0.62224900  0.92659700  1
  Cu  Cu20  1  0.99918900  0.00481200  0.99825200  1
  Cu  Cu21  1  0.99803100  0.99743500  0.20179400  1
  Cu  Cu22  1  0.62722100  0.62626500  0.02390400  1
  Cu  Cu23  1  0.12426400  0.62584100  0.32463600  1
  Cu  Cu24  1  0.62580900  0.12431600  0.32462300  1
  Cu  Cu25  1  0.12505900  0.62510100  0.52492100  1
  Cu  Cu26  1  0.62507600  0.12518300  0.52489800  1
  Cu  Cu27  1  0.12249800  0.62469400  0.72552600  1
  Cu  Cu28  1  0.62424400  0.12211100  0.72567600  1
  Cu  Cu29  1  0.12060200  0.62515900  0.92608400  1
  C  C30  1  0.37575100  0.37650000  0.07871400  1
  C  C31  1  0.37624300  0.85298700  0.07876900  1
  C  C32  1  0.38385100  0.38496100  0.16986400  1
  C  C33  1  0.85525400  0.37621900  0.07851500  1
  C  C34  1  0.38871500  0.38824700  0.27294300  1
  C  C35  1  0.40485200  0.86871400  0.17251000  1
  C  C36  1  0.86876800  0.40505800  0.17243100  1
  C  C37  1  0.38692500  0.38809900  0.36994600  1
  C  C38  1  0.86401300  0.86664500  0.08026800  1
  C  C39  1  0.39077500  0.85936400  0.27425600  1
  C  C40  1  0.85917500  0.39072500  0.27413100  1
  C  C41  1  0.86583500  0.86684500  0.17158600  1
  C  C42  1  0.38684200  0.38587700  0.47459300  1
  C  C43  1  0.39008900  0.86302600  0.37476400  1
  C  C44  1  0.86273600  0.39011900  0.37481000  1
  C  C45  1  0.39215700  0.39256500  0.57010800  1
  C  C46  1  0.86226300  0.86140100  0.28100800  1
  C  C47  1  0.38261800  0.86209300  0.47457400  1
  C  C48  1  0.85762300  0.38792900  0.47531100  1
  C  C49  1  0.86422200  0.86487400  0.37518600  1
  C  C50  1  0.39212500  0.86218800  0.57497900  1
  C  C51  1  0.38491700  0.38462600  0.67550500  1
  C  C52  1  0.86709400  0.38789900  0.57581000  1
  C  C53  1  0.85666300  0.85628400  0.48023800  1
  C  C54  1  0.38962100  0.38951800  0.77077500  1
  C  C55  1  0.38978600  0.85557200  0.67680400  1
  C  C56  1  0.85320600  0.39344400  0.67714800  1
  C  C57  1  0.86368100  0.86490200  0.57505400  1
  C  C58  1  0.39510800  0.38456800  0.87439700  1
  C  C59  1  0.40092600  0.85005800  0.77447400  1
  C  C60  1  0.85337000  0.39931900  0.77438100  1
  C  C61  1  0.85762600  0.85730800  0.68074900  1
  C  C62  1  0.38309000  0.37725700  0.97284600  1
  C  C63  1  0.39408600  0.84970600  0.87389000  1
  C  C64  1  0.85212200  0.38545600  0.87471900  1
  C  C65  1  0.85769600  0.85784200  0.77681500  1
  C  C66  1  0.40532900  0.87188900  0.97046300  1
  C  C67  1  0.85924200  0.40357600  0.97256400  1
  C  C68  1  0.86365100  0.87384300  0.87749500  1
  C  C69  1  0.85736000  0.87493000  0.97310400  1
