# generated using pymatgen
data_Cu6Ni2C3
_symmetry_space_group_name_H-M   'P 1'
_cell_length_a   6.94497895
_cell_length_b   6.94497895
_cell_length_c   6.94497903
_cell_angle_alpha   46.14323268
_cell_angle_beta   46.14323268
_cell_angle_gamma   46.14323142
_symmetry_Int_Tables_number   1
_chemical_formula_structural   Cu6Ni2C3
_chemical_formula_sum   'Cu6 Ni2 C3'
_cell_volume   158.91374270
_cell_formula_units_Z   1
loop_
 _symmetry_equiv_pos_site_id
 _symmetry_equiv_pos_as_xyz
  1  'x, y, z'
loop_
 _atom_site_type_symbol
 _atom_site_label
 _atom_site_symmetry_multiplicity
 _atom_site_fract_x
 _atom_site_fract_y
 _atom_site_fract_z
 _atom_site_occupancy
  C  C0  1  0.21002200  0.21002200  0.21002200  1
  C  C1  1  0.78997800  0.78997800  0.78997800  1
  C  C2  1  0.00000000  0.00000000  0.00000000  1
  Ni  Ni3  1  0.58911300  0.58911300  0.58911300  1
  Ni  Ni4  1  0.41088700  0.41088700  0.41088700  1
  Cu  Cu5  1  0.27337100  0.68755600  0.27337100  1
  Cu  Cu6  1  0.27337100  0.27337100  0.68755600  1
  Cu  Cu7  1  0.68755600  0.27337100  0.27337100  1
  Cu  Cu8  1  0.31244400  0.72662900  0.72662900  1
  Cu  Cu9  1  0.72662900  0.72662900  0.31244400  1
  Cu  Cu10  1  0.72662900  0.31244400  0.72662900  1
