# generated using pymatgen
data_CuNi3C5
_symmetry_space_group_name_H-M   'P 1'
_cell_length_a   14.60548776
_cell_length_b   14.60548793
_cell_length_c   18.86077235
_cell_angle_alpha   90.00000000
_cell_angle_beta   90.00000000
_cell_angle_gamma   119.99999962
_symmetry_Int_Tables_number   1
_chemical_formula_structural   CuNi3C5
_chemical_formula_sum   'Cu18 Ni54 C90'
_cell_volume   3484.35376059
_cell_formula_units_Z   18
loop_
 _symmetry_equiv_pos_site_id
 _symmetry_equiv_pos_as_xyz
  1  'x, y, z'
loop_
 _atom_site_type_symbol
 _atom_site_label
 _atom_site_symmetry_multiplicity
 _atom_site_fract_x
 _atom_site_fract_y
 _atom_site_fract_z
 _atom_site_occupancy
  C  C0  1  0.15633256  0.07816628  0.75942296  1
  C  C1  1  0.82295924  0.41147962  0.40697326  1
  C  C2  1  0.49503063  0.74751532  0.09331714  1
  C  C3  1  0.85104750  0.92552375  0.91764530  1
  C  C4  1  0.24685605  0.49371211  0.41880494  1
  C  C5  1  0.33280907  0.32624965  0.16711323  1
  C  C6  1  0.57921507  0.42078493  0.74793707  1
  C  C7  1  0.25949786  0.51899572  0.75682081  1
  C  C8  1  0.66495543  0.66495543  0.00000000  1
  C  C9  1  0.32624965  0.99344058  0.83288677  1
  C  C10  1  0.92183372  0.07816628  0.75942296  1
  C  C11  1  0.99344058  0.66719093  0.16711323  1
  C  C12  1  0.74050214  0.48100428  0.24317919  1
  C  C13  1  0.66140378  0.00000000  0.50000000  1
  C  C14  1  0.00000000  0.33504457  0.00000000  1
  C  C15  1  1.00000000  0.66140378  0.50000000  1
  C  C16  1  0.41147962  0.58852038  0.59302674  1
  C  C17  1  0.07447625  0.92552375  0.91764530  1
  C  C18  1  0.74751532  0.49503063  0.90668286  1
  C  C19  1  0.07816628  0.15633256  0.24057704  1
  C  C20  1  0.84205711  0.92102856  0.57352397  1
  C  C21  1  0.92183372  0.84366744  0.75942296  1
  C  C22  1  0.66495543  0.00000000  0.00000000  1
  C  C23  1  0.58852038  0.17704076  0.40697326  1
  C  C24  1  0.25949786  0.74050214  0.75682081  1
  C  C25  1  0.07897144  0.92102856  0.57352397  1
  C  C26  1  0.58852038  0.41147962  0.40697326  1
  C  C27  1  0.92552375  0.07447625  0.08235470  1
  C  C28  1  0.25248468  0.74751532  0.09331714  1
  C  C29  1  0.32276809  0.32349806  0.33246908  1
  C  C30  1  0.49371211  0.24685605  0.58119506  1
  C  C31  1  0.33504457  0.33504457  0.00000000  1
  C  C32  1  1.00000000  0.66495543  0.00000000  1
  C  C33  1  0.66140378  0.66140378  0.50000000  1
  C  C34  1  0.32624965  0.33280907  0.83288677  1
  C  C35  1  0.67723191  0.67650194  0.66753092  1
  C  C36  1  0.07816628  0.92183372  0.24057704  1
  C  C37  1  0.41132482  0.58867518  0.92081368  1
  C  C38  1  0.33859622  0.33859622  0.50000000  1
  C  C39  1  0.48100428  0.74050214  0.75682081  1
  C  C40  1  0.07897144  0.15794289  0.57352397  1
  C  C41  1  0.99344058  0.32624965  0.16711323  1
  C  C42  1  0.84366744  0.92183372  0.24057704  1
  C  C43  1  0.75314395  0.24685605  0.58119506  1
  C  C44  1  0.24685605  0.75314395  0.41880494  1
  C  C45  1  0.25248468  0.50496937  0.09331714  1
  C  C46  1  0.92552375  0.85104750  0.08235470  1
  C  C47  1  0.00072997  0.32349806  0.33246908  1
  C  C48  1  0.99927003  0.32276809  0.66753092  1
  C  C49  1  0.15794289  0.07897144  0.42647603  1
  C  C50  1  0.17735037  0.58867518  0.92081368  1
  C  C51  1  0.00655942  0.33280907  0.83288677  1
  C  C52  1  0.67650194  0.67723191  0.33246908  1
  C  C53  1  0.66719093  0.67375035  0.83288677  1
  C  C54  1  0.50628789  0.75314395  0.41880494  1
  C  C55  1  0.67723191  0.00072997  0.66753092  1
  C  C56  1  0.51899572  0.25949786  0.24317919  1
  C  C57  1  0.32349806  0.32276809  0.66753092  1
  C  C58  1  0.17704076  0.58852038  0.59302674  1
  C  C59  1  0.92102856  0.07897144  0.42647603  1
  C  C60  1  0.75314395  0.50628789  0.58119506  1
  C  C61  1  0.00072997  0.67723191  0.33246908  1
  C  C62  1  0.14895250  0.07447625  0.08235470  1
  C  C63  1  0.33504457  0.00000000  0.00000000  1
  C  C64  1  0.58867518  0.17735037  0.07918632  1
  C  C65  1  0.00000000  0.33859622  0.50000000  1
  C  C66  1  0.42078493  0.84156987  0.25206293  1
  C  C67  1  0.32276809  0.99927003  0.33246908  1
  C  C68  1  0.84156987  0.42078493  0.74793707  1
  C  C69  1  0.50496937  0.25248468  0.90668286  1
  C  C70  1  0.67375035  0.66719093  0.16711323  1
  C  C71  1  0.33859622  0.00000000  0.50000000  1
  C  C72  1  0.41132482  0.82264963  0.92081368  1
  C  C73  1  0.07447625  0.14895250  0.91764530  1
  C  C74  1  0.67650194  0.99927003  0.33246908  1
  C  C75  1  0.82264963  0.41132482  0.07918632  1
  C  C76  1  0.99927003  0.67650194  0.66753092  1
  C  C77  1  0.41147962  0.82295924  0.59302674  1
  C  C78  1  0.58867518  0.41132482  0.07918632  1
  C  C79  1  0.74050214  0.25949786  0.24317919  1
  C  C80  1  0.00655942  0.67375035  0.83288677  1
  C  C81  1  0.74751532  0.25248468  0.90668286  1
  C  C82  1  0.92102856  0.84205711  0.42647603  1
  C  C83  1  0.57921507  0.15843013  0.74793707  1
  C  C84  1  0.33280907  0.00655942  0.16711323  1
  C  C85  1  0.32349806  0.00072997  0.66753092  1
  C  C86  1  0.15843013  0.57921507  0.25206293  1
  C  C87  1  0.42078493  0.57921507  0.25206293  1
  C  C88  1  0.67375035  0.00655942  0.16711323  1
  C  C89  1  0.66719093  0.99344058  0.83288677  1
  Ni  Ni90  1  0.20029696  0.40059392  0.58032314  1
  Ni  Ni91  1  0.86691567  0.13308433  0.24808775  1
  Ni  Ni92  1  0.73383134  0.86691567  0.75191225  1
  Ni  Ni93  1  0.46481550  0.92963099  0.41249480  1
  Ni  Ni94  1  0.46481550  0.53518450  0.41249480  1
  Ni  Ni95  1  0.80012290  0.19987710  0.75221512  1
  Ni  Ni96  1  0.06766663  0.53383331  0.74957899  1
  Ni  Ni97  1  0.53383331  0.06766663  0.25042101  1
  Ni  Ni98  1  0.13308433  0.26616866  0.75191225  1
  Ni  Ni99  1  0.40059392  0.20029696  0.41967686  1
  Ni  Ni100  1  0.79988236  0.59976472  0.07908450  1
  Ni  Ni101  1  0.93163154  0.46581577  0.91407228  1
  Ni  Ni102  1  0.20011764  0.40023528  0.92091550  1
  Ni  Ni103  1  0.13115599  0.86884401  0.41955768  1
  Ni  Ni104  1  0.73187844  0.86593922  0.08928041  1
  Ni  Ni105  1  0.26812156  0.13406078  0.91071959  1
  Ni  Ni106  1  0.86691567  0.73383134  0.24808775  1
  Ni  Ni107  1  0.53383331  0.46616669  0.25042101  1
  Ni  Ni108  1  0.26231199  0.13115599  0.58044232  1
  Ni  Ni109  1  0.13115599  0.26231199  0.41955768  1
  Ni  Ni110  1  0.86593922  0.73187844  0.91071959  1
  Ni  Ni111  1  0.06836846  0.53418423  0.08592772  1
  Ni  Ni112  1  0.79970304  0.20029696  0.41967686  1
  Ni  Ni113  1  0.26616866  0.13308433  0.24808775  1
  Ni  Ni114  1  0.80012290  0.60024579  0.75221512  1
  Ni  Ni115  1  0.19987710  0.39975421  0.24778488  1
  Ni  Ni116  1  0.46616669  0.53383331  0.74957899  1
  Ni  Ni117  1  0.92963099  0.46481550  0.58750520  1
  Ni  Ni118  1  0.13308433  0.86691567  0.75191225  1
  Ni  Ni119  1  0.53418423  0.06836846  0.91407228  1
  Ni  Ni120  1  0.13406078  0.26812156  0.08928041  1
  Ni  Ni121  1  0.07036901  0.53518450  0.41249480  1
  Ni  Ni122  1  0.46616669  0.93233337  0.74957899  1
  Ni  Ni123  1  0.79970304  0.59940608  0.41967686  1
  Ni  Ni124  1  0.20029696  0.79970304  0.58032314  1
  Ni  Ni125  1  0.20011764  0.79988236  0.92091550  1
  Ni  Ni126  1  0.53518450  0.46481550  0.58750520  1
  Ni  Ni127  1  0.86884401  0.73768801  0.58044232  1
  Ni  Ni128  1  0.93233337  0.46616669  0.25042101  1
  Ni  Ni129  1  0.53518450  0.07036901  0.58750520  1
  Ni  Ni130  1  0.40023528  0.20011764  0.07908450  1
  Ni  Ni131  1  0.73768801  0.86884401  0.41955768  1
  Ni  Ni132  1  0.60024579  0.80012290  0.24778488  1
  Ni  Ni133  1  0.13406078  0.86593922  0.08928041  1
  Ni  Ni134  1  0.59976472  0.79988236  0.92091550  1
  Ni  Ni135  1  0.39975421  0.19987710  0.75221512  1
  Ni  Ni136  1  0.59940608  0.79970304  0.58032314  1
  Ni  Ni137  1  0.53418423  0.46581577  0.91407228  1
  Ni  Ni138  1  0.86593922  0.13406078  0.91071959  1
  Ni  Ni139  1  0.19987710  0.80012290  0.24778488  1
  Ni  Ni140  1  0.79988236  0.20011764  0.07908450  1
  Ni  Ni141  1  0.86884401  0.13115599  0.58044232  1
  Ni  Ni142  1  0.46581577  0.93163154  0.08592772  1
  Ni  Ni143  1  0.46581577  0.53418423  0.08592772  1
  Cu  Cu144  1  0.50000000  0.50000000  0.50000000  1
  Cu  Cu145  1  0.66666700  0.33333300  0.15436315  1
  Cu  Cu146  1  0.00000000  0.00000000  0.82744989  1
  Cu  Cu147  1  0.33333300  0.66666700  0.16715378  1
  Cu  Cu148  1  0.00000000  0.00000000  0.17255011  1
  Cu  Cu149  1  0.66666700  0.33333300  0.83284622  1
  Cu  Cu150  1  0.50000000  0.50000000  0.00000000  1
  Cu  Cu151  1  0.33333300  0.66666700  0.23886861  1
  Cu  Cu152  1  0.00000000  0.00000000  0.00000000  1
  Cu  Cu153  1  0.33333300  0.66666700  0.84563685  1
  Cu  Cu154  1  0.00000000  0.50000000  0.50000000  1
  Cu  Cu155  1  0.33333300  0.66666700  0.66762460  1
  Cu  Cu156  1  0.50000000  0.00000000  0.00000000  1
  Cu  Cu157  1  0.66666700  0.33333300  0.76113139  1
  Cu  Cu158  1  0.50000000  0.00000000  0.50000000  1
  Cu  Cu159  1  0.00000000  0.00000000  0.50000000  1
  Cu  Cu160  1  0.00000000  0.50000000  0.00000000  1
  Cu  Cu161  1  0.66666700  0.33333300  0.33237540  1
