# generated using pymatgen
data_Cu21Ni4C15
_symmetry_space_group_name_H-M   'P 1'
_cell_length_a   10.08036700
_cell_length_b   10.21807300
_cell_length_c   20.72560739
_cell_angle_alpha   81.52544612
_cell_angle_beta   90.00000000
_cell_angle_gamma   90.00000000
_symmetry_Int_Tables_number   1
_chemical_formula_structural   Cu21Ni4C15
_chemical_formula_sum   'Cu84 Ni16 C60'
_cell_volume   2111.46871807
_cell_formula_units_Z   4
loop_
 _symmetry_equiv_pos_site_id
 _symmetry_equiv_pos_as_xyz
  1  'x, y, z'
loop_
 _atom_site_type_symbol
 _atom_site_label
 _atom_site_symmetry_multiplicity
 _atom_site_fract_x
 _atom_site_fract_y
 _atom_site_fract_z
 _atom_site_occupancy
  C  C0  1  0.50959100  0.22379200  0.74981400  1
  C  C1  1  0.00959100  0.27620800  0.25018600  1
  C  C2  1  0.49040900  0.77620800  0.25018600  1
  C  C3  1  0.99040900  0.72379200  0.74981400  1
  C  C4  1  0.73550500  0.63648300  0.61350500  1
  C  C5  1  0.23550500  0.86351700  0.38649500  1
  C  C6  1  0.26449500  0.36351700  0.38649500  1
  C  C7  1  0.76449500  0.13648300  0.61350500  1
  C  C8  1  0.87806800  0.08251900  0.82958400  1
  C  C9  1  0.37806800  0.41748100  0.17041600  1
  C  C10  1  0.12193200  0.91748100  0.17041600  1
  C  C11  1  0.62193200  0.58251900  0.82958400  1
  C  C12  1  0.17404100  0.29602600  0.82713300  1
  C  C13  1  0.67404100  0.20397400  0.17286700  1
  C  C14  1  0.82595900  0.70397400  0.17286700  1
  C  C15  1  0.32595900  0.79602600  0.82713300  1
  C  C16  1  0.30433100  0.62124100  0.56435300  1
  C  C17  1  0.80433100  0.87875900  0.43564700  1
  C  C18  1  0.69566900  0.37875900  0.43564700  1
  C  C19  1  0.19566900  0.12124100  0.56435300  1
  C  C20  1  0.99939600  0.21089900  0.92036200  1
  C  C21  1  0.49939600  0.28910100  0.07963800  1
  C  C22  1  0.00060400  0.78910100  0.07963800  1
  C  C23  1  0.50060400  0.71089900  0.92036200  1
  C  C24  1  0.07735100  0.02328200  0.94532200  1
  C  C25  1  0.57735100  0.47671800  0.05467800  1
  C  C26  1  0.92264900  0.97671800  0.05467800  1
  C  C27  1  0.42264900  0.52328200  0.94532200  1
  C  C28  1  0.17788000  0.32978900  0.63936400  1
  C  C29  1  0.67788000  0.17021100  0.36063600  1
  C  C30  1  0.82212000  0.67021100  0.36063600  1
  C  C31  1  0.32212000  0.82978900  0.63936400  1
  C  C32  1  0.81012000  0.72288200  0.89366400  1
  C  C33  1  0.31012000  0.77711800  0.10633600  1
  C  C34  1  0.18988000  0.27711800  0.10633600  1
  C  C35  1  0.68988000  0.22288200  0.89366400  1
  C  C36  1  0.72096800  0.91637200  0.07421600  1
  C  C37  1  0.22096800  0.58362800  0.92578400  1
  C  C38  1  0.27903200  0.08362800  0.92578400  1
  C  C39  1  0.77903200  0.41637200  0.07421600  1
  C  C40  1  0.65925900  0.08040200  0.93114600  1
  C  C41  1  0.15925900  0.41959800  0.06885400  1
  C  C42  1  0.34074100  0.91959800  0.06885400  1
  C  C43  1  0.84074100  0.58040200  0.93114600  1
  C  C44  1  0.89891300  0.39485600  0.94592400  1
  C  C45  1  0.39891300  0.10514400  0.05407600  1
  C  C46  1  0.10108700  0.60514400  0.05407600  1
  C  C47  1  0.60108700  0.89485600  0.94592400  1
  C  C48  1  0.16029800  0.54084600  0.92548400  1
  C  C49  1  0.66029800  0.95915400  0.07451600  1
  C  C50  1  0.83970200  0.45915400  0.07451600  1
  C  C51  1  0.33970200  0.04084600  0.92548400  1
  C  C52  1  0.02680900  0.66340200  0.33989800  1
  C  C53  1  0.52680900  0.83659800  0.66010200  1
  C  C54  1  0.97319100  0.33659800  0.66010200  1
  C  C55  1  0.47319100  0.16340200  0.33989800  1
  C  C56  1  0.15802300  0.50517500  0.50180500  1
  C  C57  1  0.65802300  0.99482500  0.49819500  1
  C  C58  1  0.84197700  0.49482500  0.49819500  1
  C  C59  1  0.34197700  0.00517500  0.50180500  1
  Ni  Ni60  1  0.32837700  0.54690200  0.73308500  1
  Ni  Ni61  1  0.82837700  0.95309800  0.26691500  1
  Ni  Ni62  1  0.67162300  0.45309800  0.26691500  1
  Ni  Ni63  1  0.17162300  0.04690200  0.73308500  1
  Ni  Ni64  1  0.66675500  0.89535200  0.74661000  1
  Ni  Ni65  1  0.16675500  0.60464800  0.25339000  1
  Ni  Ni66  1  0.33324500  0.10464800  0.25339000  1
  Ni  Ni67  1  0.83324500  0.39535200  0.74661000  1
  Ni  Ni68  1  0.47228500  0.32971200  0.92700200  1
  Ni  Ni69  1  0.97228500  0.17028800  0.07299800  1
  Ni  Ni70  1  0.52771500  0.67028800  0.07299800  1
  Ni  Ni71  1  0.02771500  0.82971200  0.92700200  1
  Ni  Ni72  1  0.45896100  0.30376500  0.56480200  1
  Ni  Ni73  1  0.95896100  0.19623500  0.43519800  1
  Ni  Ni74  1  0.54103900  0.69623500  0.43519800  1
  Ni  Ni75  1  0.04103900  0.80376500  0.56480200  1
  Cu  Cu76  1  0.28794000  0.40673600  0.73549500  1
  Cu  Cu77  1  0.78794000  0.09326400  0.26450500  1
  Cu  Cu78  1  0.71206000  0.59326400  0.26450500  1
  Cu  Cu79  1  0.21206000  0.90673600  0.73549500  1
  Cu  Cu80  1  0.25961100  0.60471200  0.78742700  1
  Cu  Cu81  1  0.75961100  0.89528800  0.21257300  1
  Cu  Cu82  1  0.74038900  0.39528800  0.21257300  1
  Cu  Cu83  1  0.24038900  0.10471200  0.78742700  1
  Cu  Cu84  1  0.47417700  0.55797400  0.74102100  1
  Cu  Cu85  1  0.97417700  0.94202600  0.25897900  1
  Cu  Cu86  1  0.52582300  0.44202600  0.25897900  1
  Cu  Cu87  1  0.02582300  0.05797400  0.74102100  1
  Cu  Cu88  1  0.28268100  0.62620600  0.67119300  1
  Cu  Cu89  1  0.78268100  0.87379400  0.32880700  1
  Cu  Cu90  1  0.71731900  0.37379400  0.32880700  1
  Cu  Cu91  1  0.21731900  0.12620600  0.67119300  1
  Cu  Cu92  1  0.71801700  0.03036700  0.75281000  1
  Cu  Cu93  1  0.21801700  0.46963300  0.24719000  1
  Cu  Cu94  1  0.28198300  0.96963300  0.24719000  1
  Cu  Cu95  1  0.78198300  0.53036700  0.75281000  1
  Cu  Cu96  1  0.51948700  0.90348300  0.73393900  1
  Cu  Cu97  1  0.01948700  0.59651700  0.26606100  1
  Cu  Cu98  1  0.48051300  0.09651700  0.26606100  1
  Cu  Cu99  1  0.98051300  0.40348300  0.73393900  1
  Cu  Cu100  1  0.73089300  0.84738600  0.69021000  1
  Cu  Cu101  1  0.23089300  0.65261400  0.30979000  1
  Cu  Cu102  1  0.26910700  0.15261400  0.30979000  1
  Cu  Cu103  1  0.76910700  0.34738600  0.69021000  1
  Cu  Cu104  1  0.69220300  0.80446100  0.80773800  1
  Cu  Cu105  1  0.19220300  0.69553900  0.19226200  1
  Cu  Cu106  1  0.30779700  0.19553900  0.19226200  1
  Cu  Cu107  1  0.80779700  0.30446100  0.80773800  1
  Cu  Cu108  1  0.49127600  0.20776800  0.97116400  1
  Cu  Cu109  1  0.99127600  0.29223200  0.02883600  1
  Cu  Cu110  1  0.50872400  0.79223200  0.02883600  1
  Cu  Cu111  1  0.00872400  0.70776800  0.97116400  1
  Cu  Cu112  1  0.40867100  0.42902500  0.96935600  1
  Cu  Cu113  1  0.90867100  0.07097500  0.03064400  1
  Cu  Cu114  1  0.59132900  0.57097500  0.03064400  1
  Cu  Cu115  1  0.09132900  0.92902500  0.96935600  1
  Cu  Cu116  1  0.38363300  0.32134800  0.87077000  1
  Cu  Cu117  1  0.88363300  0.17865200  0.12923000  1
  Cu  Cu118  1  0.61636700  0.67865200  0.12923000  1
  Cu  Cu119  1  0.11636700  0.82134800  0.87077000  1
  Cu  Cu120  1  0.60185100  0.38804200  0.90180300  1
  Cu  Cu121  1  0.10185100  0.11195800  0.09819700  1
  Cu  Cu122  1  0.39814900  0.61195800  0.09819700  1
  Cu  Cu123  1  0.89814900  0.88804200  0.90180300  1
  Cu  Cu124  1  0.40186300  0.41944800  0.59215500  1
  Cu  Cu125  1  0.90186300  0.08055200  0.40784500  1
  Cu  Cu126  1  0.59813700  0.58055200  0.40784500  1
  Cu  Cu127  1  0.09813700  0.91944800  0.59215500  1
  Cu  Cu128  1  0.36011400  0.25918200  0.51691500  1
  Cu  Cu129  1  0.86011400  0.24081800  0.48308500  1
  Cu  Cu130  1  0.63988600  0.74081800  0.48308500  1
  Cu  Cu131  1  0.13988600  0.75918200  0.51691500  1
  Cu  Cu132  1  0.58616800  0.34522400  0.52957100  1
  Cu  Cu133  1  0.08616800  0.15477600  0.47042900  1
  Cu  Cu134  1  0.41383200  0.65477600  0.47042900  1
  Cu  Cu135  1  0.91383200  0.84522400  0.52957100  1
  Cu  Cu136  1  0.48744300  0.19484100  0.61773100  1
  Cu  Cu137  1  0.98744300  0.30515900  0.38226900  1
  Cu  Cu138  1  0.51255700  0.80515900  0.38226900  1
  Cu  Cu139  1  0.01255700  0.69484100  0.61773100  1
  Cu  Cu140  1  0.04575400  0.15648100  0.89233600  1
  Cu  Cu141  1  0.54575400  0.34351900  0.10766400  1
  Cu  Cu142  1  0.95424600  0.84351900  0.10766400  1
  Cu  Cu143  1  0.45424600  0.65648100  0.89233600  1
  Cu  Cu144  1  0.49410000  0.20834700  0.37816500  1
  Cu  Cu145  1  0.99410000  0.29165300  0.62183500  1
  Cu  Cu146  1  0.50590000  0.79165300  0.62183500  1
  Cu  Cu147  1  0.00590000  0.70834700  0.37816500  1
  Cu  Cu148  1  0.69587800  0.12747300  0.89049400  1
  Cu  Cu149  1  0.19587800  0.37252700  0.10950600  1
  Cu  Cu150  1  0.30412200  0.87252700  0.10950600  1
  Cu  Cu151  1  0.80412200  0.62747300  0.89049400  1
  Cu  Cu152  1  0.07455100  0.49158500  0.82962200  1
  Cu  Cu153  1  0.57455100  0.00841500  0.17037800  1
  Cu  Cu154  1  0.92544900  0.50841500  0.17037800  1
  Cu  Cu155  1  0.42544900  0.99158500  0.82962200  1
  Cu  Cu156  1  0.12145400  0.35155100  0.60004800  1
  Cu  Cu157  1  0.62145400  0.14844900  0.39995200  1
  Cu  Cu158  1  0.87854600  0.64844900  0.39995200  1
  Cu  Cu159  1  0.37854600  0.85155100  0.60004800  1
