# generated using pymatgen
data_CuNi9C8
_symmetry_space_group_name_H-M   'P 1'
_cell_length_a   8.87109900
_cell_length_b   7.14504300
_cell_length_c   7.46755723
_cell_angle_alpha   70.78447738
_cell_angle_beta   90.00000000
_cell_angle_gamma   90.00000000
_symmetry_Int_Tables_number   1
_chemical_formula_structural   CuNi9C8
_chemical_formula_sum   'Cu2 Ni18 C16'
_cell_volume   446.95618676
_cell_formula_units_Z   2
loop_
 _symmetry_equiv_pos_site_id
 _symmetry_equiv_pos_as_xyz
  1  'x, y, z'
loop_
 _atom_site_type_symbol
 _atom_site_label
 _atom_site_symmetry_multiplicity
 _atom_site_fract_x
 _atom_site_fract_y
 _atom_site_fract_z
 _atom_site_occupancy
  C  C0  1  0.25221700  0.94858100  0.33649900  1
  C  C1  1  0.56334800  0.18679500  0.11521300  1
  C  C2  1  0.85960700  0.92355000  0.28930600  1
  C  C3  1  0.39470000  0.60091500  0.24825400  1
  C  C4  1  0.56338800  0.61269900  0.65789900  1
  C  C5  1  0.75221700  0.05141900  0.66350100  1
  C  C6  1  0.06334800  0.81320500  0.88478700  1
  C  C7  1  0.35960700  0.07645000  0.71069400  1
  C  C8  1  0.89470000  0.39908500  0.75174600  1
  C  C9  1  0.06338800  0.38730100  0.34210100  1
  C  C10  1  0.75967500  0.45978200  0.33082100  1
  C  C11  1  0.73178500  0.63434500  0.96554100  1
  C  C12  1  0.25967500  0.54021800  0.66917900  1
  C  C13  1  0.23178500  0.36565500  0.03445900  1
  C  C14  1  0.59624500  0.76880200  0.88204800  1
  C  C15  1  0.09624500  0.23119800  0.11795200  1
  Ni  Ni16  1  0.37435700  0.39936000  0.86870600  1
  Ni  Ni17  1  0.23880200  0.00662900  0.00191100  1
  Ni  Ni18  1  0.78476700  0.22708000  0.33684300  1
  Ni  Ni19  1  0.11602300  0.45829800  0.81798600  1
  Ni  Ni20  1  0.55174400  0.94845100  0.52854300  1
  Ni  Ni21  1  0.89938900  0.06128700  0.97058700  1
  Ni  Ni22  1  0.69870400  0.42866500  0.91274200  1
  Ni  Ni23  1  0.04872100  0.13379800  0.63208900  1
  Ni  Ni24  1  0.33918700  0.26028100  0.23587300  1
  Ni  Ni25  1  0.87435700  0.60064000  0.13129400  1
  Ni  Ni26  1  0.73880200  0.99337100  0.99808900  1
  Ni  Ni27  1  0.28476700  0.77292000  0.66315700  1
  Ni  Ni28  1  0.61602300  0.54170200  0.18201400  1
  Ni  Ni29  1  0.05174400  0.05154900  0.47145700  1
  Ni  Ni30  1  0.39938900  0.93871300  0.02941300  1
  Ni  Ni31  1  0.19870400  0.57133500  0.08725800  1
  Ni  Ni32  1  0.54872100  0.86620200  0.36791100  1
  Ni  Ni33  1  0.83918700  0.73971900  0.76412700  1
  Cu  Cu34  1  0.05834100  0.70724200  0.38368500  1
  Cu  Cu35  1  0.55834100  0.29275800  0.61631500  1
