# generated using pymatgen
data_Cu7NiC
_symmetry_space_group_name_H-M   'P 1'
_cell_length_a   6.86345200
_cell_length_b   8.72935489
_cell_length_c   10.20478129
_cell_angle_alpha   85.78155504
_cell_angle_beta   73.70510313
_cell_angle_gamma   82.89683277
_symmetry_Int_Tables_number   1
_chemical_formula_structural   Cu7NiC
_chemical_formula_sum   'Cu14 Ni2 C2'
_cell_volume   581.85537326
_cell_formula_units_Z   2
loop_
 _symmetry_equiv_pos_site_id
 _symmetry_equiv_pos_as_xyz
  1  'x, y, z'
loop_
 _atom_site_type_symbol
 _atom_site_label
 _atom_site_symmetry_multiplicity
 _atom_site_fract_x
 _atom_site_fract_y
 _atom_site_fract_z
 _atom_site_occupancy
  C  C0  1  0.19725400  0.96456900  0.52088900  1
  C  C1  1  0.45172600  0.39245600  0.93998400  1
  Ni  Ni2  1  0.77212200  0.51592400  0.30292100  1
  Ni  Ni3  1  0.99951700  0.01027300  0.98706900  1
  Cu  Cu4  1  0.88924700  0.91510600  0.56264100  1
  Cu  Cu5  1  0.39106300  0.76052400  0.43055200  1
  Cu  Cu6  1  0.26348500  0.15583600  0.37785600  1
  Cu  Cu7  1  0.66882200  0.36035800  0.46896200  1
  Cu  Cu8  1  0.48192600  0.58026900  0.79296200  1
  Cu  Cu9  1  0.13680600  0.33230800  0.99811100  1
  Cu  Cu10  1  0.03458100  0.59347000  0.33640300  1
  Cu  Cu11  1  0.02076300  0.45251100  0.64985500  1
  Cu  Cu12  1  0.88755300  0.80081500  0.94688600  1
  Cu  Cu13  1  0.25808600  0.90575600  0.05612800  1
  Cu  Cu14  1  0.78583400  0.04916600  0.18790500  1
  Cu  Cu15  1  0.65924300  0.19011000  0.86686700  1
  Cu  Cu16  1  0.50601800  0.46868000  0.12451000  1
  Cu  Cu17  1  0.27275300  0.01206900  0.70769800  1
