# generated using pymatgen
data_Cu5(NiC4)3
_symmetry_space_group_name_H-M   'P 1'
_cell_length_a   12.87009679
_cell_length_b   12.87009679
_cell_length_c   12.87009685
_cell_angle_alpha   58.53725595
_cell_angle_beta   58.53725595
_cell_angle_gamma   58.53725450
_symmetry_Int_Tables_number   1
_chemical_formula_structural   Cu5(NiC4)3
_chemical_formula_sum   'Cu10 Ni6 C24'
_cell_volume   1456.97712296
_cell_formula_units_Z   2
loop_
 _symmetry_equiv_pos_site_id
 _symmetry_equiv_pos_as_xyz
  1  'x, y, z'
loop_
 _atom_site_type_symbol
 _atom_site_label
 _atom_site_symmetry_multiplicity
 _atom_site_fract_x
 _atom_site_fract_y
 _atom_site_fract_z
 _atom_site_occupancy
  Ni  Ni0  1  0.23585000  0.26415000  0.75000000  1
  Ni  Ni1  1  0.26415000  0.75000000  0.23585000  1
  Ni  Ni2  1  0.76415000  0.73585000  0.25000000  1
  Ni  Ni3  1  0.25000000  0.76415000  0.73585000  1
  Ni  Ni4  1  0.75000000  0.23585000  0.26415000  1
  Ni  Ni5  1  0.73585000  0.25000000  0.76415000  1
  Cu  Cu6  1  0.67293100  0.67293100  0.67293100  1
  Cu  Cu7  1  0.17293100  0.17293100  0.17293100  1
  Cu  Cu8  1  0.32706900  0.32706900  0.32706900  1
  Cu  Cu9  1  0.39881700  0.10118300  0.25000000  1
  Cu  Cu10  1  0.25000000  0.39881700  0.10118300  1
  Cu  Cu11  1  0.10118300  0.25000000  0.39881700  1
  Cu  Cu12  1  0.60118300  0.89881700  0.75000000  1
  Cu  Cu13  1  0.82706900  0.82706900  0.82706900  1
  Cu  Cu14  1  0.75000000  0.60118300  0.89881700  1
  Cu  Cu15  1  0.89881700  0.75000000  0.60118300  1
  C  C16  1  0.09314500  0.70140500  0.27825200  1
  C  C17  1  0.45055400  0.57082700  0.19764800  1
  C  C18  1  0.72174800  0.90685500  0.29859500  1
  C  C19  1  0.04944600  0.30235200  0.92917300  1
  C  C20  1  0.29859500  0.72174800  0.90685500  1
  C  C21  1  0.92917300  0.04944600  0.30235200  1
  C  C22  1  0.07082700  0.95055400  0.69764800  1
  C  C23  1  0.77825200  0.20140500  0.59314500  1
  C  C24  1  0.70140500  0.27825200  0.09314500  1
  C  C25  1  0.69764800  0.07082700  0.95055400  1
  C  C26  1  0.20140500  0.59314500  0.77825200  1
  C  C27  1  0.40685500  0.22174800  0.79859500  1
  C  C28  1  0.42917300  0.80235200  0.54944600  1
  C  C29  1  0.19764800  0.45055400  0.57082700  1
  C  C30  1  0.79859500  0.40685500  0.22174800  1
  C  C31  1  0.54944600  0.42917300  0.80235200  1
  C  C32  1  0.95055400  0.69764800  0.07082700  1
  C  C33  1  0.22174800  0.79859500  0.40685500  1
  C  C34  1  0.57082700  0.19764800  0.45055400  1
  C  C35  1  0.80235200  0.54944600  0.42917300  1
  C  C36  1  0.90685500  0.29859500  0.72174800  1
  C  C37  1  0.27825200  0.09314500  0.70140500  1
  C  C38  1  0.30235200  0.92917300  0.04944600  1
  C  C39  1  0.59314500  0.77825200  0.20140500  1
