# generated using pymatgen
data_CuNiC7
_symmetry_space_group_name_H-M   'P 1'
_cell_length_a   8.52681200
_cell_length_b   7.08498800
_cell_length_c   10.72042308
_cell_angle_alpha   89.99279555
_cell_angle_beta   90.00000000
_cell_angle_gamma   90.00000000
_symmetry_Int_Tables_number   1
_chemical_formula_structural   CuNiC7
_chemical_formula_sum   'Cu4 Ni4 C28'
_cell_volume   647.64606111
_cell_formula_units_Z   4
loop_
 _symmetry_equiv_pos_site_id
 _symmetry_equiv_pos_as_xyz
  1  'x, y, z'
loop_
 _atom_site_type_symbol
 _atom_site_label
 _atom_site_symmetry_multiplicity
 _atom_site_fract_x
 _atom_site_fract_y
 _atom_site_fract_z
 _atom_site_occupancy
  C  C0  1  0.75592200  0.52142300  0.29163000  1
  C  C1  1  0.74407800  0.52142300  0.79163000  1
  C  C2  1  0.24407800  0.47857700  0.70837000  1
  C  C3  1  0.25592200  0.47857700  0.20837000  1
  Ni  Ni4  1  0.48620900  0.99932800  0.31935700  1
  Ni  Ni5  1  0.01379100  0.99932800  0.81935700  1
  Ni  Ni6  1  0.51379100  0.00067200  0.68064300  1
  Ni  Ni7  1  0.98620900  0.00067200  0.18064300  1
  Cu  Cu8  1  0.35126400  0.09485700  0.95834300  1
  Cu  Cu9  1  0.64873600  0.90514300  0.04165700  1
  Cu  Cu10  1  0.85126400  0.90514300  0.54165700  1
  Cu  Cu11  1  0.14873600  0.09485700  0.45834300  1
  C  C12  1  0.28442100  0.04887000  0.79457500  1
  C  C13  1  0.86012300  0.67403700  0.52963200  1
  C  C14  1  0.78442100  0.95113000  0.70542500  1
  C  C15  1  0.05159300  0.99583500  0.60514000  1
  C  C16  1  0.01145200  0.74204300  0.18457700  1
  C  C17  1  0.94840700  0.00416500  0.39486000  1
  C  C18  1  0.63987700  0.67403700  0.02963200  1
  C  C19  1  0.44840700  0.99583500  0.10514000  1
  C  C20  1  0.21557900  0.04887000  0.29457500  1
  C  C21  1  0.84288400  0.97812900  0.98933700  1
  C  C22  1  0.03670500  0.74135300  0.81869600  1
  C  C23  1  0.48854800  0.74204300  0.68457700  1
  C  C24  1  0.51145200  0.25795700  0.31542300  1
  C  C25  1  0.55159300  0.00416500  0.89486000  1
  C  C26  1  0.36012300  0.32596300  0.97036800  1
  C  C27  1  0.34288400  0.02187100  0.51066300  1
  C  C28  1  0.15711600  0.02187100  0.01066300  1
  C  C29  1  0.46329500  0.74135300  0.31869600  1
  C  C30  1  0.13987700  0.32596300  0.47036800  1
  C  C31  1  0.98854800  0.25795700  0.81542300  1
  C  C32  1  0.53670500  0.25864700  0.68130400  1
  C  C33  1  0.96329500  0.25864700  0.18130400  1
  C  C34  1  0.71557900  0.95113000  0.20542500  1
  C  C35  1  0.65711600  0.97812900  0.48933700  1
