# generated using pymatgen
data_Cu3Ni3C7
_symmetry_space_group_name_H-M   'P 1'
_cell_length_a   6.52220492
_cell_length_b   6.52220492
_cell_length_c   6.52220570
_cell_angle_alpha   95.56394999
_cell_angle_beta   95.56394999
_cell_angle_gamma   95.56395338
_symmetry_Int_Tables_number   1
_chemical_formula_structural   Cu3Ni3C7
_chemical_formula_sum   'Cu6 Ni6 C14'
_cell_volume   273.25222434
_cell_formula_units_Z   2
loop_
 _symmetry_equiv_pos_site_id
 _symmetry_equiv_pos_as_xyz
  1  'x, y, z'
loop_
 _atom_site_type_symbol
 _atom_site_label
 _atom_site_symmetry_multiplicity
 _atom_site_fract_x
 _atom_site_fract_y
 _atom_site_fract_z
 _atom_site_occupancy
  C  C0  1  0.50000000  0.50000000  0.50000000  1
  C  C1  1  0.00000000  0.00000000  0.00000000  1
  C  C2  1  0.21197800  0.04490900  0.39364300  1
  C  C3  1  0.82971400  0.19633900  0.68010000  1
  C  C4  1  0.31990000  0.17028600  0.80366100  1
  C  C5  1  0.39364300  0.21197800  0.04490900  1
  C  C6  1  0.80366100  0.31990000  0.17028600  1
  C  C7  1  0.04490900  0.39364300  0.21197800  1
  C  C8  1  0.95509100  0.60635700  0.78802200  1
  C  C9  1  0.19633900  0.68010000  0.82971400  1
  C  C10  1  0.60635700  0.78802200  0.95509100  1
  C  C11  1  0.68010000  0.82971400  0.19633900  1
  C  C12  1  0.17028600  0.80366100  0.31990000  1
  C  C13  1  0.78802200  0.95509100  0.60635700  1
  Ni  Ni14  1  0.87563500  0.06075000  0.70320800  1
  Ni  Ni15  1  0.29679200  0.12436500  0.93925000  1
  Ni  Ni16  1  0.93925000  0.29679200  0.12436500  1
  Ni  Ni17  1  0.06075000  0.70320800  0.87563500  1
  Ni  Ni18  1  0.70320800  0.87563500  0.06075000  1
  Ni  Ni19  1  0.12436500  0.93925000  0.29679200  1
  Cu  Cu20  1  0.36564800  0.24505800  0.55884800  1
  Cu  Cu21  1  0.55884800  0.36564800  0.24505800  1
  Cu  Cu22  1  0.75494200  0.44115200  0.63435200  1
  Cu  Cu23  1  0.24505800  0.55884800  0.36564800  1
  Cu  Cu24  1  0.44115200  0.63435200  0.75494200  1
  Cu  Cu25  1  0.63435200  0.75494200  0.44115200  1
