# generated using pymatgen
data_Cu32Ni5C8
_symmetry_space_group_name_H-M   'P 1'
_cell_length_a   10.48831700
_cell_length_b   10.77108394
_cell_length_c   15.71461892
_cell_angle_alpha   78.63483014
_cell_angle_beta   82.19458476
_cell_angle_gamma   72.43566495
_symmetry_Int_Tables_number   1
_chemical_formula_structural   Cu32Ni5C8
_chemical_formula_sum   'Cu64 Ni10 C16'
_cell_volume   1653.79045452
_cell_formula_units_Z   2
loop_
 _symmetry_equiv_pos_site_id
 _symmetry_equiv_pos_as_xyz
  1  'x, y, z'
loop_
 _atom_site_type_symbol
 _atom_site_label
 _atom_site_symmetry_multiplicity
 _atom_site_fract_x
 _atom_site_fract_y
 _atom_site_fract_z
 _atom_site_occupancy
  C  C0  1  0.00381900  0.40030600  0.94293100  1
  C  C1  1  0.47767300  0.28654700  0.93230800  1
  C  C2  1  0.20055300  0.73695200  0.85601400  1
  C  C3  1  0.71769800  0.59739700  0.37823100  1
  C  C4  1  0.79944700  0.26304800  0.14398600  1
  C  C5  1  0.52232700  0.71345300  0.06769200  1
  C  C6  1  0.99618100  0.59969400  0.05706900  1
  C  C7  1  0.20948400  0.01449500  0.28697500  1
  C  C8  1  0.78445300  0.53664000  0.70299500  1
  C  C9  1  0.28165500  0.88150400  0.60821600  1
  C  C10  1  0.28230200  0.40260300  0.62176900  1
  C  C11  1  0.79051600  0.98550500  0.71302500  1
  C  C12  1  0.21554700  0.46336000  0.29700500  1
  C  C13  1  0.71834500  0.11849600  0.39178400  1
  C  C14  1  0.97012900  0.28833600  0.37349000  1
  C  C15  1  0.02987100  0.71166400  0.62651000  1
  Ni  Ni16  1  0.20831300  0.59362600  0.61797800  1
  Ni  Ni17  1  0.13312300  0.19075200  0.31630200  1
  Ni  Ni18  1  0.03588800  0.43992800  0.33003800  1
  Ni  Ni19  1  0.99366800  0.74277900  0.52202200  1
  Ni  Ni20  1  0.79168700  0.40637400  0.38202200  1
  Ni  Ni21  1  0.96411200  0.56007200  0.66996200  1
  Ni  Ni22  1  0.10324700  0.85742700  0.62419200  1
  Ni  Ni23  1  0.86687700  0.80924800  0.68369800  1
  Ni  Ni24  1  0.89675300  0.14257300  0.37580800  1
  Ni  Ni25  1  0.00633200  0.25722100  0.47797800  1
  Cu  Cu26  1  0.22735900  0.98804700  0.69579600  1
  Cu  Cu27  1  0.36182500  0.71931400  0.14572800  1
  Cu  Cu28  1  0.61131700  0.80625500  0.12573600  1
  Cu  Cu29  1  0.93460000  0.96806700  0.77995000  1
  Cu  Cu30  1  0.14537900  0.39197400  0.55961900  1
  Cu  Cu31  1  0.29416900  0.08651400  0.18434300  1
  Cu  Cu32  1  0.34068300  0.74062200  0.70530800  1
  Cu  Cu33  1  0.29349100  0.84661000  0.26156500  1
  Cu  Cu34  1  0.18353400  0.57144200  0.38214900  1
  Cu  Cu35  1  0.86465300  0.38781500  0.78475200  1
  Cu  Cu36  1  0.34873900  0.76643800  0.52619000  1
  Cu  Cu37  1  0.61751400  0.50439200  0.73321800  1
  Cu  Cu38  1  0.85462100  0.60802600  0.44038100  1
  Cu  Cu39  1  0.80833100  0.34191600  0.01667000  1
  Cu  Cu40  1  0.42637500  0.87898400  0.01202700  1
  Cu  Cu41  1  0.90118100  0.32459100  0.23318100  1
  Cu  Cu42  1  0.64125400  0.00118200  0.65386400  1
  Cu  Cu43  1  0.30044700  0.31431700  0.37587200  1
  Cu  Cu44  1  0.05373300  0.28598600  0.05310600  1
  Cu  Cu45  1  0.65001800  0.41037400  0.15094000  1
  Cu  Cu46  1  0.74784300  0.63108700  0.79730800  1
  Cu  Cu47  1  0.25215700  0.36891300  0.20269200  1
  Cu  Cu48  1  0.61907200  0.55895100  0.48423200  1
  Cu  Cu49  1  0.63509300  0.77666600  0.38004800  1
  Cu  Cu50  1  0.33743200  0.29229300  0.02773000  1
  Cu  Cu51  1  0.16042400  0.45733700  0.89460000  1
  Cu  Cu52  1  0.63817500  0.28068600  0.85427200  1
  Cu  Cu53  1  0.44486600  0.62676300  0.99993600  1
  Cu  Cu54  1  0.09881900  0.67540900  0.76681900  1
  Cu  Cu55  1  0.22470900  0.02948000  0.52282300  1
  Cu  Cu56  1  0.77529100  0.97052000  0.47717700  1
  Cu  Cu57  1  0.19310800  0.35939800  0.73102800  1
  Cu  Cu58  1  0.87117400  0.06750200  0.61163700  1
  Cu  Cu59  1  0.57362500  0.12101600  0.98797300  1
  Cu  Cu60  1  0.30720100  0.84495200  0.86898600  1
  Cu  Cu61  1  0.54888200  0.09181900  0.40194000  1
  Cu  Cu62  1  0.96444600  0.80476000  0.28553900  1
  Cu  Cu63  1  0.57584400  0.59233300  0.31905600  1
  Cu  Cu64  1  0.42415600  0.40766700  0.68094400  1
  Cu  Cu65  1  0.55513400  0.37323700  0.00006400  1
  Cu  Cu66  1  0.06540000  0.03193300  0.22005000  1
  Cu  Cu67  1  0.12882600  0.93249800  0.38836300  1
  Cu  Cu68  1  0.94626700  0.71401400  0.94689400  1
  Cu  Cu69  1  0.65931700  0.25937800  0.29469200  1
  Cu  Cu70  1  0.77264100  0.01195300  0.30420400  1
  Cu  Cu71  1  0.36490700  0.22333400  0.61995200  1
  Cu  Cu72  1  0.35874600  0.99881800  0.34613600  1
  Cu  Cu73  1  0.66256800  0.70770700  0.97227000  1
  Cu  Cu74  1  0.65126100  0.23356200  0.47381000  1
  Cu  Cu75  1  0.19166900  0.65808400  0.98333000  1
  Cu  Cu76  1  0.69955300  0.68568300  0.62412800  1
  Cu  Cu77  1  0.03555400  0.19524000  0.71446100  1
  Cu  Cu78  1  0.81646600  0.42855800  0.61785100  1
  Cu  Cu79  1  0.83957600  0.54266300  0.10540000  1
  Cu  Cu80  1  0.34998200  0.58962600  0.84906000  1
  Cu  Cu81  1  0.38868300  0.19374500  0.87426400  1
  Cu  Cu82  1  0.13534700  0.61218500  0.21524800  1
  Cu  Cu83  1  0.38092800  0.44104900  0.51576800  1
  Cu  Cu84  1  0.70583100  0.91348600  0.81565700  1
  Cu  Cu85  1  0.45111800  0.90818100  0.59806000  1
  Cu  Cu86  1  0.80689200  0.64060200  0.26897200  1
  Cu  Cu87  1  0.69279900  0.15504800  0.13101400  1
  Cu  Cu88  1  0.70650900  0.15339000  0.73843500  1
  Cu  Cu89  1  0.38248600  0.49560800  0.26678200  1
