# generated using pymatgen
data_Cu7Ni3C40
_symmetry_space_group_name_H-M   'P 1'
_cell_length_a   5.57950800
_cell_length_b   7.93478450
_cell_length_c   14.83597884
_cell_angle_alpha   105.28693323
_cell_angle_beta   100.58058609
_cell_angle_gamma   90.79691718
_symmetry_Int_Tables_number   1
_chemical_formula_structural   Cu7Ni3C40
_chemical_formula_sum   'Cu7 Ni3 C40'
_cell_volume   621.46242159
_cell_formula_units_Z   1
loop_
 _symmetry_equiv_pos_site_id
 _symmetry_equiv_pos_as_xyz
  1  'x, y, z'
loop_
 _atom_site_type_symbol
 _atom_site_label
 _atom_site_symmetry_multiplicity
 _atom_site_fract_x
 _atom_site_fract_y
 _atom_site_fract_z
 _atom_site_occupancy
  Ni  Ni0  1  0.89998400  0.65257300  0.79802500  1
  Ni  Ni1  1  0.50009000  0.24743900  0.00053100  1
  Ni  Ni2  1  0.50181700  0.75377300  0.00100200  1
  Cu  Cu3  1  0.29915300  0.04946600  0.60129600  1
  Cu  Cu4  1  0.70012900  0.45116700  0.40104000  1
  Cu  Cu5  1  0.89787500  0.14663600  0.79895300  1
  Cu  Cu6  1  0.10059300  0.85297200  0.20005800  1
  Cu  Cu7  1  0.30057900  0.55308200  0.60045600  1
  Cu  Cu8  1  0.69849400  0.94917300  0.39853900  1
  Cu  Cu9  1  0.09910700  0.34774400  0.20020900  1
  C  C10  1  0.99694900  0.99906600  0.99714900  1
  C  C11  1  0.40298500  0.40136700  0.80239000  1
  C  C12  1  0.00370000  0.50086500  0.00173900  1
  C  C13  1  0.79932000  0.79980800  0.59900700  1
  C  C14  1  0.20004600  0.20073000  0.40074300  1
  C  C15  1  0.39675200  0.90083500  0.80068400  1
  C  C16  1  0.59766500  0.60130500  0.19999200  1
  C  C17  1  0.79831400  0.30167700  0.59947000  1
  C  C18  1  0.19890200  0.70077800  0.39966000  1
  C  C19  1  0.60229000  0.09901100  0.20010700  1
  C  C20  1  0.68397400  0.47784900  0.90889500  1
  C  C21  1  0.98783700  0.23974200  0.97727300  1
  C  C22  1  0.07555800  0.89050800  0.70799400  1
  C  C23  1  0.16816000  0.46409500  0.88842600  1
  C  C24  1  0.22273500  0.93470100  0.91440400  1
  C  C25  1  0.40537900  0.16751900  0.81858500  1
  C  C26  1  0.38800100  0.62642100  0.77303300  1
  C  C27  1  0.47298800  0.28906700  0.51295600  1
  C  C28  1  0.56571100  0.87389700  0.68634300  1
  C  C29  1  0.63417200  0.31672700  0.71190400  1
  C  C30  1  0.72825000  0.92642100  0.89272300  1
  C  C31  1  0.80848300  0.56011600  0.61816400  1
  C  C32  1  0.78524100  0.03590300  0.57278600  1
  C  C33  1  0.87577500  0.68786700  0.31403400  1
  C  C34  1  0.95944900  0.27479000  0.48747400  1
  C  C35  1  0.04234700  0.72463800  0.51271200  1
  C  C36  1  0.13039200  0.30992400  0.68749700  1
  C  C37  1  0.21247600  0.96324300  0.42541600  1
  C  C38  1  0.18626600  0.43699300  0.37421100  1
  C  C39  1  0.26863500  0.08436300  0.11442000  1
  C  C40  1  0.35914600  0.67686900  0.28911200  1
  C  C41  1  0.43990500  0.12523700  0.31270900  1
  C  C42  1  0.52602600  0.71105000  0.48565800  1
  C  C43  1  0.61321700  0.36298600  0.22658300  1
  C  C44  1  0.59085700  0.84127300  0.18192400  1
  C  C45  1  0.78243700  0.07392600  0.09259700  1
  C  C46  1  0.84601600  0.52565900  0.11095800  1
  C  C47  1  0.92631000  0.11290300  0.28840900  1
  C  C48  1  0.01104300  0.75994700  0.02349100  1
  C  C49  1  0.30847100  0.51589900  0.08825900  1
