# generated using pymatgen
data_CuNiC16
_symmetry_space_group_name_H-M   'P 1'
_cell_length_a   8.65152375
_cell_length_b   8.65152375
_cell_length_c   8.65152322
_cell_angle_alpha   59.98689549
_cell_angle_beta   59.98689549
_cell_angle_gamma   59.98689514
_symmetry_Int_Tables_number   1
_chemical_formula_structural   CuNiC16
_chemical_formula_sum   'Cu2 Ni2 C32'
_cell_volume   457.75566036
_cell_formula_units_Z   2
loop_
 _symmetry_equiv_pos_site_id
 _symmetry_equiv_pos_as_xyz
  1  'x, y, z'
loop_
 _atom_site_type_symbol
 _atom_site_label
 _atom_site_symmetry_multiplicity
 _atom_site_fract_x
 _atom_site_fract_y
 _atom_site_fract_z
 _atom_site_occupancy
  C  C0  1  0.14535300  0.14535300  0.14535300  1
  C  C1  1  0.64535300  0.64535300  0.64535300  1
  Ni  Ni2  1  0.99761500  0.99761500  0.99761500  1
  Ni  Ni3  1  0.49761500  0.49761500  0.49761500  1
  Cu  Cu4  1  0.35411500  0.35411500  0.35411500  1
  Cu  Cu5  1  0.85411500  0.85411500  0.85411500  1
  C  C6  1  0.75054500  0.04417500  0.45760900  1
  C  C7  1  0.04417500  0.45760900  0.75054500  1
  C  C8  1  0.45760900  0.75054500  0.04417500  1
  C  C9  1  0.54417500  0.25054500  0.95760900  1
  C  C10  1  0.95760900  0.54417500  0.25054500  1
  C  C11  1  0.25054500  0.95760900  0.54417500  1
  C  C12  1  0.31208500  0.11447300  0.50323200  1
  C  C13  1  0.50323200  0.31208500  0.11447300  1
  C  C14  1  0.91544800  0.05666500  0.26342500  1
  C  C15  1  0.11447300  0.50323200  0.31208500  1
  C  C16  1  0.81208500  0.00323200  0.61447300  1
  C  C17  1  0.58713600  0.23537400  0.44108500  1
  C  C18  1  0.05666500  0.26342500  0.91544800  1
  C  C19  1  0.23537400  0.44108500  0.58713600  1
  C  C20  1  0.37809100  0.19249600  0.00107900  1
  C  C21  1  0.44108500  0.58713600  0.23537400  1
  C  C22  1  0.73537400  0.08713600  0.94108500  1
  C  C23  1  0.00107900  0.37809100  0.19249600  1
  C  C24  1  0.00323200  0.61447300  0.81208500  1
  C  C25  1  0.26342500  0.91544800  0.05666500  1
  C  C26  1  0.55666500  0.41544800  0.76342500  1
  C  C27  1  0.61447300  0.81208500  0.00323200  1
  C  C28  1  0.76342500  0.55666500  0.41544800  1
  C  C29  1  0.94108500  0.73537400  0.08713600  1
  C  C30  1  0.41544800  0.76342500  0.55666500  1
  C  C31  1  0.19249600  0.00107900  0.37809100  1
  C  C32  1  0.87809100  0.50107900  0.69249600  1
  C  C33  1  0.08713600  0.94108500  0.73537400  1
  C  C34  1  0.50107900  0.69249600  0.87809100  1
  C  C35  1  0.69249600  0.87809100  0.50107900  1
