# generated using pymatgen
data_Cu2Ni2C7
_symmetry_space_group_name_H-M   'P 1'
_cell_length_a   3.76034000
_cell_length_b   7.79039800
_cell_length_c   10.90326100
_cell_angle_alpha   90.00000000
_cell_angle_beta   90.00000000
_cell_angle_gamma   90.00000000
_symmetry_Int_Tables_number   1
_chemical_formula_structural   Cu2Ni2C7
_chemical_formula_sum   'Cu4 Ni4 C14'
_cell_volume   319.40607236
_cell_formula_units_Z   2
loop_
 _symmetry_equiv_pos_site_id
 _symmetry_equiv_pos_as_xyz
  1  'x, y, z'
loop_
 _atom_site_type_symbol
 _atom_site_label
 _atom_site_symmetry_multiplicity
 _atom_site_fract_x
 _atom_site_fract_y
 _atom_site_fract_z
 _atom_site_occupancy
  Ni  Ni0  1  0.00000000  0.75000000  0.74584400  1
  Ni  Ni1  1  0.00000000  0.25000000  0.25415600  1
  Ni  Ni2  1  0.50000000  0.00000000  0.00000000  1
  Ni  Ni3  1  0.50000000  0.50000000  0.00000000  1
  Cu  Cu4  1  0.00000000  0.75000000  0.23177100  1
  Cu  Cu5  1  0.50000000  0.00000000  0.50000000  1
  Cu  Cu6  1  0.00000000  0.25000000  0.76822900  1
  Cu  Cu7  1  0.50000000  0.50000000  0.50000000  1
  C  C8  1  0.50000000  0.75000000  0.60822300  1
  C  C9  1  0.00000000  0.95758500  0.37467600  1
  C  C10  1  0.50000000  0.75000000  0.12886200  1
  C  C11  1  0.50000000  0.25000000  0.13310700  1
  C  C12  1  0.00000000  0.01079400  0.12252600  1
  C  C13  1  0.00000000  0.98920600  0.87747400  1
  C  C14  1  0.00000000  0.51079400  0.87747400  1
  C  C15  1  0.50000000  0.25000000  0.87113800  1
  C  C16  1  0.50000000  0.75000000  0.86689300  1
  C  C17  1  0.00000000  0.45758500  0.62532400  1
  C  C18  1  0.00000000  0.54241500  0.37467600  1
  C  C19  1  0.00000000  0.04241500  0.62532400  1
  C  C20  1  0.50000000  0.25000000  0.39177700  1
  C  C21  1  0.00000000  0.48920600  0.12252600  1
