# generated using pymatgen
data_Cu3Ni4C15
_symmetry_space_group_name_H-M   'P 1'
_cell_length_a   9.72999089
_cell_length_b   9.72999089
_cell_length_c   9.72999089
_cell_angle_alpha   101.33565591
_cell_angle_beta   101.33565591
_cell_angle_gamma   127.36477240
_symmetry_Int_Tables_number   1
_chemical_formula_structural   Cu3Ni4C15
_chemical_formula_sum   'Cu6 Ni8 C30'
_cell_volume   656.24538398
_cell_formula_units_Z   2
loop_
 _symmetry_equiv_pos_site_id
 _symmetry_equiv_pos_as_xyz
  1  'x, y, z'
loop_
 _atom_site_type_symbol
 _atom_site_label
 _atom_site_symmetry_multiplicity
 _atom_site_fract_x
 _atom_site_fract_y
 _atom_site_fract_z
 _atom_site_occupancy
  C  C0  1  0.27957300  0.77957300  0.05914700  1
  C  C1  1  0.22042700  0.27957300  0.50000000  1
  C  C2  1  0.72042700  0.22042700  0.94085300  1
  C  C3  1  0.00000000  0.00000000  0.00000000  1
  C  C4  1  0.77957300  0.72042700  0.50000000  1
  C  C5  1  0.50000000  0.50000000  0.00000000  1
  Ni  Ni6  1  0.00711600  0.25000000  0.75711600  1
  Ni  Ni7  1  0.99288400  0.75000000  0.24288400  1
  Ni  Ni8  1  0.25000000  0.49288400  0.24288400  1
  Ni  Ni9  1  0.75000000  0.50711600  0.75711600  1
  Ni  Ni10  1  0.50711600  0.75000000  0.75711600  1
  Ni  Ni11  1  0.75000000  0.99288400  0.24288400  1
  Ni  Ni12  1  0.49288400  0.25000000  0.24288400  1
  Ni  Ni13  1  0.25000000  0.00711600  0.75711600  1
  Cu  Cu14  1  0.39515900  0.10484100  0.50000000  1
  Cu  Cu15  1  0.10484100  0.60484100  0.70968300  1
  Cu  Cu16  1  0.60484100  0.89515900  0.50000000  1
  Cu  Cu17  1  0.25000000  0.75000000  0.50000000  1
  Cu  Cu18  1  0.89515900  0.39515900  0.29031700  1
  Cu  Cu19  1  0.75000000  0.25000000  0.50000000  1
  C  C20  1  0.76916200  0.49823300  0.26739500  1
  C  C21  1  0.62019200  0.62019200  0.74038400  1
  C  C22  1  0.99823300  0.26916200  0.26739500  1
  C  C23  1  0.65990900  0.15990900  0.27514900  1
  C  C24  1  0.37980800  0.37980800  0.25961600  1
  C  C25  1  0.34009100  0.84009100  0.72485100  1
  C  C26  1  0.12019200  0.12019200  0.74038400  1
  C  C27  1  0.26916200  0.00176700  0.27093000  1
  C  C28  1  0.00176700  0.73083800  0.73260500  1
  C  C29  1  0.38476000  0.65990900  0.50000000  1
  C  C30  1  0.87980800  0.87980800  0.25961600  1
  C  C31  1  0.49823300  0.23083800  0.72907000  1
  C  C32  1  0.50176700  0.76916200  0.27093000  1
  C  C33  1  0.15990900  0.88476000  0.50000000  1
  C  C34  1  0.62019200  0.87980800  0.00000000  1
  C  C35  1  0.12019200  0.37980800  0.00000000  1
  C  C36  1  0.37980800  0.12019200  0.00000000  1
  C  C37  1  0.11524000  0.61524000  0.27514900  1
  C  C38  1  0.61524000  0.34009100  0.50000000  1
  C  C39  1  0.88476000  0.38476000  0.72485100  1
  C  C40  1  0.84009100  0.11524000  0.50000000  1
  C  C41  1  0.73083800  0.99823300  0.72907000  1
  C  C42  1  0.87980800  0.62019200  0.00000000  1
  C  C43  1  0.23083800  0.50176700  0.73260500  1
