# generated using pymatgen
data_CuNi2C17
_symmetry_space_group_name_H-M   'P 1'
_cell_length_a   9.13671300
_cell_length_b   9.16699601
_cell_length_c   9.30972406
_cell_angle_alpha   61.42305240
_cell_angle_beta   61.10572660
_cell_angle_gamma   60.30640116
_symmetry_Int_Tables_number   1
_chemical_formula_structural   CuNi2C17
_chemical_formula_sum   'Cu2 Ni4 C34'
_cell_volume   562.99606081
_cell_formula_units_Z   2
loop_
 _symmetry_equiv_pos_site_id
 _symmetry_equiv_pos_as_xyz
  1  'x, y, z'
loop_
 _atom_site_type_symbol
 _atom_site_label
 _atom_site_symmetry_multiplicity
 _atom_site_fract_x
 _atom_site_fract_y
 _atom_site_fract_z
 _atom_site_occupancy
  C  C0  1  0.05313100  0.30325500  0.90923200  1
  C  C1  1  0.42968600  0.01292700  0.47079400  1
  C  C2  1  0.61519000  0.39113800  0.24576100  1
  C  C3  1  0.39026600  0.59993100  0.75914700  1
  C  C4  1  0.93627300  0.71157900  0.10737500  1
  C  C5  1  0.74949300  0.91059700  0.67104700  1
  C  C6  1  0.15977100  0.64486200  0.55218100  1
  C  C7  1  0.64458000  0.15459200  0.05448400  1
  C  C8  1  0.35475000  0.84618000  0.94588800  1
  C  C9  1  0.85194700  0.35469200  0.43842900  1
  Ni  Ni10  1  0.25258600  0.46686100  0.23713000  1
  Ni  Ni11  1  0.46878600  0.24794200  0.73568000  1
  Ni  Ni12  1  0.53330800  0.75212800  0.26439300  1
  Ni  Ni13  1  0.75198100  0.53309900  0.75702400  1
  Cu  Cu14  1  0.04410500  0.96167900  0.74384100  1
  Cu  Cu15  1  0.95372700  0.04055000  0.25265200  1
  C  C16  1  0.10665800  0.00082600  0.08678500  1
  C  C17  1  0.00725100  0.11624600  0.58254600  1
  C  C18  1  0.06737100  0.43911600  0.29335300  1
  C  C19  1  0.26910000  0.62819500  0.05174300  1
  C  C20  1  0.42567700  0.28402400  0.22665400  1
  C  C21  1  0.25356200  0.52469400  0.37875600  1
  C  C22  1  0.04985200  0.78923200  0.74342600  1
  C  C23  1  0.42700300  0.07087500  0.78952300  1
  C  C24  1  0.28746100  0.42267000  0.72248500  1
  C  C25  1  0.47503800  0.76577900  0.11512700  1
  C  C26  1  0.77643900  0.06045900  0.24966400  1
  C  C27  1  0.37297600  0.73430500  0.45054000  1
  C  C28  1  0.63766700  0.25594700  0.55639500  1
  C  C29  1  0.22487300  0.93187400  0.74845700  1
  C  C30  1  0.52135300  0.23962700  0.88610300  1
  C  C31  1  0.71338900  0.57416600  0.27411700  1
  C  C32  1  0.58576500  0.92223400  0.21072000  1
  C  C33  1  0.93682000  0.21944000  0.24874400  1
  C  C34  1  0.74970200  0.47985500  0.61360500  1
  C  C35  1  0.57998600  0.71699000  0.77465800  1
  C  C36  1  0.73892800  0.36950000  0.94108300  1
  C  C37  1  0.93121800  0.57352200  0.70148600  1
  C  C38  1  0.99319800  0.88918700  0.41607200  1
  C  C39  1  0.89313000  0.99922800  0.91090100  1
