# generated using pymatgen
data_Cu2NiC10
_symmetry_space_group_name_H-M   'P 1'
_cell_length_a   5.96630000
_cell_length_b   5.96630000
_cell_length_c   5.56247000
_cell_angle_alpha   90.00000000
_cell_angle_beta   90.00000000
_cell_angle_gamma   90.00000000
_symmetry_Int_Tables_number   1
_chemical_formula_structural   Cu2NiC10
_chemical_formula_sum   'Cu2 Ni1 C10'
_cell_volume   198.00577437
_cell_formula_units_Z   1
loop_
 _symmetry_equiv_pos_site_id
 _symmetry_equiv_pos_as_xyz
  1  'x, y, z'
loop_
 _atom_site_type_symbol
 _atom_site_label
 _atom_site_symmetry_multiplicity
 _atom_site_fract_x
 _atom_site_fract_y
 _atom_site_fract_z
 _atom_site_occupancy
  Ni  Ni0  1  0.00000000  0.00000000  0.02558300  1
  C  C1  1  0.70680600  0.29319400  0.12103800  1
  C  C2  1  0.29319400  0.70680600  0.12103800  1
  C  C3  1  0.70680600  0.70680600  0.12103800  1
  C  C4  1  0.29319400  0.29319400  0.12103800  1
  Cu  Cu5  1  0.50000000  0.00000000  0.73001800  1
  Cu  Cu6  1  0.00000000  0.50000000  0.73001800  1
  C  C7  1  0.00000000  0.00000000  0.49023000  1
  C  C8  1  0.50000000  0.50000000  0.41851100  1
  C  C9  1  0.76638300  0.23361700  0.96832200  1
  C  C10  1  0.23361700  0.76638300  0.96832200  1
  C  C11  1  0.76638300  0.76638300  0.96832200  1
  C  C12  1  0.23361700  0.23361700  0.96832200  1
