# generated using pymatgen
data_Cu15Ni5C3
_symmetry_space_group_name_H-M   'P 1'
_cell_length_a   11.14569524
_cell_length_b   11.14569524
_cell_length_c   9.51952800
_cell_angle_alpha   90.00000000
_cell_angle_beta   90.00000000
_cell_angle_gamma   119.99999548
_symmetry_Int_Tables_number   1
_chemical_formula_structural   Cu15Ni5C3
_chemical_formula_sum   'Cu45 Ni15 C9'
_cell_volume   1024.14251355
_cell_formula_units_Z   3
loop_
 _symmetry_equiv_pos_site_id
 _symmetry_equiv_pos_as_xyz
  1  'x, y, z'
loop_
 _atom_site_type_symbol
 _atom_site_label
 _atom_site_symmetry_multiplicity
 _atom_site_fract_x
 _atom_site_fract_y
 _atom_site_fract_z
 _atom_site_occupancy
  C  C0  1  0.46965700  0.00000000  0.33333300  1
  C  C1  1  0.71672000  0.71672000  0.50000000  1
  C  C2  1  0.00000000  0.28328000  0.16666700  1
  C  C3  1  0.28328000  0.00000000  0.83333300  1
  C  C4  1  0.53034300  0.53034300  0.00000000  1
  C  C5  1  0.00000000  0.46965700  0.66666700  1
  C  C6  1  0.00000000  0.68111200  0.16666700  1
  C  C7  1  0.31888800  0.31888800  0.50000000  1
  C  C8  1  0.68111200  0.00000000  0.83333300  1
  Ni  Ni9  1  0.25476800  0.67761300  0.10520600  1
  Ni  Ni10  1  0.67761300  0.25476800  0.89479400  1
  Ni  Ni11  1  0.74792300  0.10097900  0.56038000  1
  Ni  Ni12  1  0.91874900  0.00000000  0.83333300  1
  Ni  Ni13  1  0.25207700  0.35305600  0.77295300  1
  Ni  Ni14  1  0.89902100  0.64694400  0.89371300  1
  Ni  Ni15  1  0.10097900  0.74792300  0.43962000  1
  Ni  Ni16  1  0.74523200  0.42284500  0.22812700  1
  Ni  Ni17  1  0.32238700  0.57715500  0.43853900  1
  Ni  Ni18  1  0.64694400  0.89902100  0.10628700  1
  Ni  Ni19  1  0.35305600  0.25207700  0.22704700  1
  Ni  Ni20  1  0.57715500  0.32238700  0.56146100  1
  Ni  Ni21  1  0.08125100  0.08125100  0.50000000  1
  Ni  Ni22  1  0.42284500  0.74523200  0.77187300  1
  Ni  Ni23  1  0.00000000  0.91874900  0.16666700  1
  Cu  Cu24  1  0.63690300  0.98564400  0.58877600  1
  Cu  Cu25  1  0.33832700  0.17575800  0.33392400  1
  Cu  Cu26  1  0.54445400  0.41403800  0.51739600  1
  Cu  Cu27  1  0.91663500  0.81513800  0.24236600  1
  Cu  Cu28  1  0.72173400  0.52071400  0.24416800  1
  Cu  Cu29  1  0.58596200  0.13041600  0.85072900  1
  Cu  Cu30  1  0.37185100  0.22291600  0.10730200  1
  Cu  Cu31  1  0.47928600  0.20102000  0.57750100  1
  Cu  Cu32  1  0.00000000  0.02885300  0.16666700  1
  Cu  Cu33  1  0.08336500  0.89850300  0.09096700  1
  Cu  Cu34  1  0.16256800  0.82424200  0.33274300  1
  Cu  Cu35  1  0.65125900  0.01435600  0.07789100  1
  Cu  Cu36  1  0.29935200  0.65874000  0.75312000  1
  Cu  Cu37  1  0.86958400  0.45554600  0.18406200  1
  Cu  Cu38  1  0.81513800  0.91663500  0.75763400  1
  Cu  Cu39  1  0.45554600  0.86958400  0.81593800  1
  Cu  Cu40  1  0.14893500  0.77708400  0.55936400  1
  Cu  Cu41  1  0.01435600  0.65125900  0.92210900  1
  Cu  Cu42  1  0.65874000  0.29935200  0.24688000  1
  Cu  Cu43  1  0.22291600  0.37185100  0.89269800  1
  Cu  Cu44  1  0.52071400  0.72173400  0.75583200  1
  Cu  Cu45  1  0.89850300  0.08336500  0.90903300  1
  Cu  Cu46  1  0.17575800  0.33832700  0.66607600  1
  Cu  Cu47  1  0.41403800  0.54445400  0.48260400  1
  Cu  Cu48  1  0.34126000  0.64061200  0.08645400  1
  Cu  Cu49  1  0.13041600  0.58596200  0.14927100  1
  Cu  Cu50  1  0.20102000  0.47928600  0.42249900  1
  Cu  Cu51  1  0.70064800  0.35938800  0.58021300  1
  Cu  Cu52  1  0.36309700  0.34874100  0.74455800  1
  Cu  Cu53  1  0.34874100  0.36309700  0.25544200  1
  Cu  Cu54  1  0.82424200  0.16256800  0.66725700  1
  Cu  Cu55  1  0.64061200  0.34126000  0.91354600  1
  Cu  Cu56  1  0.85106500  0.62814900  0.77396900  1
  Cu  Cu57  1  0.79898000  0.27826600  0.91083400  1
  Cu  Cu58  1  0.66167300  0.83743200  0.99941000  1
  Cu  Cu59  1  0.77708400  0.14893500  0.44063600  1
  Cu  Cu60  1  0.35938800  0.70064800  0.41978700  1
  Cu  Cu61  1  0.10149700  0.18486200  0.42430100  1
  Cu  Cu62  1  0.83743200  0.66167300  0.00059000  1
  Cu  Cu63  1  0.97114700  0.97114700  0.50000000  1
  Cu  Cu64  1  0.62814900  0.85106500  0.22603100  1
  Cu  Cu65  1  0.98564400  0.63690300  0.41122400  1
  Cu  Cu66  1  0.02885300  0.00000000  0.83333300  1
  Cu  Cu67  1  0.18486200  0.10149700  0.57569900  1
  Cu  Cu68  1  0.27826600  0.79898000  0.08916600  1
