# generated using pymatgen
data_CuNiC19
_symmetry_space_group_name_H-M   'P 1'
_cell_length_a   11.04911100
_cell_length_b   11.08887430
_cell_length_c   11.09076671
_cell_angle_alpha   108.95576460
_cell_angle_beta   109.37960133
_cell_angle_gamma   109.50213608
_symmetry_Int_Tables_number   1
_chemical_formula_structural   CuNiC19
_chemical_formula_sum   'Cu4 Ni4 C76'
_cell_volume   1053.40749495
_cell_formula_units_Z   4
loop_
 _symmetry_equiv_pos_site_id
 _symmetry_equiv_pos_as_xyz
  1  'x, y, z'
loop_
 _atom_site_type_symbol
 _atom_site_label
 _atom_site_symmetry_multiplicity
 _atom_site_fract_x
 _atom_site_fract_y
 _atom_site_fract_z
 _atom_site_occupancy
  C  C0  1  0.12994800  0.75553800  0.88100300  1
  C  C1  1  0.12748300  0.87188100  0.24817900  1
  C  C2  1  0.24822100  0.12684600  0.87281100  1
  C  C3  1  0.28033900  0.64282300  0.39175600  1
  C  C4  1  0.36558200  0.64360100  0.75283900  1
  C  C5  1  0.40662900  0.45113000  0.69832400  1
  C  C6  1  0.36849600  0.22085600  0.61182800  1
  C  C7  1  0.60789600  0.72378200  0.35428100  1
  C  C8  1  0.75143100  0.87484100  0.12905600  1
  C  C9  1  0.62781500  0.37441000  0.25099900  1
  C  C10  1  0.74708000  0.37571200  0.62159900  1
  C  C11  1  0.89391200  0.14062200  0.75366400  1
  C  C12  1  0.74361600  0.94637200  0.54362500  1
  C  C13  1  0.83886800  0.21025300  0.13352800  1
  C  C14  1  0.05009900  0.44914300  0.25054100  1
  C  C15  1  0.89807500  0.20461700  0.95864600  1
  C  C16  1  0.25975800  0.88157600  0.63012200  1
  C  C17  1  0.12992900  0.37840100  0.75542900  1
  C  C18  1  0.13075800  0.25023700  0.37661000  1
  C  C19  1  0.61826300  0.87272200  0.74907200  1
  C  C20  1  0.26808900  0.38128200  0.13142800  1
  C  C21  1  0.38610900  0.76145500  0.12795600  1
  C  C22  1  0.61768900  0.25169700  0.87871200  1
  C  C23  1  0.38025100  0.12261300  0.24761300  1
  C  C24  1  0.75379000  0.62852400  0.87709500  1
  C  C25  1  0.87525100  0.74630500  0.62641200  1
  C  C26  1  0.74198400  0.12606300  0.36767800  1
  C  C27  1  0.86472900  0.63459000  0.25161900  1
  Ni  Ni28  1  0.50291100  0.00015600  0.49867800  1
  Ni  Ni29  1  0.50363700  0.50512200  0.50234900  1
  Ni  Ni30  1  0.49907200  0.49688100  0.99528100  1
  Ni  Ni31  1  0.49682700  0.00109700  0.99656200  1
  Cu  Cu32  1  0.00341700  0.00395700  0.00522200  1
  Cu  Cu33  1  0.00404000  0.00526000  0.50194600  1
  Cu  Cu34  1  0.00479500  0.50676800  0.50583400  1
  Cu  Cu35  1  0.00160800  0.50081200  0.00131400  1
  C  C36  1  0.09277000  0.97690200  0.66752600  1
  C  C37  1  0.02531200  0.33008800  0.90976000  1
  C  C38  1  0.12526200  0.59704800  0.93422600  1
  C  C39  1  0.07926000  0.69310100  0.67365600  1
  C  C40  1  0.07277000  0.88674900  0.40340000  1
  C  C41  1  0.09818800  0.61779500  0.42358900  1
  C  C42  1  0.17289100  0.47895100  0.59728900  1
  C  C43  1  0.41494700  0.83240000  0.79785900  1
  C  C44  1  0.30015200  0.32707100  0.91830900  1
  C  C45  1  0.37916300  0.56554000  0.88364800  1
  C  C46  1  0.17461200  0.19764900  0.58134500  1
  C  C47  1  0.01562900  0.19489900  0.12022700  1
  C  C48  1  0.32971200  0.91850600  0.30066700  1
  C  C49  1  0.17850600  0.56003600  0.17638500  1
  C  C50  1  0.41411800  0.83235600  0.53266400  1
  C  C51  1  0.30102900  0.47486400  0.37854600  1
  C  C52  1  0.32814200  0.91121800  0.02931200  1
  C  C53  1  0.12070200  0.02813800  0.19694900  1
  C  C54  1  0.40554800  0.08364100  0.88065900  1
  C  C55  1  0.52475200  0.62211600  0.70157800  1
  C  C56  1  0.52525000  0.40599100  0.82089900  1
  C  C57  1  0.38206200  0.31957200  0.49889000  1
  C  C58  1  0.19333800  0.12284600  0.02711900  1
  C  C59  1  0.58456400  0.90568200  0.37689200  1
  C  C60  1  0.43181300  0.09125100  0.62778500  1
  C  C61  1  0.81378400  0.88522500  0.98332500  1
  C  C62  1  0.62588200  0.70629200  0.52763100  1
  C  C63  1  0.46580100  0.58996400  0.16141700  1
  C  C64  1  0.47618100  0.37906500  0.30728600  1
  C  C65  1  0.59396100  0.92212100  0.11657600  1
  C  C66  1  0.88860400  0.00210700  0.82557300  1
  C  C67  1  0.66877700  0.08728100  0.96027700  1
  C  C68  1  0.70397000  0.53490800  0.62624400  1
  C  C69  1  0.59235500  0.17208300  0.46949200  1
  C  C70  1  0.81391800  0.42825200  0.83334600  1
  C  C71  1  0.68777200  0.06497800  0.67989600  1
  C  C72  1  0.98111300  0.81599600  0.88360600  1
  C  C73  1  0.82646000  0.81911000  0.43181300  1
  C  C74  1  0.69846400  0.67176700  0.07796400  1
  C  C75  1  0.62383500  0.42221200  0.09250400  1
  C  C76  1  0.58601100  0.17427400  0.19647900  1
  C  C77  1  0.83614500  0.53356200  0.41149100  1
  C  C78  1  0.90537800  0.38198400  0.57024600  1
  C  C79  1  0.92323500  0.11574100  0.59433300  1
  C  C80  1  0.93998000  0.32560500  0.33154500  1
  C  C81  1  0.88419200  0.38321100  0.06563100  1
  C  C82  1  0.97420200  0.66281200  0.09909600  1
  C  C83  1  0.91059200  0.03279400  0.33624000  1
