# generated using pymatgen
data_Cu21NiC17
_symmetry_space_group_name_H-M   'P 1'
_cell_length_a   10.03224523
_cell_length_b   10.03224523
_cell_length_c   12.27385200
_cell_angle_alpha   90.00000000
_cell_angle_beta   90.00000000
_cell_angle_gamma   119.99999490
_symmetry_Int_Tables_number   1
_chemical_formula_structural   Cu21NiC17
_chemical_formula_sum   'Cu42 Ni2 C34'
_cell_volume   1069.81286230
_cell_formula_units_Z   2
loop_
 _symmetry_equiv_pos_site_id
 _symmetry_equiv_pos_as_xyz
  1  'x, y, z'
loop_
 _atom_site_type_symbol
 _atom_site_label
 _atom_site_symmetry_multiplicity
 _atom_site_fract_x
 _atom_site_fract_y
 _atom_site_fract_z
 _atom_site_occupancy
  C  C0  1  0.72494100  0.67577000  0.25000000  1
  C  C1  1  0.95082900  0.27505900  0.25000000  1
  C  C2  1  0.32423000  0.04917100  0.25000000  1
  C  C3  1  0.27505900  0.32423000  0.75000000  1
  C  C4  1  0.04917100  0.72494100  0.75000000  1
  C  C5  1  0.67577000  0.95082900  0.75000000  1
  C  C6  1  0.00000000  0.00000000  0.50000000  1
  C  C7  1  0.00000000  0.00000000  0.00000000  1
  C  C8  1  0.33333300  0.66666700  0.25000000  1
  C  C9  1  0.66666700  0.33333300  0.75000000  1
  C  C10  1  0.28312900  0.80143000  0.50822000  1
  C  C11  1  0.51830100  0.71687100  0.50822000  1
  C  C12  1  0.19857000  0.48169900  0.50822000  1
  C  C13  1  0.71687100  0.19857000  0.00822000  1
  C  C14  1  0.48169900  0.28312900  0.00822000  1
  C  C15  1  0.80143000  0.51830100  0.00822000  1
  C  C16  1  0.71687100  0.19857000  0.49178000  1
  C  C17  1  0.48169900  0.28312900  0.49178000  1
  C  C18  1  0.80143000  0.51830100  0.49178000  1
  C  C19  1  0.28312900  0.80143000  0.99178000  1
  C  C20  1  0.51830100  0.71687100  0.99178000  1
  C  C21  1  0.19857000  0.48169900  0.99178000  1
  C  C22  1  0.03341000  0.63818000  0.31454500  1
  C  C23  1  0.60477000  0.96659000  0.31454500  1
  C  C24  1  0.36182000  0.39523000  0.31454500  1
  C  C25  1  0.96659000  0.36182000  0.81454500  1
  C  C26  1  0.39523000  0.03341000  0.81454500  1
  C  C27  1  0.63818000  0.60477000  0.81454500  1
  C  C28  1  0.96659000  0.36182000  0.68545500  1
  C  C29  1  0.39523000  0.03341000  0.68545500  1
  C  C30  1  0.63818000  0.60477000  0.68545500  1
  C  C31  1  0.03341000  0.63818000  0.18545500  1
  C  C32  1  0.60477000  0.96659000  0.18545500  1
  C  C33  1  0.36182000  0.39523000  0.18545500  1
  Ni  Ni34  1  0.00000000  0.00000000  0.25000000  1
  Ni  Ni35  1  0.00000000  0.00000000  0.75000000  1
  Cu  Cu36  1  0.28251400  0.80662400  0.38567200  1
  Cu  Cu37  1  0.52411000  0.71748600  0.38567200  1
  Cu  Cu38  1  0.19337600  0.47589000  0.38567200  1
  Cu  Cu39  1  0.71748600  0.19337600  0.88567200  1
  Cu  Cu40  1  0.47589000  0.28251400  0.88567200  1
  Cu  Cu41  1  0.80662400  0.52411000  0.88567200  1
  Cu  Cu42  1  0.71748600  0.19337600  0.61432800  1
  Cu  Cu43  1  0.47589000  0.28251400  0.61432800  1
  Cu  Cu44  1  0.80662400  0.52411000  0.61432800  1
  Cu  Cu45  1  0.28251400  0.80662400  0.11432800  1
  Cu  Cu46  1  0.52411000  0.71748600  0.11432800  1
  Cu  Cu47  1  0.19337600  0.47589000  0.11432800  1
  Cu  Cu48  1  0.24375000  0.90101800  0.57479300  1
  Cu  Cu49  1  0.65726800  0.75625000  0.57479300  1
  Cu  Cu50  1  0.09898200  0.34273200  0.57479300  1
  Cu  Cu51  1  0.75625000  0.09898200  0.07479300  1
  Cu  Cu52  1  0.34273200  0.24375000  0.07479300  1
  Cu  Cu53  1  0.90101800  0.65726800  0.07479300  1
  Cu  Cu54  1  0.75625000  0.09898200  0.42520700  1
  Cu  Cu55  1  0.34273200  0.24375000  0.42520700  1
  Cu  Cu56  1  0.90101800  0.65726800  0.42520700  1
  Cu  Cu57  1  0.24375000  0.90101800  0.92520700  1
  Cu  Cu58  1  0.65726800  0.75625000  0.92520700  1
  Cu  Cu59  1  0.09898200  0.34273200  0.92520700  1
  Cu  Cu60  1  0.17167200  0.62280100  0.54804200  1
  Cu  Cu61  1  0.45112900  0.82832800  0.54804200  1
  Cu  Cu62  1  0.37719900  0.54887100  0.54804200  1
  Cu  Cu63  1  0.82832800  0.37719900  0.04804200  1
  Cu  Cu64  1  0.54887100  0.17167200  0.04804200  1
  Cu  Cu65  1  0.62280100  0.45112900  0.04804200  1
  Cu  Cu66  1  0.82832800  0.37719900  0.45195800  1
  Cu  Cu67  1  0.54887100  0.17167200  0.45195800  1
  Cu  Cu68  1  0.62280100  0.45112900  0.45195800  1
  Cu  Cu69  1  0.17167200  0.62280100  0.95195800  1
  Cu  Cu70  1  0.45112900  0.82832800  0.95195800  1
  Cu  Cu71  1  0.37719900  0.54887100  0.95195800  1
  Cu  Cu72  1  0.05808700  0.59602500  0.25000000  1
  Cu  Cu73  1  0.53793800  0.94191300  0.25000000  1
  Cu  Cu74  1  0.40397500  0.46206200  0.25000000  1
  Cu  Cu75  1  0.94191300  0.40397500  0.75000000  1
  Cu  Cu76  1  0.46206200  0.05808700  0.75000000  1
  Cu  Cu77  1  0.59602500  0.53793800  0.75000000  1
