# generated using pymatgen
data_Cu9(NiC11)2
_symmetry_space_group_name_H-M   'P 1'
_cell_length_a   3.68130200
_cell_length_b   6.39041500
_cell_length_c   33.16453238
_cell_angle_alpha   85.97700227
_cell_angle_beta   90.00000000
_cell_angle_gamma   90.00000000
_symmetry_Int_Tables_number   1
_chemical_formula_structural   Cu9(NiC11)2
_chemical_formula_sum   'Cu18 Ni4 C44'
_cell_volume   778.27477146
_cell_formula_units_Z   2
loop_
 _symmetry_equiv_pos_site_id
 _symmetry_equiv_pos_as_xyz
  1  'x, y, z'
loop_
 _atom_site_type_symbol
 _atom_site_label
 _atom_site_symmetry_multiplicity
 _atom_site_fract_x
 _atom_site_fract_y
 _atom_site_fract_z
 _atom_site_occupancy
  Ni  Ni0  1  0.50000000  0.41349600  0.27249000  1
  Ni  Ni1  1  0.50000000  0.32345200  0.54529200  1
  Ni  Ni2  1  0.50000000  0.59142400  0.72735600  1
  Ni  Ni3  1  0.50000000  0.85913900  0.90957700  1
  Cu  Cu4  1  0.00000000  0.99757300  0.00017600  1
  Cu  Cu5  1  0.00000000  0.63521300  0.09115000  1
  Cu  Cu6  1  0.00000000  0.27276600  0.18204400  1
  Cu  Cu7  1  0.00000000  0.54706700  0.36318600  1
  Cu  Cu8  1  0.00000000  0.18112600  0.45489300  1
  Cu  Cu9  1  0.00000000  0.09114300  0.72695000  1
  Cu  Cu10  1  0.00000000  0.72398200  0.81871600  1
  Cu  Cu11  1  0.00000000  0.36038500  0.90902500  1
  Cu  Cu12  1  0.50000000  0.13397800  0.09112700  1
  Cu  Cu13  1  0.50000000  0.77433300  0.18124600  1
  Cu  Cu14  1  0.50000000  0.04677500  0.36402100  1
  Cu  Cu15  1  0.50000000  0.68172400  0.45367500  1
  Cu  Cu16  1  0.50000000  0.95565000  0.63589700  1
  Cu  Cu17  1  0.50000000  0.22455100  0.81827600  1
  Cu  Cu18  1  0.50000000  0.49631100  0.00109300  1
  Cu  Cu19  1  0.00000000  0.91443300  0.27178300  1
  Cu  Cu20  1  0.00000000  0.82322800  0.54456200  1
  Cu  Cu21  1  0.00000000  0.45540200  0.63639100  1
  C  C22  1  0.00000000  0.67277000  0.02672000  1
  C  C23  1  0.00000000  0.94532200  0.20430500  1
  C  C24  1  0.00000000  0.59551000  0.29842800  1
  C  C25  1  0.00000000  0.21881600  0.38915900  1
  C  C26  1  0.00000000  0.85116600  0.47676400  1
  C  C27  1  0.00000000  0.50275000  0.57066000  1
  C  C28  1  0.00000000  0.11753300  0.65924300  1
  C  C29  1  0.00000000  0.81074500  0.61522800  1
  C  C30  1  0.00000000  0.38389400  0.84177900  1
  C  C31  1  0.00000000  0.07710600  0.79721000  1
  C  C32  1  0.50000000  0.13565400  0.02161900  1
  C  C33  1  0.50000000  0.45531700  0.06678300  1
  C  C34  1  0.50000000  0.77978500  0.10955900  1
  C  C35  1  0.50000000  0.42624600  0.19854500  1
  C  C36  1  0.50000000  0.09826400  0.15632200  1
  C  C37  1  0.50000000  0.75751500  0.24540200  1
  C  C38  1  0.50000000  0.04140400  0.29650900  1
  C  C39  1  0.50000000  0.37085100  0.34214600  1
  C  C40  1  0.50000000  0.69287900  0.38379200  1
  C  C41  1  0.50000000  0.33697500  0.47168400  1
  C  C42  1  0.50000000  0.00949600  0.43018900  1
  C  C43  1  0.50000000  0.66810400  0.51840400  1
  C  C44  1  0.50000000  0.95773800  0.56821200  1
  C  C45  1  0.50000000  0.61317100  0.65505500  1
  C  C46  1  0.50000000  0.28603900  0.61527000  1
  C  C47  1  0.50000000  0.93988600  0.70178300  1
  C  C48  1  0.50000000  0.22924200  0.75088900  1
  C  C49  1  0.50000000  0.88245900  0.83757600  1
  C  C50  1  0.50000000  0.55554100  0.79787700  1
  C  C51  1  0.50000000  0.20796100  0.88431400  1
  C  C52  1  0.50000000  0.49132500  0.93412400  1
  C  C53  1  0.50000000  0.81809200  0.97925600  1
  C  C54  1  0.00000000  0.31286300  0.11614400  1
  C  C55  1  0.00000000  0.99627400  0.07147800  1
  C  C56  1  0.00000000  0.63648900  0.15951800  1
  C  C57  1  0.00000000  0.24792600  0.24915800  1
  C  C58  1  0.00000000  0.90269300  0.34534600  1
  C  C59  1  0.00000000  0.54169400  0.43216400  1
  C  C60  1  0.00000000  0.15729600  0.52137700  1
  C  C61  1  0.00000000  0.76801600  0.75283800  1
  C  C62  1  0.00000000  0.42323600  0.70325600  1
  C  C63  1  0.00000000  0.03976200  0.93587500  1
  C  C64  1  0.00000000  0.69038800  0.88599800  1
  C  C65  1  0.00000000  0.35066100  0.98311700  1
