# generated using pymatgen
data_Cu2Ni8C15
_symmetry_space_group_name_H-M   'P 1'
_cell_length_a   12.12568836
_cell_length_b   12.12568836
_cell_length_c   11.88054042
_cell_angle_alpha   65.53479051
_cell_angle_beta   65.53479051
_cell_angle_gamma   46.92003554
_symmetry_Int_Tables_number   1
_chemical_formula_structural   Cu2Ni8C15
_chemical_formula_sum   'Cu8 Ni32 C60'
_cell_volume   1138.45892743
_cell_formula_units_Z   4
loop_
 _symmetry_equiv_pos_site_id
 _symmetry_equiv_pos_as_xyz
  1  'x, y, z'
loop_
 _atom_site_type_symbol
 _atom_site_label
 _atom_site_symmetry_multiplicity
 _atom_site_fract_x
 _atom_site_fract_y
 _atom_site_fract_z
 _atom_site_occupancy
  C  C0  1  0.13900000  0.10487000  0.79615600  1
  C  C1  1  0.10487000  0.13900000  0.29615600  1
  C  C2  1  0.86100000  0.89513000  0.20384400  1
  C  C3  1  0.89513000  0.86100000  0.70384400  1
  C  C4  1  0.36086000  0.38155000  0.71008400  1
  C  C5  1  0.38155000  0.36086000  0.21008400  1
  C  C6  1  0.63914000  0.61845000  0.28991600  1
  C  C7  1  0.61845000  0.63914000  0.78991600  1
  C  C8  1  0.74860600  0.25139400  0.75000000  1
  C  C9  1  0.25139400  0.74860600  0.25000000  1
  C  C10  1  0.00000000  0.50000000  0.00000000  1
  C  C11  1  0.50000000  0.00000000  0.50000000  1
  Ni  Ni12  1  0.21562500  0.17749900  0.47194100  1
  Ni  Ni13  1  0.17749900  0.21562500  0.97194100  1
  Ni  Ni14  1  0.78437500  0.82250100  0.52805900  1
  Ni  Ni15  1  0.82250100  0.78437500  0.02805900  1
  Ni  Ni16  1  0.25330700  0.01518200  0.53243100  1
  Ni  Ni17  1  0.01518200  0.25330700  0.03243100  1
  Ni  Ni18  1  0.74669300  0.98481800  0.46756900  1
  Ni  Ni19  1  0.98481800  0.74669300  0.96756900  1
  Ni  Ni20  1  0.69238800  0.70119100  0.47774400  1
  Ni  Ni21  1  0.70119100  0.69238800  0.97774400  1
  Ni  Ni22  1  0.30761200  0.29880900  0.52225600  1
  Ni  Ni23  1  0.29880900  0.30761200  0.02225600  1
  Ni  Ni24  1  0.52417800  0.74919500  0.52996300  1
  Ni  Ni25  1  0.74919500  0.52417800  0.02996300  1
  Ni  Ni26  1  0.47582200  0.25080500  0.47003700  1
  Ni  Ni27  1  0.25080500  0.47582200  0.97003700  1
  Ni  Ni28  1  0.04753400  0.99155800  0.67363700  1
  Ni  Ni29  1  0.99155800  0.04753400  0.17363700  1
  Ni  Ni30  1  0.95246600  0.00844200  0.32636300  1
  Ni  Ni31  1  0.00844200  0.95246600  0.82636300  1
  Ni  Ni32  1  0.48861100  0.54940900  0.67380600  1
  Ni  Ni33  1  0.54940900  0.48861100  0.17380600  1
  Ni  Ni34  1  0.51138900  0.45059100  0.32619400  1
  Ni  Ni35  1  0.45059100  0.51138900  0.82619400  1
  Ni  Ni36  1  0.86029000  0.40532200  0.54104500  1
  Ni  Ni37  1  0.40532200  0.86029000  0.04104500  1
  Ni  Ni38  1  0.13971000  0.59467800  0.45895500  1
  Ni  Ni39  1  0.59467800  0.13971000  0.95895500  1
  Ni  Ni40  1  0.89424500  0.37917100  0.66749700  1
  Ni  Ni41  1  0.37917100  0.89424500  0.16749700  1
  Ni  Ni42  1  0.10575500  0.62082900  0.33250300  1
  Ni  Ni43  1  0.62082900  0.10575500  0.83250300  1
  Cu  Cu44  1  0.27289500  0.77236700  0.52201300  1
  Cu  Cu45  1  0.77236700  0.27289500  0.02201300  1
  Cu  Cu46  1  0.72710500  0.22763300  0.47798700  1
  Cu  Cu47  1  0.22763300  0.72710500  0.97798700  1
  Cu  Cu48  1  0.00087900  0.48011600  0.29957000  1
  Cu  Cu49  1  0.48011600  0.00087900  0.79957000  1
  Cu  Cu50  1  0.99912100  0.51988400  0.70043000  1
  Cu  Cu51  1  0.51988400  0.99912100  0.20043000  1
  C  C52  1  0.06516300  0.82053800  0.96313000  1
  C  C53  1  0.82053800  0.06516300  0.46313000  1
  C  C54  1  0.93483700  0.17946200  0.03687000  1
  C  C55  1  0.17946200  0.93483700  0.53687000  1
  C  C56  1  0.43494800  0.68240600  0.53582000  1
  C  C57  1  0.68240600  0.43494800  0.03582000  1
  C  C58  1  0.56505200  0.31759400  0.46418000  1
  C  C59  1  0.31759400  0.56505200  0.96418000  1
  C  C60  1  0.85796400  0.53920400  0.40055500  1
  C  C61  1  0.53920400  0.85796400  0.90055500  1
  C  C62  1  0.14203600  0.46079600  0.59944500  1
  C  C63  1  0.46079600  0.14203600  0.09944500  1
  C  C64  1  0.13160600  0.32307700  0.35009500  1
  C  C65  1  0.32307700  0.13160600  0.85009500  1
  C  C66  1  0.86839400  0.67692300  0.64990500  1
  C  C67  1  0.67692300  0.86839400  0.14990500  1
  C  C68  1  0.72316000  0.22003900  0.60759900  1
  C  C69  1  0.22003900  0.72316000  0.10759900  1
  C  C70  1  0.27684000  0.77996100  0.39240100  1
  C  C71  1  0.77996100  0.27684000  0.89240100  1
  C  C72  1  0.20499200  0.69838000  0.61823100  1
  C  C73  1  0.69838000  0.20499200  0.11823100  1
  C  C74  1  0.79500800  0.30162000  0.38176900  1
  C  C75  1  0.30162000  0.79500800  0.88176900  1
  C  C76  1  0.03151900  0.52870800  0.80383400  1
  C  C77  1  0.52870800  0.03151900  0.30383400  1
  C  C78  1  0.96848100  0.47129200  0.19616600  1
  C  C79  1  0.47129200  0.96848100  0.69616600  1
  C  C80  1  0.58376500  0.04345300  0.74999000  1
  C  C81  1  0.04345300  0.58376500  0.24999000  1
  C  C82  1  0.41623500  0.95654700  0.25001000  1
  C  C83  1  0.95654700  0.41623500  0.75001000  1
  C  C84  1  0.27264600  0.08216000  0.53475700  1
  C  C85  1  0.08216000  0.27264600  0.03475700  1
  C  C86  1  0.72735400  0.91784000  0.46524300  1
  C  C87  1  0.91784000  0.72735400  0.96524300  1
  C  C88  1  0.59105900  0.77053700  0.52894700  1
  C  C89  1  0.77053700  0.59105900  0.02894700  1
  C  C90  1  0.40894100  0.22946300  0.47105300  1
  C  C91  1  0.22946300  0.40894100  0.97105300  1
  C  C92  1  0.96785500  0.03214500  0.75000000  1
  C  C93  1  0.03214500  0.96785500  0.25000000  1
  C  C94  1  0.52999900  0.47000100  0.75000000  1
  C  C95  1  0.47000100  0.52999900  0.25000000  1
  C  C96  1  0.85635300  0.35281900  0.63086400  1
  C  C97  1  0.35281900  0.85635300  0.13086400  1
  C  C98  1  0.14364700  0.64718100  0.36913600  1
  C  C99  1  0.64718100  0.14364700  0.86913600  1
