# generated using pymatgen
data_Cu3Ni3C
_symmetry_space_group_name_H-M   'P 1'
_cell_length_a   7.46972952
_cell_length_b   7.46972952
_cell_length_c   7.46972971
_cell_angle_alpha   93.31641814
_cell_angle_beta   93.31641814
_cell_angle_gamma   93.31642632
_symmetry_Int_Tables_number   1
_chemical_formula_structural   Cu3Ni3C
_chemical_formula_sum   'Cu12 Ni12 C4'
_cell_volume   414.60881444
_cell_formula_units_Z   4
loop_
 _symmetry_equiv_pos_site_id
 _symmetry_equiv_pos_as_xyz
  1  'x, y, z'
loop_
 _atom_site_type_symbol
 _atom_site_label
 _atom_site_symmetry_multiplicity
 _atom_site_fract_x
 _atom_site_fract_y
 _atom_site_fract_z
 _atom_site_occupancy
  C  C0  1  0.50000000  0.50000000  0.00000000  1
  C  C1  1  0.00000000  0.50000000  0.50000000  1
  C  C2  1  0.50000000  0.00000000  0.50000000  1
  Ni  Ni3  1  0.05588500  0.21941500  0.05588500  1
  Ni  Ni4  1  0.05588500  0.05588500  0.21941500  1
  Ni  Ni5  1  0.21941500  0.05588500  0.05588500  1
  Ni  Ni6  1  0.94411500  0.78058500  0.94411500  1
  Ni  Ni7  1  0.94411500  0.94411500  0.78058500  1
  Ni  Ni8  1  0.78058500  0.94411500  0.94411500  1
  Ni  Ni9  1  0.88527600  0.15085700  0.88527600  1
  Ni  Ni10  1  0.88527600  0.88527600  0.15085700  1
  Ni  Ni11  1  0.15085700  0.88527600  0.88527600  1
  Ni  Ni12  1  0.11472400  0.84914300  0.11472400  1
  Ni  Ni13  1  0.11472400  0.11472400  0.84914300  1
  Ni  Ni14  1  0.84914300  0.11472400  0.11472400  1
  Cu  Cu15  1  0.90430300  0.62404100  0.90430300  1
  Cu  Cu16  1  0.90430300  0.90430300  0.62404100  1
  Cu  Cu17  1  0.62404100  0.90430300  0.90430300  1
  Cu  Cu18  1  0.09569700  0.37595900  0.09569700  1
  Cu  Cu19  1  0.09569700  0.09569700  0.37595900  1
  Cu  Cu20  1  0.37595900  0.09569700  0.09569700  1
  Cu  Cu21  1  0.80271400  0.25741300  0.80271400  1
  Cu  Cu22  1  0.80271400  0.80271400  0.25741300  1
  Cu  Cu23  1  0.25741300  0.80271400  0.80271400  1
  Cu  Cu24  1  0.19728600  0.74258700  0.19728600  1
  Cu  Cu25  1  0.19728600  0.19728600  0.74258700  1
  Cu  Cu26  1  0.74258700  0.19728600  0.19728600  1
  C  C27  1  0.50000000  0.50000000  0.50000000  1
