# generated using pymatgen
data_CuNiC14
_symmetry_space_group_name_H-M   'P 1'
_cell_length_a   9.68270859
_cell_length_b   9.68270859
_cell_length_c   12.08862500
_cell_angle_alpha   90.00000000
_cell_angle_beta   90.00000000
_cell_angle_gamma   114.93167159
_symmetry_Int_Tables_number   1
_chemical_formula_structural   CuNiC14
_chemical_formula_sum   'Cu2 Ni2 C28'
_cell_volume   1027.74997420
_cell_formula_units_Z   2
loop_
 _symmetry_equiv_pos_site_id
 _symmetry_equiv_pos_as_xyz
  1  'x, y, z'
loop_
 _atom_site_type_symbol
 _atom_site_label
 _atom_site_symmetry_multiplicity
 _atom_site_fract_x
 _atom_site_fract_y
 _atom_site_fract_z
 _atom_site_occupancy
  C  C0  1  0.79589000  0.20411000  0.99753000  1
  C  C1  1  0.20411000  0.79589000  0.49753000  1
  Ni  Ni2  1  0.54597200  0.45402800  0.84613700  1
  Ni  Ni3  1  0.45402800  0.54597200  0.34613700  1
  Cu  Cu4  1  0.14236300  0.85763700  0.03332300  1
  Cu  Cu5  1  0.85763700  0.14236300  0.53332300  1
  C  C6  1  0.24215500  0.06516100  0.09216400  1
  C  C7  1  0.32355600  0.67644400  0.60883300  1
  C  C8  1  0.70280600  0.62292200  0.36649900  1
  C  C9  1  0.55313300  0.44686700  0.66253600  1
  C  C10  1  0.01525400  0.30672700  0.11063800  1
  C  C11  1  0.93483900  0.75784500  0.09216400  1
  C  C12  1  0.25704000  0.74296000  0.08172600  1
  C  C13  1  0.98474600  0.69327300  0.61063800  1
  C  C14  1  0.06516100  0.24215500  0.59216400  1
  C  C15  1  0.89815300  0.42409700  0.88150100  1
  C  C16  1  0.69327300  0.98474600  0.11063800  1
  C  C17  1  0.42409700  0.89815300  0.38150100  1
  C  C18  1  0.37707800  0.29719400  0.36649900  1
  C  C19  1  0.86100100  0.13899900  0.37191900  1
  C  C20  1  0.29719400  0.37707800  0.86649900  1
  C  C21  1  0.13899900  0.86100100  0.87191900  1
  C  C22  1  0.62292200  0.70280600  0.86649900  1
  C  C23  1  0.75784500  0.93483900  0.59216400  1
  C  C24  1  0.08545600  0.91454400  0.38269300  1
  C  C25  1  0.91454400  0.08545600  0.88269300  1
  C  C26  1  0.44686700  0.55313300  0.16253600  1
  C  C27  1  0.30672700  0.01525400  0.61063800  1
  C  C28  1  0.57590300  0.10184700  0.88150100  1
  C  C29  1  0.74296000  0.25704000  0.58172600  1
  C  C30  1  0.67644400  0.32355600  0.10883300  1
  C  C31  1  0.10184700  0.57590300  0.38150100  1
