# generated using pymatgen
data_Cu2(Ni4C5)3
_symmetry_space_group_name_H-M   'P 1'
_cell_length_a   10.45320098
_cell_length_b   10.45320098
_cell_length_c   11.69710388
_cell_angle_alpha   60.23022671
_cell_angle_beta   60.23022671
_cell_angle_gamma   32.06689441
_symmetry_Int_Tables_number   1
_chemical_formula_structural   Cu2(Ni4C5)3
_chemical_formula_sum   'Cu4 Ni24 C30'
_cell_volume   581.00816616
_cell_formula_units_Z   2
loop_
 _symmetry_equiv_pos_site_id
 _symmetry_equiv_pos_as_xyz
  1  'x, y, z'
loop_
 _atom_site_type_symbol
 _atom_site_label
 _atom_site_symmetry_multiplicity
 _atom_site_fract_x
 _atom_site_fract_y
 _atom_site_fract_z
 _atom_site_occupancy
  C  C0  1  0.41263100  0.58736900  0.75000000  1
  C  C1  1  0.58736900  0.41263100  0.25000000  1
  Ni  Ni2  1  0.63308700  0.85168300  0.18245400  1
  Ni  Ni3  1  0.14831700  0.36691300  0.31754600  1
  Ni  Ni4  1  0.36691300  0.14831700  0.81754600  1
  Ni  Ni5  1  0.85168300  0.63308700  0.68245400  1
  Ni  Ni6  1  0.48723100  0.17581900  0.98222900  1
  Ni  Ni7  1  0.82418100  0.51276900  0.51777100  1
  Ni  Ni8  1  0.51276900  0.82418100  0.01777100  1
  Ni  Ni9  1  0.17581900  0.48723100  0.48222900  1
  Ni  Ni10  1  0.21493500  0.69364500  0.55107900  1
  Ni  Ni11  1  0.30635500  0.78506500  0.94892100  1
  Ni  Ni12  1  0.78506500  0.30635500  0.44892100  1
  Ni  Ni13  1  0.69364500  0.21493500  0.05107900  1
  Ni  Ni14  1  0.09519500  0.66184700  0.69463800  1
  Ni  Ni15  1  0.33815300  0.90480500  0.80536200  1
  Ni  Ni16  1  0.90480500  0.33815300  0.30536200  1
  Ni  Ni17  1  0.66184700  0.09519500  0.19463800  1
  Ni  Ni18  1  0.79848700  0.35327500  0.85088300  1
  Ni  Ni19  1  0.64672500  0.20151300  0.64911700  1
  Ni  Ni20  1  0.20151300  0.64672500  0.14911700  1
  Ni  Ni21  1  0.35327500  0.79848700  0.35088300  1
  Ni  Ni22  1  0.90308300  0.12353400  0.85552300  1
  Ni  Ni23  1  0.87646600  0.09691700  0.64447700  1
  Ni  Ni24  1  0.09691700  0.87646600  0.14447700  1
  Ni  Ni25  1  0.12353400  0.90308300  0.35552300  1
  Cu  Cu26  1  0.04303600  0.59865000  0.02366600  1
  Cu  Cu27  1  0.40135000  0.95696400  0.47633400  1
  Cu  Cu28  1  0.95696400  0.40135000  0.97633400  1
  Cu  Cu29  1  0.59865000  0.04303600  0.52366600  1
  C  C30  1  0.02708400  0.80498900  0.90501800  1
  C  C31  1  0.19501100  0.97291600  0.59498200  1
  C  C32  1  0.97291600  0.19501100  0.09498200  1
  C  C33  1  0.80498900  0.02708400  0.40501800  1
  C  C34  1  0.13930200  0.51948500  0.16553900  1
  C  C35  1  0.48051500  0.86069800  0.33446100  1
  C  C36  1  0.86069800  0.48051500  0.83446100  1
  C  C37  1  0.51948500  0.13930200  0.66553900  1
  C  C38  1  0.69330800  0.88098800  0.08684700  1
  C  C39  1  0.11901200  0.30669200  0.41315300  1
  C  C40  1  0.30669200  0.11901200  0.91315300  1
  C  C41  1  0.88098800  0.69330800  0.58684700  1
  C  C42  1  0.37881600  0.34191700  0.92763400  1
  C  C43  1  0.65808300  0.62118400  0.57236600  1
  C  C44  1  0.62118400  0.65808300  0.07236600  1
  C  C45  1  0.34191700  0.37881600  0.42763400  1
  C  C46  1  0.94681900  0.62733200  0.88671100  1
  C  C47  1  0.37266800  0.05318100  0.61328900  1
  C  C48  1  0.05318100  0.37266800  0.11328900  1
  C  C49  1  0.62733200  0.94681900  0.38671100  1
  C  C50  1  0.16444700  0.70570000  0.64637100  1
  C  C51  1  0.29430000  0.83555300  0.85362900  1
  C  C52  1  0.83555300  0.29430000  0.35362900  1
  C  C53  1  0.70570000  0.16444700  0.14637100  1
  C  C54  1  0.74811400  0.29609600  0.86725300  1
  C  C55  1  0.70390400  0.25188600  0.63274700  1
  C  C56  1  0.25188600  0.70390400  0.13274700  1
  C  C57  1  0.29609600  0.74811400  0.36725300  1
