# generated using pymatgen
data_Cu8Ni2C11
_symmetry_space_group_name_H-M   'P 1'
_cell_length_a   9.74822100
_cell_length_b   6.06642800
_cell_length_c   8.75109140
_cell_angle_alpha   54.75552624
_cell_angle_beta   90.00000000
_cell_angle_gamma   90.00000000
_symmetry_Int_Tables_number   1
_chemical_formula_structural   Cu8Ni2C11
_chemical_formula_sum   'Cu16 Ni4 C22'
_cell_volume   422.65081416
_cell_formula_units_Z   2
loop_
 _symmetry_equiv_pos_site_id
 _symmetry_equiv_pos_as_xyz
  1  'x, y, z'
loop_
 _atom_site_type_symbol
 _atom_site_label
 _atom_site_symmetry_multiplicity
 _atom_site_fract_x
 _atom_site_fract_y
 _atom_site_fract_z
 _atom_site_occupancy
  C  C0  1  0.00000000  0.00000000  0.00000000  1
  C  C1  1  0.50000000  0.00000000  0.50000000  1
  Ni  Ni2  1  0.80905800  0.52414800  0.66379800  1
  Ni  Ni3  1  0.69094200  0.52414800  0.16379800  1
  Ni  Ni4  1  0.19094200  0.47585200  0.33620200  1
  Ni  Ni5  1  0.30905800  0.47585200  0.83620200  1
  Cu  Cu6  1  0.56330700  0.80262000  0.19429200  1
  Cu  Cu7  1  0.93669300  0.80262000  0.69429200  1
  Cu  Cu8  1  0.43669300  0.19738000  0.80570800  1
  Cu  Cu9  1  0.06330700  0.19738000  0.30570800  1
  Cu  Cu10  1  0.37456400  0.26007800  0.53797800  1
  Cu  Cu11  1  0.12543600  0.26007800  0.03797800  1
  Cu  Cu12  1  0.62543600  0.73992200  0.46202200  1
  Cu  Cu13  1  0.87456400  0.73992200  0.96202200  1
  Cu  Cu14  1  0.22544300  0.63287300  0.51342400  1
  Cu  Cu15  1  0.27455700  0.63287300  0.01342400  1
  Cu  Cu16  1  0.77455700  0.36712700  0.48657600  1
  Cu  Cu17  1  0.72544300  0.36712700  0.98657600  1
  Cu  Cu18  1  0.57278500  0.08692700  0.20607000  1
  Cu  Cu19  1  0.92721500  0.08692700  0.70607000  1
  Cu  Cu20  1  0.42721500  0.91307300  0.79393000  1
  Cu  Cu21  1  0.07278500  0.91307300  0.29393000  1
  C  C22  1  0.82355800  0.30768100  0.87321200  1
  C  C23  1  0.67644200  0.30768100  0.37321200  1
  C  C24  1  0.17644200  0.69231900  0.12678800  1
  C  C25  1  0.32355800  0.69231900  0.62678800  1
  C  C26  1  0.65656800  0.62249600  0.61186400  1
  C  C27  1  0.84343200  0.62249600  0.11186400  1
  C  C28  1  0.34343200  0.37750400  0.38813600  1
  C  C29  1  0.15656800  0.37750400  0.88813600  1
  C  C30  1  0.04038400  0.09030500  0.18528400  1
  C  C31  1  0.45961600  0.09030500  0.68528400  1
  C  C32  1  0.95961600  0.90969500  0.81471600  1
  C  C33  1  0.54038400  0.90969500  0.31471600  1
  C  C34  1  0.64915700  0.41582100  0.04441400  1
  C  C35  1  0.85084300  0.41582100  0.54441400  1
  C  C36  1  0.35084300  0.58417900  0.95558600  1
  C  C37  1  0.14915700  0.58417900  0.45558600  1
  C  C38  1  0.90637000  0.76791900  0.59651000  1
  C  C39  1  0.59363000  0.76791900  0.09651000  1
  C  C40  1  0.09363000  0.23208100  0.40349000  1
  C  C41  1  0.40637000  0.23208100  0.90349000  1
