# generated using pymatgen
data_Cu4Ni
_symmetry_space_group_name_H-M   'P 1'
_cell_length_a   12.79460527
_cell_length_b   12.79460527
_cell_length_c   21.96217188
_cell_angle_alpha   72.02103234
_cell_angle_beta   72.02103234
_cell_angle_gamma   59.12678479
_symmetry_Int_Tables_number   1
_chemical_formula_structural   Cu4Ni
_chemical_formula_sum   'Cu64 Ni16'
_cell_volume   2884.98419825
_cell_formula_units_Z   16
loop_
 _symmetry_equiv_pos_site_id
 _symmetry_equiv_pos_as_xyz
  1  'x, y, z'
loop_
 _atom_site_type_symbol
 _atom_site_label
 _atom_site_symmetry_multiplicity
 _atom_site_fract_x
 _atom_site_fract_y
 _atom_site_fract_z
 _atom_site_occupancy
  Ni  Ni0  1  0.55783500  0.18988700  0.62324400  1
  Ni  Ni1  1  0.05472100  0.63521800  0.62857700  1
  Ni  Ni2  1  0.63521800  0.05472100  0.12857700  1
  Ni  Ni3  1  0.87202500  0.93549200  0.87824800  1
  Ni  Ni4  1  0.94527900  0.36478200  0.37142300  1
  Ni  Ni5  1  0.81011300  0.44216500  0.87675600  1
  Ni  Ni6  1  0.68037100  0.56100800  0.12049300  1
  Ni  Ni7  1  0.06450800  0.12797500  0.62175200  1
  Ni  Ni8  1  0.36478200  0.94527900  0.87142300  1
  Ni  Ni9  1  0.12797500  0.06450800  0.12175200  1
  Ni  Ni10  1  0.44216500  0.81011300  0.37675600  1
  Ni  Ni11  1  0.93549200  0.87202500  0.37824800  1
  Ni  Ni12  1  0.56100800  0.68037100  0.62049300  1
  Ni  Ni13  1  0.18988700  0.55783500  0.12324400  1
  Ni  Ni14  1  0.43899200  0.31962900  0.37950700  1
  Ni  Ni15  1  0.31962900  0.43899200  0.87950700  1
  Cu  Cu16  1  0.89021700  0.77551900  0.64420800  1
  Cu  Cu17  1  0.36274500  0.89594400  0.29983200  1
  Cu  Cu18  1  0.18387400  0.16529800  0.04577800  1
  Cu  Cu19  1  0.84753600  0.54268700  0.10641500  1
  Cu  Cu20  1  0.54268700  0.84753600  0.60641500  1
  Cu  Cu21  1  0.89594400  0.36274500  0.79983200  1
  Cu  Cu22  1  0.68813400  0.39791800  0.13878700  1
  Cu  Cu23  1  0.60296200  0.80781500  0.35693700  1
  Cu  Cu24  1  0.60883300  0.65945700  0.04214800  1
  Cu  Cu25  1  0.04608200  0.99931600  0.60283600  1
  Cu  Cu26  1  0.90090900  0.26860000  0.64121400  1
  Cu  Cu27  1  0.86853000  0.42705400  0.29433900  1
  Cu  Cu28  1  0.15754300  0.69035300  0.55335400  1
  Cu  Cu29  1  0.66427000  0.10179300  0.55056200  1
  Cu  Cu30  1  0.04057500  0.50252700  0.61085200  1
  Cu  Cu31  1  0.19218500  0.39703800  0.14306300  1
  Cu  Cu32  1  0.30964700  0.84245700  0.94664600  1
  Cu  Cu33  1  0.35952600  0.53529200  0.09965700  1
  Cu  Cu34  1  0.83470200  0.81612600  0.45422200  1
  Cu  Cu35  1  0.10179300  0.66427000  0.05056200  1
  Cu  Cu36  1  0.34054300  0.39116700  0.45785200  1
  Cu  Cu37  1  0.95391800  0.00068400  0.39716400  1
  Cu  Cu38  1  0.84245700  0.30964700  0.44664600  1
  Cu  Cu39  1  0.49747300  0.95942500  0.88914800  1
  Cu  Cu40  1  0.63725500  0.10405600  0.70016800  1
  Cu  Cu41  1  0.26860000  0.90090900  0.14121400  1
  Cu  Cu42  1  0.60208200  0.31186600  0.36121300  1
  Cu  Cu43  1  0.57678000  0.64569000  0.19446200  1
  Cu  Cu44  1  0.73140000  0.09909100  0.85878600  1
  Cu  Cu45  1  0.00068400  0.95391800  0.89716400  1
  Cu  Cu46  1  0.57294600  0.13147000  0.20566100  1
  Cu  Cu47  1  0.31186600  0.60208200  0.86121300  1
  Cu  Cu48  1  0.64569000  0.57678000  0.69446200  1
  Cu  Cu49  1  0.42705400  0.86853000  0.79433900  1
  Cu  Cu50  1  0.64047400  0.46470800  0.90034300  1
  Cu  Cu51  1  0.65945700  0.60883300  0.54214800  1
  Cu  Cu52  1  0.15246400  0.45731300  0.89358500  1
  Cu  Cu53  1  0.10405600  0.63725500  0.20016800  1
  Cu  Cu54  1  0.13147000  0.57294600  0.70566100  1
  Cu  Cu55  1  0.22448100  0.10978300  0.85579200  1
  Cu  Cu56  1  0.50252700  0.04057500  0.11085200  1
  Cu  Cu57  1  0.69035300  0.15754300  0.05335400  1
  Cu  Cu58  1  0.81612600  0.83470200  0.95422200  1
  Cu  Cu59  1  0.77551900  0.89021700  0.14420800  1
  Cu  Cu60  1  0.95942500  0.49747300  0.38914800  1
  Cu  Cu61  1  0.33573000  0.89820700  0.44943800  1
  Cu  Cu62  1  0.14620300  0.06177500  0.69714500  1
  Cu  Cu63  1  0.42322000  0.35431000  0.80553800  1
  Cu  Cu64  1  0.45731300  0.15246400  0.39358500  1
  Cu  Cu65  1  0.80781500  0.60296200  0.85693700  1
  Cu  Cu66  1  0.16529800  0.18387400  0.54577800  1
  Cu  Cu67  1  0.39116700  0.34054300  0.95785200  1
  Cu  Cu68  1  0.39703800  0.19218500  0.64306300  1
  Cu  Cu69  1  0.89820700  0.33573000  0.94943800  1
  Cu  Cu70  1  0.09909100  0.73140000  0.35878600  1
  Cu  Cu71  1  0.10978300  0.22448100  0.35579200  1
  Cu  Cu72  1  0.99931600  0.04608200  0.10283600  1
  Cu  Cu73  1  0.85379700  0.93822500  0.30285500  1
  Cu  Cu74  1  0.39791800  0.68813400  0.63878700  1
  Cu  Cu75  1  0.35431000  0.42322000  0.30553800  1
  Cu  Cu76  1  0.93822500  0.85379700  0.80285500  1
  Cu  Cu77  1  0.46470800  0.64047400  0.40034300  1
  Cu  Cu78  1  0.53529200  0.35952600  0.59965700  1
  Cu  Cu79  1  0.06177500  0.14620300  0.19714500  1
