# generated using pymatgen
data_CuNiC11
_symmetry_space_group_name_H-M   'P 1'
_cell_length_a   6.06146913
_cell_length_b   6.06146913
_cell_length_c   9.88814400
_cell_angle_alpha   90.00000000
_cell_angle_beta   90.00000000
_cell_angle_gamma   119.99999051
_symmetry_Int_Tables_number   1
_chemical_formula_structural   CuNiC11
_chemical_formula_sum   'Cu2 Ni2 C22'
_cell_volume   314.63081198
_cell_formula_units_Z   2
loop_
 _symmetry_equiv_pos_site_id
 _symmetry_equiv_pos_as_xyz
  1  'x, y, z'
loop_
 _atom_site_type_symbol
 _atom_site_label
 _atom_site_symmetry_multiplicity
 _atom_site_fract_x
 _atom_site_fract_y
 _atom_site_fract_z
 _atom_site_occupancy
  Ni  Ni0  1  0.66666700  0.33333300  0.58140800  1
  Ni  Ni1  1  0.33333300  0.66666700  0.08140800  1
  Cu  Cu2  1  0.66666700  0.33333300  0.95053300  1
  Cu  Cu3  1  0.33333300  0.66666700  0.45053300  1
  C  C4  1  0.17397600  0.34795100  0.75984900  1
  C  C5  1  0.82602400  0.17397600  0.25984900  1
  C  C6  1  0.34795100  0.17397600  0.25984900  1
  C  C7  1  0.65204900  0.82602400  0.75984900  1
  C  C8  1  0.17397600  0.82602400  0.75984900  1
  C  C9  1  0.82602400  0.65204900  0.25984900  1
  C  C10  1  0.00000000  0.00000000  0.02746500  1
  C  C11  1  0.00000000  0.00000000  0.52746500  1
  C  C12  1  0.00000000  0.00000000  0.83670000  1
  C  C13  1  0.00000000  0.00000000  0.33670000  1
  C  C14  1  0.84710300  0.69420600  0.08728900  1
  C  C15  1  0.15289700  0.84710300  0.58728900  1
  C  C16  1  0.69420600  0.84710300  0.58728900  1
  C  C17  1  0.30579400  0.15289700  0.08728900  1
  C  C18  1  0.84710300  0.15289700  0.08728900  1
  C  C19  1  0.15289700  0.30579400  0.58728900  1
  C  C20  1  0.48844200  0.51155800  0.81176700  1
  C  C21  1  0.97688500  0.48844200  0.31176700  1
  C  C22  1  0.51155800  0.02311500  0.31176700  1
  C  C23  1  0.48844200  0.97688500  0.81176700  1
  C  C24  1  0.51155800  0.48844200  0.31176700  1
  C  C25  1  0.02311500  0.51155800  0.81176700  1
