# generated using pymatgen
data_Cu8Ni4C9
_symmetry_space_group_name_H-M   'P 1'
_cell_length_a   8.10423046
_cell_length_b   8.10423046
_cell_length_c   6.82767854
_cell_angle_alpha   84.79841089
_cell_angle_beta   84.79841089
_cell_angle_gamma   111.90067612
_symmetry_Int_Tables_number   1
_chemical_formula_structural   Cu8Ni4C9
_chemical_formula_sum   'Cu16 Ni8 C18'
_cell_volume   410.57910394
_cell_formula_units_Z   2
loop_
 _symmetry_equiv_pos_site_id
 _symmetry_equiv_pos_as_xyz
  1  'x, y, z'
loop_
 _atom_site_type_symbol
 _atom_site_label
 _atom_site_symmetry_multiplicity
 _atom_site_fract_x
 _atom_site_fract_y
 _atom_site_fract_z
 _atom_site_occupancy
  C  C0  1  0.50000000  0.00000000  0.50000000  1
  C  C1  1  0.00000000  0.50000000  0.00000000  1
  C  C2  1  0.13990100  0.44439900  0.62798400  1
  C  C3  1  0.55560100  0.86009900  0.87201600  1
  C  C4  1  0.86009900  0.55560100  0.37201600  1
  C  C5  1  0.44439900  0.13990100  0.12798400  1
  C  C6  1  0.15852700  0.64985600  0.61955300  1
  C  C7  1  0.35014400  0.84147300  0.88044700  1
  C  C8  1  0.84147300  0.35014400  0.38044700  1
  C  C9  1  0.64985600  0.15852700  0.11955300  1
  C  C10  1  0.41041300  0.28333900  0.54752500  1
  C  C11  1  0.71666100  0.58958700  0.95247500  1
  C  C12  1  0.58958700  0.71666100  0.45247500  1
  C  C13  1  0.28333900  0.41041300  0.04752500  1
  C  C14  1  0.76424700  0.51682000  0.75865900  1
  C  C15  1  0.48318000  0.23575300  0.74134100  1
  C  C16  1  0.23575300  0.48318000  0.24134100  1
  C  C17  1  0.51682000  0.76424700  0.25865900  1
  Ni  Ni18  1  0.89886500  0.04916400  0.49555000  1
  Ni  Ni19  1  0.95083600  0.10113500  0.00445000  1
  Ni  Ni20  1  0.10113500  0.95083600  0.50445000  1
  Ni  Ni21  1  0.04916400  0.89886500  0.99555000  1
  Ni  Ni22  1  0.09399300  0.13081300  0.49745900  1
  Ni  Ni23  1  0.86918800  0.90600700  0.00254100  1
  Ni  Ni24  1  0.90600700  0.86918700  0.50254100  1
  Ni  Ni25  1  0.13081300  0.09399300  0.99745900  1
  Cu  Cu26  1  0.46979500  0.89370100  0.79994000  1
  Cu  Cu27  1  0.10629900  0.53020500  0.70006000  1
  Cu  Cu28  1  0.53020500  0.10629900  0.20006000  1
  Cu  Cu29  1  0.89370100  0.46979500  0.29994000  1
  Cu  Cu30  1  0.50745300  0.24904500  0.59615800  1
  Cu  Cu31  1  0.75095500  0.49254700  0.90384200  1
  Cu  Cu32  1  0.49254700  0.75095500  0.40384200  1
  Cu  Cu33  1  0.24904500  0.50745300  0.09615800  1
  Cu  Cu34  1  0.78054700  0.11565800  0.48940800  1
  Cu  Cu35  1  0.88434200  0.21945300  0.01059200  1
  Cu  Cu36  1  0.21945300  0.88434200  0.51059200  1
  Cu  Cu37  1  0.11565800  0.78054700  0.98940800  1
  Cu  Cu38  1  0.20595300  0.28963600  0.49606900  1
  Cu  Cu39  1  0.71036400  0.79404700  0.00393100  1
  Cu  Cu40  1  0.79404700  0.71036400  0.50393100  1
  Cu  Cu41  1  0.28963600  0.20595300  0.99606900  1
