# generated using pymatgen
data_Cu27Ni9C5
_symmetry_space_group_name_H-M   'P 1'
_cell_length_a   13.97611300
_cell_length_b   13.97611300
_cell_length_c   13.97611300
_cell_angle_alpha   90.00000000
_cell_angle_beta   90.00000000
_cell_angle_gamma   90.00000000
_symmetry_Int_Tables_number   1
_chemical_formula_structural   Cu27Ni9C5
_chemical_formula_sum   'Cu108 Ni36 C20'
_cell_volume   2729.97839510
_cell_formula_units_Z   4
loop_
 _symmetry_equiv_pos_site_id
 _symmetry_equiv_pos_as_xyz
  1  'x, y, z'
loop_
 _atom_site_type_symbol
 _atom_site_label
 _atom_site_symmetry_multiplicity
 _atom_site_fract_x
 _atom_site_fract_y
 _atom_site_fract_z
 _atom_site_occupancy
  C  C0  1  0.30450400  0.44549600  0.87500000  1
  C  C1  1  0.12500000  0.80450400  0.05450400  1
  C  C2  1  0.37500000  0.19549600  0.55450400  1
  C  C3  1  0.55450400  0.37500000  0.19549600  1
  C  C4  1  0.19549600  0.55450400  0.37500000  1
  C  C5  1  0.05450400  0.12500000  0.80450400  1
  C  C6  1  0.62500000  0.69549600  0.94549600  1
  C  C7  1  0.87500000  0.30450400  0.44549600  1
  C  C8  1  0.69549600  0.94549600  0.62500000  1
  C  C9  1  0.44549600  0.87500000  0.30450400  1
  C  C10  1  0.80450400  0.05450400  0.12500000  1
  C  C11  1  0.94549600  0.62500000  0.69549600  1
  C  C12  1  0.69493300  0.30506700  0.80506700  1
  C  C13  1  0.19493300  0.19493300  0.19493300  1
  C  C14  1  0.30506700  0.80506700  0.69493300  1
  C  C15  1  0.80506700  0.69493300  0.30506700  1
  C  C16  1  0.94493300  0.44493300  0.05506700  1
  C  C17  1  0.44493300  0.05506700  0.94493300  1
  C  C18  1  0.05506700  0.94493300  0.44493300  1
  C  C19  1  0.55506700  0.55506700  0.55506700  1
  Ni  Ni20  1  0.76616400  0.62500000  0.51616400  1
  Ni  Ni21  1  0.84631000  0.38832200  0.67292200  1
  Ni  Ni22  1  0.07707800  0.36167800  0.90369000  1
  Ni  Ni23  1  0.23383600  0.12500000  0.98383600  1
  Ni  Ni24  1  0.32707800  0.34631000  0.11167800  1
  Ni  Ni25  1  0.42292200  0.63832200  0.40369000  1
  Ni  Ni26  1  0.98383600  0.23383600  0.12500000  1
  Ni  Ni27  1  0.34631000  0.11167800  0.32707800  1
  Ni  Ni28  1  0.63832200  0.40369000  0.42292200  1
  Ni  Ni29  1  0.37500000  0.01616400  0.73383600  1
  Ni  Ni30  1  0.86167800  0.59631000  0.92292200  1
  Ni  Ni31  1  0.38832200  0.67292200  0.84631000  1
  Ni  Ni32  1  0.36167800  0.90369000  0.07707800  1
  Ni  Ni33  1  0.51616400  0.76616400  0.62500000  1
  Ni  Ni34  1  0.12500000  0.98383600  0.23383600  1
  Ni  Ni35  1  0.15369000  0.88832200  0.82707800  1
  Ni  Ni36  1  0.26616400  0.87500000  0.48383600  1
  Ni  Ni37  1  0.17292200  0.65369000  0.61167800  1
  Ni  Ni38  1  0.40369000  0.42292200  0.63832200  1
  Ni  Ni39  1  0.59631000  0.92292200  0.86167800  1
  Ni  Ni40  1  0.09631000  0.57707800  0.13832200  1
  Ni  Ni41  1  0.73383600  0.37500000  0.01616400  1
  Ni  Ni42  1  0.90369000  0.07707800  0.36167800  1
  Ni  Ni43  1  0.82707800  0.15369000  0.88832200  1
  Ni  Ni44  1  0.65369000  0.61167800  0.17292200  1
  Ni  Ni45  1  0.13832200  0.09631000  0.57707800  1
  Ni  Ni46  1  0.48383600  0.26616400  0.87500000  1
  Ni  Ni47  1  0.61167800  0.17292200  0.65369000  1
  Ni  Ni48  1  0.88832200  0.82707800  0.15369000  1
  Ni  Ni49  1  0.92292200  0.86167800  0.59631000  1
  Ni  Ni50  1  0.87500000  0.48383600  0.26616400  1
  Ni  Ni51  1  0.62500000  0.51616400  0.76616400  1
  Ni  Ni52  1  0.67292200  0.84631000  0.38832200  1
  Ni  Ni53  1  0.11167800  0.32707800  0.34631000  1
  Ni  Ni54  1  0.57707800  0.13832200  0.09631000  1
  Ni  Ni55  1  0.01616400  0.73383600  0.37500000  1
  Cu  Cu56  1  0.00545500  0.15158700  0.15436000  1
  Cu  Cu57  1  0.32657300  0.07489100  0.24552400  1
  Cu  Cu58  1  0.44858800  0.40023200  0.56170000  1
  Cu  Cu59  1  0.07657300  0.49552400  0.17510900  1
  Cu  Cu60  1  0.69858800  0.68830000  0.15023200  1
  Cu  Cu61  1  0.81170000  0.84976800  0.19858800  1
  Cu  Cu62  1  0.40436000  0.09841300  0.75545500  1
  Cu  Cu63  1  0.05141200  0.59976800  0.06170000  1
  Cu  Cu64  1  0.07451500  0.38177000  0.40631700  1
  Cu  Cu65  1  0.17342700  0.92510900  0.74552400  1
  Cu  Cu66  1  0.90023200  0.93830000  0.55141200  1
  Cu  Cu67  1  0.65023200  0.80141200  0.31170000  1
  Cu  Cu68  1  0.59564000  0.59841300  0.74454500  1
  Cu  Cu69  1  0.42548500  0.61823000  0.90631700  1
  Cu  Cu70  1  0.99552400  0.32489100  0.92342700  1
  Cu  Cu71  1  0.18830000  0.34976800  0.30141200  1
  Cu  Cu72  1  0.54919100  0.20080900  0.87500000  1
  Cu  Cu73  1  0.09841300  0.75545500  0.40436000  1
  Cu  Cu74  1  0.36823000  0.67548500  0.34368300  1
  Cu  Cu75  1  0.67510900  0.42342700  0.50447600  1
  Cu  Cu76  1  0.00447600  0.82489100  0.57657300  1
  Cu  Cu77  1  0.87500000  0.54919100  0.20080900  1
  Cu  Cu78  1  0.45080900  0.70080900  0.62500000  1
  Cu  Cu79  1  0.65631700  0.86823000  0.82451500  1
  Cu  Cu80  1  0.40158700  0.24454500  0.90436000  1
  Cu  Cu81  1  0.11823000  0.59368300  0.57451500  1
  Cu  Cu82  1  0.68830000  0.15023200  0.69858800  1
  Cu  Cu83  1  0.70080900  0.62500000  0.45080900  1
  Cu  Cu84  1  0.57489100  0.25447600  0.67342700  1
  Cu  Cu85  1  0.30141200  0.18830000  0.34976800  1
  Cu  Cu86  1  0.61823000  0.90631700  0.42548500  1
  Cu  Cu87  1  0.17548500  0.15631700  0.63177000  1
  Cu  Cu88  1  0.75447600  0.82657300  0.42510900  1
  Cu  Cu89  1  0.63177000  0.17548500  0.15631700  1
  Cu  Cu90  1  0.67342700  0.57489100  0.25447600  1
  Cu  Cu91  1  0.15436000  0.00545500  0.15158700  1
  Cu  Cu92  1  0.06170000  0.05141200  0.59976800  1
  Cu  Cu93  1  0.84841300  0.65436000  0.49454500  1
  Cu  Cu94  1  0.12500000  0.04919100  0.29919100  1
  Cu  Cu95  1  0.09564000  0.90158700  0.25545500  1
  Cu  Cu96  1  0.24552400  0.32657300  0.07489100  1
  Cu  Cu97  1  0.74552400  0.17342700  0.92510900  1
  Cu  Cu98  1  0.99454500  0.65158700  0.34564000  1
  Cu  Cu99  1  0.90158700  0.25545500  0.09564000  1
  Cu  Cu100  1  0.86823000  0.82451500  0.65631700  1
  Cu  Cu101  1  0.94858800  0.09976800  0.43830000  1
  Cu  Cu102  1  0.42510900  0.75447600  0.82657300  1
  Cu  Cu103  1  0.50545500  0.34841300  0.84564000  1
  Cu  Cu104  1  0.80141200  0.31170000  0.65023200  1
  Cu  Cu105  1  0.62500000  0.45080900  0.70080900  1
  Cu  Cu106  1  0.38177000  0.40631700  0.07451500  1
  Cu  Cu107  1  0.34564000  0.99454500  0.65158700  1
  Cu  Cu108  1  0.40631700  0.07451500  0.38177000  1
  Cu  Cu109  1  0.17510900  0.07657300  0.49552400  1
  Cu  Cu110  1  0.32489100  0.92342700  0.99552400  1
  Cu  Cu111  1  0.59841300  0.74454500  0.59564000  1
  Cu  Cu112  1  0.31170000  0.65023200  0.80141200  1
  Cu  Cu113  1  0.34976800  0.30141200  0.18830000  1
  Cu  Cu114  1  0.65436000  0.49454500  0.84841300  1
  Cu  Cu115  1  0.50447600  0.67510900  0.42342700  1
  Cu  Cu116  1  0.20080900  0.87500000  0.54919100  1
  Cu  Cu117  1  0.90631700  0.42548500  0.61823000  1
  Cu  Cu118  1  0.40023200  0.56170000  0.44858800  1
  Cu  Cu119  1  0.29919100  0.12500000  0.04919100  1
  Cu  Cu120  1  0.92342700  0.99552400  0.32489100  1
  Cu  Cu121  1  0.82489100  0.57657300  0.00447600  1
  Cu  Cu122  1  0.57657300  0.00447600  0.82489100  1
  Cu  Cu123  1  0.15158700  0.15436000  0.00545500  1
  Cu  Cu124  1  0.32451500  0.84368300  0.13177000  1
  Cu  Cu125  1  0.49552400  0.17510900  0.07657300  1
  Cu  Cu126  1  0.93830000  0.55141200  0.90023200  1
  Cu  Cu127  1  0.84564000  0.50545500  0.34841300  1
  Cu  Cu128  1  0.75545500  0.40436000  0.09841300  1
  Cu  Cu129  1  0.19858800  0.81170000  0.84976800  1
  Cu  Cu130  1  0.09368300  0.92548500  0.88177000  1
  Cu  Cu131  1  0.37500000  0.95080900  0.79919100  1
  Cu  Cu132  1  0.55141200  0.90023200  0.93830000  1
  Cu  Cu133  1  0.24454500  0.90436000  0.40158700  1
  Cu  Cu134  1  0.15023200  0.69858800  0.68830000  1
  Cu  Cu135  1  0.42342700  0.50447600  0.67510900  1
  Cu  Cu136  1  0.59368300  0.57451500  0.11823000  1
  Cu  Cu137  1  0.25447600  0.67342700  0.57489100  1
  Cu  Cu138  1  0.43830000  0.94858800  0.09976800  1
  Cu  Cu139  1  0.07489100  0.24552400  0.32657300  1
  Cu  Cu140  1  0.82657300  0.42510900  0.75447600  1
  Cu  Cu141  1  0.67548500  0.34368300  0.36823000  1
  Cu  Cu142  1  0.13177000  0.32451500  0.84368300  1
  Cu  Cu143  1  0.57451500  0.11823000  0.59368300  1
  Cu  Cu144  1  0.84368300  0.13177000  0.32451500  1
  Cu  Cu145  1  0.49454500  0.84841300  0.65436000  1
  Cu  Cu146  1  0.15631700  0.63177000  0.17548500  1
  Cu  Cu147  1  0.79919100  0.37500000  0.95080900  1
  Cu  Cu148  1  0.95080900  0.79919100  0.37500000  1
  Cu  Cu149  1  0.90436000  0.40158700  0.24454500  1
  Cu  Cu150  1  0.74454500  0.59564000  0.59841300  1
  Cu  Cu151  1  0.25545500  0.09564000  0.90158700  1
  Cu  Cu152  1  0.92548500  0.88177000  0.09368300  1
  Cu  Cu153  1  0.88177000  0.09368300  0.92548500  1
  Cu  Cu154  1  0.56170000  0.44858800  0.40023200  1
  Cu  Cu155  1  0.04919100  0.29919100  0.12500000  1
  Cu  Cu156  1  0.65158700  0.34564000  0.99454500  1
  Cu  Cu157  1  0.34841300  0.84564000  0.50545500  1
  Cu  Cu158  1  0.92510900  0.74552400  0.17342700  1
  Cu  Cu159  1  0.34368300  0.36823000  0.67548500  1
  Cu  Cu160  1  0.82451500  0.65631700  0.86823000  1
  Cu  Cu161  1  0.09976800  0.43830000  0.94858800  1
  Cu  Cu162  1  0.84976800  0.19858800  0.81170000  1
  Cu  Cu163  1  0.59976800  0.06170000  0.05141200  1
