# generated using pymatgen
data_Cu3NiC14
_symmetry_space_group_name_H-M   'P 1'
_cell_length_a   6.73761800
_cell_length_b   15.83363000
_cell_length_c   18.68921200
_cell_angle_alpha   90.00000000
_cell_angle_beta   90.00000000
_cell_angle_gamma   90.00000000
_symmetry_Int_Tables_number   1
_chemical_formula_structural   Cu3NiC14
_chemical_formula_sum   'Cu24 Ni8 C112'
_cell_volume   1993.78290013
_cell_formula_units_Z   8
loop_
 _symmetry_equiv_pos_site_id
 _symmetry_equiv_pos_as_xyz
  1  'x, y, z'
loop_
 _atom_site_type_symbol
 _atom_site_label
 _atom_site_symmetry_multiplicity
 _atom_site_fract_x
 _atom_site_fract_y
 _atom_site_fract_z
 _atom_site_occupancy
  Ni  Ni0  1  0.27664300  0.61825400  0.64507200  1
  Ni  Ni1  1  0.77664300  0.61825400  0.85492800  1
  Ni  Ni2  1  0.22335700  0.11825400  0.64507200  1
  Ni  Ni3  1  0.77664300  0.88174600  0.35492800  1
  Ni  Ni4  1  0.22335700  0.38174600  0.14507200  1
  Ni  Ni5  1  0.72335700  0.11825400  0.85492800  1
  Ni  Ni6  1  0.27664300  0.88174600  0.14507200  1
  Ni  Ni7  1  0.72335700  0.38174600  0.35492800  1
  C  C8  1  0.56317200  0.96249300  0.92613200  1
  C  C9  1  0.59543900  0.64975900  0.29509800  1
  C  C10  1  0.31498900  0.27309900  0.94300900  1
  C  C11  1  0.59543900  0.85024100  0.79509800  1
  C  C12  1  0.42049700  0.72231200  0.06447400  1
  C  C13  1  0.79198600  0.26782300  0.74378700  1
  C  C14  1  0.68563300  0.07542000  0.41178400  1
  C  C15  1  0.84021400  0.68573700  0.31814400  1
  C  C16  1  0.71726500  0.93583500  0.00136500  1
  C  C17  1  0.78273500  0.43583500  0.00136500  1
  C  C18  1  0.03424000  0.69835900  0.99099700  1
  C  C19  1  0.40456100  0.35024100  0.70490200  1
  C  C20  1  0.65978600  0.31426300  0.81814400  1
  C  C21  1  0.18563300  0.42458000  0.58821600  1
  C  C22  1  0.81436700  0.92458000  0.91178400  1
  C  C23  1  0.31436700  0.92458000  0.58821600  1
  C  C24  1  0.06317200  0.53750700  0.07386800  1
  C  C25  1  0.56317200  0.53750700  0.42613200  1
  C  C26  1  0.06317200  0.96249300  0.57386800  1
  C  C27  1  0.78273500  0.06416500  0.50136500  1
  C  C28  1  0.40456100  0.14975900  0.20490200  1
  C  C29  1  0.20801400  0.76782300  0.75621300  1
  C  C30  1  0.34021400  0.81426300  0.68185600  1
  C  C31  1  0.21726500  0.56416500  0.99863500  1
  C  C32  1  0.57950300  0.27768800  0.93552600  1
  C  C33  1  0.84021400  0.81426300  0.81814400  1
  C  C34  1  0.46576000  0.30164100  0.49099700  1
  C  C35  1  0.43682800  0.03750700  0.07386800  1
  C  C36  1  0.68501100  0.77309900  0.55699100  1
  C  C37  1  0.15978600  0.18573800  0.18185600  1
  C  C38  1  0.93682800  0.46249300  0.92613200  1
  C  C39  1  0.81436700  0.57542000  0.41178400  1
  C  C40  1  0.28273500  0.43583500  0.49863500  1
  C  C41  1  0.31436700  0.57542000  0.08821600  1
  C  C42  1  0.65978600  0.18573800  0.31814400  1
  C  C43  1  0.09543900  0.85024100  0.70490200  1
  C  C44  1  0.07950300  0.27768800  0.56447400  1
  C  C45  1  0.03424000  0.80164100  0.49099700  1
  C  C46  1  0.29198600  0.23217700  0.25621300  1
  C  C47  1  0.31498900  0.22690100  0.44300900  1
  C  C48  1  0.09543900  0.64975900  0.20490200  1
  C  C49  1  0.53424000  0.69835900  0.50900300  1
  C  C50  1  0.81498900  0.22690100  0.05699100  1
  C  C51  1  0.21726500  0.93583500  0.49863500  1
  C  C52  1  0.42049700  0.77768800  0.56447400  1
  C  C53  1  0.70801400  0.76782300  0.74378700  1
  C  C54  1  0.20801400  0.73217700  0.25621300  1
  C  C55  1  0.96576000  0.19835900  0.50900300  1
  C  C56  1  0.92049700  0.77768800  0.93552600  1
  C  C57  1  0.46576000  0.19835900  0.99099700  1
  C  C58  1  0.07950300  0.22231200  0.06447400  1
  C  C59  1  0.57950300  0.22231200  0.43552600  1
  C  C60  1  0.96576000  0.30164100  0.00900300  1
  C  C61  1  0.28273500  0.06416500  0.99863500  1
  C  C62  1  0.43682800  0.46249300  0.57386800  1
  C  C63  1  0.18501100  0.72690100  0.44300900  1
  C  C64  1  0.90456100  0.14975900  0.29509800  1
  C  C65  1  0.18501100  0.77309900  0.94300900  1
  C  C66  1  0.81498900  0.27309900  0.55699100  1
  C  C67  1  0.93682800  0.03750700  0.42613200  1
  C  C68  1  0.90456100  0.35024100  0.79509800  1
  C  C69  1  0.68563300  0.42458000  0.91178400  1
  C  C70  1  0.70801400  0.73217700  0.24378700  1
  C  C71  1  0.34021400  0.68573700  0.18185600  1
  C  C72  1  0.92049700  0.72231200  0.43552600  1
  C  C73  1  0.71726500  0.56416500  0.50136500  1
  C  C74  1  0.53424000  0.80164100  0.00900300  1
  C  C75  1  0.79198600  0.23217700  0.24378700  1
  C  C76  1  0.68501100  0.72690100  0.05699100  1
  C  C77  1  0.29198600  0.26782300  0.75621300  1
  C  C78  1  0.15978600  0.31426300  0.68185600  1
  C  C79  1  0.18563300  0.07542000  0.08821600  1
  C  C80  1  0.72334600  0.46766500  0.25781200  1
  C  C81  1  0.77665400  0.53233500  0.75781200  1
  C  C82  1  0.22334600  0.03233500  0.74218800  1
  C  C83  1  0.27665400  0.96766500  0.24218800  1
  C  C84  1  0.77665400  0.96766500  0.25781200  1
  C  C85  1  0.27665400  0.53233500  0.74218800  1
  C  C86  1  0.72334600  0.03233500  0.75781200  1
  C  C87  1  0.22334600  0.46766500  0.24218800  1
  C  C88  1  0.30488300  0.29532600  0.70258800  1
  C  C89  1  0.19511700  0.70467400  0.20258800  1
  C  C90  1  0.54819100  0.76439100  0.05822500  1
  C  C91  1  0.21536600  0.96123300  0.55343500  1
  C  C92  1  0.45180900  0.23560900  0.94177500  1
  C  C93  1  0.78463400  0.46123300  0.94656500  1
  C  C94  1  0.69511700  0.79532600  0.79741200  1
  C  C95  1  0.80488300  0.29532600  0.79741200  1
  C  C96  1  0.28463400  0.03876700  0.05343500  1
  C  C97  1  0.04819100  0.76439100  0.44177500  1
  C  C98  1  0.30488300  0.20467400  0.20258800  1
  C  C99  1  0.28463400  0.46123300  0.55343500  1
  C  C100  1  0.95180900  0.26439100  0.05822500  1
  C  C101  1  0.19511700  0.79532600  0.70258800  1
  C  C102  1  0.04819100  0.73560900  0.94177500  1
  C  C103  1  0.80488300  0.20467400  0.29741200  1
  C  C104  1  0.71536600  0.53876700  0.44656500  1
  C  C105  1  0.54819100  0.73560900  0.55822500  1
  C  C106  1  0.71536600  0.96123300  0.94656500  1
  C  C107  1  0.45180900  0.26439100  0.44177500  1
  C  C108  1  0.78463400  0.03876700  0.44656500  1
  C  C109  1  0.95180900  0.23560900  0.55822500  1
  C  C110  1  0.69511700  0.70467400  0.29741200  1
  C  C111  1  0.21536600  0.53876700  0.05343500  1
  Cu  Cu112  1  0.92353800  0.27897800  0.35780100  1
  Cu  Cu113  1  0.92353800  0.22102200  0.85780100  1
  Cu  Cu114  1  0.43410500  0.16613600  0.86466500  1
  Cu  Cu115  1  0.68812700  0.93179100  0.45392200  1
  Cu  Cu116  1  0.43410500  0.33386400  0.36466500  1
  Cu  Cu117  1  0.56589500  0.83386400  0.13533500  1
  Cu  Cu118  1  0.68812700  0.56820900  0.95392200  1
  Cu  Cu119  1  0.42353800  0.27897800  0.14219900  1
  Cu  Cu120  1  0.31187300  0.06820900  0.54607800  1
  Cu  Cu121  1  0.93410500  0.33386400  0.13533500  1
  Cu  Cu122  1  0.42353800  0.22102200  0.64219900  1
  Cu  Cu123  1  0.57646200  0.77897800  0.35780100  1
  Cu  Cu124  1  0.57646200  0.72102200  0.85780100  1
  Cu  Cu125  1  0.07646200  0.77897800  0.14219900  1
  Cu  Cu126  1  0.93410500  0.16613600  0.63533500  1
  Cu  Cu127  1  0.81187300  0.43179100  0.45392200  1
  Cu  Cu128  1  0.06589500  0.66613600  0.86466500  1
  Cu  Cu129  1  0.81187300  0.06820900  0.95392200  1
  Cu  Cu130  1  0.31187300  0.43179100  0.04607800  1
  Cu  Cu131  1  0.07646200  0.72102200  0.64219900  1
  Cu  Cu132  1  0.18812700  0.56820900  0.54607800  1
  Cu  Cu133  1  0.18812700  0.93179100  0.04607800  1
  Cu  Cu134  1  0.06589500  0.83386400  0.36466500  1
  Cu  Cu135  1  0.56589500  0.66613600  0.63533500  1
  C  C136  1  0.28322000  0.44163100  0.84120100  1
  C  C137  1  0.28322000  0.05836900  0.34120100  1
  C  C138  1  0.21678000  0.94163100  0.84120100  1
  C  C139  1  0.78322000  0.05836900  0.15879900  1
  C  C140  1  0.71678000  0.55836900  0.15879900  1
  C  C141  1  0.21678000  0.55836900  0.34120100  1
  C  C142  1  0.71678000  0.94163100  0.65879900  1
  C  C143  1  0.78322000  0.44163100  0.65879900  1
