# generated using pymatgen
data_Cu2Ni2C9
_symmetry_space_group_name_H-M   'P 1'
_cell_length_a   9.56994223
_cell_length_b   9.56994223
_cell_length_c   8.84834120
_cell_angle_alpha   82.26956269
_cell_angle_beta   82.26956269
_cell_angle_gamma   88.89248540
_symmetry_Int_Tables_number   1
_chemical_formula_structural   Cu2Ni2C9
_chemical_formula_sum   'Cu8 Ni8 C36'
_cell_volume   795.70158345
_cell_formula_units_Z   4
loop_
 _symmetry_equiv_pos_site_id
 _symmetry_equiv_pos_as_xyz
  1  'x, y, z'
loop_
 _atom_site_type_symbol
 _atom_site_label
 _atom_site_symmetry_multiplicity
 _atom_site_fract_x
 _atom_site_fract_y
 _atom_site_fract_z
 _atom_site_occupancy
  C  C0  1  0.56386800  0.06521800  0.71442200  1
  C  C1  1  0.93478200  0.43613200  0.78557800  1
  C  C2  1  0.43613200  0.93478200  0.28557800  1
  C  C3  1  0.06521800  0.56386800  0.21442200  1
  Ni  Ni4  1  0.30430900  0.43537500  0.88630400  1
  Ni  Ni5  1  0.56462500  0.69569100  0.61369600  1
  Ni  Ni6  1  0.69569100  0.56462500  0.11369600  1
  Ni  Ni7  1  0.43537500  0.30430900  0.38630400  1
  Ni  Ni8  1  0.95130800  0.20042300  0.46458400  1
  Ni  Ni9  1  0.79957700  0.04869200  0.03541600  1
  Ni  Ni10  1  0.04869200  0.79957700  0.53541600  1
  Ni  Ni11  1  0.20042300  0.95130800  0.96458400  1
  Cu  Cu12  1  0.28567100  0.56154700  0.52162600  1
  Cu  Cu13  1  0.43845300  0.71432900  0.97837400  1
  Cu  Cu14  1  0.71432900  0.43845300  0.47837400  1
  Cu  Cu15  1  0.56154700  0.28567100  0.02162600  1
  Cu  Cu16  1  0.07336500  0.21482800  0.09523700  1
  Cu  Cu17  1  0.78517200  0.92663500  0.40476300  1
  Cu  Cu18  1  0.92663500  0.78517200  0.90476300  1
  Cu  Cu19  1  0.21482800  0.07336500  0.59523700  1
  C  C20  1  0.32278700  0.58767200  0.99138800  1
  C  C21  1  0.41232800  0.67721300  0.50861200  1
  C  C22  1  0.67721300  0.41232800  0.00861200  1
  C  C23  1  0.58767200  0.32278700  0.49138800  1
  C  C24  1  0.81947100  0.05925400  0.49489500  1
  C  C25  1  0.94074600  0.18052900  0.00510500  1
  C  C26  1  0.18052900  0.94074600  0.50510500  1
  C  C27  1  0.05925400  0.81947100  0.99489500  1
  C  C28  1  0.45355900  0.31481600  0.89089200  1
  C  C29  1  0.68518400  0.54644100  0.60910800  1
  C  C30  1  0.54644100  0.68518400  0.10910800  1
  C  C31  1  0.31481600  0.45355900  0.39089200  1
  C  C32  1  0.91717300  0.81632800  0.39932900  1
  C  C33  1  0.18367200  0.08282700  0.10067100  1
  C  C34  1  0.08282700  0.18367200  0.60067100  1
  C  C35  1  0.81632800  0.91717300  0.89932900  1
  C  C36  1  0.24532300  0.47938900  0.69615100  1
  C  C37  1  0.52061100  0.75467700  0.80384900  1
  C  C38  1  0.75467700  0.52061100  0.30384900  1
  C  C39  1  0.47938900  0.24532300  0.19615100  1
  C  C40  1  0.86599600  0.63476800  0.00471900  1
  C  C41  1  0.36523200  0.13400400  0.49528100  1
  C  C42  1  0.13400400  0.36523200  0.99528100  1
  C  C43  1  0.63476800  0.86599600  0.50471900  1
  C  C44  1  0.14305100  0.64310800  0.46869900  1
  C  C45  1  0.35689200  0.85694900  0.03130100  1
  C  C46  1  0.85694900  0.35689200  0.53130100  1
  C  C47  1  0.64310800  0.14305100  0.96869900  1
  C  C48  1  0.97379300  0.73784300  0.73431800  1
  C  C49  1  0.26215700  0.02620700  0.76568200  1
  C  C50  1  0.02620700  0.26215700  0.26568200  1
  C  C51  1  0.73784300  0.97379300  0.23431800  1
