# generated using pymatgen
data_Cu2NiC7
_symmetry_space_group_name_H-M   'P 1'
_cell_length_a   5.80228200
_cell_length_b   10.09110900
_cell_length_c   12.39029100
_cell_angle_alpha   90.00000000
_cell_angle_beta   90.00000000
_cell_angle_gamma   90.00000000
_symmetry_Int_Tables_number   1
_chemical_formula_structural   Cu2NiC7
_chemical_formula_sum   'Cu8 Ni4 C28'
_cell_volume   725.46962925
_cell_formula_units_Z   4
loop_
 _symmetry_equiv_pos_site_id
 _symmetry_equiv_pos_as_xyz
  1  'x, y, z'
loop_
 _atom_site_type_symbol
 _atom_site_label
 _atom_site_symmetry_multiplicity
 _atom_site_fract_x
 _atom_site_fract_y
 _atom_site_fract_z
 _atom_site_occupancy
  C  C0  1  0.25000000  0.47338800  0.20732400  1
  C  C1  1  0.75000000  0.97338800  0.29267600  1
  C  C2  1  0.75000000  0.52661200  0.79267600  1
  C  C3  1  0.25000000  0.02661200  0.70732400  1
  Ni  Ni4  1  0.75000000  0.49945600  0.41057700  1
  Ni  Ni5  1  0.25000000  0.50054400  0.58942300  1
  Ni  Ni6  1  0.75000000  0.00054400  0.91057700  1
  Ni  Ni7  1  0.25000000  0.99945600  0.08942300  1
  Cu  Cu8  1  0.25000000  0.26200300  0.87425600  1
  Cu  Cu9  1  0.75000000  0.73799700  0.12574400  1
  Cu  Cu10  1  0.75000000  0.20264100  0.59858400  1
  Cu  Cu11  1  0.25000000  0.23799700  0.37425600  1
  Cu  Cu12  1  0.75000000  0.29735900  0.09858400  1
  Cu  Cu13  1  0.25000000  0.70264100  0.90141600  1
  Cu  Cu14  1  0.75000000  0.76200300  0.62574400  1
  Cu  Cu15  1  0.25000000  0.79735900  0.40141600  1
  C  C16  1  0.75000000  0.11066000  0.20959000  1
  C  C17  1  0.25000000  0.50734600  0.07386900  1
  C  C18  1  0.99211300  0.86389300  0.01203900  1
  C  C19  1  0.49211300  0.13610700  0.98796100  1
  C  C20  1  0.00788700  0.36389300  0.48796100  1
  C  C21  1  0.49211300  0.36389300  0.48796100  1
  C  C22  1  0.50788700  0.63610700  0.51203900  1
  C  C23  1  0.99211300  0.63610700  0.51203900  1
  C  C24  1  0.98759700  0.62865900  0.75442100  1
  C  C25  1  0.48759700  0.37134100  0.24557900  1
  C  C26  1  0.48759700  0.12865900  0.74557900  1
  C  C27  1  0.25000000  0.99265400  0.57386900  1
  C  C28  1  0.01240300  0.37134100  0.24557900  1
  C  C29  1  0.75000000  0.49265400  0.92613100  1
  C  C30  1  0.98759700  0.87134100  0.25442100  1
  C  C31  1  0.25000000  0.61066000  0.29041000  1
  C  C32  1  0.75000000  0.38934000  0.70959000  1
  C  C33  1  0.25000000  0.88934000  0.79041000  1
  C  C34  1  0.51240300  0.87134100  0.25442100  1
  C  C35  1  0.75000000  0.00734600  0.42613100  1
  C  C36  1  0.51240300  0.62865900  0.75442100  1
  C  C37  1  0.01240300  0.12865900  0.74557900  1
  C  C38  1  0.00788700  0.13610700  0.98796100  1
  C  C39  1  0.50788700  0.86389300  0.01203900  1
