# generated using pymatgen
data_CuNiC4
_symmetry_space_group_name_H-M   'P 1'
_cell_length_a   6.68711715
_cell_length_b   6.68711715
_cell_length_c   7.92357049
_cell_angle_alpha   78.48617309
_cell_angle_beta   78.48617309
_cell_angle_gamma   118.96904154
_symmetry_Int_Tables_number   1
_chemical_formula_structural   CuNiC4
_chemical_formula_sum   'Cu2 Ni2 C8'
_cell_volume   285.03482306
_cell_formula_units_Z   2
loop_
 _symmetry_equiv_pos_site_id
 _symmetry_equiv_pos_as_xyz
  1  'x, y, z'
loop_
 _atom_site_type_symbol
 _atom_site_label
 _atom_site_symmetry_multiplicity
 _atom_site_fract_x
 _atom_site_fract_y
 _atom_site_fract_z
 _atom_site_occupancy
  Ni  Ni0  1  0.03626700  0.97552700  0.24432500  1
  Ni  Ni1  1  0.97552700  0.03626700  0.74432500  1
  Cu  Cu2  1  0.72978700  0.34132900  0.20522300  1
  Cu  Cu3  1  0.34132900  0.72978700  0.70522300  1
  C  C4  1  0.38642100  0.66311200  0.21004400  1
  C  C5  1  0.66311200  0.38642100  0.71004400  1
  C  C6  1  0.77088300  0.00813400  0.06344400  1
  C  C7  1  0.00813400  0.77088300  0.56344400  1
  C  C8  1  0.74145800  0.18387300  0.52576800  1
  C  C9  1  0.40628700  0.43812200  0.58359600  1
  C  C10  1  0.43812200  0.40628700  0.08359600  1
  C  C11  1  0.18387300  0.74145800  0.02576800  1
