# generated using pymatgen
data_CuNi2C5
_symmetry_space_group_name_H-M   'P 1'
_cell_length_a   6.92019300
_cell_length_b   6.92019300
_cell_length_c   5.65283400
_cell_angle_alpha   90.00000000
_cell_angle_beta   90.00000000
_cell_angle_gamma   90.00000000
_symmetry_Int_Tables_number   1
_chemical_formula_structural   CuNi2C5
_chemical_formula_sum   'Cu4 Ni8 C20'
_cell_volume   270.70896967
_cell_formula_units_Z   4
loop_
 _symmetry_equiv_pos_site_id
 _symmetry_equiv_pos_as_xyz
  1  'x, y, z'
loop_
 _atom_site_type_symbol
 _atom_site_label
 _atom_site_symmetry_multiplicity
 _atom_site_fract_x
 _atom_site_fract_y
 _atom_site_fract_z
 _atom_site_occupancy
  Ni  Ni0  1  0.16173100  0.83826900  0.25000000  1
  Ni  Ni1  1  0.16173100  0.16173100  0.75000000  1
  Ni  Ni2  1  0.83826900  0.83826900  0.75000000  1
  Ni  Ni3  1  0.83826900  0.16173100  0.25000000  1
  Ni  Ni4  1  0.33826900  0.66173100  0.75000000  1
  Ni  Ni5  1  0.33826900  0.33826900  0.25000000  1
  Ni  Ni6  1  0.66173100  0.66173100  0.25000000  1
  Ni  Ni7  1  0.66173100  0.33826900  0.75000000  1
  Cu  Cu8  1  0.00000000  0.50000000  0.48769000  1
  Cu  Cu9  1  0.00000000  0.50000000  0.98769000  1
  Cu  Cu10  1  0.50000000  0.00000000  0.51231000  1
  Cu  Cu11  1  0.50000000  0.00000000  0.01231000  1
  C  C12  1  0.50000000  0.50000000  0.50000000  1
  C  C13  1  0.50000000  0.50000000  0.00000000  1
  C  C14  1  0.00000000  0.00000000  0.00000000  1
  C  C15  1  0.00000000  0.00000000  0.50000000  1
  C  C16  1  0.78664900  0.41724400  0.42708400  1
  C  C17  1  0.78664900  0.58275600  0.92708400  1
  C  C18  1  0.21335100  0.41724400  0.92708400  1
  C  C19  1  0.21335100  0.58275600  0.42708400  1
  C  C20  1  0.91724400  0.28664900  0.92708400  1
  C  C21  1  0.91724400  0.71335100  0.42708400  1
  C  C22  1  0.08275600  0.28664900  0.42708400  1
  C  C23  1  0.08275600  0.71335100  0.92708400  1
  C  C24  1  0.71335100  0.08275600  0.57291600  1
  C  C25  1  0.71335100  0.91724400  0.07291600  1
  C  C26  1  0.28664900  0.08275600  0.07291600  1
  C  C27  1  0.28664900  0.91724400  0.57291600  1
  C  C28  1  0.58275600  0.21335100  0.07291600  1
  C  C29  1  0.58275600  0.78664900  0.57291600  1
  C  C30  1  0.41724400  0.21335100  0.57291600  1
  C  C31  1  0.41724400  0.78664900  0.07291600  1
