# generated using pymatgen
data_Cu5NiC3
_symmetry_space_group_name_H-M   'P 1'
_cell_length_a   6.90758483
_cell_length_b   7.94094992
_cell_length_c   8.09242700
_cell_angle_alpha   89.99962481
_cell_angle_beta   89.99997415
_cell_angle_gamma   114.90065912
_symmetry_Int_Tables_number   1
_chemical_formula_structural   Cu5NiC3
_chemical_formula_sum   'Cu20 Ni4 C12'
_cell_volume   402.62757714
_cell_formula_units_Z   4
loop_
 _symmetry_equiv_pos_site_id
 _symmetry_equiv_pos_as_xyz
  1  'x, y, z'
loop_
 _atom_site_type_symbol
 _atom_site_label
 _atom_site_symmetry_multiplicity
 _atom_site_fract_x
 _atom_site_fract_y
 _atom_site_fract_z
 _atom_site_occupancy
  C  C0  1  0.99987500  0.49983400  0.99988900  1
  C  C1  1  0.00028000  0.00019900  0.49997500  1
  C  C2  1  0.50014200  0.50024600  0.49985700  1
  C  C3  1  0.49985500  0.99964200  0.00029100  1
  C  C4  1  0.65692300  0.78787200  0.28943400  1
  C  C5  1  0.15684500  0.78781500  0.78930400  1
  C  C6  1  0.84312500  0.71220300  0.28944000  1
  C  C7  1  0.34313100  0.71216600  0.78927000  1
  C  C8  1  0.34313200  0.21217000  0.71073800  1
  C  C9  1  0.84303800  0.21209100  0.21063000  1
  C  C10  1  0.15692100  0.28792600  0.71076800  1
  C  C11  1  0.65691200  0.28787000  0.21056400  1
  Ni  Ni12  1  0.75007600  0.74994300  0.83623700  1
  Ni  Ni13  1  0.24986200  0.75002000  0.33623200  1
  Ni  Ni14  1  0.25004900  0.24999400  0.16382400  1
  Ni  Ni15  1  0.74989500  0.24996200  0.66381500  1
  Cu  Cu16  1  0.75005200  0.75009100  0.36082900  1
  Cu  Cu17  1  0.24996000  0.74993200  0.86066300  1
  Cu  Cu18  1  0.25005700  0.25008200  0.63935400  1
  Cu  Cu19  1  0.74996200  0.24995400  0.13918600  1
  Cu  Cu20  1  0.22943300  0.89453700  0.44053200  1
  Cu  Cu21  1  0.72953200  0.89447000  0.94050700  1
  Cu  Cu22  1  0.27041000  0.60554900  0.44051300  1
  Cu  Cu23  1  0.77058100  0.60544700  0.94054000  1
  Cu  Cu24  1  0.77015000  0.10548800  0.55944000  1
  Cu  Cu25  1  0.27033300  0.10540800  0.05940200  1
  Cu  Cu26  1  0.72961800  0.39460300  0.55941400  1
  Cu  Cu27  1  0.22986400  0.39449500  0.05945100  1
  Cu  Cu28  1  0.55580200  0.66484300  0.72774100  1
  Cu  Cu29  1  0.05581500  0.66463600  0.22758200  1
  Cu  Cu30  1  0.94423000  0.83534300  0.72768700  1
  Cu  Cu31  1  0.44413300  0.83517200  0.22776600  1
  Cu  Cu32  1  0.44439100  0.33522700  0.27234300  1
  Cu  Cu33  1  0.94438800  0.33504000  0.77215200  1
  Cu  Cu34  1  0.05567000  0.16494300  0.27226000  1
  Cu  Cu35  1  0.55555800  0.16478800  0.77237000  1
