# generated using pymatgen
data_Cu13(Ni4C)2
_symmetry_space_group_name_H-M   'P 1'
_cell_length_a   12.21050278
_cell_length_b   18.93173684
_cell_length_c   23.77544894
_cell_angle_alpha   90.00000000
_cell_angle_beta   90.00000000
_cell_angle_gamma   90.00000000
_symmetry_Int_Tables_number   1
_chemical_formula_structural   Cu13(Ni4C)2
_chemical_formula_sum   'Cu104 Ni64 C16'
_cell_volume   5496.07603154
_cell_formula_units_Z   8
loop_
 _symmetry_equiv_pos_site_id
 _symmetry_equiv_pos_as_xyz
  1  'x, y, z'
loop_
 _atom_site_type_symbol
 _atom_site_label
 _atom_site_symmetry_multiplicity
 _atom_site_fract_x
 _atom_site_fract_y
 _atom_site_fract_z
 _atom_site_occupancy
  C  C0  1  0.95174477  0.80347435  0.63285886  1
  C  C1  1  0.45174477  0.30347435  0.86714114  1
  C  C2  1  0.04548750  0.70289122  0.37860057  1
  C  C3  1  0.04548750  0.29710878  0.12139943  1
  C  C4  1  0.95451250  0.29710878  0.62139943  1
  C  C5  1  0.45451250  0.20289122  0.62139943  1
  C  C6  1  0.45451250  0.79710878  0.87860057  1
  C  C7  1  0.45174477  0.69652565  0.63285886  1
  C  C8  1  0.54548750  0.20289122  0.12139943  1
  C  C9  1  0.54825523  0.69652565  0.13285886  1
  C  C10  1  0.04825523  0.80347435  0.13285886  1
  C  C11  1  0.54825523  0.30347435  0.36714114  1
  C  C12  1  0.95174477  0.19652565  0.86714114  1
  C  C13  1  0.95451250  0.70289122  0.87860057  1
  C  C14  1  0.54548750  0.79710878  0.37860057  1
  C  C15  1  0.04825523  0.19652565  0.36714114  1
  Ni  Ni16  1  0.64948937  0.91708561  0.56015850  1
  Ni  Ni17  1  0.34482470  0.57923755  0.96678285  1
  Ni  Ni18  1  0.62300601  0.97086466  0.06207906  1
  Ni  Ni19  1  0.91601308  0.07052777  0.19103391  1
  Ni  Ni20  1  0.34482470  0.42076245  0.53321715  1
  Ni  Ni21  1  0.19835618  0.43848977  0.30206429  1
  Ni  Ni22  1  0.58398692  0.42947223  0.69103391  1
  Ni  Ni23  1  0.85051063  0.41708561  0.43984150  1
  Ni  Ni24  1  0.41601308  0.42947223  0.19103391  1
  Ni  Ni25  1  0.87699399  0.52913534  0.56207906  1
  Ni  Ni26  1  0.84482470  0.92076245  0.96678285  1
  Ni  Ni27  1  0.27837558  0.41630802  0.67434675  1
  Ni  Ni28  1  0.58398692  0.57052777  0.80896609  1
  Ni  Ni29  1  0.40521734  0.08870936  0.29047224  1
  Ni  Ni30  1  0.12644001  0.90934258  0.96241041  1
  Ni  Ni31  1  0.30164382  0.93848977  0.69793571  1
  Ni  Ni32  1  0.30164382  0.06151023  0.80206429  1
  Ni  Ni33  1  0.40521734  0.91129064  0.20952776  1
  Ni  Ni34  1  0.15517530  0.07923755  0.03321715  1
  Ni  Ni35  1  0.80164382  0.56151023  0.69793571  1
  Ni  Ni36  1  0.59478266  0.08870936  0.79047224  1
  Ni  Ni37  1  0.77837558  0.91630802  0.82565325  1
  Ni  Ni38  1  0.22162442  0.91630802  0.32565325  1
  Ni  Ni39  1  0.65517530  0.42076245  0.03321715  1
  Ni  Ni40  1  0.87699399  0.47086466  0.93792094  1
  Ni  Ni41  1  0.69835618  0.06151023  0.30206429  1
  Ni  Ni42  1  0.12300601  0.52913534  0.06207906  1
  Ni  Ni43  1  0.90521734  0.58870936  0.20952776  1
  Ni  Ni44  1  0.62300601  0.02913534  0.43792094  1
  Ni  Ni45  1  0.72162442  0.41630802  0.17434675  1
  Ni  Ni46  1  0.37699399  0.97086466  0.56207906  1
  Ni  Ni47  1  0.15517530  0.92076245  0.46678285  1
  Ni  Ni48  1  0.91601308  0.92947223  0.30896609  1
  Ni  Ni49  1  0.37355999  0.40934258  0.03758959  1
  Ni  Ni50  1  0.72162442  0.58369198  0.32565325  1
  Ni  Ni51  1  0.59478266  0.91129064  0.70952776  1
  Ni  Ni52  1  0.27837558  0.58369198  0.82565325  1
  Ni  Ni53  1  0.12300601  0.47086466  0.43792094  1
  Ni  Ni54  1  0.12644001  0.09065742  0.53758959  1
  Ni  Ni55  1  0.65517530  0.57923755  0.46678285  1
  Ni  Ni56  1  0.62644001  0.40934258  0.53758959  1
  Ni  Ni57  1  0.87355999  0.90934258  0.46241041  1
  Ni  Ni58  1  0.37355999  0.59065742  0.46241041  1
  Ni  Ni59  1  0.09478266  0.58870936  0.70952776  1
  Ni  Ni60  1  0.19835618  0.56151023  0.19793571  1
  Ni  Ni61  1  0.87355999  0.09065742  0.03758959  1
  Ni  Ni62  1  0.84482470  0.07923755  0.53321715  1
  Ni  Ni63  1  0.09478266  0.41129064  0.79047224  1
  Ni  Ni64  1  0.80164382  0.43848977  0.80206429  1
  Ni  Ni65  1  0.85051063  0.58291439  0.06015850  1
  Ni  Ni66  1  0.08398692  0.92947223  0.80896609  1
  Ni  Ni67  1  0.69835618  0.93848977  0.19793571  1
  Ni  Ni68  1  0.77837558  0.08369198  0.67434675  1
  Ni  Ni69  1  0.35051063  0.08291439  0.43984150  1
  Ni  Ni70  1  0.14948937  0.58291439  0.56015850  1
  Ni  Ni71  1  0.14948937  0.41708561  0.93984150  1
  Ni  Ni72  1  0.41601308  0.57052777  0.30896609  1
  Ni  Ni73  1  0.62644001  0.59065742  0.96241041  1
  Ni  Ni74  1  0.90521734  0.41129064  0.29047224  1
  Ni  Ni75  1  0.64948937  0.08291439  0.93984150  1
  Ni  Ni76  1  0.35051063  0.91708561  0.06015850  1
  Ni  Ni77  1  0.22162442  0.08369198  0.17434675  1
  Ni  Ni78  1  0.37699399  0.02913534  0.93792094  1
  Ni  Ni79  1  0.08398692  0.07052777  0.69103391  1
  Cu  Cu80  1  0.48270552  0.00612312  0.63203998  1
  Cu  Cu81  1  0.92993073  0.99345396  0.90933798  1
  Cu  Cu82  1  0.25222018  0.15054230  0.09666639  1
  Cu  Cu83  1  0.16888174  0.85967480  0.87571257  1
  Cu  Cu84  1  0.98381962  0.16099697  0.51097918  1
  Cu  Cu85  1  0.74697119  0.16550679  0.99326795  1
  Cu  Cu86  1  0.98381962  0.83900303  0.98902082  1
  Cu  Cu87  1  0.82543807  0.66517681  0.27557870  1
  Cu  Cu88  1  0.74715101  0.10120767  0.38896095  1
  Cu  Cu89  1  0.48270552  0.99387688  0.86796002  1
  Cu  Cu90  1  0.48706819  0.11628231  0.97941771  1
  Cu  Cu91  1  0.06914466  0.13398929  0.21624904  1
  Cu  Cu92  1  0.98270552  0.50612312  0.86796002  1
  Cu  Cu93  1  0.01729448  0.49387688  0.13203998  1
  Cu  Cu94  1  0.98706819  0.61628231  0.52058229  1
  Cu  Cu95  1  0.93085534  0.86601071  0.78375096  1
  Cu  Cu96  1  0.01618038  0.83900303  0.48902082  1
  Cu  Cu97  1  0.01618038  0.16099697  0.01097918  1
  Cu  Cu98  1  0.24715101  0.39879233  0.38896095  1
  Cu  Cu99  1  0.92993073  0.00654604  0.59066202  1
  Cu  Cu100  1  0.66339032  0.15757752  0.86273471  1
  Cu  Cu101  1  0.56987430  0.14183780  0.27054804  1
  Cu  Cu102  1  0.25284899  0.10120767  0.88896095  1
  Cu  Cu103  1  0.01729448  0.50612312  0.36796002  1
  Cu  Cu104  1  0.57006927  0.49345396  0.09066202  1
  Cu  Cu105  1  0.24697119  0.66550679  0.50673205  1
  Cu  Cu106  1  0.25302881  0.83449321  0.00673205  1
  Cu  Cu107  1  0.98706819  0.38371769  0.97941771  1
  Cu  Cu108  1  0.24697119  0.33449321  0.99326795  1
  Cu  Cu109  1  0.82543807  0.33482319  0.22442130  1
  Cu  Cu110  1  0.42993073  0.50654604  0.90933798  1
  Cu  Cu111  1  0.16657914  0.13485708  0.76279896  1
  Cu  Cu112  1  0.48706819  0.88371769  0.52058229  1
  Cu  Cu113  1  0.33111826  0.35967480  0.12428743  1
  Cu  Cu114  1  0.93085534  0.13398929  0.71624904  1
  Cu  Cu115  1  0.75222018  0.65054230  0.40333361  1
  Cu  Cu116  1  0.75284899  0.60120767  0.61103905  1
  Cu  Cu117  1  0.07006927  0.99345396  0.40933798  1
  Cu  Cu118  1  0.33342086  0.63485708  0.23720104  1
  Cu  Cu119  1  0.43012570  0.85816220  0.72945196  1
  Cu  Cu120  1  0.06914466  0.86601071  0.28375096  1
  Cu  Cu121  1  0.66888174  0.35967480  0.62428743  1
  Cu  Cu122  1  0.75302881  0.66550679  0.00673205  1
  Cu  Cu123  1  0.06987430  0.64183780  0.22945196  1
  Cu  Cu124  1  0.83660968  0.34242248  0.36273471  1
  Cu  Cu125  1  0.16888174  0.14032520  0.62428743  1
  Cu  Cu126  1  0.17456193  0.66517681  0.77557870  1
  Cu  Cu127  1  0.66339032  0.84242248  0.63726529  1
  Cu  Cu128  1  0.83660968  0.65757752  0.13726529  1
  Cu  Cu129  1  0.66657914  0.63485708  0.73720104  1
  Cu  Cu130  1  0.56914466  0.63398929  0.28375096  1
  Cu  Cu131  1  0.74715101  0.89879233  0.11103905  1
  Cu  Cu132  1  0.33111826  0.64032520  0.37571257  1
  Cu  Cu133  1  0.43085534  0.63398929  0.78375096  1
  Cu  Cu134  1  0.51618038  0.66099697  0.48902082  1
  Cu  Cu135  1  0.51618038  0.33900303  0.01097918  1
  Cu  Cu136  1  0.48381962  0.33900303  0.51097918  1
  Cu  Cu137  1  0.75222018  0.34945770  0.09666639  1
  Cu  Cu138  1  0.83342086  0.13485708  0.26279896  1
  Cu  Cu139  1  0.67456193  0.16517681  0.72442130  1
  Cu  Cu140  1  0.56914466  0.36601071  0.21624904  1
  Cu  Cu141  1  0.74777982  0.84945770  0.90333361  1
  Cu  Cu142  1  0.33660968  0.15757752  0.36273471  1
  Cu  Cu143  1  0.83342086  0.86514292  0.23720104  1
  Cu  Cu144  1  0.66657914  0.36514292  0.76279896  1
  Cu  Cu145  1  0.74697119  0.83449321  0.50673205  1
  Cu  Cu146  1  0.16657914  0.86514292  0.73720104  1
  Cu  Cu147  1  0.67456193  0.83482319  0.77557870  1
  Cu  Cu148  1  0.51729448  0.00612312  0.13203998  1
  Cu  Cu149  1  0.07006927  0.00654604  0.09066202  1
  Cu  Cu150  1  0.75284899  0.39879233  0.88896095  1
  Cu  Cu151  1  0.25222018  0.84945770  0.40333361  1
  Cu  Cu152  1  0.93012570  0.64183780  0.72945196  1
  Cu  Cu153  1  0.57006927  0.50654604  0.40933798  1
  Cu  Cu154  1  0.17456193  0.33482319  0.72442130  1
  Cu  Cu155  1  0.66888174  0.64032520  0.87571257  1
  Cu  Cu156  1  0.32543807  0.16517681  0.22442130  1
  Cu  Cu157  1  0.01293181  0.61628231  0.02058229  1
  Cu  Cu158  1  0.43085534  0.36601071  0.71624904  1
  Cu  Cu159  1  0.06987430  0.35816220  0.27054804  1
  Cu  Cu160  1  0.83111826  0.85967480  0.37571257  1
  Cu  Cu161  1  0.51729448  0.99387688  0.36796002  1
  Cu  Cu162  1  0.24777982  0.65054230  0.90333361  1
  Cu  Cu163  1  0.25284899  0.89879233  0.61103905  1
  Cu  Cu164  1  0.24777982  0.34945770  0.59666639  1
  Cu  Cu165  1  0.42993073  0.49345396  0.59066202  1
  Cu  Cu166  1  0.01293181  0.38371769  0.47941771  1
  Cu  Cu167  1  0.33342086  0.36514292  0.26279896  1
  Cu  Cu168  1  0.16339032  0.34242248  0.86273471  1
  Cu  Cu169  1  0.43012570  0.14183780  0.77054804  1
  Cu  Cu170  1  0.51293181  0.11628231  0.47941771  1
  Cu  Cu171  1  0.83111826  0.14032520  0.12428743  1
  Cu  Cu172  1  0.32543807  0.83482319  0.27557870  1
  Cu  Cu173  1  0.25302881  0.16550679  0.49326795  1
  Cu  Cu174  1  0.74777982  0.15054230  0.59666639  1
  Cu  Cu175  1  0.48381962  0.66099697  0.98902082  1
  Cu  Cu176  1  0.56987430  0.85816220  0.22945196  1
  Cu  Cu177  1  0.24715101  0.60120767  0.11103905  1
  Cu  Cu178  1  0.93012570  0.35816220  0.77054804  1
  Cu  Cu179  1  0.16339032  0.65757752  0.63726529  1
  Cu  Cu180  1  0.75302881  0.33449321  0.49326795  1
  Cu  Cu181  1  0.33660968  0.84242248  0.13726529  1
  Cu  Cu182  1  0.51293181  0.88371769  0.02058229  1
  Cu  Cu183  1  0.98270552  0.49387688  0.63203998  1
