# generated using pymatgen
data_CuNiC8
_symmetry_space_group_name_H-M   'P 1'
_cell_length_a   5.61870400
_cell_length_b   5.60398300
_cell_length_c   15.77035496
_cell_angle_alpha   89.92109198
_cell_angle_beta   90.00000000
_cell_angle_gamma   90.00000000
_symmetry_Int_Tables_number   1
_chemical_formula_structural   CuNiC8
_chemical_formula_sum   'Cu4 Ni4 C32'
_cell_volume   496.56261480
_cell_formula_units_Z   4
loop_
 _symmetry_equiv_pos_site_id
 _symmetry_equiv_pos_as_xyz
  1  'x, y, z'
loop_
 _atom_site_type_symbol
 _atom_site_label
 _atom_site_symmetry_multiplicity
 _atom_site_fract_x
 _atom_site_fract_y
 _atom_site_fract_z
 _atom_site_occupancy
  Ni  Ni0  1  0.00095500  0.99689200  0.12254300  1
  Ni  Ni1  1  0.49904500  0.49689200  0.12254300  1
  Ni  Ni2  1  0.50095500  0.50310800  0.87745700  1
  Ni  Ni3  1  0.99904500  0.00310800  0.87745700  1
  Cu  Cu4  1  0.01488800  0.98243600  0.61735900  1
  Cu  Cu5  1  0.48511200  0.48243600  0.61735900  1
  Cu  Cu6  1  0.51488800  0.51756400  0.38264100  1
  Cu  Cu7  1  0.98511200  0.01756400  0.38264100  1
  C  C8  1  0.00000000  0.50000000  0.50000000  1
  C  C9  1  0.50000000  0.00000000  0.50000000  1
  C  C10  1  0.00000000  0.50000000  0.00000000  1
  C  C11  1  0.50972500  0.98804400  0.74939900  1
  C  C12  1  0.50000000  0.00000000  0.00000000  1
  C  C13  1  0.49027500  0.01195600  0.25060100  1
  C  C14  1  0.99027500  0.48804400  0.74939900  1
  C  C15  1  0.00972500  0.51195600  0.25060100  1
  C  C16  1  0.05242300  0.50217500  0.87544200  1
  C  C17  1  0.08149400  0.48602100  0.36815000  1
  C  C18  1  0.24304300  0.23645200  0.23203200  1
  C  C19  1  0.23927500  0.24826600  0.72973300  1
  C  C20  1  0.24615100  0.24598700  0.01256200  1
  C  C21  1  0.23197300  0.23189700  0.52371400  1
  C  C22  1  0.25695700  0.73645200  0.23203200  1
  C  C23  1  0.25384900  0.74598700  0.01256200  1
  C  C24  1  0.26072500  0.74826600  0.72973300  1
  C  C25  1  0.26802700  0.73189700  0.52371400  1
  C  C26  1  0.44757700  0.00217500  0.87544200  1
  C  C27  1  0.41850600  0.98602100  0.36815000  1
  C  C28  1  0.58149400  0.01397900  0.63185000  1
  C  C29  1  0.55242300  0.99782500  0.12455800  1
  C  C30  1  0.73927500  0.25173400  0.27026700  1
  C  C31  1  0.74304300  0.26354800  0.76796800  1
  C  C32  1  0.74615100  0.25401300  0.98743800  1
  C  C33  1  0.73197300  0.26810300  0.47628600  1
  C  C34  1  0.75384900  0.75401300  0.98743800  1
  C  C35  1  0.76802700  0.76810300  0.47628600  1
  C  C36  1  0.75695700  0.76354800  0.76796800  1
  C  C37  1  0.76072500  0.75173400  0.27026700  1
  C  C38  1  0.94757700  0.49782500  0.12455800  1
  C  C39  1  0.91850600  0.51397900  0.63185000  1
