# generated using pymatgen
data_Cu(NiC)3
_symmetry_space_group_name_H-M   'P 1'
_cell_length_a   6.23589300
_cell_length_b   8.06642500
_cell_length_c   10.69361000
_cell_angle_alpha   90.00000000
_cell_angle_beta   90.00000000
_cell_angle_gamma   90.00000000
_symmetry_Int_Tables_number   1
_chemical_formula_structural   Cu(NiC)3
_chemical_formula_sum   'Cu4 Ni12 C12'
_cell_volume   537.90316045
_cell_formula_units_Z   4
loop_
 _symmetry_equiv_pos_site_id
 _symmetry_equiv_pos_as_xyz
  1  'x, y, z'
loop_
 _atom_site_type_symbol
 _atom_site_label
 _atom_site_symmetry_multiplicity
 _atom_site_fract_x
 _atom_site_fract_y
 _atom_site_fract_z
 _atom_site_occupancy
  C  C0  1  0.25000000  0.17629500  0.92265000  1
  C  C1  1  0.75000000  0.82370500  0.07735000  1
  C  C2  1  0.25000000  0.67629500  0.57735000  1
  C  C3  1  0.75000000  0.32370500  0.42265000  1
  C  C4  1  0.25000000  0.00707800  0.28197100  1
  C  C5  1  0.75000000  0.99292200  0.71802900  1
  C  C6  1  0.25000000  0.50707800  0.21802900  1
  C  C7  1  0.75000000  0.49292200  0.78197100  1
  C  C8  1  0.25000000  0.24209600  0.58616100  1
  C  C9  1  0.75000000  0.75790400  0.41383900  1
  C  C10  1  0.25000000  0.74209600  0.91383900  1
  C  C11  1  0.75000000  0.25790400  0.08616100  1
  Ni  Ni12  1  0.75000000  0.68840900  0.54655200  1
  Ni  Ni13  1  0.25000000  0.31159100  0.45344800  1
  Ni  Ni14  1  0.25000000  0.81159100  0.04655200  1
  Ni  Ni15  1  0.75000000  0.18840900  0.95344800  1
  Ni  Ni16  1  0.54355100  0.73010000  0.34080000  1
  Ni  Ni17  1  0.04355100  0.26990000  0.65920000  1
  Ni  Ni18  1  0.95644900  0.23010000  0.15920000  1
  Ni  Ni19  1  0.45644900  0.76990000  0.84080000  1
  Ni  Ni20  1  0.45644900  0.26990000  0.65920000  1
  Ni  Ni21  1  0.95644900  0.73010000  0.34080000  1
  Ni  Ni22  1  0.04355100  0.76990000  0.84080000  1
  Ni  Ni23  1  0.54355100  0.23010000  0.15920000  1
  Cu  Cu24  1  0.75000000  0.46385500  0.06298500  1
  Cu  Cu25  1  0.25000000  0.53614500  0.93701500  1
  Cu  Cu26  1  0.25000000  0.03614500  0.56298500  1
  Cu  Cu27  1  0.75000000  0.96385500  0.43701500  1
