# generated using pymatgen
data_Cu2Ni2C9
_symmetry_space_group_name_H-M   'P 1'
_cell_length_a   15.21915904
_cell_length_b   14.31962318
_cell_length_c   7.11453153
_cell_angle_alpha   83.22265891
_cell_angle_beta   69.11852698
_cell_angle_gamma   27.65881411
_symmetry_Int_Tables_number   1
_chemical_formula_structural   Cu2Ni2C9
_chemical_formula_sum   'Cu8 Ni8 C36'
_cell_volume   598.55089126
_cell_formula_units_Z   4
loop_
 _symmetry_equiv_pos_site_id
 _symmetry_equiv_pos_as_xyz
  1  'x, y, z'
loop_
 _atom_site_type_symbol
 _atom_site_label
 _atom_site_symmetry_multiplicity
 _atom_site_fract_x
 _atom_site_fract_y
 _atom_site_fract_z
 _atom_site_occupancy
  C  C0  1  0.91010400  0.99105400  0.30829300  1
  C  C1  1  0.99105400  0.91010400  0.79054900  1
  C  C2  1  0.30829300  0.79054900  0.91010400  1
  C  C3  1  0.79054900  0.30829300  0.99105400  1
  C  C4  1  0.33989600  0.25894600  0.94170700  1
  C  C5  1  0.25894600  0.33989600  0.45945100  1
  C  C6  1  0.94170700  0.45945100  0.33989600  1
  C  C7  1  0.45945100  0.94170700  0.25894600  1
  Ni  Ni8  1  0.41164400  0.44556700  0.87302200  1
  Ni  Ni9  1  0.44556700  0.41164400  0.26976600  1
  Ni  Ni10  1  0.87302200  0.26976600  0.41164400  1
  Ni  Ni11  1  0.26976600  0.87302200  0.44556700  1
  Ni  Ni12  1  0.83835600  0.80443300  0.37697800  1
  Ni  Ni13  1  0.80443300  0.83835600  0.98023400  1
  Ni  Ni14  1  0.37697800  0.98023400  0.83835600  1
  Ni  Ni15  1  0.98023400  0.37697800  0.80443300  1
  Cu  Cu16  1  0.38549100  0.38549100  0.61450900  1
  Cu  Cu17  1  0.61450900  0.61450900  0.38549100  1
  Cu  Cu18  1  0.86450900  0.86450900  0.63549100  1
  Cu  Cu19  1  0.63549100  0.63549100  0.86450900  1
  Cu  Cu20  1  0.67632200  0.32367800  0.67632200  1
  Cu  Cu21  1  0.32367800  0.67632200  0.32367800  1
  Cu  Cu22  1  0.57367800  0.92632200  0.57367800  1
  Cu  Cu23  1  0.92632200  0.57367800  0.92632200  1
  C  C24  1  0.36293600  0.40347200  0.79613900  1
  C  C25  1  0.40347200  0.36293600  0.43745300  1
  C  C26  1  0.79613900  0.43745300  0.36293600  1
  C  C27  1  0.43745300  0.79613900  0.40347200  1
  C  C28  1  0.88706400  0.84652800  0.45386100  1
  C  C29  1  0.84652800  0.88706400  0.81254700  1
  C  C30  1  0.45386100  0.81254700  0.88706400  1
  C  C31  1  0.81254700  0.45386100  0.84652800  1
  C  C32  1  0.65846600  0.25607700  0.69709400  1
  C  C33  1  0.25607700  0.65846600  0.38836400  1
  C  C34  1  0.69709400  0.38836400  0.65846600  1
  C  C35  1  0.38836400  0.69709400  0.25607700  1
  C  C36  1  0.59153400  0.99392300  0.55290600  1
  C  C37  1  0.99392300  0.59153400  0.86163600  1
  C  C38  1  0.55290600  0.86163600  0.59153400  1
  C  C39  1  0.86163600  0.55290600  0.99392300  1
  C  C40  1  0.24086900  0.67963400  0.93564700  1
  C  C41  1  0.67963400  0.24086900  0.14384900  1
  C  C42  1  0.93564700  0.14384900  0.24086900  1
  C  C43  1  0.14384900  0.93564700  0.67963400  1
  C  C44  1  0.00913100  0.57036600  0.31435300  1
  C  C45  1  0.57036600  0.00913100  0.10615100  1
  C  C46  1  0.31435300  0.10615100  0.00913100  1
  C  C47  1  0.10615100  0.31435300  0.57036600  1
  C  C48  1  0.40422200  0.40422200  0.09577800  1
  C  C49  1  0.09577800  0.09577800  0.40422200  1
  C  C50  1  0.84577800  0.84577800  0.15422200  1
  C  C51  1  0.15422200  0.15422200  0.84577800  1
