# generated using pymatgen
data_CuNi4C3
_symmetry_space_group_name_H-M   'P 1'
_cell_length_a   6.98171700
_cell_length_b   7.17215400
_cell_length_c   15.67187800
_cell_angle_alpha   90.00000000
_cell_angle_beta   90.00000000
_cell_angle_gamma   90.00000000
_symmetry_Int_Tables_number   1
_chemical_formula_structural   CuNi4C3
_chemical_formula_sum   'Cu2 Ni8 C6'
_cell_volume   784.75282767
_cell_formula_units_Z   2
loop_
 _symmetry_equiv_pos_site_id
 _symmetry_equiv_pos_as_xyz
  1  'x, y, z'
loop_
 _atom_site_type_symbol
 _atom_site_label
 _atom_site_symmetry_multiplicity
 _atom_site_fract_x
 _atom_site_fract_y
 _atom_site_fract_z
 _atom_site_occupancy
  C  C0  1  0.99381100  0.50000000  0.50000000  1
  C  C1  1  0.60413900  0.50000000  0.69406300  1
  C  C2  1  0.00618900  0.00000000  0.00000000  1
  C  C3  1  0.39586100  0.00000000  0.80593700  1
  C  C4  1  0.39586100  0.00000000  0.19406300  1
  C  C5  1  0.60413900  0.50000000  0.30593700  1
  Ni  Ni6  1  0.55127900  0.72961900  0.00000000  1
  Ni  Ni7  1  0.14012300  0.00000000  0.60434500  1
  Ni  Ni8  1  0.44872100  0.77038100  0.50000000  1
  Ni  Ni9  1  0.55127900  0.27038100  0.00000000  1
  Ni  Ni10  1  0.85987700  0.50000000  0.89565500  1
  Ni  Ni11  1  0.85987700  0.50000000  0.10434500  1
  Ni  Ni12  1  0.44872100  0.22961900  0.50000000  1
  Ni  Ni13  1  0.14012300  0.00000000  0.39565500  1
  Cu  Cu14  1  0.79275200  0.00000000  0.50000000  1
  Cu  Cu15  1  0.20724800  0.50000000  0.00000000  1
