# generated using pymatgen
data_Cu12NiC13
_symmetry_space_group_name_H-M   'P 1'
_cell_length_a   7.68534699
_cell_length_b   8.81851851
_cell_length_c   9.39198367
_cell_angle_alpha   100.64731577
_cell_angle_beta   110.48073481
_cell_angle_gamma   95.17263863
_symmetry_Int_Tables_number   1
_chemical_formula_structural   Cu12NiC13
_chemical_formula_sum   'Cu24 Ni2 C26'
_cell_volume   577.68161303
_cell_formula_units_Z   2
loop_
 _symmetry_equiv_pos_site_id
 _symmetry_equiv_pos_as_xyz
  1  'x, y, z'
loop_
 _atom_site_type_symbol
 _atom_site_label
 _atom_site_symmetry_multiplicity
 _atom_site_fract_x
 _atom_site_fract_y
 _atom_site_fract_z
 _atom_site_occupancy
  C  C0  1  0.05139000  0.24684800  0.63105100  1
  C  C1  1  0.70145200  0.93675000  0.77386600  1
  C  C2  1  0.00459400  0.40351700  0.30953800  1
  C  C3  1  0.00727500  0.66503500  0.02863200  1
  C  C4  1  0.31378800  0.95607300  0.88248400  1
  C  C5  1  0.94861000  0.75315200  0.36894900  1
  C  C6  1  0.99272500  0.33496500  0.97136800  1
  C  C7  1  0.29854800  0.06325000  0.22613400  1
  C  C8  1  0.68621200  0.04392700  0.11751600  1
  C  C9  1  0.99540600  0.59648300  0.69046200  1
  C  C10  1  0.36242800  0.06911900  0.78490100  1
  C  C11  1  0.70395400  0.64182200  0.76394500  1
  C  C12  1  0.40293100  0.57921500  0.93795400  1
  C  C13  1  0.71535800  0.24219500  0.34353500  1
  C  C14  1  0.53079000  0.35959400  0.07236000  1
  C  C15  1  0.28464200  0.75780500  0.65646500  1
  C  C16  1  0.06282600  0.90542600  0.96792000  1
  C  C17  1  0.46921000  0.64040600  0.92764000  1
  C  C18  1  0.78684600  0.85016000  0.39246500  1
  C  C19  1  0.21315400  0.14983900  0.60753500  1
  C  C20  1  0.93717400  0.09457400  0.03208000  1
  C  C21  1  0.59706900  0.42078500  0.06204600  1
  C  C22  1  0.29604600  0.35817800  0.23605500  1
  C  C23  1  0.63757200  0.93088100  0.21509900  1
  C  C24  1  0.28596000  0.42882700  0.60035600  1
  C  C25  1  0.71404000  0.57117300  0.39964400  1
  Ni  Ni26  1  0.38794800  0.73181100  0.40695500  1
  Ni  Ni27  1  0.61205200  0.26818900  0.59304500  1
  Cu  Cu28  1  0.55438500  0.89867000  0.92169500  1
  Cu  Cu29  1  0.05973900  0.02809400  0.82478700  1
  Cu  Cu30  1  0.16764200  0.85449700  0.02121000  1
  Cu  Cu31  1  0.18459800  0.78949700  0.69235100  1
  Cu  Cu32  1  0.94026100  0.97190600  0.17521300  1
  Cu  Cu33  1  0.82150100  0.71643000  0.80131600  1
  Cu  Cu34  1  0.91474100  0.80656000  0.16887700  1
  Cu  Cu35  1  0.81540200  0.21050300  0.30764900  1
  Cu  Cu36  1  0.38097600  0.87552500  0.34757900  1
  Cu  Cu37  1  0.85261400  0.57858600  0.43623400  1
  Cu  Cu38  1  0.44561500  0.10133000  0.07830500  1
  Cu  Cu39  1  0.48638700  0.77062600  0.58037900  1
  Cu  Cu40  1  0.81540700  0.33977400  0.62326700  1
  Cu  Cu41  1  0.14738600  0.42141400  0.56376600  1
  Cu  Cu42  1  0.91705000  0.49072400  0.09684300  1
  Cu  Cu43  1  0.61902400  0.12447500  0.65242100  1
  Cu  Cu44  1  0.46620900  0.61223300  0.33003700  1
  Cu  Cu45  1  0.18459300  0.66022600  0.37673300  1
  Cu  Cu46  1  0.08295000  0.50927600  0.90315700  1
  Cu  Cu47  1  0.17849900  0.28357000  0.19868400  1
  Cu  Cu48  1  0.08525900  0.19344000  0.83112300  1
  Cu  Cu49  1  0.53379100  0.38776700  0.66996300  1
  Cu  Cu50  1  0.51361300  0.22937400  0.41962100  1
  Cu  Cu51  1  0.83235800  0.14550300  0.97879000  1
