# generated using pymatgen
data_Cu8Ni3C4
_symmetry_space_group_name_H-M   'P 1'
_cell_length_a   9.70855000
_cell_length_b   8.84389700
_cell_length_c   10.82824612
_cell_angle_alpha   70.79173535
_cell_angle_beta   90.00000000
_cell_angle_gamma   90.00000000
_symmetry_Int_Tables_number   1
_chemical_formula_structural   Cu8Ni3C4
_chemical_formula_sum   'Cu32 Ni12 C16'
_cell_volume   877.96955781
_cell_formula_units_Z   4
loop_
 _symmetry_equiv_pos_site_id
 _symmetry_equiv_pos_as_xyz
  1  'x, y, z'
loop_
 _atom_site_type_symbol
 _atom_site_label
 _atom_site_symmetry_multiplicity
 _atom_site_fract_x
 _atom_site_fract_y
 _atom_site_fract_z
 _atom_site_occupancy
  C  C0  1  0.67172900  0.74132100  0.91977200  1
  C  C1  1  0.17172900  0.25867900  0.58022800  1
  C  C2  1  0.32827100  0.25867900  0.08022800  1
  C  C3  1  0.82827100  0.74132100  0.41977200  1
  C  C4  1  0.00332200  0.43412900  0.78601700  1
  C  C5  1  0.50332200  0.56587100  0.71398300  1
  C  C6  1  0.99667800  0.56587100  0.21398300  1
  C  C7  1  0.49667800  0.43412900  0.28601700  1
  C  C8  1  0.83706100  0.20190300  0.01432900  1
  C  C9  1  0.33706100  0.79809700  0.48567100  1
  C  C10  1  0.16293900  0.79809700  0.98567100  1
  C  C11  1  0.66293900  0.20190300  0.51432900  1
  C  C12  1  0.81007200  0.40802200  0.88853300  1
  C  C13  1  0.31007200  0.59197800  0.61146700  1
  C  C14  1  0.18992800  0.59197800  0.11146700  1
  C  C15  1  0.68992800  0.40802200  0.38853300  1
  Ni  Ni16  1  0.95898700  0.47116600  0.85522700  1
  Ni  Ni17  1  0.45898700  0.52883400  0.64477300  1
  Ni  Ni18  1  0.04101300  0.52883400  0.14477300  1
  Ni  Ni19  1  0.54101300  0.47116600  0.35522700  1
  Ni  Ni20  1  0.75306400  0.49977000  0.96933200  1
  Ni  Ni21  1  0.25306400  0.50023000  0.53066800  1
  Ni  Ni22  1  0.24693600  0.50023000  0.03066800  1
  Ni  Ni23  1  0.74693600  0.49977000  0.46933200  1
  Ni  Ni24  1  0.73263300  0.39658500  0.77977900  1
  Ni  Ni25  1  0.23263300  0.60341500  0.72022100  1
  Ni  Ni26  1  0.26736700  0.60341500  0.22022100  1
  Ni  Ni27  1  0.76736700  0.39658500  0.27977900  1
  Cu  Cu28  1  0.80155100  0.79731500  0.78097500  1
  Cu  Cu29  1  0.30155100  0.20268500  0.71902500  1
  Cu  Cu30  1  0.19844900  0.20268500  0.21902500  1
  Cu  Cu31  1  0.69844900  0.79731500  0.28097500  1
  Cu  Cu32  1  0.80788600  0.76405100  0.03835000  1
  Cu  Cu33  1  0.30788600  0.23594900  0.46165000  1
  Cu  Cu34  1  0.19211400  0.23594900  0.96165000  1
  Cu  Cu35  1  0.69211400  0.76405100  0.53835000  1
  Cu  Cu36  1  0.59964300  0.95051100  0.87827600  1
  Cu  Cu37  1  0.09964300  0.04948900  0.62172400  1
  Cu  Cu38  1  0.40035700  0.04948900  0.12172400  1
  Cu  Cu39  1  0.90035700  0.95051100  0.37827600  1
  Cu  Cu40  1  0.54764800  0.64872400  0.06002700  1
  Cu  Cu41  1  0.04764800  0.35127600  0.43997300  1
  Cu  Cu42  1  0.45235200  0.35127600  0.93997300  1
  Cu  Cu43  1  0.95235200  0.64872400  0.56002700  1
  Cu  Cu44  1  0.54261000  0.68366800  0.80561100  1
  Cu  Cu45  1  0.04261000  0.31633200  0.69438900  1
  Cu  Cu46  1  0.45739000  0.31633200  0.19438900  1
  Cu  Cu47  1  0.95739000  0.68366800  0.30561100  1
  Cu  Cu48  1  0.71765900  0.14845600  0.07394700  1
  Cu  Cu49  1  0.21765900  0.85154400  0.42605300  1
  Cu  Cu50  1  0.28234100  0.85154400  0.92605300  1
  Cu  Cu51  1  0.78234100  0.14845600  0.57394700  1
  Cu  Cu52  1  0.88112700  0.10862700  0.94638700  1
  Cu  Cu53  1  0.38112700  0.89137300  0.55361300  1
  Cu  Cu54  1  0.11887300  0.89137300  0.05361300  1
  Cu  Cu55  1  0.61887300  0.10862700  0.44638700  1
  Cu  Cu56  1  0.93165100  0.20954300  0.10151900  1
  Cu  Cu57  1  0.43165100  0.79045700  0.39848100  1
  Cu  Cu58  1  0.06834900  0.79045700  0.89848100  1
  Cu  Cu59  1  0.56834900  0.20954300  0.60151900  1
