# generated using pymatgen
data_Cu(NiC)4
_symmetry_space_group_name_H-M   'P 1'
_cell_length_a   7.51718737
_cell_length_b   7.51718737
_cell_length_c   7.51718737
_cell_angle_alpha   125.79058888
_cell_angle_beta   125.79058888
_cell_angle_gamma   80.23259449
_symmetry_Int_Tables_number   1
_chemical_formula_structural   Cu(NiC)4
_chemical_formula_sum   'Cu2 Ni8 C8'
_cell_volume   269.73708186
_cell_formula_units_Z   2
loop_
 _symmetry_equiv_pos_site_id
 _symmetry_equiv_pos_as_xyz
  1  'x, y, z'
loop_
 _atom_site_type_symbol
 _atom_site_label
 _atom_site_symmetry_multiplicity
 _atom_site_fract_x
 _atom_site_fract_y
 _atom_site_fract_z
 _atom_site_occupancy
  C  C0  1  0.83256700  0.33256700  0.16513300  1
  C  C1  1  0.33256700  0.16743300  0.50000000  1
  C  C2  1  0.66743300  0.83256700  0.50000000  1
  C  C3  1  0.16743300  0.66743300  0.83486700  1
  C  C4  1  0.25000000  0.25000000  0.00000000  1
  C  C5  1  0.75000000  0.75000000  0.00000000  1
  C  C6  1  0.75000000  0.25000000  0.50000000  1
  C  C7  1  0.25000000  0.75000000  0.50000000  1
  Ni  Ni8  1  0.49667900  0.99667900  0.20513000  1
  Ni  Ni9  1  0.20845100  0.70845100  0.20513000  1
  Ni  Ni10  1  0.50332100  0.00332100  0.79487000  1
  Ni  Ni11  1  0.00332100  0.20845100  0.50000000  1
  Ni  Ni12  1  0.70845100  0.50332100  0.50000000  1
  Ni  Ni13  1  0.99667900  0.79154900  0.50000000  1
  Ni  Ni14  1  0.29154900  0.49667900  0.50000000  1
  Ni  Ni15  1  0.79154900  0.29154900  0.79487000  1
  Cu  Cu16  1  0.50000000  0.50000000  0.00000000  1
  Cu  Cu17  1  0.00000000  0.00000000  0.00000000  1
