# generated using pymatgen
data_Cu6Ni3C2
_symmetry_space_group_name_H-M   'P 1'
_cell_length_a   10.50968753
_cell_length_b   10.50968753
_cell_length_c   10.50968770
_cell_angle_alpha   34.79441019
_cell_angle_beta   34.79441019
_cell_angle_gamma   34.79440933
_symmetry_Int_Tables_number   1
_chemical_formula_structural   Cu6Ni3C2
_chemical_formula_sum   'Cu12 Ni6 C4'
_cell_volume   337.38451495
_cell_formula_units_Z   2
loop_
 _symmetry_equiv_pos_site_id
 _symmetry_equiv_pos_as_xyz
  1  'x, y, z'
loop_
 _atom_site_type_symbol
 _atom_site_label
 _atom_site_symmetry_multiplicity
 _atom_site_fract_x
 _atom_site_fract_y
 _atom_site_fract_z
 _atom_site_occupancy
  C  C0  1  0.66417500  0.66417500  0.66417500  1
  C  C1  1  0.83582500  0.83582500  0.83582500  1
  C  C2  1  0.33582500  0.33582500  0.33582500  1
  C  C3  1  0.16417500  0.16417500  0.16417500  1
  Ni  Ni4  1  0.04565400  0.45434600  0.75000000  1
  Ni  Ni5  1  0.95434600  0.54565400  0.25000000  1
  Ni  Ni6  1  0.25000000  0.95434600  0.54565400  1
  Ni  Ni7  1  0.54565400  0.25000000  0.95434600  1
  Ni  Ni8  1  0.45434600  0.75000000  0.04565400  1
  Ni  Ni9  1  0.75000000  0.04565400  0.45434600  1
  Cu  Cu10  1  0.86079400  0.04769300  0.46011900  1
  Cu  Cu11  1  0.36079400  0.96011900  0.54769300  1
  Cu  Cu12  1  0.04769300  0.46011900  0.86079400  1
  Cu  Cu13  1  0.95230700  0.53988100  0.13920600  1
  Cu  Cu14  1  0.03988100  0.45230700  0.63920600  1
  Cu  Cu15  1  0.45230700  0.63920600  0.03988100  1
  Cu  Cu16  1  0.63920600  0.03988100  0.45230700  1
  Cu  Cu17  1  0.96011900  0.54769300  0.36079400  1
  Cu  Cu18  1  0.13920600  0.95230700  0.53988100  1
  Cu  Cu19  1  0.54769300  0.36079400  0.96011900  1
  Cu  Cu20  1  0.46011900  0.86079400  0.04769300  1
  Cu  Cu21  1  0.53988100  0.13920600  0.95230700  1
