# generated using pymatgen
data_Cu10Ni5C16
_symmetry_space_group_name_H-M   'P 1'
_cell_length_a   8.95330262
_cell_length_b   8.95330262
_cell_length_c   8.95330262
_cell_angle_alpha   60.00000000
_cell_angle_beta   60.00000000
_cell_angle_gamma   60.00000000
_symmetry_Int_Tables_number   1
_chemical_formula_structural   Cu10Ni5C16
_chemical_formula_sum   'Cu10 Ni5 C16'
_cell_volume   507.49853664
_cell_formula_units_Z   1
loop_
 _symmetry_equiv_pos_site_id
 _symmetry_equiv_pos_as_xyz
  1  'x, y, z'
loop_
 _atom_site_type_symbol
 _atom_site_label
 _atom_site_symmetry_multiplicity
 _atom_site_fract_x
 _atom_site_fract_y
 _atom_site_fract_z
 _atom_site_occupancy
  Ni  Ni0  1  0.20284400  0.59905200  0.59905200  1
  Ni  Ni1  1  0.59905200  0.59905200  0.20284400  1
  Ni  Ni2  1  0.59905200  0.59905200  0.59905200  1
  Ni  Ni3  1  0.59905200  0.20284400  0.59905200  1
  Ni  Ni4  1  0.25000000  0.25000000  0.25000000  1
  C  C5  1  0.20465700  0.66314700  0.20465700  1
  C  C6  1  0.92753900  0.66314700  0.20465700  1
  C  C7  1  0.20465700  0.20465700  0.66314700  1
  C  C8  1  0.66314700  0.20465700  0.20465700  1
  C  C9  1  0.92753900  0.20465700  0.66314700  1
  C  C10  1  0.20465700  0.66314700  0.92753900  1
  C  C11  1  0.92753900  0.20465700  0.20465700  1
  C  C12  1  0.66314700  0.92753900  0.20465700  1
  C  C13  1  0.20465700  0.92753900  0.20465700  1
  C  C14  1  0.20465700  0.92753900  0.66314700  1
  C  C15  1  0.53244800  0.82251700  0.82251700  1
  C  C16  1  0.82251700  0.82251700  0.82251700  1
  C  C17  1  0.66314700  0.20465700  0.92753900  1
  C  C18  1  0.82251700  0.82251700  0.53244800  1
  C  C19  1  0.82251700  0.53244800  0.82251700  1
  C  C20  1  0.20465700  0.20465700  0.92753900  1
  Cu  Cu21  1  0.98698000  0.98698000  0.51302000  1
  Cu  Cu22  1  0.51302000  0.98698000  0.51302000  1
  Cu  Cu23  1  0.98698000  0.51302000  0.98698000  1
  Cu  Cu24  1  0.37861700  0.37861700  0.86414900  1
  Cu  Cu25  1  0.37861700  0.37861700  0.37861700  1
  Cu  Cu26  1  0.86414900  0.37861700  0.37861700  1
  Cu  Cu27  1  0.98698000  0.51302000  0.51302000  1
  Cu  Cu28  1  0.51302000  0.51302000  0.98698000  1
  Cu  Cu29  1  0.37861700  0.86414900  0.37861700  1
  Cu  Cu30  1  0.51302000  0.98698000  0.98698000  1
