# generated using pymatgen
data_Cu4NiC4
_symmetry_space_group_name_H-M   'P 1'
_cell_length_a   4.73863100
_cell_length_b   6.14062447
_cell_length_c   6.37519183
_cell_angle_alpha   100.31454540
_cell_angle_beta   98.76672476
_cell_angle_gamma   89.05597935
_symmetry_Int_Tables_number   1
_chemical_formula_structural   Cu4NiC4
_chemical_formula_sum   'Cu8 Ni2 C8'
_cell_volume   180.36506607
_cell_formula_units_Z   2
loop_
 _symmetry_equiv_pos_site_id
 _symmetry_equiv_pos_as_xyz
  1  'x, y, z'
loop_
 _atom_site_type_symbol
 _atom_site_label
 _atom_site_symmetry_multiplicity
 _atom_site_fract_x
 _atom_site_fract_y
 _atom_site_fract_z
 _atom_site_occupancy
  C  C0  1  0.43188100  0.20143000  0.79827600  1
  C  C1  1  0.56811900  0.79857000  0.20172400  1
  C  C2  1  0.16375100  0.29548700  0.16391600  1
  C  C3  1  0.83624900  0.70451300  0.83608400  1
  C  C4  1  0.24624900  0.30400700  0.42904700  1
  C  C5  1  0.75375100  0.69599300  0.57095300  1
  C  C6  1  0.95666000  0.16483500  0.29217200  1
  C  C7  1  0.04334000  0.83516500  0.70782800  1
  Ni  Ni8  1  0.08620400  0.29598400  0.30299600  1
  Ni  Ni9  1  0.91379600  0.70401600  0.69700400  1
  Cu  Cu10  1  0.27269200  0.32221700  0.95129400  1
  Cu  Cu11  1  0.72730800  0.67778300  0.04870600  1
  Cu  Cu12  1  0.26824000  0.01158400  0.67960600  1
  Cu  Cu13  1  0.73176000  0.98841600  0.32039400  1
  Cu  Cu14  1  0.46909100  0.33922400  0.64407600  1
  Cu  Cu15  1  0.53090900  0.66077600  0.35592400  1
  Cu  Cu16  1  0.69361100  0.13720100  0.89583900  1
  Cu  Cu17  1  0.30638900  0.86279900  0.10416100  1
