# generated using pymatgen
data_Cu3(Ni3C4)4
_symmetry_space_group_name_H-M   'P 1'
_cell_length_a   6.90335900
_cell_length_b   9.16691179
_cell_length_c   11.98122015
_cell_angle_alpha   110.23516887
_cell_angle_beta   87.71091604
_cell_angle_gamma   111.27991611
_symmetry_Int_Tables_number   1
_chemical_formula_structural   Cu3(Ni3C4)4
_chemical_formula_sum   'Cu6 Ni24 C32'
_cell_volume   659.71746475
_cell_formula_units_Z   2
loop_
 _symmetry_equiv_pos_site_id
 _symmetry_equiv_pos_as_xyz
  1  'x, y, z'
loop_
 _atom_site_type_symbol
 _atom_site_label
 _atom_site_symmetry_multiplicity
 _atom_site_fract_x
 _atom_site_fract_y
 _atom_site_fract_z
 _atom_site_occupancy
  C  C0  1  0.19208200  0.59481700  0.26868800  1
  C  C1  1  0.80791800  0.40518300  0.73131200  1
  Ni  Ni2  1  0.67921000  0.71807300  0.29804900  1
  Ni  Ni3  1  0.32079000  0.28192700  0.70195100  1
  Ni  Ni4  1  0.35524800  0.11544700  0.62966400  1
  Ni  Ni5  1  0.64475200  0.88455300  0.37033600  1
  Ni  Ni6  1  0.34592300  0.65427100  0.52773200  1
  Ni  Ni7  1  0.65407700  0.34572900  0.47226800  1
  Ni  Ni8  1  0.82495000  0.52673200  0.50486900  1
  Ni  Ni9  1  0.17505000  0.47326800  0.49513100  1
  Ni  Ni10  1  0.63060700  0.67771100  0.74228200  1
  Ni  Ni11  1  0.36939300  0.32228900  0.25771800  1
  Ni  Ni12  1  0.63968700  0.67569600  0.87487300  1
  Ni  Ni13  1  0.36031300  0.32430400  0.12512700  1
  Ni  Ni14  1  0.42571500  0.65528300  0.04822700  1
  Ni  Ni15  1  0.57428500  0.34471700  0.95177300  1
  Ni  Ni16  1  0.22622600  0.48725100  0.99092100  1
  Ni  Ni17  1  0.77377400  0.51274900  0.00907900  1
  Ni  Ni18  1  0.23095400  0.16222500  0.94065800  1
  Ni  Ni19  1  0.76904600  0.83777500  0.05934200  1
  Ni  Ni20  1  0.39178000  0.10188800  0.98189600  1
  Ni  Ni21  1  0.60822000  0.89811200  0.01810400  1
  Ni  Ni22  1  0.72445700  0.83624700  0.62945000  1
  Ni  Ni23  1  0.27554300  0.16375300  0.37055000  1
  Ni  Ni24  1  0.38703600  0.35529300  0.42559900  1
  Ni  Ni25  1  0.61296400  0.64470700  0.57440100  1
  Cu  Cu26  1  0.82400900  0.26830600  0.18167400  1
  Cu  Cu27  1  0.17599100  0.73169400  0.81832600  1
  Cu  Cu28  1  0.07303900  0.82972600  0.50205800  1
  Cu  Cu29  1  0.92696100  0.17027400  0.49794200  1
  Cu  Cu30  1  0.06359200  0.82373900  0.17577200  1
  Cu  Cu31  1  0.93640800  0.17626100  0.82422800  1
  C  C32  1  0.89382000  0.34476300  0.29307000  1
  C  C33  1  0.10618000  0.65523700  0.70693000  1
  C  C34  1  0.91966200  0.34223600  0.11065400  1
  C  C35  1  0.08033800  0.65776400  0.88934600  1
  C  C36  1  0.94125000  0.68689000  0.43286500  1
  C  C37  1  0.05875000  0.31311000  0.56713500  1
  C  C38  1  0.26012200  0.87336500  0.47628900  1
  C  C39  1  0.73987800  0.12663500  0.52371100  1
  C  C40  1  0.24153800  0.86929400  0.23016100  1
  C  C41  1  0.75846200  0.13070600  0.76983900  1
  C  C42  1  0.92743000  0.67871700  0.16972800  1
  C  C43  1  0.07257000  0.32128300  0.83027200  1
  C  C44  1  0.57183900  0.76461600  0.32515000  1
  C  C45  1  0.42816100  0.23538400  0.67485000  1
  C  C46  1  0.27110800  0.55060700  0.45936100  1
  C  C47  1  0.72889200  0.44939300  0.54063900  1
  C  C48  1  0.35926900  0.39133600  0.21110600  1
  C  C49  1  0.64073100  0.60866400  0.78889400  1
  C  C50  1  0.30726600  0.56747500  0.06703100  1
  C  C51  1  0.69273400  0.43252500  0.93296900  1
  C  C52  1  0.67394500  0.13342500  0.14648500  1
  C  C53  1  0.32605500  0.86657500  0.85351500  1
  C  C54  1  0.01701900  0.92078300  0.59050300  1
  C  C55  1  0.98298100  0.07921700  0.40949700  1
  C  C56  1  0.02073100  0.91302600  0.13089400  1
  C  C57  1  0.97926900  0.08697400  0.86910600  1
  C  C58  1  0.36866800  0.20321800  0.98684700  1
  C  C59  1  0.63133200  0.79678200  0.01315300  1
  C  C60  1  0.40435500  0.25534000  0.36871400  1
  C  C61  1  0.59564500  0.74466000  0.63128600  1
