# generated using pymatgen
data_Cu2NiC10
_symmetry_space_group_name_H-M   'P 1'
_cell_length_a   10.46481900
_cell_length_b   5.91651600
_cell_length_c   11.70288365
_cell_angle_alpha   89.49717806
_cell_angle_beta   90.00000000
_cell_angle_gamma   90.00000000
_symmetry_Int_Tables_number   1
_chemical_formula_structural   Cu2NiC10
_chemical_formula_sum   'Cu8 Ni4 C40'
_cell_volume   724.55928774
_cell_formula_units_Z   4
loop_
 _symmetry_equiv_pos_site_id
 _symmetry_equiv_pos_as_xyz
  1  'x, y, z'
loop_
 _atom_site_type_symbol
 _atom_site_label
 _atom_site_symmetry_multiplicity
 _atom_site_fract_x
 _atom_site_fract_y
 _atom_site_fract_z
 _atom_site_occupancy
  C  C0  1  0.81161600  0.62902600  0.86074700  1
  C  C1  1  0.31161600  0.37097400  0.63925300  1
  C  C2  1  0.18838400  0.37097400  0.13925300  1
  C  C3  1  0.68838400  0.62902600  0.36074700  1
  C  C4  1  0.89704300  0.38089900  0.60456400  1
  C  C5  1  0.39704300  0.61910100  0.89543600  1
  C  C6  1  0.10295700  0.61910100  0.39543600  1
  C  C7  1  0.60295700  0.38089900  0.10456400  1
  C  C8  1  0.11810600  0.85230400  0.70516200  1
  C  C9  1  0.61810600  0.14769600  0.79483800  1
  C  C10  1  0.88189400  0.14769600  0.29483800  1
  C  C11  1  0.38189400  0.85230400  0.20516200  1
  Ni  Ni12  1  0.91730500  0.82806100  0.54489800  1
  Ni  Ni13  1  0.41730500  0.17193900  0.95510200  1
  Ni  Ni14  1  0.08269500  0.17193900  0.45510200  1
  Ni  Ni15  1  0.58269500  0.82806100  0.04489800  1
  Cu  Cu16  1  0.66537200  0.10441200  0.49838300  1
  Cu  Cu17  1  0.16537200  0.89558800  0.00161700  1
  Cu  Cu18  1  0.33462800  0.89558800  0.50161700  1
  Cu  Cu19  1  0.83462800  0.10441200  0.99838300  1
  Cu  Cu20  1  0.58939900  0.62155700  0.65598200  1
  Cu  Cu21  1  0.08939900  0.37844300  0.84401800  1
  Cu  Cu22  1  0.41060100  0.37844300  0.34401800  1
  Cu  Cu23  1  0.91060100  0.62155700  0.15598200  1
  C  C24  1  0.74575600  0.05867500  0.62641500  1
  C  C25  1  0.24575600  0.94132500  0.87358500  1
  C  C26  1  0.25424400  0.94132500  0.37358500  1
  C  C27  1  0.75424400  0.05867500  0.12641500  1
  C  C28  1  0.72953700  0.36511800  0.46197500  1
  C  C29  1  0.22953700  0.63488200  0.03802500  1
  C  C30  1  0.27046300  0.63488200  0.53802500  1
  C  C31  1  0.77046300  0.36511800  0.96197500  1
  C  C32  1  0.74933000  0.92949300  0.40736100  1
  C  C33  1  0.24933000  0.07050700  0.09263900  1
  C  C34  1  0.25067000  0.07050700  0.59263900  1
  C  C35  1  0.75067000  0.92949300  0.90736100  1
  C  C36  1  0.49714600  0.38029800  0.66927300  1
  C  C37  1  0.99714600  0.61970200  0.83072700  1
  C  C38  1  0.50285400  0.61970200  0.33072700  1
  C  C39  1  0.00285400  0.38029800  0.16927300  1
  C  C40  1  0.72519300  0.52134900  0.72391800  1
  C  C41  1  0.22519300  0.47865100  0.77608200  1
  C  C42  1  0.27480700  0.47865100  0.27608200  1
  C  C43  1  0.77480700  0.52134900  0.22391800  1
  C  C44  1  0.51747500  0.79536800  0.75759400  1
  C  C45  1  0.01747500  0.20463200  0.74240600  1
  C  C46  1  0.48252500  0.20463200  0.24240600  1
  C  C47  1  0.98252500  0.79536800  0.25759400  1
  C  C48  1  0.98789300  0.72368500  0.56031500  1
  C  C49  1  0.48789300  0.27631500  0.93968500  1
  C  C50  1  0.01210700  0.27631500  0.43968500  1
  C  C51  1  0.51210700  0.72368500  0.06031500  1
