# generated using pymatgen
data_CuNi3C16
_symmetry_space_group_name_H-M   'P 1'
_cell_length_a   5.02941400
_cell_length_b   4.85827800
_cell_length_c   14.09001085
_cell_angle_alpha   89.98015185
_cell_angle_beta   90.00000000
_cell_angle_gamma   90.00000000
_symmetry_Int_Tables_number   1
_chemical_formula_structural   CuNi3C16
_chemical_formula_sum   'Cu2 Ni6 C32'
_cell_volume   344.27941002
_cell_formula_units_Z   2
loop_
 _symmetry_equiv_pos_site_id
 _symmetry_equiv_pos_as_xyz
  1  'x, y, z'
loop_
 _atom_site_type_symbol
 _atom_site_label
 _atom_site_symmetry_multiplicity
 _atom_site_fract_x
 _atom_site_fract_y
 _atom_site_fract_z
 _atom_site_occupancy
  Ni  Ni0  1  0.05206600  0.24071900  0.24345700  1
  Ni  Ni1  1  0.05427900  0.23724800  0.75661000  1
  Ni  Ni2  1  0.55427900  0.76275200  0.24339000  1
  Ni  Ni3  1  0.55206600  0.75928100  0.75654300  1
  Ni  Ni4  1  0.43635800  0.73669300  0.99945800  1
  Ni  Ni5  1  0.93635800  0.26330700  0.00054200  1
  Cu  Cu6  1  0.50606900  0.24268100  0.62947400  1
  Cu  Cu7  1  0.00606900  0.75731900  0.37052600  1
  C  C8  1  0.44143600  0.72931300  0.49978200  1
  C  C9  1  0.94143600  0.27068700  0.50021800  1
  C  C10  1  0.49319000  0.25181800  0.87619600  1
  C  C11  1  0.49338900  0.25098900  0.12332700  1
  C  C12  1  0.50803100  0.24040600  0.37136400  1
  C  C13  1  0.99319000  0.74818200  0.12380400  1
  C  C14  1  0.00803100  0.75959400  0.62863600  1
  C  C15  1  0.99338900  0.74901100  0.87667300  1
  C  C16  1  0.52771900  0.14682700  0.99937700  1
  C  C17  1  0.55145900  0.12893100  0.49689000  1
  C  C18  1  0.81284700  0.07888100  0.34655400  1
  C  C19  1  0.78845700  0.05405500  0.14968200  1
  C  C20  1  0.79009100  0.04990200  0.84963800  1
  C  C21  1  0.82779100  0.05967900  0.65226800  1
  C  C22  1  0.32779100  0.94032100  0.34773200  1
  C  C23  1  0.29009100  0.95009800  0.15036200  1
  C  C24  1  0.31284700  0.92111900  0.65344600  1
  C  C25  1  0.28845700  0.94594500  0.85031800  1
  C  C26  1  0.02771900  0.85317300  0.00062300  1
  C  C27  1  0.05145900  0.87106900  0.50311000  1
  C  C28  1  0.95784300  0.64692900  0.24381800  1
  C  C29  1  0.95794900  0.64348300  0.75118600  1
  C  C30  1  0.69601300  0.55380400  0.90300200  1
  C  C31  1  0.69268900  0.55297800  0.09618400  1
  C  C32  1  0.69787300  0.54595200  0.40612800  1
  C  C33  1  0.71445800  0.56472000  0.59324200  1
  C  C34  1  0.19268900  0.44702200  0.90381600  1
  C  C35  1  0.19601300  0.44619600  0.09699800  1
  C  C36  1  0.19787300  0.45404800  0.59387200  1
  C  C37  1  0.21445800  0.43528000  0.40675800  1
  C  C38  1  0.45794900  0.35651700  0.24881400  1
  C  C39  1  0.45784300  0.35307100  0.75618200  1
