# generated using pymatgen
data_Cu(NiC2)2
_symmetry_space_group_name_H-M   'P 1'
_cell_length_a   5.92784272
_cell_length_b   5.92784272
_cell_length_c   28.86391018
_cell_angle_alpha   89.50353169
_cell_angle_beta   89.50353169
_cell_angle_gamma   60.57187174
_symmetry_Int_Tables_number   1
_chemical_formula_structural   Cu(NiC2)2
_chemical_formula_sum   'Cu12 Ni24 C48'
_cell_volume   883.34669522
_cell_formula_units_Z   12
loop_
 _symmetry_equiv_pos_site_id
 _symmetry_equiv_pos_as_xyz
  1  'x, y, z'
loop_
 _atom_site_type_symbol
 _atom_site_label
 _atom_site_symmetry_multiplicity
 _atom_site_fract_x
 _atom_site_fract_y
 _atom_site_fract_z
 _atom_site_occupancy
  Ni  Ni0  1  0.99555000  0.99555000  0.00080100  1
  Ni  Ni1  1  0.66271100  0.66271100  0.16670300  1
  Ni  Ni2  1  0.17061700  0.66179400  0.10386800  1
  Ni  Ni3  1  0.66179400  0.17061700  0.10386800  1
  Ni  Ni4  1  0.33452300  0.33452300  0.02197200  1
  Ni  Ni5  1  0.32935600  0.32935600  0.33142200  1
  Ni  Ni6  1  0.83500500  0.33203200  0.27097000  1
  Ni  Ni7  1  0.33203200  0.83500500  0.27097000  1
  Ni  Ni8  1  0.00095600  0.00095600  0.18889000  1
  Ni  Ni9  1  0.00404100  0.00404100  0.37648200  1
  Ni  Ni10  1  0.99564100  0.99564100  0.49879700  1
  Ni  Ni11  1  0.49992300  0.00004800  0.43727400  1
  Ni  Ni12  1  0.00004800  0.49992300  0.43727400  1
  Ni  Ni13  1  0.67113600  0.67113600  0.54273500  1
  Ni  Ni14  1  0.66214100  0.66214100  0.66554200  1
  Ni  Ni15  1  0.16669400  0.66666300  0.60417700  1
  Ni  Ni16  1  0.66666300  0.16669400  0.60417700  1
  Ni  Ni17  1  0.33773200  0.33773200  0.70946000  1
  Ni  Ni18  1  0.32899200  0.32899200  0.83236400  1
  Ni  Ni19  1  0.83348200  0.33331900  0.77083300  1
  Ni  Ni20  1  0.33331900  0.83348200  0.77083300  1
  Ni  Ni21  1  0.00456000  0.00456000  0.87522600  1
  Ni  Ni22  1  0.50236900  0.99598700  0.93676700  1
  Ni  Ni23  1  0.99598700  0.50236900  0.93676700  1
  Cu  Cu24  1  0.67015600  0.67015600  0.04152300  1
  Cu  Cu25  1  0.33653300  0.33653300  0.20866000  1
  Cu  Cu26  1  0.17164700  0.17164700  0.10368600  1
  Cu  Cu27  1  0.83617300  0.83617300  0.27069800  1
  Cu  Cu28  1  0.66664800  0.66664800  0.35394000  1
  Cu  Cu29  1  0.50003100  0.50003100  0.43737200  1
  Cu  Cu30  1  0.33339500  0.33339500  0.52074400  1
  Cu  Cu31  1  0.16672600  0.16672600  0.60416500  1
  Cu  Cu32  1  0.00007300  0.00007300  0.68752000  1
  Cu  Cu33  1  0.83328200  0.83328200  0.77091600  1
  Cu  Cu34  1  0.66671400  0.66671400  0.85412300  1
  Cu  Cu35  1  0.50191900  0.50191900  0.93680700  1
  C  C36  1  0.48562400  0.48562400  0.06414800  1
  C  C37  1  0.02966900  0.49136900  0.06365900  1
  C  C38  1  0.33740800  0.33740800  0.14084600  1
  C  C39  1  0.49136900  0.02966900  0.06365900  1
  C  C40  1  0.15006200  0.15006200  0.23197600  1
  C  C41  1  0.83608200  0.31235400  0.14539700  1
  C  C42  1  0.99483600  0.99483600  0.06638600  1
  C  C43  1  0.31235400  0.83608200  0.14539700  1
  C  C44  1  0.69878300  0.15539500  0.23090700  1
  C  C45  1  0.00532900  0.00532900  0.31156000  1
  C  C46  1  0.15539500  0.69878300  0.23090700  1
  C  C47  1  0.84217700  0.84217700  0.14461700  1
  C  C48  1  0.82825600  0.82825600  0.39913700  1
  C  C49  1  0.50037000  0.98497300  0.31030300  1
  C  C50  1  0.66063200  0.66063200  0.23212600  1
  C  C51  1  0.98497300  0.50037000  0.31030300  1
  C  C52  1  0.34803900  0.83451800  0.39817000  1
  C  C53  1  0.67282300  0.67282300  0.47667200  1
  C  C54  1  0.83451800  0.34803900  0.39817000  1
  C  C55  1  0.50479100  0.50479100  0.30931600  1
  C  C56  1  0.49522900  0.49522900  0.56540800  1
  C  C57  1  0.16560800  0.65160600  0.47718700  1
  C  C58  1  0.32700100  0.32700100  0.39821000  1
  C  C59  1  0.65160600  0.16560800  0.47718700  1
  C  C60  1  0.33969800  0.33969800  0.64322600  1
  C  C61  1  0.01483200  0.50100400  0.56455000  1
  C  C62  1  0.17163500  0.17163500  0.47635700  1
  C  C63  1  0.50100400  0.01483200  0.56455000  1
  C  C64  1  0.16211500  0.16211500  0.73203600  1
  C  C65  1  0.83207200  0.31852600  0.64381500  1
  C  C66  1  0.31852600  0.83207200  0.64381500  1
  C  C67  1  0.99370000  0.99370000  0.56508100  1
  C  C68  1  0.00663400  0.00663400  0.80936500  1
  C  C69  1  0.68167600  0.16779300  0.73111400  1
  C  C70  1  0.16779300  0.68167600  0.73111400  1
  C  C71  1  0.83790600  0.83790600  0.64290500  1
  C  C72  1  0.83175600  0.83175600  0.89812500  1
  C  C73  1  0.49793300  0.98627000  0.81047300  1
  C  C74  1  0.66013400  0.66013400  0.73179200  1
  C  C75  1  0.98627000  0.49793300  0.81047300  1
  C  C76  1  0.67108500  0.67108500  0.97156400  1
  C  C77  1  0.34430100  0.83809900  0.89717500  1
  C  C78  1  0.50419900  0.50419900  0.80951400  1
  C  C79  1  0.83809900  0.34430100  0.89717500  1
  C  C80  1  0.16647700  0.64684800  0.97914200  1
  C  C81  1  0.64684800  0.16647700  0.97914200  1
  C  C82  1  0.32825100  0.32825100  0.89922900  1
  C  C83  1  0.17555300  0.17555300  0.97829000  1
