# generated using pymatgen
data_CuNiC19
_symmetry_space_group_name_H-M   'P 1'
_cell_length_a   11.09484173
_cell_length_b   11.09484173
_cell_length_c   11.09484173
_cell_angle_alpha   147.44298436
_cell_angle_beta   132.35902235
_cell_angle_gamma   58.89350231
_symmetry_Int_Tables_number   1
_chemical_formula_structural   CuNiC19
_chemical_formula_sum   'Cu2 Ni2 C38'
_cell_volume   538.54978978
_cell_formula_units_Z   2
loop_
 _symmetry_equiv_pos_site_id
 _symmetry_equiv_pos_as_xyz
  1  'x, y, z'
loop_
 _atom_site_type_symbol
 _atom_site_label
 _atom_site_symmetry_multiplicity
 _atom_site_fract_x
 _atom_site_fract_y
 _atom_site_fract_z
 _atom_site_occupancy
  C  C0  1  0.79492600  0.92569700  0.86922900  1
  C  C1  1  0.15839400  0.15839400  0.50000000  1
  C  C2  1  0.81041500  0.33389400  0.47652100  1
  C  C3  1  0.15839400  0.65839400  0.00000000  1
  C  C4  1  0.64262700  0.16610600  0.47652100  1
  C  C5  1  0.84160600  0.34160600  0.00000000  1
  C  C6  1  0.55646800  0.42569700  0.13077100  1
  C  C7  1  0.00000000  0.00000000  0.50000000  1
  C  C8  1  0.35737300  0.83389400  0.52347900  1
  C  C9  1  0.84160600  0.84160600  0.50000000  1
  C  C10  1  0.18958500  0.66610600  0.52347900  1
  C  C11  1  0.20507400  0.07430300  0.13077100  1
  C  C12  1  0.44353200  0.57430300  0.86922900  1
  C  C13  1  0.00000000  0.50000000  0.00000000  1
  Ni  Ni14  1  0.50000000  0.00000000  0.50000000  1
  Ni  Ni15  1  0.00000000  0.50000000  0.50000000  1
  Cu  Cu16  1  0.37047000  0.25000000  0.12047000  1
  Cu  Cu17  1  0.62953000  0.75000000  0.87953000  1
  C  C18  1  0.26654300  0.99088500  0.27565700  1
  C  C19  1  0.11106500  0.82902100  0.28204400  1
  C  C20  1  0.73868000  0.51782400  0.75650300  1
  C  C21  1  0.78477200  0.50911500  0.27565700  1
  C  C22  1  0.73868000  0.98217600  0.22085600  1
  C  C23  1  0.40567500  0.17598100  0.22969400  1
  C  C24  1  0.44628800  0.67598100  0.77030600  1
  C  C25  1  0.55371200  0.32401900  0.22969400  1
  C  C26  1  0.73345700  0.00911500  0.72434300  1
  C  C27  1  0.91973300  0.20095800  0.27440600  1
  C  C28  1  0.26132000  0.48217600  0.24349700  1
  C  C29  1  0.95302300  0.67097900  0.28204400  1
  C  C30  1  0.59432500  0.82401900  0.77030600  1
  C  C31  1  0.57344800  0.29904200  0.71877500  1
  C  C32  1  0.08026700  0.35467300  0.28122500  1
  C  C33  1  0.88893500  0.17097900  0.71795600  1
  C  C34  1  0.21522800  0.49088500  0.72434300  1
  C  C35  1  0.91973300  0.64532700  0.71877500  1
  C  C36  1  0.04697700  0.32902100  0.71795600  1
  C  C37  1  0.42655200  0.70095800  0.28122500  1
  C  C38  1  0.57344800  0.85467300  0.27440600  1
  C  C39  1  0.26132000  0.01782400  0.77914400  1
  C  C40  1  0.42655200  0.14532700  0.72559400  1
  C  C41  1  0.08026700  0.79904200  0.72559400  1
