# generated using pymatgen
data_Cu2NiC21
_symmetry_space_group_name_H-M   'P 1'
_cell_length_a   7.28117100
_cell_length_b   8.24599200
_cell_length_c   16.87670800
_cell_angle_alpha   90.00000000
_cell_angle_beta   90.00000000
_cell_angle_gamma   90.00000000
_symmetry_Int_Tables_number   1
_chemical_formula_structural   Cu2NiC21
_chemical_formula_sum   'Cu8 Ni4 C84'
_cell_volume   1013.28561229
_cell_formula_units_Z   4
loop_
 _symmetry_equiv_pos_site_id
 _symmetry_equiv_pos_as_xyz
  1  'x, y, z'
loop_
 _atom_site_type_symbol
 _atom_site_label
 _atom_site_symmetry_multiplicity
 _atom_site_fract_x
 _atom_site_fract_y
 _atom_site_fract_z
 _atom_site_occupancy
  C  C0  1  0.50000000  0.00000000  0.00000000  1
  C  C1  1  0.00000000  0.00000000  0.00000000  1
  C  C2  1  0.50000000  0.50000000  0.50000000  1
  C  C3  1  0.00000000  0.50000000  0.50000000  1
  C  C4  1  0.07407500  0.68877200  0.96117600  1
  C  C5  1  0.57391300  0.69412400  0.71546900  1
  C  C6  1  0.46191200  0.78850200  0.31060700  1
  C  C7  1  0.75000000  0.74453400  0.37121400  1
  C  C8  1  0.75000000  0.75546600  0.87121400  1
  C  C9  1  0.46191200  0.71149800  0.81060700  1
  C  C10  1  0.92592500  0.31122800  0.03882400  1
  C  C11  1  0.87385900  0.49109500  0.86595400  1
  C  C12  1  0.92608700  0.80587600  0.21546900  1
  C  C13  1  0.53808800  0.28850200  0.18939300  1
  C  C14  1  0.25000000  0.54377700  0.22496200  1
  C  C15  1  0.12614100  0.99109500  0.63404600  1
  C  C16  1  0.03808800  0.71149800  0.81060700  1
  C  C17  1  0.07972700  0.11728500  0.23036300  1
  C  C18  1  0.37385900  0.99109500  0.63404600  1
  C  C19  1  0.57407500  0.18877200  0.53882400  1
  C  C20  1  0.96191200  0.28850200  0.18939300  1
  C  C21  1  0.42592500  0.81122800  0.46117600  1
  C  C22  1  0.57407500  0.31122800  0.03882400  1
  C  C23  1  0.07391300  0.30587600  0.28453100  1
  C  C24  1  0.03808800  0.78850200  0.31060700  1
  C  C25  1  0.10055700  0.31410700  0.98377200  1
  C  C26  1  0.92027300  0.61728500  0.26963700  1
  C  C27  1  0.62614100  0.00890500  0.36595400  1
  C  C28  1  0.75000000  0.45622300  0.77503800  1
  C  C29  1  0.96191200  0.21149800  0.68939300  1
  C  C30  1  0.75000000  0.04377700  0.27503800  1
  C  C31  1  0.53808800  0.21149800  0.68939300  1
  C  C32  1  0.25000000  0.25546600  0.62878600  1
  C  C33  1  0.57972700  0.88271500  0.76963700  1
  C  C34  1  0.07972700  0.38271500  0.73036300  1
  C  C35  1  0.57972700  0.61728500  0.26963700  1
  C  C36  1  0.62614100  0.49109500  0.86595400  1
  C  C37  1  0.92592500  0.18877200  0.53882400  1
  C  C38  1  0.07407500  0.81122800  0.46117600  1
  C  C39  1  0.92608700  0.69412400  0.71546900  1
  C  C40  1  0.42592500  0.68877200  0.96117600  1
  C  C41  1  0.07391300  0.19412400  0.78453100  1
  C  C42  1  0.25000000  0.95622300  0.72496200  1
  C  C43  1  0.89944300  0.81410700  0.51622800  1
  C  C44  1  0.42027300  0.11728500  0.23036300  1
  C  C45  1  0.10055700  0.18589300  0.48377200  1
  C  C46  1  0.60055700  0.81410700  0.51622800  1
  C  C47  1  0.92027300  0.88271500  0.76963700  1
  C  C48  1  0.25000000  0.24453400  0.12878600  1
  C  C49  1  0.87385900  0.00890500  0.36595400  1
  C  C50  1  0.60055700  0.68589300  0.01622800  1
  C  C51  1  0.42608700  0.19412400  0.78453100  1
  C  C52  1  0.39944300  0.18589300  0.48377200  1
  C  C53  1  0.89944300  0.68589300  0.01622800  1
  C  C54  1  0.12614100  0.50890500  0.13404600  1
  C  C55  1  0.37385900  0.50890500  0.13404600  1
  C  C56  1  0.57391300  0.80587600  0.21546900  1
  C  C57  1  0.42608700  0.30587600  0.28453100  1
  C  C58  1  0.42027300  0.38271500  0.73036300  1
  C  C59  1  0.39944300  0.31410700  0.98377200  1
  C  C60  1  0.42146500  0.25050200  0.72556500  1
  C  C61  1  0.92146500  0.74949800  0.27443500  1
  C  C62  1  0.75000000  0.52041400  0.83195800  1
  C  C63  1  0.92146500  0.75050200  0.77443500  1
  C  C64  1  0.25000000  0.02041400  0.66804200  1
  C  C65  1  0.25000000  0.47958600  0.16804200  1
  C  C66  1  0.42146500  0.24949800  0.22556500  1
  C  C67  1  0.57853500  0.74949800  0.27443500  1
  C  C68  1  0.75000000  0.97958600  0.33195800  1
  C  C69  1  0.57853500  0.75050200  0.77443500  1
  C  C70  1  0.07853500  0.25050200  0.72556500  1
  C  C71  1  0.07853500  0.24949800  0.22556500  1
  Ni  Ni72  1  0.25000000  0.19863200  0.68387300  1
  Ni  Ni73  1  0.75000000  0.80136800  0.31612700  1
  Ni  Ni74  1  0.75000000  0.69863200  0.81612700  1
  Ni  Ni75  1  0.25000000  0.30136800  0.18387300  1
  C  C76  1  0.25000000  0.00204100  0.41816200  1
  C  C77  1  0.75000000  0.50204100  0.08183800  1
  C  C78  1  0.75000000  0.43528500  0.40482000  1
  C  C79  1  0.75000000  0.06471500  0.90482000  1
  C  C80  1  0.25000000  0.49439100  0.40308000  1
  C  C81  1  0.25000000  0.93528500  0.09518000  1
  C  C82  1  0.25000000  0.56471500  0.59518000  1
  C  C83  1  0.75000000  0.50560900  0.59692000  1
  C  C84  1  0.25000000  0.00560900  0.90308000  1
  C  C85  1  0.75000000  0.99439100  0.09692000  1
  C  C86  1  0.75000000  0.99795900  0.58183800  1
  C  C87  1  0.25000000  0.49795900  0.91816200  1
  Cu  Cu88  1  0.53765200  0.74849800  0.47507200  1
  Cu  Cu89  1  0.96234800  0.75150200  0.97507200  1
  Cu  Cu90  1  0.03765200  0.24849800  0.02492800  1
  Cu  Cu91  1  0.03765200  0.25150200  0.52492800  1
  Cu  Cu92  1  0.53765200  0.75150200  0.97507200  1
  Cu  Cu93  1  0.46234800  0.24849800  0.02492800  1
  Cu  Cu94  1  0.96234800  0.74849800  0.47507200  1
  Cu  Cu95  1  0.46234800  0.25150200  0.52492800  1
