# generated using pymatgen
data_Cu2NiC8
_symmetry_space_group_name_H-M   'P 1'
_cell_length_a   8.35658900
_cell_length_b   7.58999100
_cell_length_c   9.95063780
_cell_angle_alpha   68.02410303
_cell_angle_beta   90.00000000
_cell_angle_gamma   90.00000000
_symmetry_Int_Tables_number   1
_chemical_formula_structural   Cu2NiC8
_chemical_formula_sum   'Cu8 Ni4 C32'
_cell_volume   585.27618459
_cell_formula_units_Z   4
loop_
 _symmetry_equiv_pos_site_id
 _symmetry_equiv_pos_as_xyz
  1  'x, y, z'
loop_
 _atom_site_type_symbol
 _atom_site_label
 _atom_site_symmetry_multiplicity
 _atom_site_fract_x
 _atom_site_fract_y
 _atom_site_fract_z
 _atom_site_occupancy
  C  C0  1  0.52609600  0.28403500  0.71546200  1
  C  C1  1  0.97390400  0.28403500  0.21546200  1
  C  C2  1  0.02609600  0.71596500  0.78453800  1
  C  C3  1  0.47390400  0.71596500  0.28453800  1
  Ni  Ni4  1  0.49576100  0.74594600  0.75124800  1
  Ni  Ni5  1  0.99576100  0.25405400  0.74875200  1
  Ni  Ni6  1  0.50423900  0.25405400  0.24875200  1
  Ni  Ni7  1  0.00423900  0.74594600  0.25124800  1
  Cu  Cu8  1  0.28493600  0.32730800  0.94961100  1
  Cu  Cu9  1  0.75331200  0.07370500  0.04050600  1
  Cu  Cu10  1  0.25331200  0.92629500  0.45949400  1
  Cu  Cu11  1  0.24668800  0.92629500  0.95949400  1
  Cu  Cu12  1  0.74668800  0.07370500  0.54050600  1
  Cu  Cu13  1  0.71506400  0.67269200  0.05038900  1
  Cu  Cu14  1  0.78493600  0.67269200  0.55038900  1
  Cu  Cu15  1  0.21506400  0.32730800  0.44961100  1
  C  C16  1  0.11194500  0.37444100  0.89335700  1
  C  C17  1  0.59084700  0.02994900  0.62978000  1
  C  C18  1  0.09084700  0.97005100  0.87022000  1
  C  C19  1  0.40915300  0.97005100  0.37022000  1
  C  C20  1  0.90915300  0.02994900  0.12978000  1
  C  C21  1  0.83448600  0.87156800  0.56761600  1
  C  C22  1  0.33448600  0.12843200  0.93238400  1
  C  C23  1  0.16551400  0.12843200  0.43238400  1
  C  C24  1  0.63239600  0.18126700  0.09310300  1
  C  C25  1  0.13239600  0.81873300  0.40689700  1
  C  C26  1  0.36760400  0.81873300  0.90689700  1
  C  C27  1  0.86760400  0.18126700  0.59310300  1
  C  C28  1  0.77939800  0.17334100  0.87702500  1
  C  C29  1  0.27939800  0.82665900  0.62297500  1
  C  C30  1  0.22060200  0.82665900  0.12297500  1
  C  C31  1  0.72060200  0.17334100  0.37702500  1
  C  C32  1  0.79218400  0.69699000  0.39086800  1
  C  C33  1  0.29218400  0.30301000  0.10913200  1
  C  C34  1  0.20781600  0.30301000  0.60913200  1
  C  C35  1  0.41012200  0.45871400  0.85082100  1
  C  C36  1  0.88805500  0.62555900  0.10664300  1
  C  C37  1  0.38805500  0.37444100  0.39335700  1
  C  C38  1  0.70781600  0.69699000  0.89086800  1
  C  C39  1  0.61194500  0.62555900  0.60664300  1
  C  C40  1  0.08987800  0.45871400  0.35082100  1
  C  C41  1  0.58987800  0.54128600  0.14917900  1
  C  C42  1  0.91012200  0.54128600  0.64917900  1
  C  C43  1  0.66551400  0.87156800  0.06761600  1
