# generated using pymatgen
data_Cu(NiC6)4
_symmetry_space_group_name_H-M   'P 1'
_cell_length_a   10.03038889
_cell_length_b   10.03038889
_cell_length_c   10.03038889
_cell_angle_alpha   60.00000000
_cell_angle_beta   60.00000000
_cell_angle_gamma   60.00000000
_symmetry_Int_Tables_number   1
_chemical_formula_structural   Cu(NiC6)4
_chemical_formula_sum   'Cu2 Ni8 C48'
_cell_volume   713.57284753
_cell_formula_units_Z   2
loop_
 _symmetry_equiv_pos_site_id
 _symmetry_equiv_pos_as_xyz
  1  'x, y, z'
loop_
 _atom_site_type_symbol
 _atom_site_label
 _atom_site_symmetry_multiplicity
 _atom_site_fract_x
 _atom_site_fract_y
 _atom_site_fract_z
 _atom_site_occupancy
  C  C0  1  0.78561600  0.78561600  0.21438400  1
  C  C1  1  0.46438400  0.03561600  0.03561600  1
  C  C2  1  0.21438400  0.78561600  0.21438400  1
  C  C3  1  0.78561600  0.21438400  0.78561600  1
  C  C4  1  0.03561600  0.46438400  0.46438400  1
  C  C5  1  0.03561600  0.03561600  0.46438400  1
  C  C6  1  0.21438400  0.78561600  0.78561600  1
  C  C7  1  0.21438400  0.21438400  0.78561600  1
  C  C8  1  0.46438400  0.03561600  0.46438400  1
  C  C9  1  0.03561600  0.46438400  0.03561600  1
  C  C10  1  0.78561600  0.21438400  0.21438400  1
  C  C11  1  0.46438400  0.46438400  0.03561600  1
  C  C12  1  0.12500000  0.62500000  0.62500000  1
  C  C13  1  0.62500000  0.62500000  0.62500000  1
  C  C14  1  0.62500000  0.62500000  0.12500000  1
  C  C15  1  0.62500000  0.12500000  0.62500000  1
  Ni  Ni16  1  0.78762600  0.40412500  0.40412500  1
  Ni  Ni17  1  0.40412500  0.78762600  0.40412500  1
  Ni  Ni18  1  0.40412500  0.40412500  0.40412500  1
  Ni  Ni19  1  0.40412500  0.40412500  0.78762600  1
  Ni  Ni20  1  0.84587500  0.84587500  0.46237400  1
  Ni  Ni21  1  0.84587500  0.46237400  0.84587500  1
  Ni  Ni22  1  0.84587500  0.84587500  0.84587500  1
  Ni  Ni23  1  0.46237400  0.84587500  0.84587500  1
  Cu  Cu24  1  0.00000000  0.00000000  0.00000000  1
  Cu  Cu25  1  0.25000000  0.25000000  0.25000000  1
  C  C26  1  0.72797900  0.98496400  0.82611000  1
  C  C27  1  0.46094600  0.82611000  0.98496400  1
  C  C28  1  0.78905400  0.52202100  0.42389000  1
  C  C29  1  0.52202100  0.78905400  0.26503600  1
  C  C30  1  0.78905400  0.26503600  0.52202100  1
  C  C31  1  0.06095200  0.06095200  0.81714500  1
  C  C32  1  0.42389000  0.52202100  0.26503600  1
  C  C33  1  0.06095200  0.06095200  0.06095200  1
  C  C34  1  0.06095200  0.81714500  0.06095200  1
  C  C35  1  0.42389000  0.78905400  0.52202100  1
  C  C36  1  0.26503600  0.78905400  0.42389000  1
  C  C37  1  0.81714500  0.06095200  0.06095200  1
  C  C38  1  0.52202100  0.42389000  0.78905400  1
  C  C39  1  0.26503600  0.42389000  0.52202100  1
  C  C40  1  0.42389000  0.26503600  0.78905400  1
  C  C41  1  0.98496400  0.72797900  0.46094600  1
  C  C42  1  0.26503600  0.52202100  0.78905400  1
  C  C43  1  0.82611000  0.98496400  0.46094600  1
  C  C44  1  0.98496400  0.82611000  0.72797900  1
  C  C45  1  0.72797900  0.82611000  0.46094600  1
  C  C46  1  0.43285500  0.18904800  0.18904800  1
  C  C47  1  0.98496400  0.46094600  0.82611000  1
  C  C48  1  0.82611000  0.46094600  0.72797900  1
  C  C49  1  0.18904800  0.43285500  0.18904800  1
  C  C50  1  0.18904800  0.18904800  0.18904800  1
  C  C51  1  0.82611000  0.72797900  0.98496400  1
  C  C52  1  0.18904800  0.18904800  0.43285500  1
  C  C53  1  0.46094600  0.98496400  0.72797900  1
  C  C54  1  0.72797900  0.46094600  0.98496400  1
  C  C55  1  0.46094600  0.72797900  0.82611000  1
  C  C56  1  0.78905400  0.42389000  0.26503600  1
  C  C57  1  0.52202100  0.26503600  0.42389000  1
