# generated using pymatgen
data_Cu24Ni8C5
_symmetry_space_group_name_H-M   'P 1'
_cell_length_a   13.68835400
_cell_length_b   7.96752100
_cell_length_c   11.52651906
_cell_angle_alpha   85.64968028
_cell_angle_beta   90.00000000
_cell_angle_gamma   90.00000000
_symmetry_Int_Tables_number   1
_chemical_formula_structural   Cu24Ni8C5
_chemical_formula_sum   'Cu48 Ni16 C10'
_cell_volume   1253.48622499
_cell_formula_units_Z   2
loop_
 _symmetry_equiv_pos_site_id
 _symmetry_equiv_pos_as_xyz
  1  'x, y, z'
loop_
 _atom_site_type_symbol
 _atom_site_label
 _atom_site_symmetry_multiplicity
 _atom_site_fract_x
 _atom_site_fract_y
 _atom_site_fract_z
 _atom_site_occupancy
  C  C0  1  0.66297900  0.99271000  0.39422500  1
  C  C1  1  0.16297900  0.00729000  0.10577500  1
  C  C2  1  0.33702100  0.00729000  0.60577500  1
  C  C3  1  0.83702100  0.99271000  0.89422500  1
  C  C4  1  0.40141900  0.48495000  0.22304600  1
  C  C5  1  0.90141900  0.51505000  0.27695400  1
  C  C6  1  0.59858100  0.51505000  0.77695400  1
  C  C7  1  0.09858100  0.48495000  0.72304600  1
  C  C8  1  0.50000000  0.00000000  0.00000000  1
  C  C9  1  0.00000000  0.00000000  0.50000000  1
  Ni  Ni10  1  0.66599200  0.21645300  0.09323200  1
  Ni  Ni11  1  0.16599200  0.78354700  0.40676800  1
  Ni  Ni12  1  0.33400800  0.78354700  0.90676800  1
  Ni  Ni13  1  0.83400800  0.21645300  0.59323200  1
  Ni  Ni14  1  0.57439600  0.99339500  0.74574600  1
  Ni  Ni15  1  0.07439600  0.00660500  0.75425400  1
  Ni  Ni16  1  0.42560400  0.00660500  0.25425400  1
  Ni  Ni17  1  0.92560400  0.99339500  0.24574600  1
  Ni  Ni18  1  0.63397000  0.71262800  0.10194100  1
  Ni  Ni19  1  0.13397000  0.28737200  0.39805900  1
  Ni  Ni20  1  0.36603000  0.28737200  0.89805900  1
  Ni  Ni21  1  0.86603000  0.71262800  0.60194100  1
  Ni  Ni22  1  0.13928300  0.47974500  0.06353000  1
  Ni  Ni23  1  0.63928300  0.52025500  0.43647000  1
  Ni  Ni24  1  0.86071700  0.52025500  0.93647000  1
  Ni  Ni25  1  0.36071700  0.47974500  0.56353000  1
  Cu  Cu26  1  0.65711600  0.20430800  0.98293400  1
  Cu  Cu27  1  0.15711600  0.79569200  0.51706600  1
  Cu  Cu28  1  0.34288400  0.79569200  0.01706600  1
  Cu  Cu29  1  0.84288400  0.20430800  0.48293400  1
  Cu  Cu30  1  0.08864300  0.81239800  0.34555700  1
  Cu  Cu31  1  0.58864300  0.18760200  0.15444300  1
  Cu  Cu32  1  0.91135700  0.18760200  0.65444300  1
  Cu  Cu33  1  0.41135700  0.81239800  0.84555700  1
  Cu  Cu34  1  0.74573800  0.24811800  0.13800700  1
  Cu  Cu35  1  0.24573800  0.75188200  0.36199300  1
  Cu  Cu36  1  0.25426200  0.75188200  0.86199300  1
  Cu  Cu37  1  0.75426200  0.24811800  0.63800700  1
  Cu  Cu38  1  0.38310400  0.09517900  0.17108900  1
  Cu  Cu39  1  0.88310400  0.90482100  0.32891100  1
  Cu  Cu40  1  0.61689600  0.90482100  0.82891100  1
  Cu  Cu41  1  0.11689600  0.09517900  0.67108900  1
  Cu  Cu42  1  0.52327200  0.11881600  0.77436300  1
  Cu  Cu43  1  0.02327200  0.88118400  0.72563700  1
  Cu  Cu44  1  0.47672800  0.88118400  0.22563700  1
  Cu  Cu45  1  0.97672800  0.11881600  0.27436300  1
  Cu  Cu46  1  0.92009100  0.95585200  0.14357900  1
  Cu  Cu47  1  0.42009100  0.04414800  0.35642100  1
  Cu  Cu48  1  0.07990900  0.04414800  0.85642100  1
  Cu  Cu49  1  0.57990900  0.95585200  0.64357900  1
  Cu  Cu50  1  0.33596400  0.13434700  0.90526700  1
  Cu  Cu51  1  0.83596400  0.86565300  0.59473300  1
  Cu  Cu52  1  0.66403600  0.86565300  0.09473300  1
  Cu  Cu53  1  0.16403600  0.13434700  0.40526700  1
  Cu  Cu54  1  0.94272800  0.68239000  0.54174200  1
  Cu  Cu55  1  0.44272800  0.31761000  0.95825800  1
  Cu  Cu56  1  0.05727200  0.31761000  0.45825800  1
  Cu  Cu57  1  0.55727200  0.68239000  0.04174200  1
  Cu  Cu58  1  0.17461500  0.39914000  0.33564600  1
  Cu  Cu59  1  0.67461500  0.60086000  0.16435400  1
  Cu  Cu60  1  0.82538500  0.60086000  0.66435400  1
  Cu  Cu61  1  0.32538500  0.39914000  0.83564600  1
  Cu  Cu62  1  0.12092100  0.61468500  0.10561600  1
  Cu  Cu63  1  0.62092100  0.38531500  0.39438400  1
  Cu  Cu64  1  0.87907900  0.38531500  0.89438400  1
  Cu  Cu65  1  0.37907900  0.61468500  0.60561600  1
  Cu  Cu66  1  0.42671100  0.40342200  0.50906600  1
  Cu  Cu67  1  0.92671100  0.59657800  0.99093400  1
  Cu  Cu68  1  0.57328900  0.59657800  0.49093400  1
  Cu  Cu69  1  0.07328900  0.40342200  0.00906600  1
  Cu  Cu70  1  0.22178500  0.40911700  0.07279800  1
  Cu  Cu71  1  0.72178500  0.59088300  0.42720200  1
  Cu  Cu72  1  0.77821500  0.59088300  0.92720200  1
  Cu  Cu73  1  0.27821500  0.40911700  0.57279800  1
