# generated using pymatgen
data_Cu(NiC8)3
_symmetry_space_group_name_H-M   'P 1'
_cell_length_a   6.05977500
_cell_length_b   4.74079400
_cell_length_c   10.40131973
_cell_angle_alpha   89.90035099
_cell_angle_beta   90.00000000
_cell_angle_gamma   90.00000000
_symmetry_Int_Tables_number   1
_chemical_formula_structural   Cu(NiC8)3
_chemical_formula_sum   'Cu1 Ni3 C24'
_cell_volume   298.81016910
_cell_formula_units_Z   1
loop_
 _symmetry_equiv_pos_site_id
 _symmetry_equiv_pos_as_xyz
  1  'x, y, z'
loop_
 _atom_site_type_symbol
 _atom_site_label
 _atom_site_symmetry_multiplicity
 _atom_site_fract_x
 _atom_site_fract_y
 _atom_site_fract_z
 _atom_site_occupancy
  C  C0  1  0.24965300  0.00028900  0.00048900  1
  C  C1  1  0.75034700  0.00028900  0.00048900  1
  C  C2  1  0.75015300  0.50004800  0.49958700  1
  C  C3  1  0.24984700  0.50004800  0.49958700  1
  Ni  Ni4  1  0.00000000  0.47448500  0.78149500  1
  Ni  Ni5  1  0.50000000  0.52519500  0.21945400  1
  Ni  Ni6  1  0.50000000  0.97408200  0.71802300  1
  Cu  Cu7  1  0.00000000  0.02444800  0.28032800  1
  C  C8  1  0.50000000  0.08290000  0.40465400  1
  C  C9  1  0.50000000  0.41756300  0.90550800  1
  C  C10  1  0.00000000  0.58235100  0.09527200  1
  C  C11  1  0.00000000  0.91773600  0.59410300  1
  C  C12  1  0.50000000  0.20620300  0.54360500  1
  C  C13  1  0.29577400  0.21700300  0.33414900  1
  C  C14  1  0.70422600  0.21700300  0.33414900  1
  C  C15  1  0.00000000  0.24199400  0.59749200  1
  C  C16  1  0.00000000  0.25797700  0.09772500  1
  C  C17  1  0.29619900  0.28298400  0.83451600  1
  C  C18  1  0.70380100  0.28298400  0.83451600  1
  C  C19  1  0.50000000  0.29364500  0.04379900  1
  C  C20  1  0.00000000  0.70645200  0.95649800  1
  C  C21  1  0.79617700  0.71719400  0.16603500  1
  C  C22  1  0.20382300  0.71719400  0.16603500  1
  C  C23  1  0.50000000  0.74195400  0.90261700  1
  C  C24  1  0.50000000  0.75827100  0.40274700  1
  C  C25  1  0.79619200  0.78292800  0.66555600  1
  C  C26  1  0.20380800  0.78292800  0.66555600  1
  C  C27  1  0.00000000  0.79385400  0.45601500  1
