# generated using pymatgen
data_Cu3NiC2
_symmetry_space_group_name_H-M   'P 1'
_cell_length_a   5.80974054
_cell_length_b   5.80974585
_cell_length_c   5.80973771
_cell_angle_alpha   71.47901439
_cell_angle_beta   106.12082130
_cell_angle_gamma   66.12851676
_symmetry_Int_Tables_number   1
_chemical_formula_structural   Cu3NiC2
_chemical_formula_sum   'Cu6 Ni2 C4'
_cell_volume   150.22109567
_cell_formula_units_Z   2
loop_
 _symmetry_equiv_pos_site_id
 _symmetry_equiv_pos_as_xyz
  1  'x, y, z'
loop_
 _atom_site_type_symbol
 _atom_site_label
 _atom_site_symmetry_multiplicity
 _atom_site_fract_x
 _atom_site_fract_y
 _atom_site_fract_z
 _atom_site_occupancy
  C  C0  1  0.75000100  0.75000500  0.50000200  1
  C  C1  1  0.24998300  0.24996800  0.49999900  1
  C  C2  1  0.99999700  0.96247700  0.03753000  1
  C  C3  1  0.50000100  0.53753700  0.96246300  1
  Ni  Ni4  1  0.50000200  0.83694600  0.66305500  1
  Ni  Ni5  1  0.00000100  0.66305800  0.33694600  1
  Cu  Cu6  1  0.54562400  0.25000400  0.79562200  1
  Cu  Cu7  1  0.04562400  0.75000200  0.79562100  1
  Cu  Cu8  1  0.00000400  0.28248300  0.71751800  1
  Cu  Cu9  1  0.50000200  0.21751900  0.28248300  1
  Cu  Cu10  1  0.45438100  0.75000100  0.20437900  1
  Cu  Cu11  1  0.95438100  0.25000000  0.20438000  1
