# generated using pymatgen
data_CuNi2C15
_symmetry_space_group_name_H-M   'P 1'
_cell_length_a   8.50503621
_cell_length_b   8.50503621
_cell_length_c   8.50503658
_cell_angle_alpha   60.91131217
_cell_angle_beta   60.91131217
_cell_angle_gamma   60.91130852
_symmetry_Int_Tables_number   1
_chemical_formula_structural   CuNi2C15
_chemical_formula_sum   'Cu2 Ni4 C30'
_cell_volume   443.95946635
_cell_formula_units_Z   2
loop_
 _symmetry_equiv_pos_site_id
 _symmetry_equiv_pos_as_xyz
  1  'x, y, z'
loop_
 _atom_site_type_symbol
 _atom_site_label
 _atom_site_symmetry_multiplicity
 _atom_site_fract_x
 _atom_site_fract_y
 _atom_site_fract_z
 _atom_site_occupancy
  Ni  Ni0  1  0.64245900  0.64245900  0.64245900  1
  Ni  Ni1  1  0.14245900  0.14245900  0.14245900  1
  Ni  Ni2  1  0.85754100  0.85754100  0.85754100  1
  Ni  Ni3  1  0.35754100  0.35754100  0.35754100  1
  Cu  Cu4  1  0.00000000  0.00000000  0.00000000  1
  Cu  Cu5  1  0.50000000  0.50000000  0.50000000  1
  C  C6  1  0.95765700  0.25000000  0.54234300  1
  C  C7  1  0.54234300  0.95765700  0.25000000  1
  C  C8  1  0.25000000  0.54234300  0.95765700  1
  C  C9  1  0.75000000  0.45765700  0.04234300  1
  C  C10  1  0.45765700  0.04234300  0.75000000  1
  C  C11  1  0.04234300  0.75000000  0.45765700  1
  C  C12  1  0.51085600  0.11568300  0.31020100  1
  C  C13  1  0.31020100  0.51085600  0.11568300  1
  C  C14  1  0.11568300  0.31020100  0.51085600  1
  C  C15  1  0.94317500  0.08913500  0.74171300  1
  C  C16  1  0.98914400  0.18979900  0.38431700  1
  C  C17  1  0.75828700  0.41086500  0.55682500  1
  C  C18  1  0.74171300  0.94317500  0.08913500  1
  C  C19  1  0.55682500  0.75828700  0.41086500  1
  C  C20  1  0.81020100  0.61568300  0.01085600  1
  C  C21  1  0.41086500  0.55682500  0.75828700  1
  C  C22  1  0.91086500  0.25828700  0.05682500  1
  C  C23  1  0.61568300  0.01085600  0.81020100  1
  C  C24  1  0.38431700  0.98914400  0.18979900  1
  C  C25  1  0.08913500  0.74171300  0.94317500  1
  C  C26  1  0.58913500  0.44317500  0.24171300  1
  C  C27  1  0.18979900  0.38431700  0.98914400  1
  C  C28  1  0.44317500  0.24171300  0.58913500  1
  C  C29  1  0.25828700  0.05682500  0.91086500  1
  C  C30  1  0.24171300  0.58913500  0.44317500  1
  C  C31  1  0.01085600  0.81020100  0.61568300  1
  C  C32  1  0.05682500  0.91086500  0.25828700  1
  C  C33  1  0.88431700  0.68979900  0.48914400  1
  C  C34  1  0.68979900  0.48914400  0.88431700  1
  C  C35  1  0.48914400  0.88431700  0.68979900  1
