# generated using pymatgen
data_Cu2NiC2
_symmetry_space_group_name_H-M   'P 1'
_cell_length_a   6.62549486
_cell_length_b   6.62549486
_cell_length_c   6.10695160
_cell_angle_alpha   72.27966427
_cell_angle_beta   72.27966427
_cell_angle_gamma   68.87824678
_symmetry_Int_Tables_number   1
_chemical_formula_structural   Cu2NiC2
_chemical_formula_sum   'Cu8 Ni4 C8'
_cell_volume   232.41458092
_cell_formula_units_Z   4
loop_
 _symmetry_equiv_pos_site_id
 _symmetry_equiv_pos_as_xyz
  1  'x, y, z'
loop_
 _atom_site_type_symbol
 _atom_site_label
 _atom_site_symmetry_multiplicity
 _atom_site_fract_x
 _atom_site_fract_y
 _atom_site_fract_z
 _atom_site_occupancy
  C  C0  1  0.90799200  0.09200800  0.25000000  1
  C  C1  1  0.30777400  0.69222600  0.25000000  1
  C  C2  1  0.09200800  0.90799200  0.75000000  1
  C  C3  1  0.69222600  0.30777400  0.75000000  1
  C  C4  1  0.78793800  0.67434600  0.23307200  1
  C  C5  1  0.67434600  0.78793800  0.73307200  1
  C  C6  1  0.32565400  0.21206200  0.26692800  1
  C  C7  1  0.21206200  0.32565400  0.76692800  1
  Ni  Ni8  1  0.60824500  0.68378600  0.06570500  1
  Ni  Ni9  1  0.68378600  0.60824500  0.56570500  1
  Ni  Ni10  1  0.31621400  0.39175500  0.43429500  1
  Ni  Ni11  1  0.39175500  0.31621400  0.93429500  1
  Cu  Cu12  1  0.04223000  0.78229600  0.13525300  1
  Cu  Cu13  1  0.78229600  0.04223000  0.63525300  1
  Cu  Cu14  1  0.98302300  0.35751400  0.24562000  1
  Cu  Cu15  1  0.35751400  0.98302300  0.74562000  1
  Cu  Cu16  1  0.64248600  0.01697700  0.25438000  1
  Cu  Cu17  1  0.01697700  0.64248600  0.75438000  1
  Cu  Cu18  1  0.21770400  0.95777000  0.36474700  1
  Cu  Cu19  1  0.95777000  0.21770400  0.86474700  1
