# generated using pymatgen
data_Cu2Ni2C7
_symmetry_space_group_name_H-M   'P 1'
_cell_length_a   9.32344550
_cell_length_b   9.32344550
_cell_length_c   6.67899044
_cell_angle_alpha   78.30825436
_cell_angle_beta   78.30825436
_cell_angle_gamma   96.97657867
_symmetry_Int_Tables_number   1
_chemical_formula_structural   Cu2Ni2C7
_chemical_formula_sum   'Cu8 Ni8 C28'
_cell_volume   548.68538074
_cell_formula_units_Z   4
loop_
 _symmetry_equiv_pos_site_id
 _symmetry_equiv_pos_as_xyz
  1  'x, y, z'
loop_
 _atom_site_type_symbol
 _atom_site_label
 _atom_site_symmetry_multiplicity
 _atom_site_fract_x
 _atom_site_fract_y
 _atom_site_fract_z
 _atom_site_occupancy
  C  C0  1  0.37035100  0.62964900  0.75000000  1
  C  C1  1  0.62964900  0.37035100  0.25000000  1
  C  C2  1  0.70914900  0.50635800  0.65765800  1
  C  C3  1  0.49364200  0.29085100  0.84234200  1
  C  C4  1  0.29085100  0.49364200  0.34234200  1
  C  C5  1  0.50635800  0.70914900  0.15765800  1
  C  C6  1  0.71448300  0.62912600  0.45972900  1
  C  C7  1  0.37087400  0.28551700  0.04027100  1
  C  C8  1  0.28551700  0.37087400  0.54027100  1
  C  C9  1  0.62912600  0.71448300  0.95972900  1
  C  C10  1  0.90969300  0.53254900  0.80908000  1
  C  C11  1  0.46745100  0.09030700  0.69092000  1
  C  C12  1  0.09030700  0.46745100  0.19092000  1
  C  C13  1  0.53254900  0.90969300  0.30908000  1
  C  C14  1  0.87449300  0.37408100  0.77841900  1
  C  C15  1  0.62591900  0.12550700  0.72158100  1
  C  C16  1  0.12550700  0.62591900  0.22158100  1
  C  C17  1  0.37408100  0.87449300  0.27841900  1
  C  C18  1  0.00000000  0.00000000  0.00000000  1
  C  C19  1  0.00000000  0.00000000  0.50000000  1
  C  C20  1  0.90475800  0.78662100  0.08695100  1
  C  C21  1  0.21337900  0.09524200  0.41304900  1
  C  C22  1  0.09524200  0.21337900  0.91304900  1
  C  C23  1  0.78662100  0.90475800  0.58695100  1
  C  C24  1  0.19750400  0.93556300  0.94645700  1
  C  C25  1  0.06443700  0.80249600  0.55354300  1
  C  C26  1  0.80249600  0.06443700  0.05354300  1
  C  C27  1  0.93556300  0.19750400  0.44645700  1
  Ni  Ni28  1  0.85012400  0.66054000  0.13707300  1
  Ni  Ni29  1  0.33946000  0.14987600  0.36292700  1
  Ni  Ni30  1  0.14987600  0.33946000  0.86292700  1
  Ni  Ni31  1  0.66054000  0.85012400  0.63707300  1
  Ni  Ni32  1  0.31179800  0.89341700  0.91174000  1
  Ni  Ni33  1  0.10658300  0.68820200  0.58826000  1
  Ni  Ni34  1  0.68820200  0.10658300  0.08826000  1
  Ni  Ni35  1  0.89341700  0.31179800  0.41174000  1
  Cu  Cu36  1  0.64830500  0.54286600  0.55785100  1
  Cu  Cu37  1  0.45713400  0.35169500  0.94214900  1
  Cu  Cu38  1  0.35169500  0.45713400  0.44214900  1
  Cu  Cu39  1  0.54286600  0.64830500  0.05785100  1
  Cu  Cu40  1  0.82732000  0.44960800  0.83589300  1
  Cu  Cu41  1  0.55039200  0.17268000  0.66410700  1
  Cu  Cu42  1  0.17268000  0.55039200  0.16410700  1
  Cu  Cu43  1  0.44960800  0.82732000  0.33589300  1
