# generated using pymatgen
data_Cu2NiC4
_symmetry_space_group_name_H-M   'P 1'
_cell_length_a   6.24399472
_cell_length_b   6.24399472
_cell_length_c   6.24399472
_cell_angle_alpha   124.93547701
_cell_angle_beta   124.93547701
_cell_angle_gamma   81.64493182
_symmetry_Int_Tables_number   1
_chemical_formula_structural   Cu2NiC4
_chemical_formula_sum   'Cu4 Ni2 C8'
_cell_volume   157.45034923
_cell_formula_units_Z   2
loop_
 _symmetry_equiv_pos_site_id
 _symmetry_equiv_pos_as_xyz
  1  'x, y, z'
loop_
 _atom_site_type_symbol
 _atom_site_label
 _atom_site_symmetry_multiplicity
 _atom_site_fract_x
 _atom_site_fract_y
 _atom_site_fract_z
 _atom_site_occupancy
  Ni  Ni0  1  0.75000000  0.25000000  0.50000000  1
  Ni  Ni1  1  0.00000000  0.00000000  0.00000000  1
  Cu  Cu2  1  0.37500000  0.62500000  0.25000000  1
  Cu  Cu3  1  0.37500000  0.62500000  0.75000000  1
  Cu  Cu4  1  0.87500000  0.62500000  0.25000000  1
  Cu  Cu5  1  0.37500000  0.12500000  0.75000000  1
  C  C6  1  0.17162100  0.59228500  0.86605300  1
  C  C7  1  0.72623300  0.30556900  0.13394700  1
  C  C8  1  0.34228500  0.97623300  0.92066400  1
  C  C9  1  0.69443100  0.82837900  0.42066400  1
  C  C10  1  0.05556900  0.42162100  0.07933600  1
  C  C11  1  0.40771500  0.27376700  0.57933600  1
  C  C12  1  0.02376700  0.94443100  0.36605300  1
  C  C13  1  0.57837900  0.65771500  0.63394700  1
