# generated using pymatgen
data_Cu2NiC3
_symmetry_space_group_name_H-M   'P 1'
_cell_length_a   7.52436368
_cell_length_b   7.52436368
_cell_length_c   6.03371000
_cell_angle_alpha   90.00000000
_cell_angle_beta   90.00000000
_cell_angle_gamma   119.99999717
_symmetry_Int_Tables_number   1
_chemical_formula_structural   Cu2NiC3
_chemical_formula_sum   'Cu4 Ni2 C6'
_cell_volume   295.83846025
_cell_formula_units_Z   2
loop_
 _symmetry_equiv_pos_site_id
 _symmetry_equiv_pos_as_xyz
  1  'x, y, z'
loop_
 _atom_site_type_symbol
 _atom_site_label
 _atom_site_symmetry_multiplicity
 _atom_site_fract_x
 _atom_site_fract_y
 _atom_site_fract_z
 _atom_site_occupancy
  Ni  Ni0  1  0.66666700  0.33333300  0.64387200  1
  Ni  Ni1  1  0.33333300  0.66666700  0.35612800  1
  Cu  Cu2  1  0.00000000  0.00000000  0.00000000  1
  Cu  Cu3  1  0.00000000  0.50000000  0.00000000  1
  Cu  Cu4  1  0.50000000  0.00000000  0.00000000  1
  Cu  Cu5  1  0.50000000  0.50000000  0.00000000  1
  C  C6  1  0.83020900  0.16979100  0.20940900  1
  C  C7  1  0.83020900  0.66041800  0.20940900  1
  C  C8  1  0.33958200  0.16979100  0.20940900  1
  C  C9  1  0.66041800  0.83020900  0.79059100  1
  C  C10  1  0.16979100  0.83020900  0.79059100  1
  C  C11  1  0.16979100  0.33958200  0.79059100  1
