# generated using pymatgen
data_CuNiC
_symmetry_space_group_name_H-M   'P 1'
_cell_length_a   4.72132976
_cell_length_b   4.72131972
_cell_length_c   12.50968700
_cell_angle_alpha   90.00010458
_cell_angle_beta   89.99874436
_cell_angle_gamma   90.19359821
_symmetry_Int_Tables_number   1
_chemical_formula_structural   CuNiC
_chemical_formula_sum   'Cu8 Ni8 C8'
_cell_volume   278.85068116
_cell_formula_units_Z   8
loop_
 _symmetry_equiv_pos_site_id
 _symmetry_equiv_pos_as_xyz
  1  'x, y, z'
loop_
 _atom_site_type_symbol
 _atom_site_label
 _atom_site_symmetry_multiplicity
 _atom_site_fract_x
 _atom_site_fract_y
 _atom_site_fract_z
 _atom_site_occupancy
  C  C0  1  0.97049900  0.97045500  0.99999000  1
  C  C1  1  0.02177900  0.03868400  0.25001000  1
  C  C2  1  0.97044500  0.97047800  0.49998200  1
  C  C3  1  0.03867100  0.02177400  0.75000000  1
  C  C4  1  0.52999300  0.47049300  0.12445000  1
  C  C5  1  0.47049800  0.52999600  0.62443400  1
  C  C6  1  0.47049800  0.52998900  0.87556300  1
  C  C7  1  0.52998700  0.47051400  0.37557200  1
  Ni  Ni8  1  0.18329500  0.81653700  0.87639100  1
  Ni  Ni9  1  0.18327400  0.81653800  0.62362100  1
  Ni  Ni10  1  0.32523300  0.30957900  0.24999000  1
  Ni  Ni11  1  0.30958400  0.32523100  0.75000300  1
  Ni  Ni12  1  0.68166400  0.68158900  0.00000600  1
  Ni  Ni13  1  0.68159000  0.68166200  0.50000800  1
  Ni  Ni14  1  0.81652900  0.18326100  0.12361800  1
  Ni  Ni15  1  0.81655100  0.18331000  0.37638800  1
  Cu  Cu16  1  0.20739000  0.79032400  0.12596800  1
  Cu  Cu17  1  0.20728400  0.79036400  0.37399900  1
  Cu  Cu18  1  0.29098400  0.29097800  0.00000500  1
  Cu  Cu19  1  0.29098600  0.29099300  0.50000400  1
  Cu  Cu20  1  0.73203400  0.69055000  0.25000000  1
  Cu  Cu21  1  0.69055500  0.73203000  0.75000500  1
  Cu  Cu22  1  0.79032600  0.20734800  0.62598300  1
  Cu  Cu23  1  0.79035400  0.20732500  0.87401200  1
