# generated using pymatgen
data_Cu8Ni2C3
_symmetry_space_group_name_H-M   'P 1'
_cell_length_a   8.54457300
_cell_length_b   6.40357400
_cell_length_c   11.39546200
_cell_angle_alpha   56.75839064
_cell_angle_beta   90.00000000
_cell_angle_gamma   90.00000000
_symmetry_Int_Tables_number   1
_chemical_formula_structural   Cu8Ni2C3
_chemical_formula_sum   'Cu32 Ni8 C12'
_cell_volume   521.48441421
_cell_formula_units_Z   4
loop_
 _symmetry_equiv_pos_site_id
 _symmetry_equiv_pos_as_xyz
  1  'x, y, z'
loop_
 _atom_site_type_symbol
 _atom_site_label
 _atom_site_symmetry_multiplicity
 _atom_site_fract_x
 _atom_site_fract_y
 _atom_site_fract_z
 _atom_site_occupancy
  C  C0  1  0.07434100  0.47216600  0.16769100  1
  C  C1  1  0.57434100  0.52783400  0.33230900  1
  C  C2  1  0.42565900  0.47216600  0.66769100  1
  C  C3  1  0.92565900  0.52783400  0.83230900  1
  C  C4  1  0.73158100  0.48790200  0.09158300  1
  C  C5  1  0.72951600  0.98499500  0.09263300  1
  C  C6  1  0.23158100  0.51209800  0.40841700  1
  C  C7  1  0.22951600  0.01500500  0.40736700  1
  C  C8  1  0.77048400  0.98499500  0.59263300  1
  C  C9  1  0.76841900  0.48790200  0.59158300  1
  C  C10  1  0.27048400  0.01500500  0.90736700  1
  C  C11  1  0.26841900  0.51209800  0.90841700  1
  Ni  Ni12  1  0.38413500  0.48248400  0.16314300  1
  Ni  Ni13  1  0.37510600  0.97217200  0.16599200  1
  Ni  Ni14  1  0.88413500  0.51751600  0.33685700  1
  Ni  Ni15  1  0.87510600  0.02782800  0.33400800  1
  Ni  Ni16  1  0.12489400  0.97217200  0.66599200  1
  Ni  Ni17  1  0.11586500  0.48248400  0.66314300  1
  Ni  Ni18  1  0.62489400  0.02782800  0.83400800  1
  Ni  Ni19  1  0.61586500  0.51751600  0.83685700  1
  Cu  Cu20  1  0.05071500  0.91570300  0.00852100  1
  Cu  Cu21  1  0.05576700  0.41194900  0.01073200  1
  Cu  Cu22  1  0.32997000  0.63346500  0.03648000  1
  Cu  Cu23  1  0.32358400  0.13686600  0.03992800  1
  Cu  Cu24  1  0.52540700  0.41631800  0.19173200  1
  Cu  Cu25  1  0.51139800  0.87723000  0.18497800  1
  Cu  Cu26  1  0.28178600  0.39274900  0.26704500  1
  Cu  Cu27  1  0.28143800  0.89128000  0.27370900  1
  Cu  Cu28  1  0.78178600  0.60725100  0.23295500  1
  Cu  Cu29  1  0.78143800  0.10872000  0.22629100  1
  Cu  Cu30  1  0.02540700  0.58368200  0.30826800  1
  Cu  Cu31  1  0.01139800  0.12277000  0.31502200  1
  Cu  Cu32  1  0.82997000  0.36653500  0.46352000  1
  Cu  Cu33  1  0.82358400  0.86313400  0.46007200  1
  Cu  Cu34  1  0.55576700  0.58805100  0.48926800  1
  Cu  Cu35  1  0.55071500  0.08429700  0.49147900  1
  Cu  Cu36  1  0.44423300  0.41194900  0.51073200  1
  Cu  Cu37  1  0.44928500  0.91570300  0.50852100  1
  Cu  Cu38  1  0.17641600  0.13686600  0.53992800  1
  Cu  Cu39  1  0.17003000  0.63346500  0.53648000  1
  Cu  Cu40  1  0.98860200  0.87723000  0.68497800  1
  Cu  Cu41  1  0.97459300  0.41631800  0.69173200  1
  Cu  Cu42  1  0.21856200  0.89128000  0.77370900  1
  Cu  Cu43  1  0.21821400  0.39274900  0.76704500  1
  Cu  Cu44  1  0.71856200  0.10872000  0.72629100  1
  Cu  Cu45  1  0.71821400  0.60725100  0.73295500  1
  Cu  Cu46  1  0.48860200  0.12277000  0.81502200  1
  Cu  Cu47  1  0.47459300  0.58368200  0.80826800  1
  Cu  Cu48  1  0.67641600  0.86313400  0.96007200  1
  Cu  Cu49  1  0.67003000  0.36653500  0.96352000  1
  Cu  Cu50  1  0.94423300  0.58805100  0.98926800  1
  Cu  Cu51  1  0.94928500  0.08429700  0.99147900  1
