# generated using pymatgen
data_Cu4Ni3C5
_symmetry_space_group_name_H-M   'P 1'
_cell_length_a   16.84743400
_cell_length_b   6.71829900
_cell_length_c   10.72465205
_cell_angle_alpha   70.04919312
_cell_angle_beta   90.00000000
_cell_angle_gamma   90.00000000
_symmetry_Int_Tables_number   1
_chemical_formula_structural   Cu4Ni3C5
_chemical_formula_sum   'Cu32 Ni24 C40'
_cell_volume   1141.03155406
_cell_formula_units_Z   8
loop_
 _symmetry_equiv_pos_site_id
 _symmetry_equiv_pos_as_xyz
  1  'x, y, z'
loop_
 _atom_site_type_symbol
 _atom_site_label
 _atom_site_symmetry_multiplicity
 _atom_site_fract_x
 _atom_site_fract_y
 _atom_site_fract_z
 _atom_site_occupancy
  C  C0  1  0.81470700  0.07372600  0.77267500  1
  C  C1  1  0.68529300  0.07372600  0.27267500  1
  C  C2  1  0.18529300  0.92627400  0.22732500  1
  C  C3  1  0.31470700  0.92627400  0.72732500  1
  C  C4  1  0.97280800  0.60551700  0.32587700  1
  C  C5  1  0.52719200  0.60551700  0.82587700  1
  C  C6  1  0.02719200  0.39448300  0.67412300  1
  C  C7  1  0.47280800  0.39448300  0.17412300  1
  C  C8  1  0.08814100  0.63134000  0.11786000  1
  C  C9  1  0.41185900  0.63134000  0.61786000  1
  C  C10  1  0.91185900  0.36866000  0.88214000  1
  C  C11  1  0.58814100  0.36866000  0.38214000  1
  C  C12  1  0.18781300  0.57609700  0.10622500  1
  C  C13  1  0.31218700  0.57609700  0.60622500  1
  C  C14  1  0.81218700  0.42390300  0.89377500  1
  C  C15  1  0.68781300  0.42390300  0.39377500  1
  C  C16  1  0.19166100  0.17636200  0.42131300  1
  C  C17  1  0.30833900  0.17636200  0.92131300  1
  C  C18  1  0.80833900  0.82363800  0.57868700  1
  C  C19  1  0.69166100  0.82363800  0.07868700  1
  C  C20  1  0.24769500  0.32066200  0.28507100  1
  C  C21  1  0.25230500  0.32066200  0.78507100  1
  C  C22  1  0.75230500  0.67933800  0.71492900  1
  C  C23  1  0.74769500  0.67933800  0.21492900  1
  C  C24  1  0.95466600  0.18030400  0.15354700  1
  C  C25  1  0.54533400  0.18030400  0.65354700  1
  C  C26  1  0.04533400  0.81969600  0.84645300  1
  C  C27  1  0.45466600  0.81969600  0.34645300  1
  C  C28  1  0.85487100  0.27645600  0.14316800  1
  C  C29  1  0.64512900  0.27645600  0.64316800  1
  C  C30  1  0.14512900  0.72354400  0.85683200  1
  C  C31  1  0.35487100  0.72354400  0.35683200  1
  C  C32  1  0.12959400  0.40013300  0.27851900  1
  C  C33  1  0.37040600  0.40013300  0.77851900  1
  C  C34  1  0.87040600  0.59986700  0.72148100  1
  C  C35  1  0.62959400  0.59986700  0.22148100  1
  C  C36  1  0.88107200  0.01820000  0.30481800  1
  C  C37  1  0.61892800  0.01820000  0.80481800  1
  C  C38  1  0.11892800  0.98180000  0.69518200  1
  C  C39  1  0.38107200  0.98180000  0.19518200  1
  Ni  Ni40  1  0.14001100  0.57350200  0.16638800  1
  Ni  Ni41  1  0.35998900  0.57350200  0.66638800  1
  Ni  Ni42  1  0.85998900  0.42649800  0.83361200  1
  Ni  Ni43  1  0.64001100  0.42649800  0.33361200  1
  Ni  Ni44  1  0.19290200  0.26833000  0.32327200  1
  Ni  Ni45  1  0.30709800  0.26833000  0.82327200  1
  Ni  Ni46  1  0.80709800  0.73167000  0.67672800  1
  Ni  Ni47  1  0.69290200  0.73167000  0.17672800  1
  Ni  Ni48  1  0.94060600  0.87662300  0.36134100  1
  Ni  Ni49  1  0.55939400  0.87662300  0.86134100  1
  Ni  Ni50  1  0.05939400  0.12337700  0.63865900  1
  Ni  Ni51  1  0.44060600  0.12337700  0.13865900  1
  Ni  Ni52  1  0.89891700  0.17764300  0.19319000  1
  Ni  Ni53  1  0.60108300  0.17764300  0.69319000  1
  Ni  Ni54  1  0.10108300  0.82235700  0.80681000  1
  Ni  Ni55  1  0.39891700  0.82235700  0.30681000  1
  Ni  Ni56  1  0.92012300  0.81057000  0.00202400  1
  Ni  Ni57  1  0.57987700  0.81057000  0.50202400  1
  Ni  Ni58  1  0.07987700  0.18943000  0.99797600  1
  Ni  Ni59  1  0.42012300  0.18943000  0.49797600  1
  Ni  Ni60  1  0.82594400  0.36806400  0.48247100  1
  Ni  Ni61  1  0.67405600  0.36806400  0.98247100  1
  Ni  Ni62  1  0.17405600  0.63193600  0.51752900  1
  Ni  Ni63  1  0.32594400  0.63193600  0.01752900  1
  Cu  Cu64  1  0.85415700  0.84001400  0.04581700  1
  Cu  Cu65  1  0.64584300  0.84001400  0.54581700  1
  Cu  Cu66  1  0.14584300  0.15998600  0.95418300  1
  Cu  Cu67  1  0.35415700  0.15998600  0.45418300  1
  Cu  Cu68  1  0.93451300  0.88535400  0.87732500  1
  Cu  Cu69  1  0.56548700  0.88535400  0.37732500  1
  Cu  Cu70  1  0.06548700  0.11464600  0.12267500  1
  Cu  Cu71  1  0.43451300  0.11464600  0.62267500  1
  Cu  Cu72  1  0.97513200  0.70563600  0.07929900  1
  Cu  Cu73  1  0.52486800  0.70563600  0.57929900  1
  Cu  Cu74  1  0.02486800  0.29436400  0.92070100  1
  Cu  Cu75  1  0.47513200  0.29436400  0.42070100  1
  Cu  Cu76  1  0.83064400  0.49594800  0.36351000  1
  Cu  Cu77  1  0.66935600  0.49594800  0.86351000  1
  Cu  Cu78  1  0.16935600  0.50405200  0.63649000  1
  Cu  Cu79  1  0.33064400  0.50405200  0.13649000  1
  Cu  Cu80  1  0.88671600  0.27468600  0.54289500  1
  Cu  Cu81  1  0.61328400  0.27468600  0.04289500  1
  Cu  Cu82  1  0.11328400  0.72531400  0.45710500  1
  Cu  Cu83  1  0.38671600  0.72531400  0.95710500  1
  Cu  Cu84  1  0.75860400  0.33522700  0.54021300  1
  Cu  Cu85  1  0.74139600  0.33522700  0.04021300  1
  Cu  Cu86  1  0.24139600  0.66477300  0.45978700  1
  Cu  Cu87  1  0.25860400  0.66477300  0.95978700  1
  Cu  Cu88  1  0.06390100  0.36282200  0.33869300  1
  Cu  Cu89  1  0.43609900  0.36282200  0.83869300  1
  Cu  Cu90  1  0.93609900  0.63717800  0.66130700  1
  Cu  Cu91  1  0.56390100  0.63717800  0.16130700  1
  Cu  Cu92  1  0.81387000  0.98864200  0.36292800  1
  Cu  Cu93  1  0.68613000  0.98864200  0.86292800  1
  Cu  Cu94  1  0.18613000  0.01135800  0.63707200  1
  Cu  Cu95  1  0.31387000  0.01135800  0.13707200  1
