# generated using pymatgen
data_Cu8Ni4C19
_symmetry_space_group_name_H-M   'P 1'
_cell_length_a   8.73333108
_cell_length_b   9.69647658
_cell_length_c   10.66713833
_cell_angle_alpha   93.73279982
_cell_angle_beta   108.70328858
_cell_angle_gamma   116.07431382
_symmetry_Int_Tables_number   1
_chemical_formula_structural   Cu8Ni4C19
_chemical_formula_sum   'Cu16 Ni8 C38'
_cell_volume   745.65776084
_cell_formula_units_Z   2
loop_
 _symmetry_equiv_pos_site_id
 _symmetry_equiv_pos_as_xyz
  1  'x, y, z'
loop_
 _atom_site_type_symbol
 _atom_site_label
 _atom_site_symmetry_multiplicity
 _atom_site_fract_x
 _atom_site_fract_y
 _atom_site_fract_z
 _atom_site_occupancy
  C  C0  1  0.29748600  0.83820000  0.57477700  1
  C  C1  1  0.29751100  0.33809300  0.07465400  1
  C  C2  1  0.70260900  0.66192900  0.92527500  1
  C  C3  1  0.70245100  0.16174300  0.42527300  1
  C  C4  1  0.49987300  0.74981600  0.24995600  1
  C  C5  1  0.50008200  0.25009600  0.74994400  1
  Ni  Ni6  1  0.24334200  0.14920700  0.41919800  1
  Ni  Ni7  1  0.24334200  0.64920200  0.91919700  1
  Ni  Ni8  1  0.75666500  0.35081000  0.08081000  1
  Ni  Ni9  1  0.75666300  0.85080700  0.58080800  1
  Ni  Ni10  1  0.75711700  0.10069500  0.90961100  1
  Ni  Ni11  1  0.75715100  0.60068900  0.40963200  1
  Ni  Ni12  1  0.24288900  0.39935800  0.59037800  1
  Ni  Ni13  1  0.24283400  0.89930200  0.09036300  1
  Cu  Cu14  1  0.07641800  0.93005300  0.19904400  1
  Cu  Cu15  1  0.07647800  0.43007000  0.69905500  1
  Cu  Cu16  1  0.92355900  0.56996500  0.30094200  1
  Cu  Cu17  1  0.92357000  0.06996900  0.80094300  1
  Cu  Cu18  1  0.47333400  0.33911700  0.38435400  1
  Cu  Cu19  1  0.47334200  0.83914000  0.88436900  1
  Cu  Cu20  1  0.52672200  0.16088600  0.11567900  1
  Cu  Cu21  1  0.52671700  0.66088200  0.61567600  1
  Cu  Cu22  1  0.70823600  0.45405800  0.63962500  1
  Cu  Cu23  1  0.70806200  0.95392900  0.13960500  1
  Cu  Cu24  1  0.29193800  0.04607300  0.86040100  1
  Cu  Cu25  1  0.29176900  0.54595700  0.36037600  1
  Cu  Cu26  1  0.85202800  0.45156400  0.77435100  1
  Cu  Cu27  1  0.85188800  0.95145200  0.27433600  1
  Cu  Cu28  1  0.14804700  0.04848600  0.72569100  1
  Cu  Cu29  1  0.14786000  0.54835600  0.22565400  1
  C  C30  1  0.08127000  0.99085900  0.33035900  1
  C  C31  1  0.08126400  0.49085100  0.83035100  1
  C  C32  1  0.91873000  0.50914800  0.16964400  1
  C  C33  1  0.91873200  0.00915800  0.66964100  1
  C  C34  1  0.33841300  0.24620400  0.32713400  1
  C  C35  1  0.33841600  0.74620800  0.82714600  1
  C  C36  1  0.66162400  0.25379900  0.17288600  1
  C  C37  1  0.66166300  0.75381800  0.67291100  1
  C  C38  1  0.93781700  0.11411700  0.89854500  1
  C  C39  1  0.93785400  0.61411700  0.39856300  1
  C  C40  1  0.06217300  0.38591000  0.60143200  1
  C  C41  1  0.06215200  0.88589300  0.10145000  1
  C  C42  1  0.66611200  0.45835900  0.46556800  1
  C  C43  1  0.66610400  0.95836200  0.96555200  1
  C  C44  1  0.33390000  0.04165100  0.03444600  1
  C  C45  1  0.33401900  0.54168500  0.53446700  1
  C  C46  1  0.38796000  0.14509000  0.54179800  1
  C  C47  1  0.38794900  0.64507200  0.04180600  1
  C  C48  1  0.61203500  0.35491800  0.95818800  1
  C  C49  1  0.61203000  0.85489800  0.45819200  1
  C  C50  1  0.62895000  0.11049300  0.78018600  1
  C  C51  1  0.62906100  0.61047900  0.28016800  1
  C  C52  1  0.37094400  0.38952200  0.71982800  1
  C  C53  1  0.37092500  0.88947700  0.21978800  1
  C  C54  1  0.14860100  0.24094400  0.46966700  1
  C  C55  1  0.14854600  0.74088000  0.96967000  1
  C  C56  1  0.85144100  0.25911700  0.03032000  1
  C  C57  1  0.85144700  0.75911500  0.53032400  1
  C  C58  1  0.27336500  0.05866900  0.76584100  1
  C  C59  1  0.27322000  0.55859000  0.26582800  1
  C  C60  1  0.72670300  0.44137500  0.73416200  1
  C  C61  1  0.72659700  0.94131700  0.23416300  1
