# generated using pymatgen
data_CuNi3C8
_symmetry_space_group_name_H-M   'P 1'
_cell_length_a   5.76806404
_cell_length_b   5.76806404
_cell_length_c   8.89973800
_cell_angle_alpha   90.00000000
_cell_angle_beta   90.00000000
_cell_angle_gamma   120.00000045
_symmetry_Int_Tables_number   1
_chemical_formula_structural   CuNi3C8
_chemical_formula_sum   'Cu2 Ni6 C16'
_cell_volume   256.42950748
_cell_formula_units_Z   2
loop_
 _symmetry_equiv_pos_site_id
 _symmetry_equiv_pos_as_xyz
  1  'x, y, z'
loop_
 _atom_site_type_symbol
 _atom_site_label
 _atom_site_symmetry_multiplicity
 _atom_site_fract_x
 _atom_site_fract_y
 _atom_site_fract_z
 _atom_site_occupancy
  Ni  Ni0  1  0.16791200  0.83208800  0.21089600  1
  Ni  Ni1  1  0.16791200  0.33582300  0.21089600  1
  Ni  Ni2  1  0.66417700  0.83208800  0.21089600  1
  Ni  Ni3  1  0.33582300  0.16791200  0.71089600  1
  Ni  Ni4  1  0.83208800  0.66417700  0.71089600  1
  Ni  Ni5  1  0.83208800  0.16791200  0.71089600  1
  Cu  Cu6  1  0.33333300  0.66666700  0.49050800  1
  Cu  Cu7  1  0.66666700  0.33333300  0.99050800  1
  C  C8  1  0.16823700  0.83176300  0.60067900  1
  C  C9  1  0.04150000  0.52075000  0.33842000  1
  C  C10  1  0.33333300  0.66666700  0.10030200  1
  C  C11  1  0.00000000  0.00000000  0.31718600  1
  C  C12  1  0.00000000  0.00000000  0.81718600  1
  C  C13  1  0.16823700  0.33647400  0.60067900  1
  C  C14  1  0.47925000  0.95850000  0.33842000  1
  C  C15  1  0.47925000  0.52075000  0.33842000  1
  C  C16  1  0.33647400  0.16823700  0.10067900  1
  C  C17  1  0.66352600  0.83176300  0.60067900  1
  C  C18  1  0.52075000  0.47925000  0.83842000  1
  C  C19  1  0.52075000  0.04150000  0.83842000  1
  C  C20  1  0.66666700  0.33333300  0.60030200  1
  C  C21  1  0.83176300  0.66352600  0.10067900  1
  C  C22  1  0.95850000  0.47925000  0.83842000  1
  C  C23  1  0.83176300  0.16823700  0.10067900  1
