# generated using pymatgen
data_Cu5NiC2
_symmetry_space_group_name_H-M   'P 1'
_cell_length_a   5.26460800
_cell_length_b   5.43438066
_cell_length_c   12.95216453
_cell_angle_alpha   91.18251883
_cell_angle_beta   90.73763666
_cell_angle_gamma   118.88844619
_symmetry_Int_Tables_number   1
_chemical_formula_structural   Cu5NiC2
_chemical_formula_sum   'Cu15 Ni3 C6'
_cell_volume   324.26860436
_cell_formula_units_Z   3
loop_
 _symmetry_equiv_pos_site_id
 _symmetry_equiv_pos_as_xyz
  1  'x, y, z'
loop_
 _atom_site_type_symbol
 _atom_site_label
 _atom_site_symmetry_multiplicity
 _atom_site_fract_x
 _atom_site_fract_y
 _atom_site_fract_z
 _atom_site_occupancy
  C  C0  1  0.66357900  0.33304700  0.33053000  1
  C  C1  1  0.68612800  0.36183900  0.83874300  1
  C  C2  1  0.34941500  0.64552200  0.16954500  1
  C  C3  1  0.32584200  0.68679000  0.65936400  1
  C  C4  1  0.00332000  0.99965400  0.50187600  1
  C  C5  1  0.99968700  0.98829000  0.99908100  1
  Ni  Ni6  1  0.89942900  0.65235400  0.91198300  1
  Ni  Ni7  1  0.51518500  0.47385900  0.21997900  1
  Ni  Ni8  1  0.20207200  0.81123000  0.56403800  1
  Cu  Cu9  1  0.86957300  0.13924400  0.88375800  1
  Cu  Cu10  1  0.93603700  0.46517300  0.71864400  1
  Cu  Cu11  1  0.80330600  0.20100400  0.44722600  1
  Cu  Cu12  1  0.73387400  0.66484000  0.41946400  1
  Cu  Cu13  1  0.73171700  0.87257200  0.61760700  1
  Cu  Cu14  1  0.39708000  0.19087100  0.94763700  1
  Cu  Cu15  1  0.59845500  0.79836100  0.05057600  1
  Cu  Cu16  1  0.46009200  0.52478600  0.77483300  1
  Cu  Cu17  1  0.26712800  0.12460800  0.38410100  1
  Cu  Cu18  1  0.59873700  0.99898300  0.24633400  1
  Cu  Cu19  1  0.26713600  0.34549800  0.58155900  1
  Cu  Cu20  1  0.41772400  0.00493600  0.75640900  1
  Cu  Cu21  1  0.07219400  0.33005700  0.08187000  1
  Cu  Cu22  1  0.06268900  0.53723400  0.28009900  1
  Cu  Cu23  1  0.13960300  0.84924600  0.11474100  1
