# generated using pymatgen
data_Cu6Ni2C27
_symmetry_space_group_name_H-M   'P 1'
_cell_length_a   8.81830767
_cell_length_b   8.81830767
_cell_length_c   8.81830796
_cell_angle_alpha   59.33321210
_cell_angle_beta   59.33321210
_cell_angle_gamma   59.33321502
_symmetry_Int_Tables_number   1
_chemical_formula_structural   Cu6Ni2C27
_chemical_formula_sum   'Cu6 Ni2 C27'
_cell_volume   477.52676181
_cell_formula_units_Z   1
loop_
 _symmetry_equiv_pos_site_id
 _symmetry_equiv_pos_as_xyz
  1  'x, y, z'
loop_
 _atom_site_type_symbol
 _atom_site_label
 _atom_site_symmetry_multiplicity
 _atom_site_fract_x
 _atom_site_fract_y
 _atom_site_fract_z
 _atom_site_occupancy
  C  C0  1  0.64845000  0.64845000  0.64845000  1
  C  C1  1  0.85881000  0.85881000  0.85881000  1
  C  C2  1  0.34382400  0.34382400  0.34382400  1
  Ni  Ni3  1  0.02235600  0.02235600  0.02235600  1
  Ni  Ni4  1  0.49883500  0.49883500  0.49883500  1
  Cu  Cu5  1  0.24768800  0.53899500  0.94785000  1
  Cu  Cu6  1  0.94785000  0.24768800  0.53899500  1
  Cu  Cu7  1  0.53899500  0.94785000  0.24768800  1
  Cu  Cu8  1  0.47639200  0.03998000  0.73749300  1
  Cu  Cu9  1  0.03998000  0.73749300  0.47639200  1
  Cu  Cu10  1  0.73749300  0.47639200  0.03998000  1
  C  C11  1  0.12166200  0.29262000  0.49795800  1
  C  C12  1  0.49795800  0.12166200  0.29261900  1
  C  C13  1  0.29261900  0.49795800  0.12166200  1
  C  C14  1  0.07659700  0.72767800  0.94511500  1
  C  C15  1  0.41337300  0.59608700  0.76305900  1
  C  C16  1  0.22720800  0.38383900  0.94455400  1
  C  C17  1  0.94511500  0.07659700  0.72767800  1
  C  C18  1  0.76305900  0.41337300  0.59608700  1
  C  C19  1  0.59608700  0.76305900  0.41337300  1
  C  C20  1  0.63798700  0.01079500  0.78329100  1
  C  C21  1  0.29425800  0.05097100  0.90292000  1
  C  C22  1  0.01079500  0.78329100  0.63798700  1
  C  C23  1  0.94455400  0.22720800  0.38383900  1
  C  C24  1  0.72767800  0.94511500  0.07659700  1
  C  C25  1  0.38383900  0.94455400  0.22720800  1
  C  C26  1  0.45283300  0.22707900  0.56611400  1
  C  C27  1  0.22707900  0.56611400  0.45283300  1
  C  C28  1  0.05097100  0.90292000  0.29425800  1
  C  C29  1  0.78329100  0.63798700  0.01079500  1
  C  C30  1  0.56611400  0.45283300  0.22707900  1
  C  C31  1  0.90292000  0.29425800  0.05097100  1
  C  C32  1  0.67330300  0.51975600  0.88515900  1
  C  C33  1  0.51975600  0.88515900  0.67330300  1
  C  C34  1  0.88515900  0.67330300  0.51975600  1
