# generated using pymatgen
data_Cu4NiC19
_symmetry_space_group_name_H-M   'P 1'
_cell_length_a   5.87729200
_cell_length_b   4.84522900
_cell_length_c   9.97036728
_cell_angle_alpha   89.80077049
_cell_angle_beta   90.00000000
_cell_angle_gamma   90.00000000
_symmetry_Int_Tables_number   1
_chemical_formula_structural   Cu4NiC19
_chemical_formula_sum   'Cu4 Ni1 C19'
_cell_volume   283.92269401
_cell_formula_units_Z   1
loop_
 _symmetry_equiv_pos_site_id
 _symmetry_equiv_pos_as_xyz
  1  'x, y, z'
loop_
 _atom_site_type_symbol
 _atom_site_label
 _atom_site_symmetry_multiplicity
 _atom_site_fract_x
 _atom_site_fract_y
 _atom_site_fract_z
 _atom_site_occupancy
  C  C0  1  0.50000000  0.95629600  0.27303600  1
  C  C1  1  0.50000000  0.54553100  0.77581500  1
  C  C2  1  0.00000000  0.45456200  0.22828700  1
  Ni  Ni3  1  0.00000000  0.03775800  0.72352300  1
  Cu  Cu4  1  0.00000000  0.90586000  0.39875000  1
  Cu  Cu5  1  0.00000000  0.59508700  0.91265500  1
  Cu  Cu6  1  0.50000000  0.40897700  0.09800400  1
  Cu  Cu7  1  0.50000000  0.08762600  0.58958900  1
  C  C8  1  0.00000000  0.82133400  0.54972100  1
  C  C9  1  0.20474500  0.76137600  0.32652800  1
  C  C10  1  0.79525500  0.76137600  0.32652800  1
  C  C11  1  0.50000000  0.77827000  0.61282800  1
  C  C12  1  0.50000000  0.72432900  0.11043600  1
  C  C13  1  0.20267000  0.74220000  0.83348800  1
  C  C14  1  0.79733000  0.74220000  0.83348800  1
  C  C15  1  0.00000000  0.66660400  0.06007500  1
  C  C16  1  0.50000000  0.33829600  0.94826500  1
  C  C17  1  0.70448400  0.26347800  0.17201100  1
  C  C18  1  0.29551600  0.26347800  0.17201100  1
  C  C19  1  0.00000000  0.28076400  0.89055700  1
  C  C20  1  0.00000000  0.22075100  0.39021100  1
  C  C21  1  0.70439600  0.23869500  0.66617600  1
  C  C22  1  0.29560400  0.23869500  0.66617600  1
  C  C23  1  0.50000000  0.16646000  0.44183900  1
