# generated using pymatgen
data_Cu12Ni3C2
_symmetry_space_group_name_H-M   'P 1'
_cell_length_a   7.72415883
_cell_length_b   7.72415883
_cell_length_c   8.70512547
_cell_angle_alpha   69.38766775
_cell_angle_beta   69.38766775
_cell_angle_gamma   66.69229809
_symmetry_Int_Tables_number   1
_chemical_formula_structural   Cu12Ni3C2
_chemical_formula_sum   'Cu24 Ni6 C4'
_cell_volume   432.56167038
_cell_formula_units_Z   2
loop_
 _symmetry_equiv_pos_site_id
 _symmetry_equiv_pos_as_xyz
  1  'x, y, z'
loop_
 _atom_site_type_symbol
 _atom_site_label
 _atom_site_symmetry_multiplicity
 _atom_site_fract_x
 _atom_site_fract_y
 _atom_site_fract_z
 _atom_site_occupancy
  C  C0  1  0.37631400  0.87564900  0.48168100  1
  C  C1  1  0.87564900  0.37631400  0.98168100  1
  C  C2  1  0.12435100  0.62368600  0.01831900  1
  C  C3  1  0.62368600  0.12435100  0.51831900  1
  Ni  Ni4  1  0.75044000  0.54162200  0.32026600  1
  Ni  Ni5  1  0.54162200  0.75044000  0.82026600  1
  Ni  Ni6  1  0.05081300  0.94918700  0.25000000  1
  Ni  Ni7  1  0.94918700  0.05081300  0.75000000  1
  Ni  Ni8  1  0.45837800  0.24956000  0.17973400  1
  Ni  Ni9  1  0.24956000  0.45837800  0.67973400  1
  Cu  Cu10  1  0.86742000  0.95971000  0.38433500  1
  Cu  Cu11  1  0.95971000  0.86742000  0.88433500  1
  Cu  Cu12  1  0.87249700  0.50353800  0.43190900  1
  Cu  Cu13  1  0.60819600  0.74030800  0.31213700  1
  Cu  Cu14  1  0.87074200  0.53692500  0.14058900  1
  Cu  Cu15  1  0.50353800  0.87249700  0.93190900  1
  Cu  Cu16  1  0.21308900  0.90759200  0.32272300  1
  Cu  Cu17  1  0.65112300  0.39346000  0.38028300  1
  Cu  Cu18  1  0.74030800  0.60819600  0.81213700  1
  Cu  Cu19  1  0.53692500  0.87074200  0.64058900  1
  Cu  Cu20  1  0.90759200  0.21308900  0.82272300  1
  Cu  Cu21  1  0.60654000  0.34887700  0.11971700  1
  Cu  Cu22  1  0.39346000  0.65112300  0.88028300  1
  Cu  Cu23  1  0.09240800  0.78691100  0.17727700  1
  Cu  Cu24  1  0.46307500  0.12925800  0.35941100  1
  Cu  Cu25  1  0.25969200  0.39180400  0.18786300  1
  Cu  Cu26  1  0.34887700  0.60654000  0.61971700  1
  Cu  Cu27  1  0.78691100  0.09240800  0.67727700  1
  Cu  Cu28  1  0.49646200  0.12750300  0.06809100  1
  Cu  Cu29  1  0.12925800  0.46307500  0.85941100  1
  Cu  Cu30  1  0.39180400  0.25969200  0.68786300  1
  Cu  Cu31  1  0.12750300  0.49646200  0.56809100  1
  Cu  Cu32  1  0.04029000  0.13258000  0.11566500  1
  Cu  Cu33  1  0.13258000  0.04029000  0.61566500  1
