# generated using pymatgen
data_Cu3NiC11
_symmetry_space_group_name_H-M   'P 1'
_cell_length_a   5.19835000
_cell_length_b   7.86057655
_cell_length_c   7.88047732
_cell_angle_alpha   81.70537519
_cell_angle_beta   70.96019773
_cell_angle_gamma   83.96367540
_symmetry_Int_Tables_number   1
_chemical_formula_structural   Cu3NiC11
_chemical_formula_sum   'Cu6 Ni2 C22'
_cell_volume   300.62999212
_cell_formula_units_Z   2
loop_
 _symmetry_equiv_pos_site_id
 _symmetry_equiv_pos_as_xyz
  1  'x, y, z'
loop_
 _atom_site_type_symbol
 _atom_site_label
 _atom_site_symmetry_multiplicity
 _atom_site_fract_x
 _atom_site_fract_y
 _atom_site_fract_z
 _atom_site_occupancy
  C  C0  1  0.00000000  0.00000000  0.00000000  1
  C  C1  1  0.99875000  0.61764100  0.12010700  1
  C  C2  1  0.99963900  0.11716400  0.62506200  1
  C  C3  1  0.00000000  0.50000000  0.50000000  1
  C  C4  1  0.00036100  0.88283600  0.37493800  1
  C  C5  1  0.00125000  0.38235900  0.87989300  1
  Ni  Ni6  1  0.49110900  0.68768900  0.43770600  1
  Ni  Ni7  1  0.50889100  0.31231100  0.56229400  1
  Cu  Cu8  1  0.49595500  0.43333600  0.18655300  1
  Cu  Cu9  1  0.51700100  0.81313600  0.05694600  1
  Cu  Cu10  1  0.50546200  0.06403700  0.30756000  1
  Cu  Cu11  1  0.49453800  0.93596300  0.69244000  1
  Cu  Cu12  1  0.48299900  0.18686400  0.94305400  1
  Cu  Cu13  1  0.50404500  0.56666400  0.81344700  1
  C  C14  1  0.27664600  0.02181000  0.15148800  1
  C  C15  1  0.27577900  0.41378600  0.01812400  1
  C  C16  1  0.27505100  0.65469600  0.28752400  1
  C  C17  1  0.29322600  0.28162000  0.41223100  1
  C  C18  1  0.28446100  0.90148000  0.51481900  1
  C  C19  1  0.26974200  0.15973000  0.77138000  1
  C  C20  1  0.28741700  0.51620700  0.64175200  1
  C  C21  1  0.71545700  0.21929300  0.09517600  1
  C  C22  1  0.28454300  0.78070700  0.90482400  1
  C  C23  1  0.71258300  0.48379300  0.35824800  1
  C  C24  1  0.73025800  0.84027000  0.22862000  1
  C  C25  1  0.71553900  0.09852000  0.48518100  1
  C  C26  1  0.70677400  0.71838000  0.58776900  1
  C  C27  1  0.72494900  0.34530400  0.71247600  1
  C  C28  1  0.72422100  0.58621400  0.98187600  1
  C  C29  1  0.72335400  0.97819000  0.84851200  1
