# generated using pymatgen
data_Cu11(NiC17)2
_symmetry_space_group_name_H-M   'P 1'
_cell_length_a   7.22794785
_cell_length_b   7.22794785
_cell_length_c   20.89997360
_cell_angle_alpha   86.58798088
_cell_angle_beta   86.58798088
_cell_angle_gamma   78.97739686
_symmetry_Int_Tables_number   1
_chemical_formula_structural   Cu11(NiC17)2
_chemical_formula_sum   'Cu22 Ni4 C68'
_cell_volume   1068.54724237
_cell_formula_units_Z   2
loop_
 _symmetry_equiv_pos_site_id
 _symmetry_equiv_pos_as_xyz
  1  'x, y, z'
loop_
 _atom_site_type_symbol
 _atom_site_label
 _atom_site_symmetry_multiplicity
 _atom_site_fract_x
 _atom_site_fract_y
 _atom_site_fract_z
 _atom_site_occupancy
  C  C0  1  0.63862400  0.36137600  0.75000000  1
  C  C1  1  0.36137600  0.63862400  0.25000000  1
  C  C2  1  0.46798900  0.99211900  0.78227000  1
  C  C3  1  0.00788100  0.53201100  0.71773000  1
  C  C4  1  0.53201100  0.00788100  0.21773000  1
  C  C5  1  0.99211900  0.46798900  0.28227000  1
  C  C6  1  0.28127200  0.14599900  0.77745800  1
  C  C7  1  0.85400100  0.71872800  0.72254200  1
  C  C8  1  0.71872800  0.85400100  0.22254200  1
  C  C9  1  0.14599900  0.28127200  0.27745800  1
  C  C10  1  0.10433700  0.31979000  0.41343900  1
  C  C11  1  0.68021000  0.89566300  0.08656100  1
  C  C12  1  0.89566300  0.68021000  0.58656100  1
  C  C13  1  0.31979000  0.10433700  0.91343900  1
  C  C14  1  0.95983300  0.28334300  0.48043100  1
  C  C15  1  0.71665700  0.04016700  0.01956900  1
  C  C16  1  0.04016700  0.71665700  0.51956900  1
  C  C17  1  0.28334300  0.95983300  0.98043100  1
  C  C18  1  0.53111800  0.20549800  0.49799500  1
  C  C19  1  0.79450200  0.46888200  0.00200500  1
  C  C20  1  0.46888200  0.79450200  0.50200500  1
  C  C21  1  0.20549800  0.53111800  0.99799500  1
  C  C22  1  0.43707900  0.27273900  0.42306700  1
  C  C23  1  0.72726100  0.56292100  0.07693300  1
  C  C24  1  0.56292100  0.72726100  0.57693300  1
  C  C25  1  0.27273900  0.43707900  0.92306700  1
  C  C26  1  0.33296300  0.16956300  0.58763600  1
  C  C27  1  0.83043700  0.66703700  0.91236400  1
  C  C28  1  0.66703700  0.83043700  0.41236400  1
  C  C29  1  0.16956300  0.33296300  0.08763600  1
  C  C30  1  0.08767100  0.20905000  0.58156700  1
  C  C31  1  0.79095000  0.91232900  0.91843300  1
  C  C32  1  0.91232900  0.79095000  0.41843300  1
  C  C33  1  0.20905000  0.08767100  0.08156700  1
  Ni  Ni34  1  0.24253900  0.23864100  0.49701100  1
  Ni  Ni35  1  0.76135900  0.75746100  0.00298900  1
  Ni  Ni36  1  0.75746100  0.76135900  0.50298900  1
  Ni  Ni37  1  0.23864100  0.24253900  0.99701100  1
  Cu  Cu38  1  0.09151600  0.28799400  0.46115200  1
  Cu  Cu39  1  0.71200600  0.90848400  0.03884800  1
  Cu  Cu40  1  0.90848400  0.71200600  0.53884800  1
  Cu  Cu41  1  0.28799400  0.09151600  0.96115200  1
  Cu  Cu42  1  0.41580200  0.23297600  0.47025000  1
  Cu  Cu43  1  0.76702400  0.58419800  0.02975000  1
  Cu  Cu44  1  0.58419800  0.76702400  0.52975000  1
  Cu  Cu45  1  0.23297600  0.41580200  0.97025000  1
  Cu  Cu46  1  0.21892700  0.19356900  0.55960300  1
  Cu  Cu47  1  0.80643100  0.78107300  0.94039700  1
  Cu  Cu48  1  0.78107300  0.80643100  0.44039700  1
  Cu  Cu49  1  0.19356900  0.21892700  0.05960300  1
  Cu  Cu50  1  0.98120500  0.01879500  0.75000000  1
  Cu  Cu51  1  0.01879500  0.98120500  0.25000000  1
  Cu  Cu52  1  0.33954400  0.59488800  0.66006300  1
  Cu  Cu53  1  0.40511200  0.66045600  0.83993700  1
  Cu  Cu54  1  0.66045600  0.40511200  0.33993700  1
  Cu  Cu55  1  0.59488800  0.33954400  0.16006300  1
  Cu  Cu56  1  0.72105000  0.22883300  0.60483600  1
  Cu  Cu57  1  0.77116700  0.27895000  0.89516400  1
  Cu  Cu58  1  0.27895000  0.77116700  0.39516400  1
  Cu  Cu59  1  0.22883300  0.72105000  0.10483600  1
  C  C60  1  0.81440100  0.99853500  0.73718200  1
  C  C61  1  0.00146500  0.18559900  0.76281800  1
  C  C62  1  0.18559900  0.00146500  0.26281800  1
  C  C63  1  0.99853500  0.81440100  0.23718200  1
  C  C64  1  0.11544400  0.88455600  0.75000000  1
  C  C65  1  0.88455600  0.11544400  0.25000000  1
  C  C66  1  0.51484400  0.61104300  0.65824500  1
  C  C67  1  0.38895700  0.48515600  0.84175500  1
  C  C68  1  0.48515600  0.38895700  0.34175500  1
  C  C69  1  0.61104300  0.51484400  0.15824500  1
  C  C70  1  0.28708500  0.48555400  0.70504000  1
  C  C71  1  0.51444600  0.71291500  0.79496000  1
  C  C72  1  0.71291500  0.51444600  0.29496000  1
  C  C73  1  0.48555400  0.28708500  0.20504000  1
  C  C74  1  0.23149100  0.68010200  0.61993000  1
  C  C75  1  0.31989800  0.76850900  0.88007000  1
  C  C76  1  0.76850900  0.31989800  0.38007000  1
  C  C77  1  0.68010200  0.23149100  0.11993000  1
  C  C78  1  0.84461900  0.28877500  0.63481100  1
  C  C79  1  0.71122500  0.15538100  0.86518900  1
  C  C80  1  0.15538100  0.71122500  0.36518900  1
  C  C81  1  0.28877500  0.84461900  0.13481100  1
  C  C82  1  0.56835100  0.20846900  0.63559700  1
  C  C83  1  0.79153100  0.43164900  0.86440300  1
  C  C84  1  0.43164900  0.79153100  0.36440300  1
  C  C85  1  0.20846900  0.56835100  0.13559700  1
  C  C86  1  0.75034700  0.19204500  0.54662600  1
  C  C87  1  0.80795500  0.24965300  0.95337400  1
  C  C88  1  0.24965300  0.80795500  0.45337400  1
  C  C89  1  0.19204500  0.75034700  0.04662600  1
  C  C90  1  0.41900600  0.12881100  0.78018200  1
  C  C91  1  0.87118900  0.58099400  0.71981800  1
  C  C92  1  0.58099400  0.87118900  0.21981800  1
  C  C93  1  0.12881100  0.41900600  0.28018200  1
