# generated using pymatgen
data_Cu(NiC4)5
_symmetry_space_group_name_H-M   'P 1'
_cell_length_a   6.81677400
_cell_length_b   8.96649388
_cell_length_c   10.33163327
_cell_angle_alpha   90.21896242
_cell_angle_beta   90.11111302
_cell_angle_gamma   90.29750635
_symmetry_Int_Tables_number   1
_chemical_formula_structural   Cu(NiC4)5
_chemical_formula_sum   'Cu2 Ni10 C40'
_cell_volume   631.48156229
_cell_formula_units_Z   2
loop_
 _symmetry_equiv_pos_site_id
 _symmetry_equiv_pos_as_xyz
  1  'x, y, z'
loop_
 _atom_site_type_symbol
 _atom_site_label
 _atom_site_symmetry_multiplicity
 _atom_site_fract_x
 _atom_site_fract_y
 _atom_site_fract_z
 _atom_site_occupancy
  Ni  Ni0  1  0.25234900  0.08307200  0.12128800  1
  Ni  Ni1  1  0.25190600  0.08372500  0.61888100  1
  Ni  Ni2  1  0.00129000  0.25760600  0.37599600  1
  Ni  Ni3  1  0.00176700  0.25958200  0.87629600  1
  Ni  Ni4  1  0.49834200  0.25913100  0.87640700  1
  Ni  Ni5  1  0.50180100  0.74184600  0.12489300  1
  Ni  Ni6  1  0.99831600  0.74145100  0.12471000  1
  Ni  Ni7  1  0.50190800  0.74114600  0.62296100  1
  Ni  Ni8  1  0.99822400  0.74104200  0.62260900  1
  Ni  Ni9  1  0.75029800  0.91676700  0.87940100  1
  Cu  Cu10  1  0.49073700  0.26665000  0.37955600  1
  Cu  Cu11  1  0.74592000  0.91785500  0.37784100  1
  C  C12  1  0.74902200  0.36062600  0.11318700  1
  C  C13  1  0.74768500  0.36035300  0.60883400  1
  C  C14  1  0.24968400  0.63990700  0.38793800  1
  C  C15  1  0.25013200  0.63787500  0.88960000  1
  C  C16  1  0.25310000  0.40927200  0.15048600  1
  C  C17  1  0.24978400  0.41050300  0.64625800  1
  C  C18  1  0.74630400  0.59145900  0.35054500  1
  C  C19  1  0.75002300  0.58845800  0.85128500  1
  C  C20  1  0.74832400  0.05938400  0.13788000  1
  C  C21  1  0.74917200  0.05536600  0.62755000  1
  C  C22  1  0.25610000  0.94394100  0.36840300  1
  C  C23  1  0.25006700  0.93985200  0.86784700  1
  C  C24  1  0.26764400  0.08854200  0.35880600  1
  C  C25  1  0.24911600  0.08395700  0.85717000  1
  C  C26  1  0.74962400  0.11759600  0.02240400  1
  C  C27  1  0.74842200  0.10889500  0.51060800  1
  C  C28  1  0.74485900  0.14653700  0.23889200  1
  C  C29  1  0.74815300  0.14585200  0.72732100  1
  C  C30  1  0.06709900  0.31808200  0.11123000  1
  C  C31  1  0.43350500  0.31810100  0.10485000  1
  C  C32  1  0.06476900  0.31870900  0.60621100  1
  C  C33  1  0.43120700  0.31832300  0.60182600  1
  C  C34  1  0.26201600  0.42419500  0.30184400  1
  C  C35  1  0.73656700  0.43153500  0.40956600  1
  C  C36  1  0.25289000  0.42741100  0.79707100  1
  C  C37  1  0.75041500  0.43071500  0.91242500  1
  C  C38  1  0.25016700  0.56810800  0.09122800  1
  C  C39  1  0.74871600  0.57292000  0.20018000  1
  C  C40  1  0.24984500  0.56894200  0.58680800  1
  C  C41  1  0.74940300  0.57020800  0.70070700  1
  C  C42  1  0.56797800  0.68943800  0.39063500  1
  C  C43  1  0.93166300  0.68143800  0.39317900  1
  C  C44  1  0.56735600  0.68071200  0.89244400  1
  C  C45  1  0.93364600  0.68125800  0.89249500  1
  C  C46  1  0.24966600  0.86022900  0.26486400  1
  C  C47  1  0.25044100  0.85543800  0.76487200  1
  C  C48  1  0.25014100  0.88017700  0.48119500  1
  C  C49  1  0.25074400  0.87766000  0.98150000  1
  C  C50  1  0.75082200  0.91563300  0.15350200  1
  C  C51  1  0.75086400  0.91251900  0.64551900  1
