# generated using pymatgen
data_Cu2NiC6
_symmetry_space_group_name_H-M   'P 1'
_cell_length_a   8.08043707
_cell_length_b   8.08043707
_cell_length_c   9.77355700
_cell_angle_alpha   90.00000000
_cell_angle_beta   90.00000000
_cell_angle_gamma   90.15680372
_symmetry_Int_Tables_number   1
_chemical_formula_structural   Cu2NiC6
_chemical_formula_sum   'Cu8 Ni4 C24'
_cell_volume   638.14699542
_cell_formula_units_Z   4
loop_
 _symmetry_equiv_pos_site_id
 _symmetry_equiv_pos_as_xyz
  1  'x, y, z'
loop_
 _atom_site_type_symbol
 _atom_site_label
 _atom_site_symmetry_multiplicity
 _atom_site_fract_x
 _atom_site_fract_y
 _atom_site_fract_z
 _atom_site_occupancy
  Ni  Ni0  1  0.18905000  0.64654400  0.49142500  1
  Ni  Ni1  1  0.64654400  0.18905000  0.50857500  1
  Ni  Ni2  1  0.35345600  0.81095000  0.00857500  1
  Ni  Ni3  1  0.81095000  0.35345600  0.99142500  1
  Cu  Cu4  1  0.11772200  0.34013100  0.23813100  1
  Cu  Cu5  1  0.34013100  0.11772200  0.76186900  1
  Cu  Cu6  1  0.35223400  0.35223400  0.00000000  1
  Cu  Cu7  1  0.97159900  0.02840100  0.75000000  1
  Cu  Cu8  1  0.02840100  0.97159900  0.25000000  1
  Cu  Cu9  1  0.64776600  0.64776600  0.50000000  1
  Cu  Cu10  1  0.88227800  0.65986900  0.73813200  1
  Cu  Cu11  1  0.65986900  0.88227800  0.26186900  1
  C  C12  1  0.03766000  0.16786200  0.28674100  1
  C  C13  1  0.16786200  0.03766000  0.71325900  1
  C  C14  1  0.21007900  0.41422500  0.35852800  1
  C  C15  1  0.41422500  0.21007900  0.64147200  1
  C  C16  1  0.25075500  0.27521900  0.12711900  1
  C  C17  1  0.27521900  0.25075500  0.87288100  1
  C  C18  1  0.01289000  0.55330000  0.67339300  1
  C  C19  1  0.55330000  0.01289000  0.32660700  1
  C  C20  1  0.87733000  0.06442800  0.62136300  1
  C  C21  1  0.06442800  0.87733000  0.37863700  1
  C  C22  1  0.53027400  0.30514000  0.01976100  1
  C  C23  1  0.30514000  0.53027400  0.98023900  1
  C  C24  1  0.46972600  0.69486000  0.51976100  1
  C  C25  1  0.69486000  0.46972600  0.48023900  1
  C  C26  1  0.93557200  0.12267000  0.87863700  1
  C  C27  1  0.12267000  0.93557200  0.12136300  1
  C  C28  1  0.44670000  0.98711000  0.82660700  1
  C  C29  1  0.98711000  0.44670000  0.17339300  1
  C  C30  1  0.74924500  0.72478100  0.62711900  1
  C  C31  1  0.72478100  0.74924500  0.37288100  1
  C  C32  1  0.78992100  0.58577500  0.85852800  1
  C  C33  1  0.58577500  0.78992100  0.14147200  1
  C  C34  1  0.83213800  0.96234000  0.21325900  1
  C  C35  1  0.96234000  0.83213800  0.78674100  1
