# generated using pymatgen
data_CuNiC6
_symmetry_space_group_name_H-M   'P 1'
_cell_length_a   8.36766000
_cell_length_b   10.37580448
_cell_length_c   11.05648385
_cell_angle_alpha   78.96062043
_cell_angle_beta   68.54338606
_cell_angle_gamma   67.59756740
_symmetry_Int_Tables_number   1
_chemical_formula_structural   CuNiC6
_chemical_formula_sum   'Cu8 Ni8 C48'
_cell_volume   824.46888913
_cell_formula_units_Z   8
loop_
 _symmetry_equiv_pos_site_id
 _symmetry_equiv_pos_as_xyz
  1  'x, y, z'
loop_
 _atom_site_type_symbol
 _atom_site_label
 _atom_site_symmetry_multiplicity
 _atom_site_fract_x
 _atom_site_fract_y
 _atom_site_fract_z
 _atom_site_occupancy
  C  C0  1  0.98572900  0.92190200  0.73928600  1
  C  C1  1  0.76520200  0.81984300  0.01730000  1
  C  C2  1  0.22881300  0.27376600  0.64764300  1
  C  C3  1  0.45810000  0.42041600  0.26909100  1
  C  C4  1  0.47188100  0.52815800  0.90956600  1
  C  C5  1  0.71999100  0.66637100  0.50903000  1
  C  C6  1  0.98401600  0.02209600  0.39887300  1
  C  C7  1  0.20691300  0.17067900  0.02170000  1
  Ni  Ni8  1  0.00021900  0.99702000  0.01005200  1
  Ni  Ni9  1  0.49087500  0.50027400  0.50927300  1
  Ni  Ni10  1  0.74442300  0.74607500  0.75217600  1
  Ni  Ni11  1  0.62533200  0.12452200  0.62744700  1
  Ni  Ni12  1  0.87304400  0.37386200  0.87961800  1
  Ni  Ni13  1  0.11393600  0.62437100  0.13256100  1
  Ni  Ni14  1  0.38325600  0.87284600  0.37304300  1
  Ni  Ni15  1  0.24512300  0.24689300  0.25968900  1
  Cu  Cu16  1  0.60295600  0.17521100  0.92864800  1
  Cu  Cu17  1  0.14419900  0.57307400  0.81974200  1
  Cu  Cu18  1  0.10144100  0.68560000  0.42486900  1
  Cu  Cu19  1  0.35321500  0.93167400  0.67254300  1
  Cu  Cu20  1  0.65267800  0.07197600  0.31949200  1
  Cu  Cu21  1  0.89992600  0.31978900  0.56914700  1
  Cu  Cu22  1  0.85284400  0.42789500  0.17848200  1
  Cu  Cu23  1  0.39971000  0.81625300  0.07133900  1
  C  C24  1  0.64667500  0.30539100  0.94539700  1
  C  C25  1  0.20978000  0.54224700  0.94269000  1
  C  C26  1  0.77032900  0.03909300  0.92131600  1
  C  C27  1  0.30329700  0.58917200  0.70011600  1
  C  C28  1  0.97319400  0.70865000  0.83745000  1
  C  C29  1  0.55364700  0.20876500  0.79959400  1
  C  C30  1  0.78285600  0.94963600  0.67877100  1
  C  C31  1  0.57392900  0.82209500  0.95767900  1
  C  C32  1  0.14092200  0.81698700  0.44233700  1
  C  C33  1  0.09721400  0.44609900  0.80057300  1
  C  C34  1  0.46339600  0.29597600  0.57635900  1
  C  C35  1  0.27449900  0.55534300  0.41023100  1
  C  C36  1  0.93639800  0.66919000  0.54047800  1
  C  C37  1  0.03675300  0.20184500  0.92728800  1
  C  C38  1  0.70994800  0.54245200  0.82446800  1
  C  C39  1  0.39258600  0.06499300  0.68683500  1
  C  C40  1  0.52987600  0.80285300  0.65710300  1
  C  C41  1  0.71998300  0.04453200  0.44242000  1
  C  C42  1  0.19091700  0.91600800  0.78842300  1
  C  C43  1  0.04138800  0.71832000  0.30023000  1
  C  C44  1  0.96305800  0.29160100  0.69347600  1
  C  C45  1  0.82081000  0.07814600  0.20221400  1
  C  C46  1  0.29199700  0.96120000  0.54897400  1
  C  C47  1  0.48784800  0.20820900  0.33007700  1
  C  C48  1  0.60199500  0.94459900  0.30931000  1
  C  C49  1  0.28181200  0.45368800  0.17870600  1
  C  C50  1  0.96470800  0.79641100  0.07142200  1
  C  C51  1  0.06769200  0.32757000  0.45279400  1
  C  C52  1  0.73443000  0.45539400  0.57844700  1
  C  C53  1  0.53063600  0.69984700  0.43323100  1
  C  C54  1  0.89443600  0.55609600  0.20037500  1
  C  C55  1  0.85381100  0.19017900  0.55468000  1
  C  C56  1  0.43278600  0.16561900  0.04018900  1
  C  C57  1  0.21913100  0.04332100  0.31968500  1
  C  C58  1  0.45634700  0.78563100  0.19738700  1
  C  C59  1  0.02572100  0.29583600  0.16502000  1
  C  C60  1  0.68597400  0.41269200  0.29048600  1
  C  C61  1  0.24057200  0.95597400  0.07484600  1
  C  C62  1  0.80117200  0.46352700  0.04966500  1
  C  C63  1  0.34785700  0.69322300  0.05126200  1
