# generated using pymatgen
data_CuNi11C60
_symmetry_space_group_name_H-M   'P 1'
_cell_length_a   8.66795111
_cell_length_b   8.66795111
_cell_length_c   11.66429451
_cell_angle_alpha   60.48697163
_cell_angle_beta   60.48697163
_cell_angle_gamma   59.82775144
_symmetry_Int_Tables_number   1
_chemical_formula_structural   CuNi11C60
_chemical_formula_sum   'Cu1 Ni11 C60'
_cell_volume   623.38658834
_cell_formula_units_Z   1
loop_
 _symmetry_equiv_pos_site_id
 _symmetry_equiv_pos_as_xyz
  1  'x, y, z'
loop_
 _atom_site_type_symbol
 _atom_site_label
 _atom_site_symmetry_multiplicity
 _atom_site_fract_x
 _atom_site_fract_y
 _atom_site_fract_z
 _atom_site_occupancy
  C  C0  1  0.99116100  0.00449700  0.25246800  1
  C  C1  1  0.99740500  0.33360000  0.99966100  1
  C  C2  1  0.66734000  0.99988000  0.75013800  1
  C  C3  1  0.66035500  0.66960400  0.74968100  1
  C  C4  1  0.66491200  0.99909800  0.50217000  1
  C  C5  1  0.33039600  0.33964500  0.25031900  1
  C  C6  1  0.67382700  0.32779600  0.24818700  1
  C  C7  1  0.66270500  0.00331400  0.25166500  1
  C  C8  1  0.33283400  0.66716600  0.00000000  1
  C  C9  1  0.33775300  0.99628100  0.75148000  1
  C  C10  1  0.33452800  0.66601300  0.75169700  1
  C  C11  1  0.32845700  0.33640800  0.75093200  1
  C  C12  1  0.33398700  0.66547200  0.24830300  1
  C  C13  1  0.00512800  0.66335900  0.74908200  1
  C  C14  1  0.99668600  0.33729500  0.74833500  1
  C  C15  1  0.99550300  0.00883900  0.74753200  1
  C  C16  1  0.00090200  0.33508800  0.49783000  1
  C  C17  1  0.66359200  0.67154300  0.24906800  1
  C  C18  1  0.00371900  0.66224700  0.24852000  1
  C  C19  1  0.00012000  0.33266000  0.24986200  1
  C  C20  1  0.66640000  0.00259500  0.00033900  1
  C  C21  1  0.67220400  0.32617300  0.75181300  1
  C  C22  1  0.33017700  0.66982300  0.50000000  1
  C  C23  1  0.33664100  0.99487200  0.25091800  1
  Ni  Ni24  1  0.66537800  0.66664900  0.00007500  1
  Ni  Ni25  1  0.66510400  0.33489600  0.00000000  1
  Ni  Ni26  1  0.33088700  0.00080200  0.00101300  1
  Ni  Ni27  1  0.33335100  0.33462200  0.99992500  1
  Ni  Ni28  1  0.33088000  0.33139700  0.50253200  1
  Ni  Ni29  1  0.33138800  0.00115200  0.50046600  1
  Ni  Ni30  1  0.99940400  0.00059600  0.00000000  1
  Ni  Ni31  1  0.99919800  0.66911300  0.99898700  1
  Ni  Ni32  1  0.99884800  0.66861200  0.49953400  1
  Ni  Ni33  1  0.99970100  0.00029900  0.50000000  1
  Ni  Ni34  1  0.66860300  0.66912000  0.49746800  1
  Cu  Cu35  1  0.66195000  0.33805000  0.50000000  1
  C  C36  1  0.82833700  0.16440000  0.11408200  1
  C  C37  1  0.80902200  0.50296500  0.88790300  1
  C  C38  1  0.85462000  0.83221100  0.61159600  1
  C  C39  1  0.52046200  0.49816800  0.11215500  1
  C  C40  1  0.83779100  0.17019500  0.38550100  1
  C  C41  1  0.49703500  0.19097700  0.11209700  1
  C  C42  1  0.50104400  0.83726200  0.88703100  1
  C  C43  1  0.50183200  0.47953800  0.88784500  1
  C  C44  1  0.49355400  0.18655100  0.61424600  1
  C  C45  1  0.49594100  0.83067800  0.61424800  1
  C  C46  1  0.18702600  0.16528500  0.11256200  1
  C  C47  1  0.50312800  0.47373500  0.38900400  1
  C  C48  1  0.16286600  0.85582600  0.11273600  1
  C  C49  1  0.16273800  0.49895600  0.11296900  1
  C  C50  1  0.47573600  0.16961600  0.38894400  1
  C  C51  1  0.16600200  0.14531600  0.88914600  1
  C  C52  1  0.16784400  0.50413400  0.88660700  1
  C  C53  1  0.14417400  0.83713400  0.88726400  1
  C  C54  1  0.18559500  0.16503600  0.61288300  1
  C  C55  1  0.16232000  0.49721000  0.61523400  1
  C  C56  1  0.16511600  0.85453300  0.61200700  1
  C  C57  1  0.85468400  0.83399800  0.11085400  1
  C  C58  1  0.16932200  0.50405900  0.38575200  1
  C  C59  1  0.16778900  0.14538000  0.38840400  1
  C  C60  1  0.83031900  0.52123200  0.11213900  1
  C  C61  1  0.14546700  0.83488400  0.38799300  1
  C  C62  1  0.83560000  0.17166300  0.88591800  1
  C  C63  1  0.83471500  0.81297400  0.88743800  1
  C  C64  1  0.83038400  0.52426400  0.61105600  1
  C  C65  1  0.82980500  0.16220900  0.61449900  1
  C  C66  1  0.83496400  0.81440500  0.38711700  1
  C  C67  1  0.49586600  0.83215600  0.11339300  1
  C  C68  1  0.81344900  0.50644600  0.38575400  1
  C  C69  1  0.47876800  0.16968100  0.88786100  1
  C  C70  1  0.52626500  0.49687200  0.61099600  1
  C  C71  1  0.50279000  0.83768000  0.38476600  1
