# generated using pymatgen
data_CuNiC4
_symmetry_space_group_name_H-M   'P 1'
_cell_length_a   7.99805358
_cell_length_b   10.40199213
_cell_length_c   15.01925510
_cell_angle_alpha   105.92633645
_cell_angle_beta   93.28517629
_cell_angle_gamma   79.61997241
_symmetry_Int_Tables_number   1
_chemical_formula_structural   CuNiC4
_chemical_formula_sum   'Cu16 Ni16 C64'
_cell_volume   1181.86874165
_cell_formula_units_Z   16
loop_
 _symmetry_equiv_pos_site_id
 _symmetry_equiv_pos_as_xyz
  1  'x, y, z'
loop_
 _atom_site_type_symbol
 _atom_site_label
 _atom_site_symmetry_multiplicity
 _atom_site_fract_x
 _atom_site_fract_y
 _atom_site_fract_z
 _atom_site_occupancy
  C  C0  1  0.00000300  0.24996400  0.74999000  1
  C  C1  1  0.99999700  0.49999800  0.49999100  1
  C  C2  1  0.00002300  0.99995600  0.00000600  1
  C  C3  1  0.99999100  0.75002200  0.25001000  1
  C  C4  1  0.00012400  0.62505100  0.87498700  1
  C  C5  1  0.99987600  0.87507800  0.62497600  1
  C  C6  1  0.99989600  0.37514300  0.12500700  1
  C  C7  1  0.00001300  0.12494200  0.37489900  1
  Ni  Ni8  1  0.31902600  0.50223700  0.72873300  1
  Ni  Ni9  1  0.31903500  0.75226700  0.47873600  1
  Ni  Ni10  1  0.31898400  0.25224300  0.97873700  1
  Ni  Ni11  1  0.31905300  0.00229700  0.22871600  1
  Ni  Ni12  1  0.68095300  0.99768800  0.77124800  1
  Ni  Ni13  1  0.68098100  0.24775200  0.52125800  1
  Ni  Ni14  1  0.68102900  0.74772700  0.02128500  1
  Ni  Ni15  1  0.68096800  0.49774700  0.27128800  1
  Ni  Ni16  1  0.23185900  0.80261200  0.79957300  1
  Ni  Ni17  1  0.23183200  0.05267400  0.54957000  1
  Ni  Ni18  1  0.23184900  0.55260700  0.04958400  1
  Ni  Ni19  1  0.23183300  0.30271500  0.29954300  1
  Ni  Ni20  1  0.76823400  0.69728700  0.70042200  1
  Ni  Ni21  1  0.76818900  0.94734800  0.45042700  1
  Ni  Ni22  1  0.76817200  0.44732100  0.95040500  1
  Ni  Ni23  1  0.76811200  0.19737100  0.20042100  1
  Cu  Cu24  1  0.41801600  0.85859800  0.91762300  1
  Cu  Cu25  1  0.41807900  0.10854200  0.66763600  1
  Cu  Cu26  1  0.41804500  0.60856700  0.16763400  1
  Cu  Cu27  1  0.41802500  0.35860300  0.41760000  1
  Cu  Cu28  1  0.58198400  0.64142800  0.58239400  1
  Cu  Cu29  1  0.58198400  0.89146700  0.33239000  1
  Cu  Cu30  1  0.58189100  0.39145000  0.83234900  1
  Cu  Cu31  1  0.58196100  0.14141600  0.08238500  1
  Cu  Cu32  1  0.38328400  0.42133300  0.57939300  1
  Cu  Cu33  1  0.38329500  0.67132800  0.32937700  1
  Cu  Cu34  1  0.38327300  0.17133100  0.82939400  1
  Cu  Cu35  1  0.38331400  0.92133500  0.07938200  1
  Cu  Cu36  1  0.61670600  0.07868200  0.92060600  1
  Cu  Cu37  1  0.61671900  0.32868600  0.67060700  1
  Cu  Cu38  1  0.61671300  0.82869000  0.17061400  1
  Cu  Cu39  1  0.61671500  0.57868500  0.42061800  1
  C  C40  1  0.15828900  0.49392200  0.77482100  1
  C  C41  1  0.15832100  0.74392200  0.52485400  1
  C  C42  1  0.15820700  0.24394600  0.02481300  1
  C  C43  1  0.15826700  0.99394300  0.27479000  1
  C  C44  1  0.84171300  0.00607700  0.72520300  1
  C  C45  1  0.84172300  0.25605700  0.47516000  1
  C  C46  1  0.84174800  0.75605900  0.97519600  1
  C  C47  1  0.84173300  0.50607700  0.22520100  1
  C  C48  1  0.48251800  0.41391500  0.74670500  1
  C  C49  1  0.48255900  0.66396000  0.49668200  1
  C  C50  1  0.48252000  0.16395400  0.99670000  1
  C  C51  1  0.48253600  0.91397800  0.24669700  1
  C  C52  1  0.51737000  0.08589800  0.75324400  1
  C  C53  1  0.51747200  0.33607500  0.50329300  1
  C  C54  1  0.51760700  0.83619500  0.00341500  1
  C  C55  1  0.51755200  0.58620100  0.25337400  1
  C  C56  1  0.08093200  0.78364900  0.84987000  1
  C  C57  1  0.08090800  0.03359900  0.59981600  1
  C  C58  1  0.08089400  0.53361100  0.09983000  1
  C  C59  1  0.08097500  0.28364000  0.34985900  1
  C  C60  1  0.91909200  0.71633200  0.65013400  1
  C  C61  1  0.91911200  0.96639400  0.40018100  1
  C  C62  1  0.91908500  0.46641800  0.90019100  1
  C  C63  1  0.91904100  0.21637700  0.15013500  1
  C  C64  1  0.81393800  0.63380800  0.77975800  1
  C  C65  1  0.81404500  0.88372000  0.52969600  1
  C  C66  1  0.81402900  0.38372100  0.02970400  1
  C  C67  1  0.81381500  0.13393100  0.27976600  1
  C  C68  1  0.18609300  0.86603200  0.72023300  1
  C  C69  1  0.18593500  0.11626000  0.47028300  1
  C  C70  1  0.18600800  0.61607900  0.97027100  1
  C  C71  1  0.18604100  0.36625500  0.22024400  1
  C  C72  1  0.35309300  0.65730400  0.76406600  1
  C  C73  1  0.35309400  0.90738100  0.51402300  1
  C  C74  1  0.35307200  0.40736300  0.01403800  1
  C  C75  1  0.35307700  0.15741600  0.26401700  1
  C  C76  1  0.64699700  0.84252700  0.73597400  1
  C  C77  1  0.64691800  0.09260900  0.48598100  1
  C  C78  1  0.64689500  0.59262800  0.98598500  1
  C  C79  1  0.64687700  0.34269700  0.23595600  1
  C  C80  1  0.34366200  0.89408500  0.86832500  1
  C  C81  1  0.34371000  0.14407500  0.61831400  1
  C  C82  1  0.34364800  0.64409200  0.11833500  1
  C  C83  1  0.34368600  0.39414000  0.36829700  1
  C  C84  1  0.65633000  0.60587500  0.63168600  1
  C  C85  1  0.65635700  0.85591500  0.38168100  1
  C  C86  1  0.65625200  0.35592700  0.88168300  1
  C  C87  1  0.65629300  0.10588400  0.13169100  1
  C  C88  1  0.28326000  0.47426200  0.62148400  1
  C  C89  1  0.28324800  0.72426500  0.37148100  1
  C  C90  1  0.28326500  0.22425800  0.87148000  1
  C  C91  1  0.28325000  0.97425600  0.12147600  1
  C  C92  1  0.71669500  0.02572200  0.87851200  1
  C  C93  1  0.71671600  0.27571500  0.62851600  1
  C  C94  1  0.71675500  0.77569500  0.12853700  1
  C  C95  1  0.71673100  0.52571300  0.37853100  1
