# generated using pymatgen
data_Cu9Ni11C10
_symmetry_space_group_name_H-M   'P 1'
_cell_length_a   4.72831500
_cell_length_b   4.74058629
_cell_length_c   15.37061859
_cell_angle_alpha   89.83823757
_cell_angle_beta   89.86416924
_cell_angle_gamma   87.76251332
_symmetry_Int_Tables_number   1
_chemical_formula_structural   Cu9Ni11C10
_chemical_formula_sum   'Cu9 Ni11 C10'
_cell_volume   344.26725997
_cell_formula_units_Z   1
loop_
 _symmetry_equiv_pos_site_id
 _symmetry_equiv_pos_as_xyz
  1  'x, y, z'
loop_
 _atom_site_type_symbol
 _atom_site_label
 _atom_site_symmetry_multiplicity
 _atom_site_fract_x
 _atom_site_fract_y
 _atom_site_fract_z
 _atom_site_occupancy
  C  C0  1  0.98018900  0.02311100  0.00014400  1
  C  C1  1  0.01455000  0.99914600  0.80296300  1
  C  C2  1  0.99711500  0.98532000  0.59661600  1
  C  C3  1  0.95854000  0.99778400  0.39995800  1
  C  C4  1  0.95879100  0.99308400  0.19990300  1
  C  C5  1  0.48085700  0.45598900  0.89187200  1
  C  C6  1  0.53320200  0.51088800  0.50808800  1
  C  C7  1  0.50273700  0.49545000  0.69993100  1
  C  C8  1  0.53987300  0.49747500  0.30241300  1
  C  C9  1  0.54675000  0.51099800  0.09739600  1
  Ni  Ni10  1  0.81097700  0.80992900  0.50257600  1
  Ni  Ni11  1  0.80137800  0.80959300  0.30075600  1
  Ni  Ni12  1  0.80923400  0.81661000  0.09694800  1
  Ni  Ni13  1  0.68382100  0.31305400  0.99536700  1
  Ni  Ni14  1  0.69564500  0.29392300  0.79190000  1
  Ni  Ni15  1  0.70083500  0.30101000  0.60784300  1
  Ni  Ni16  1  0.69168100  0.31557900  0.40503200  1
  Ni  Ni17  1  0.69548600  0.31612500  0.19953700  1
  Ni  Ni18  1  0.30604500  0.68287100  0.79363300  1
  Ni  Ni19  1  0.31112600  0.69037700  0.60655100  1
  Ni  Ni20  1  0.18364100  0.17996800  0.89928000  1
  Cu  Cu21  1  0.79688100  0.79793800  0.89798900  1
  Cu  Cu22  1  0.81450100  0.80283900  0.70137800  1
  Cu  Cu23  1  0.29544900  0.69938400  0.99834700  1
  Cu  Cu24  1  0.30136100  0.70607500  0.40237700  1
  Cu  Cu25  1  0.30414600  0.70819800  0.19992200  1
  Cu  Cu26  1  0.19902000  0.19723200  0.50066300  1
  Cu  Cu27  1  0.19443400  0.18229200  0.69814400  1
  Cu  Cu28  1  0.19626700  0.20673700  0.10035500  1
  Cu  Cu29  1  0.19546900  0.20102000  0.30212000  1
