# generated using pymatgen
data_Cu3NiC38
_symmetry_space_group_name_H-M   'P 1'
_cell_length_a   8.79108354
_cell_length_b   8.79108354
_cell_length_c   8.79108380
_cell_angle_alpha   60.66071940
_cell_angle_beta   60.66071940
_cell_angle_gamma   60.66072354
_symmetry_Int_Tables_number   1
_chemical_formula_structural   Cu3NiC38
_chemical_formula_sum   'Cu3 Ni1 C38'
_cell_volume   487.57623752
_cell_formula_units_Z   1
loop_
 _symmetry_equiv_pos_site_id
 _symmetry_equiv_pos_as_xyz
  1  'x, y, z'
loop_
 _atom_site_type_symbol
 _atom_site_label
 _atom_site_symmetry_multiplicity
 _atom_site_fract_x
 _atom_site_fract_y
 _atom_site_fract_z
 _atom_site_occupancy
  C  C0  1  0.65073900  0.31013000  0.83300900  1
  C  C1  1  0.31013000  0.83300900  0.65073900  1
  C  C2  1  0.83300900  0.65073900  0.31013000  1
  C  C3  1  0.97402600  0.97402600  0.97402600  1
  C  C4  1  0.15849200  0.33272900  0.69757600  1
  C  C5  1  0.47732100  0.47732100  0.47732100  1
  C  C6  1  0.69757600  0.15849200  0.33272900  1
  C  C7  1  0.33272900  0.69757600  0.15849200  1
  Ni  Ni8  1  0.14634500  0.14634500  0.14634500  1
  Cu  Cu9  1  0.65052700  0.65052700  0.65052700  1
  Cu  Cu10  1  0.85222600  0.85222600  0.85222600  1
  Cu  Cu11  1  0.34799400  0.34799400  0.34799400  1
  C  C12  1  0.24791300  0.55463000  0.95370000  1
  C  C13  1  0.95370000  0.24791300  0.55463000  1
  C  C14  1  0.55463000  0.95370000  0.24791300  1
  C  C15  1  0.46000300  0.04581400  0.74619600  1
  C  C16  1  0.04581400  0.74619600  0.46000300  1
  C  C17  1  0.74619600  0.46000300  0.04581400  1
  C  C18  1  0.12518200  0.27256400  0.53344000  1
  C  C19  1  0.53344000  0.12518200  0.27256400  1
  C  C20  1  0.27256400  0.53344000  0.12518200  1
  C  C21  1  0.00080900  0.17936700  0.39904400  1
  C  C22  1  0.39904400  0.00080900  0.17936700  1
  C  C23  1  0.11080100  0.75138600  0.89503200  1
  C  C24  1  0.17936700  0.39904400  0.00080900  1
  C  C25  1  0.42865500  0.53853000  0.78497400  1
  C  C26  1  0.89503200  0.11080100  0.75138600  1
  C  C27  1  0.78497400  0.42865500  0.53853000  1
  C  C28  1  0.53853000  0.78497400  0.42865500  1
  C  C29  1  0.61316800  0.01034900  0.80400000  1
  C  C30  1  0.26127900  0.10054900  0.89380900  1
  C  C31  1  0.01034900  0.80400000  0.61316800  1
  C  C32  1  0.75138600  0.89503200  0.11080100  1
  C  C33  1  0.45285300  0.22280600  0.57008200  1
  C  C34  1  0.22280600  0.57008200  0.45285300  1
  C  C35  1  0.10054900  0.89380900  0.26127900  1
  C  C36  1  0.57008200  0.45285300  0.22280600  1
  C  C37  1  0.80400000  0.61316800  0.01034900  1
  C  C38  1  0.89380900  0.26127900  0.10054900  1
  C  C39  1  0.71994000  0.46829000  0.88080400  1
  C  C40  1  0.46829000  0.88080400  0.71994000  1
  C  C41  1  0.88080400  0.71994000  0.46829000  1
