# generated using pymatgen
data_Cu8(Ni2C9)3
_symmetry_space_group_name_H-M   'P 1'
_cell_length_a   7.00158300
_cell_length_b   7.55078302
_cell_length_c   8.50755926
_cell_angle_alpha   84.74528847
_cell_angle_beta   76.60182786
_cell_angle_gamma   85.81388336
_symmetry_Int_Tables_number   1
_chemical_formula_structural   Cu8(Ni2C9)3
_chemical_formula_sum   'Cu8 Ni6 C27'
_cell_volume   435.06994195
_cell_formula_units_Z   1
loop_
 _symmetry_equiv_pos_site_id
 _symmetry_equiv_pos_as_xyz
  1  'x, y, z'
loop_
 _atom_site_type_symbol
 _atom_site_label
 _atom_site_symmetry_multiplicity
 _atom_site_fract_x
 _atom_site_fract_y
 _atom_site_fract_z
 _atom_site_occupancy
  C  C0  1  0.92975600  0.65483200  0.41424100  1
  C  C1  1  0.66993400  0.56416900  0.77210800  1
  C  C2  1  0.33006600  0.43583100  0.22789200  1
  C  C3  1  0.07024400  0.34516800  0.58575900  1
  C  C4  1  0.00000000  0.00000000  0.00000000  1
  Ni  Ni5  1  0.77911300  0.98107400  0.69577500  1
  Ni  Ni6  1  0.55974100  0.78866900  0.16509500  1
  Ni  Ni7  1  0.34106000  0.70709500  0.49234300  1
  Ni  Ni8  1  0.65894000  0.29290500  0.50765700  1
  Ni  Ni9  1  0.44025900  0.21133100  0.83490500  1
  Ni  Ni10  1  0.22088700  0.01892600  0.30422500  1
  Cu  Cu11  1  0.25953300  0.75977500  0.81010400  1
  Cu  Cu12  1  0.27554400  0.73000200  0.99165600  1
  Cu  Cu13  1  0.97968200  0.60676100  0.11201800  1
  Cu  Cu14  1  0.03487800  0.58851900  0.81285900  1
  Cu  Cu15  1  0.96512200  0.41148100  0.18714100  1
  Cu  Cu16  1  0.02031800  0.39323900  0.88798200  1
  Cu  Cu17  1  0.72445600  0.26999800  0.00834400  1
  Cu  Cu18  1  0.74046700  0.24022500  0.18989600  1
  C  C19  1  0.43674700  0.97945300  0.18525500  1
  C  C20  1  0.24565000  0.90827400  0.47228000  1
  C  C21  1  0.80103000  0.78815000  0.66564500  1
  C  C22  1  0.06763100  0.93410100  0.24114800  1
  C  C23  1  0.77013700  0.82210300  0.09188400  1
  C  C24  1  0.17907700  0.76806000  0.92363500  1
  C  C25  1  0.54560600  0.71859100  0.35447400  1
  C  C26  1  0.39680500  0.68169800  0.65226300  1
  C  C27  1  0.46005300  0.66089500  0.08872400  1
  C  C28  1  0.98074800  0.47517300  0.80330100  1
  C  C29  1  0.20890200  0.57829900  0.44950500  1
  C  C30  1  0.79109800  0.42170100  0.55049500  1
  C  C31  1  0.01925200  0.52482700  0.19669900  1
  C  C32  1  0.53994700  0.33910500  0.91127600  1
  C  C33  1  0.60319500  0.31830200  0.34773700  1
  C  C34  1  0.45439400  0.28140900  0.64552600  1
  C  C35  1  0.82092300  0.23194000  0.07636500  1
  C  C36  1  0.22986300  0.17789700  0.90811600  1
  C  C37  1  0.93236900  0.06589900  0.75885200  1
  C  C38  1  0.19897000  0.21185000  0.33435500  1
  C  C39  1  0.75435000  0.09172600  0.52772000  1
  C  C40  1  0.56325300  0.02054700  0.81474500  1
