# generated using pymatgen
data_CuNiC
_symmetry_space_group_name_H-M   'P 1'
_cell_length_a   5.69216500
_cell_length_b   6.90689001
_cell_length_c   6.93492748
_cell_angle_alpha   96.53797126
_cell_angle_beta   90.79871343
_cell_angle_gamma   91.33721565
_symmetry_Int_Tables_number   1
_chemical_formula_structural   CuNiC
_chemical_formula_sum   'Cu8 Ni8 C8'
_cell_volume   270.76305377
_cell_formula_units_Z   8
loop_
 _symmetry_equiv_pos_site_id
 _symmetry_equiv_pos_as_xyz
  1  'x, y, z'
loop_
 _atom_site_type_symbol
 _atom_site_label
 _atom_site_symmetry_multiplicity
 _atom_site_fract_x
 _atom_site_fract_y
 _atom_site_fract_z
 _atom_site_occupancy
  C  C0  1  0.34625700  0.14149400  0.37714200  1
  C  C1  1  0.61150800  0.40181900  0.12173100  1
  C  C2  1  0.19415300  0.11347900  0.90056100  1
  C  C3  1  0.14499300  0.62227300  0.38835100  1
  C  C4  1  0.85047600  0.87692800  0.14818600  1
  C  C5  1  0.84735600  0.36511400  0.62741600  1
  C  C6  1  0.66267300  0.88581000  0.62050200  1
  C  C7  1  0.35010500  0.62833800  0.86403500  1
  Ni  Ni8  1  0.12122700  0.06698300  0.16907500  1
  Ni  Ni9  1  0.38188500  0.41490900  0.32124100  1
  Ni  Ni10  1  0.61463700  0.16020000  0.56624700  1
  Ni  Ni11  1  0.61154700  0.66164400  0.06859600  1
  Ni  Ni12  1  0.89009100  0.81588000  0.41320500  1
  Ni  Ni13  1  0.11294400  0.55380300  0.64896900  1
  Ni  Ni14  1  0.38675800  0.35976100  0.92332800  1
  Ni  Ni15  1  0.40103400  0.89140300  0.80374200  1
  Cu  Cu16  1  0.61064200  0.11375700  0.14977900  1
  Cu  Cu17  1  0.86050900  0.40995400  0.32796600  1
  Cu  Cu18  1  0.11747200  0.65880800  0.10742300  1
  Cu  Cu19  1  0.10456300  0.16041800  0.61349900  1
  Cu  Cu20  1  0.86572200  0.32996300  0.92249800  1
  Cu  Cu21  1  0.38755400  0.85770000  0.40318600  1
  Cu  Cu22  1  0.63029200  0.59423500  0.65143400  1
  Cu  Cu23  1  0.89560100  0.91532300  0.86188600  1
