# generated using pymatgen
data_Cu6Ni2C9
_symmetry_space_group_name_H-M   'P 1'
_cell_length_a   8.11205500
_cell_length_b   13.16853600
_cell_length_c   14.66715800
_cell_angle_alpha   90.00000000
_cell_angle_beta   90.00000000
_cell_angle_gamma   90.00000000
_symmetry_Int_Tables_number   1
_chemical_formula_structural   Cu6Ni2C9
_chemical_formula_sum   'Cu48 Ni16 C72'
_cell_volume   1566.80284789
_cell_formula_units_Z   8
loop_
 _symmetry_equiv_pos_site_id
 _symmetry_equiv_pos_as_xyz
  1  'x, y, z'
loop_
 _atom_site_type_symbol
 _atom_site_label
 _atom_site_symmetry_multiplicity
 _atom_site_fract_x
 _atom_site_fract_y
 _atom_site_fract_z
 _atom_site_occupancy
  C  C0  1  0.92734600  0.26732400  0.83334200  1
  C  C1  1  0.07265400  0.76732400  0.16665800  1
  C  C2  1  0.92734600  0.76732400  0.66665800  1
  C  C3  1  0.07265400  0.26732400  0.33334200  1
  C  C4  1  0.43227400  0.23115400  0.91201500  1
  C  C5  1  0.56772600  0.73115400  0.08798500  1
  C  C6  1  0.43227400  0.73115400  0.58798500  1
  C  C7  1  0.56772600  0.23115400  0.41201500  1
  C  C8  1  0.75937100  0.07711100  0.71422200  1
  C  C9  1  0.24062900  0.57711100  0.28577800  1
  C  C10  1  0.75937100  0.57711100  0.78577800  1
  C  C11  1  0.24062900  0.07711100  0.21422200  1
  C  C12  1  0.76404800  0.99373400  0.61629000  1
  C  C13  1  0.23595200  0.49373400  0.38371000  1
  C  C14  1  0.76404800  0.49373400  0.88371000  1
  C  C15  1  0.23595200  0.99373400  0.11629000  1
  C  C16  1  0.80147000  0.99513300  0.45201900  1
  C  C17  1  0.19853000  0.49513300  0.54798100  1
  C  C18  1  0.80147000  0.49513300  0.04798100  1
  C  C19  1  0.19853000  0.99513300  0.95201900  1
  C  C20  1  0.90300200  0.20899800  0.51934200  1
  C  C21  1  0.09699800  0.70899800  0.48065800  1
  C  C22  1  0.90300200  0.70899800  0.98065800  1
  C  C23  1  0.09699800  0.20899800  0.01934200  1
  C  C24  1  0.83747000  0.15853100  0.10861900  1
  C  C25  1  0.16253000  0.65853100  0.89138100  1
  C  C26  1  0.83747000  0.65853100  0.39138100  1
  C  C27  1  0.16253000  0.15853100  0.60861900  1
  C  C28  1  0.68427600  0.13777400  0.18815400  1
  C  C29  1  0.31572400  0.63777400  0.81184600  1
  C  C30  1  0.68427600  0.63777400  0.31184600  1
  C  C31  1  0.31572400  0.13777400  0.68815400  1
  C  C32  1  0.66997200  0.09204400  0.07998900  1
  C  C33  1  0.33002800  0.59204400  0.92001100  1
  C  C34  1  0.66997200  0.59204400  0.42001100  1
  C  C35  1  0.33002800  0.09204400  0.57998900  1
  C  C36  1  0.80883700  0.04288000  0.15524200  1
  C  C37  1  0.19116300  0.54288000  0.84475800  1
  C  C38  1  0.80883700  0.54288000  0.34475800  1
  C  C39  1  0.19116300  0.04288000  0.65524200  1
  C  C40  1  0.76569000  0.33021900  0.09709100  1
  C  C41  1  0.23431000  0.83021900  0.90290900  1
  C  C42  1  0.76569000  0.83021900  0.40290900  1
  C  C43  1  0.23431000  0.33021900  0.59709100  1
  C  C44  1  0.84295600  0.32987900  0.12556300  1
  C  C45  1  0.15704400  0.82987900  0.87443700  1
  C  C46  1  0.84295600  0.82987900  0.37443700  1
  C  C47  1  0.15704400  0.32987900  0.62556300  1
  C  C48  1  0.85526700  0.54183400  0.04827800  1
  C  C49  1  0.14473300  0.04183400  0.95172200  1
  C  C50  1  0.85526700  0.04183400  0.45172200  1
  C  C51  1  0.14473300  0.54183400  0.54827800  1
  C  C52  1  0.24585800  0.39411600  0.81554700  1
  C  C53  1  0.75414200  0.89411600  0.18445300  1
  C  C54  1  0.24585800  0.89411600  0.68445300  1
  C  C55  1  0.75414200  0.39411600  0.31554700  1
  C  C56  1  0.48110200  0.43740900  0.68569600  1
  C  C57  1  0.51889800  0.93740900  0.31430400  1
  C  C58  1  0.48110200  0.93740900  0.81430400  1
  C  C59  1  0.51889800  0.43740900  0.18569600  1
  C  C60  1  0.55147700  0.35026000  0.61346900  1
  C  C61  1  0.44852300  0.85026000  0.38653100  1
  C  C62  1  0.55147700  0.85026000  0.88653100  1
  C  C63  1  0.44852300  0.35026000  0.11346900  1
  C  C64  1  0.82111000  0.45164000  0.69860700  1
  C  C65  1  0.17889000  0.95164000  0.30139300  1
  C  C66  1  0.82111000  0.95164000  0.80139300  1
  C  C67  1  0.17889000  0.45164000  0.19860700  1
  C  C68  1  0.62215600  0.46676700  0.60998500  1
  C  C69  1  0.37784400  0.96676700  0.39001500  1
  C  C70  1  0.62215600  0.96676700  0.89001500  1
  C  C71  1  0.37784400  0.46676700  0.10998500  1
  Ni  Ni72  1  0.77151000  0.00644000  0.68565100  1
  Ni  Ni73  1  0.22849000  0.50644000  0.31434900  1
  Ni  Ni74  1  0.77151000  0.50644000  0.81434900  1
  Ni  Ni75  1  0.22849000  0.00644000  0.18565100  1
  Ni  Ni76  1  0.75002000  0.10812200  0.13333800  1
  Ni  Ni77  1  0.24998000  0.60812200  0.86666200  1
  Ni  Ni78  1  0.75002000  0.60812200  0.36666200  1
  Ni  Ni79  1  0.24998000  0.10812200  0.63333800  1
  Ni  Ni80  1  0.58424300  0.41080800  0.65379300  1
  Ni  Ni81  1  0.41575700  0.91080800  0.34620700  1
  Ni  Ni82  1  0.58424300  0.91080800  0.84620700  1
  Ni  Ni83  1  0.41575700  0.41080800  0.15379300  1
  Ni  Ni84  1  0.80419400  0.43123100  0.76544200  1
  Ni  Ni85  1  0.19580600  0.93123100  0.23455800  1
  Ni  Ni86  1  0.80419400  0.93123100  0.73455800  1
  Ni  Ni87  1  0.19580600  0.43123100  0.26544200  1
  Cu  Cu88  1  0.67420700  0.26471400  0.85289200  1
  Cu  Cu89  1  0.32579300  0.76471400  0.14710800  1
  Cu  Cu90  1  0.67420700  0.76471400  0.64710800  1
  Cu  Cu91  1  0.32579300  0.26471400  0.35289200  1
  Cu  Cu92  1  0.44465800  0.14754600  0.79356900  1
  Cu  Cu93  1  0.55534200  0.64754600  0.20643100  1
  Cu  Cu94  1  0.44465800  0.64754600  0.70643100  1
  Cu  Cu95  1  0.55534200  0.14754600  0.29356900  1
  Cu  Cu96  1  0.38400300  0.37699600  0.85237100  1
  Cu  Cu97  1  0.61599700  0.87699600  0.14762900  1
  Cu  Cu98  1  0.38400300  0.87699600  0.64762900  1
  Cu  Cu99  1  0.61599700  0.37699600  0.35237100  1
  Cu  Cu100  1  0.52653300  0.10978900  0.97828400  1
  Cu  Cu101  1  0.47346700  0.60978900  0.02171600  1
  Cu  Cu102  1  0.52653300  0.60978900  0.52171600  1
  Cu  Cu103  1  0.47346700  0.10978900  0.47828400  1
  Cu  Cu104  1  0.55261300  0.31759200  0.00224100  1
  Cu  Cu105  1  0.44738700  0.81759200  0.99775900  1
  Cu  Cu106  1  0.55261300  0.81759200  0.49775900  1
  Cu  Cu107  1  0.44738700  0.31759200  0.50224100  1
  Cu  Cu108  1  0.17264400  0.22331000  0.85178800  1
  Cu  Cu109  1  0.82735600  0.72331000  0.14821200  1
  Cu  Cu110  1  0.17264400  0.72331000  0.64821200  1
  Cu  Cu111  1  0.82735600  0.22331000  0.35178800  1
  Cu  Cu112  1  0.25979100  0.23564400  0.01755400  1
  Cu  Cu113  1  0.74020900  0.73564400  0.98244600  1
  Cu  Cu114  1  0.25979100  0.73564400  0.48244600  1
  Cu  Cu115  1  0.74020900  0.23564400  0.51755400  1
  Cu  Cu116  1  0.13047500  0.41593000  0.78755300  1
  Cu  Cu117  1  0.86952500  0.91593000  0.21244700  1
  Cu  Cu118  1  0.13047500  0.91593000  0.71244700  1
  Cu  Cu119  1  0.86952500  0.41593000  0.28755300  1
  Cu  Cu120  1  0.93908100  0.26072900  0.69881900  1
  Cu  Cu121  1  0.06091900  0.76072900  0.30118100  1
  Cu  Cu122  1  0.93908100  0.76072900  0.80118100  1
  Cu  Cu123  1  0.06091900  0.26072900  0.19881900  1
  Cu  Cu124  1  0.93657100  0.37302200  0.92861200  1
  Cu  Cu125  1  0.06342900  0.87302200  0.07138800  1
  Cu  Cu126  1  0.93657100  0.87302200  0.57138800  1
  Cu  Cu127  1  0.06342900  0.37302200  0.42861200  1
  Cu  Cu128  1  0.87956500  0.11631300  0.83130900  1
  Cu  Cu129  1  0.12043500  0.61631300  0.16869100  1
  Cu  Cu130  1  0.87956500  0.61631300  0.66869100  1
  Cu  Cu131  1  0.12043500  0.11631300  0.33130900  1
  Cu  Cu132  1  0.98072600  0.18336600  0.01146200  1
  Cu  Cu133  1  0.01927400  0.68336600  0.98853800  1
  Cu  Cu134  1  0.98072600  0.68336600  0.48853800  1
  Cu  Cu135  1  0.01927400  0.18336600  0.51146200  1
