# generated using pymatgen
data_Cu3Ni2C15
_symmetry_space_group_name_H-M   'P 1'
_cell_length_a   5.28762866
_cell_length_b   8.16421489
_cell_length_c   10.21267050
_cell_angle_alpha   110.29700077
_cell_angle_beta   102.06627632
_cell_angle_gamma   67.60648158
_symmetry_Int_Tables_number   1
_chemical_formula_structural   Cu3Ni2C15
_chemical_formula_sum   'Cu6 Ni4 C30'
_cell_volume   380.81086964
_cell_formula_units_Z   2
loop_
 _symmetry_equiv_pos_site_id
 _symmetry_equiv_pos_as_xyz
  1  'x, y, z'
loop_
 _atom_site_type_symbol
 _atom_site_label
 _atom_site_symmetry_multiplicity
 _atom_site_fract_x
 _atom_site_fract_y
 _atom_site_fract_z
 _atom_site_occupancy
  C  C0  1  0.99999200  0.50001100  0.25000900  1
  C  C1  1  0.99997400  0.49996900  0.74997300  1
  C  C2  1  0.50601400  0.41885100  0.10419300  1
  C  C3  1  0.50599500  0.41885000  0.60420900  1
  C  C4  1  0.49404100  0.58114700  0.39579000  1
  C  C5  1  0.49396900  0.58112800  0.89578200  1
  C  C6  1  0.51516700  0.76340400  0.18887400  1
  C  C7  1  0.51523300  0.76364800  0.68889700  1
  C  C8  1  0.48480100  0.23637900  0.31110600  1
  C  C9  1  0.48480400  0.23657600  0.81109600  1
  Ni  Ni10  1  0.00953500  0.68869100  0.54803600  1
  Ni  Ni11  1  0.99050700  0.31140900  0.45211400  1
  Ni  Ni12  1  0.00917800  0.68872600  0.04777900  1
  Ni  Ni13  1  0.99091600  0.31121700  0.95220900  1
  Cu  Cu14  1  0.50008100  0.00005000  0.00000900  1
  Cu  Cu15  1  0.00432400  0.88885000  0.34641000  1
  Cu  Cu16  1  0.99570100  0.11112200  0.65357200  1
  Cu  Cu17  1  0.49996300  0.99998500  0.49996200  1
  Cu  Cu18  1  0.00432000  0.88893800  0.84651500  1
  Cu  Cu19  1  0.99560000  0.11106600  0.15352500  1
  C  C20  1  0.25756400  0.86709600  0.02252600  1
  C  C21  1  0.25760100  0.86714200  0.52256100  1
  C  C22  1  0.74242100  0.13286400  0.47748000  1
  C  C23  1  0.74241600  0.13288100  0.97744000  1
  C  C24  1  0.78096600  0.93946700  0.16532900  1
  C  C25  1  0.78101300  0.93960100  0.66548000  1
  C  C26  1  0.21896800  0.06042800  0.33456000  1
  C  C27  1  0.21901900  0.06050200  0.83461600  1
  C  C28  1  0.76533000  0.53586700  0.06721800  1
  C  C29  1  0.76525600  0.53593600  0.56726200  1
  C  C30  1  0.23471300  0.46412100  0.43280700  1
  C  C31  1  0.23464000  0.46412400  0.93272800  1
  C  C32  1  0.23278100  0.23294000  0.11743300  1
  C  C33  1  0.23269200  0.23301700  0.61747900  1
  C  C34  1  0.76731100  0.76694900  0.38254700  1
  C  C35  1  0.76720100  0.76706000  0.88252600  1
  C  C36  1  0.23952600  0.66425200  0.22104600  1
  C  C37  1  0.23968500  0.66438800  0.72124000  1
  C  C38  1  0.76036800  0.33563600  0.27880400  1
  C  C39  1  0.76041700  0.33571000  0.77885800  1
