# generated using pymatgen
data_Cu2NiC3
_symmetry_space_group_name_H-M   'P 1'
_cell_length_a   6.72360906
_cell_length_b   12.05099934
_cell_length_c   8.72478312
_cell_angle_alpha   83.92371200
_cell_angle_beta   112.65010360
_cell_angle_gamma   90.00648224
_symmetry_Int_Tables_number   1
_chemical_formula_structural   Cu2NiC3
_chemical_formula_sum   'Cu16 Ni8 C24'
_cell_volume   648.11063558
_cell_formula_units_Z   8
loop_
 _symmetry_equiv_pos_site_id
 _symmetry_equiv_pos_as_xyz
  1  'x, y, z'
loop_
 _atom_site_type_symbol
 _atom_site_label
 _atom_site_symmetry_multiplicity
 _atom_site_fract_x
 _atom_site_fract_y
 _atom_site_fract_z
 _atom_site_occupancy
  C  C0  1  0.22197700  0.24999000  0.49982700  1
  C  C1  1  0.72181800  0.75001300  0.49994600  1
  C  C2  1  0.02388600  0.00003200  0.00000200  1
  C  C3  1  0.52384500  0.49998400  0.99990000  1
  C  C4  1  0.37272800  0.87477300  0.75016300  1
  C  C5  1  0.62263000  0.12496500  0.24976100  1
  C  C6  1  0.87305200  0.37505600  0.74977500  1
  C  C7  1  0.12240400  0.62496900  0.25016500  1
  C  C8  1  0.55364600  0.46137900  0.42603800  1
  C  C9  1  0.05385500  0.96135500  0.42625400  1
  C  C10  1  0.61807500  0.21142300  0.92592400  1
  C  C11  1  0.11796200  0.71124700  0.92628900  1
  C  C12  1  0.19184600  0.28876300  0.07380700  1
  C  C13  1  0.69197600  0.78867400  0.07418800  1
  C  C14  1  0.62756200  0.03871900  0.57388300  1
  C  C15  1  0.12763400  0.53868700  0.57402900  1
  C  C16  1  0.08143800  0.40048800  0.09677700  1
  C  C17  1  0.58177500  0.90049300  0.09709300  1
  C  C18  1  0.66394500  0.34968300  0.40273100  1
  C  C19  1  0.16392700  0.84958200  0.40303700  1
  C  C20  1  0.76093800  0.15045600  0.59699400  1
  C  C21  1  0.26103100  0.65043500  0.59716300  1
  C  C22  1  0.48496700  0.09955700  0.90303900  1
  C  C23  1  0.98481300  0.59945200  0.90312200  1
  Ni  Ni24  1  0.63254100  0.38975100  0.48513900  1
  Ni  Ni25  1  0.13255900  0.88970000  0.48541800  1
  Ni  Ni26  1  0.11302300  0.36036500  0.01450000  1
  Ni  Ni27  1  0.61325200  0.86028500  0.01483300  1
  Ni  Ni28  1  0.59866900  0.13978300  0.98525800  1
  Ni  Ni29  1  0.09846100  0.63959900  0.98551600  1
  Ni  Ni30  1  0.64712500  0.11035100  0.51466000  1
  Ni  Ni31  1  0.14712200  0.61036700  0.51484600  1
  Cu  Cu32  1  0.03480400  0.47597600  0.22969000  1
  Cu  Cu33  1  0.53484700  0.97604700  0.22949200  1
  Cu  Cu34  1  0.71044500  0.27397200  0.27015700  1
  Cu  Cu35  1  0.21015200  0.77395600  0.27036100  1
  Cu  Cu36  1  0.94017200  0.22597700  0.72953600  1
  Cu  Cu37  1  0.44015800  0.72590200  0.72989500  1
  Cu  Cu38  1  0.30569900  0.02387000  0.77060900  1
  Cu  Cu39  1  0.80577500  0.52397300  0.77015200  1
  Cu  Cu40  1  0.09874600  0.42436600  0.68264500  1
  Cu  Cu41  1  0.59834000  0.92434000  0.68297300  1
  Cu  Cu42  1  0.64687600  0.32565500  0.81666000  1
  Cu  Cu43  1  0.14668400  0.82551900  0.81710500  1
  Cu  Cu44  1  0.32998200  0.17452800  0.18303500  1
  Cu  Cu45  1  0.82961600  0.67438000  0.18331000  1
  Cu  Cu46  1  0.91553800  0.07560500  0.31710100  1
  Cu  Cu47  1  0.41524200  0.57555900  0.31720500  1
