# generated using pymatgen
data_Cu7NiC40
_symmetry_space_group_name_H-M   'P 1'
_cell_length_a   5.21893100
_cell_length_b   5.22749128
_cell_length_c   20.80410641
_cell_angle_alpha   91.73514127
_cell_angle_beta   89.14278579
_cell_angle_gamma   119.89879494
_symmetry_Int_Tables_number   1
_chemical_formula_structural   Cu7NiC40
_chemical_formula_sum   'Cu7 Ni1 C40'
_cell_volume   491.81002834
_cell_formula_units_Z   1
loop_
 _symmetry_equiv_pos_site_id
 _symmetry_equiv_pos_as_xyz
  1  'x, y, z'
loop_
 _atom_site_type_symbol
 _atom_site_label
 _atom_site_symmetry_multiplicity
 _atom_site_fract_x
 _atom_site_fract_y
 _atom_site_fract_z
 _atom_site_occupancy
  C  C0  1  0.01953900  0.67296300  0.33325800  1
  C  C1  1  0.98143800  0.65406600  0.08362700  1
  C  C2  1  0.01608000  0.67015700  0.83492000  1
  C  C3  1  0.97770200  0.65559700  0.58239500  1
  C  C4  1  0.01380700  0.35527300  0.20791200  1
  C  C5  1  0.98777700  0.34434900  0.45816300  1
  C  C6  1  0.01491100  0.34511900  0.70828600  1
  C  C7  1  0.98793600  0.33968200  0.95858900  1
  Ni  Ni8  1  0.32637600  0.32625200  0.56750400  1
  Cu  Cu9  1  0.65301000  0.67186900  0.43923200  1
  Cu  Cu10  1  0.65152300  0.67228300  0.94030600  1
  Cu  Cu11  1  0.32165600  0.31876100  0.06614000  1
  Cu  Cu12  1  0.68168200  0.00178300  0.31533800  1
  Cu  Cu13  1  0.67978000  0.00211900  0.81574100  1
  Cu  Cu14  1  0.34615500  0.01175400  0.19111100  1
  Cu  Cu15  1  0.33010700  0.99648500  0.69251600  1
  C  C16  1  0.66435500  0.99565400  0.06324900  1
  C  C17  1  0.65971900  0.99740400  0.56311400  1
  C  C18  1  0.66600600  0.67138500  0.18780400  1
  C  C19  1  0.66824400  0.66902000  0.68975800  1
  C  C20  1  0.33792900  0.33236500  0.31255400  1
  C  C21  1  0.33647900  0.33119700  0.81361000  1
  C  C22  1  0.33582000  0.00865000  0.43674800  1
  C  C23  1  0.33126600  0.00296500  0.93825300  1
  C  C24  1  0.67916400  0.93538300  0.20823800  1
  C  C25  1  0.68390500  0.93380700  0.70924600  1
  C  C26  1  0.67728500  0.74061000  0.04824900  1
  C  C27  1  0.39888700  0.97717700  0.08238600  1
  C  C28  1  0.68114800  0.74705400  0.54721700  1
  C  C29  1  0.39140900  0.96741900  0.58427800  1
  C  C30  1  0.39096100  0.42250600  0.17353800  1
  C  C31  1  0.08095800  0.73850400  0.42994200  1
  C  C32  1  0.39601000  0.41951800  0.67530400  1
  C  C33  1  0.07792800  0.73301200  0.93138200  1
  C  C34  1  0.92187600  0.65801100  0.18047900  1
  C  C35  1  0.92286600  0.65006100  0.68254500  1
  C  C36  1  0.08484300  0.35526300  0.30695900  1
  C  C37  1  0.08376300  0.35392400  0.80792800  1
  C  C38  1  0.91699100  0.27112800  0.05737700  1
  C  C39  1  0.60360100  0.57875100  0.33122600  1
  C  C40  1  0.90583000  0.27424300  0.55642800  1
  C  C41  1  0.60194300  0.57678700  0.83240500  1
  C  C42  1  0.61178200  0.03410400  0.42206200  1
  C  C43  1  0.60809100  0.02916800  0.92336700  1
  C  C44  1  0.32490800  0.25930600  0.45746500  1
  C  C45  1  0.32280900  0.25493100  0.95862300  1
  C  C46  1  0.32263900  0.06259100  0.29807400  1
  C  C47  1  0.32110200  0.06078900  0.79895200  1
