# generated using pymatgen
data_Cu3Ni3C22
_symmetry_space_group_name_H-M   'P 1'
_cell_length_a   6.09022801
_cell_length_b   6.09022801
_cell_length_c   10.09495746
_cell_angle_alpha   89.18814540
_cell_angle_beta   89.18814540
_cell_angle_gamma   60.60010316
_symmetry_Int_Tables_number   1
_chemical_formula_structural   Cu3Ni3C22
_chemical_formula_sum   'Cu3 Ni3 C22'
_cell_volume   326.16570953
_cell_formula_units_Z   1
loop_
 _symmetry_equiv_pos_site_id
 _symmetry_equiv_pos_as_xyz
  1  'x, y, z'
loop_
 _atom_site_type_symbol
 _atom_site_label
 _atom_site_symmetry_multiplicity
 _atom_site_fract_x
 _atom_site_fract_y
 _atom_site_fract_z
 _atom_site_occupancy
  C  C0  1  0.65879800  0.65879800  0.50100500  1
  C  C1  1  0.67120300  0.67120300  0.11045300  1
  C  C2  1  0.00513400  0.00513400  0.99503400  1
  C  C3  1  0.00888800  0.00888800  0.49924800  1
  C  C4  1  0.33648800  0.33648800  0.99365000  1
  C  C5  1  0.33251300  0.33251300  0.62398500  1
  Ni  Ni6  1  0.82160700  0.82160700  0.78094500  1
  Ni  Ni7  1  0.16643800  0.66088900  0.28617000  1
  Ni  Ni8  1  0.66088900  0.16643800  0.28617000  1
  Cu  Cu9  1  0.32570200  0.83182300  0.78285700  1
  Cu  Cu10  1  0.83182300  0.32570200  0.78285700  1
  Cu  Cu11  1  0.16493500  0.16493500  0.27995200  1
  C  C12  1  0.30328900  0.84516200  0.38757100  1
  C  C13  1  0.51898400  0.51898400  0.68949900  1
  C  C14  1  0.68345200  0.68345200  0.90914300  1
  C  C15  1  0.99125000  0.99125000  0.67788600  1
  C  C16  1  0.99399200  0.99399200  0.17705400  1
  C  C17  1  0.84516200  0.30328900  0.38757100  1
  C  C18  1  0.50665800  0.96803300  0.67878100  1
  C  C19  1  0.96803300  0.50665800  0.67878100  1
  C  C20  1  0.14977600  0.14977600  0.87638100  1
  C  C21  1  0.84451900  0.84451900  0.39544700  1
  C  C22  1  0.03228300  0.48939800  0.17728900  1
  C  C23  1  0.48939800  0.03228300  0.17728900  1
  C  C24  1  0.33971800  0.33971800  0.40045500  1
  C  C25  1  0.16210400  0.69787000  0.88895800  1
  C  C26  1  0.48873800  0.48873800  0.17860600  1
  C  C27  1  0.69787000  0.16210400  0.88895800  1
