# generated using pymatgen
data_Cu2NiC33
_symmetry_space_group_name_H-M   'P 1'
_cell_length_a   8.57079413
_cell_length_b   8.57079413
_cell_length_c   8.57079320
_cell_angle_alpha   61.18992963
_cell_angle_beta   61.18992963
_cell_angle_gamma   61.18993207
_symmetry_Int_Tables_number   1
_chemical_formula_structural   Cu2NiC33
_chemical_formula_sum   'Cu2 Ni1 C33'
_cell_volume   457.10989942
_cell_formula_units_Z   1
loop_
 _symmetry_equiv_pos_site_id
 _symmetry_equiv_pos_as_xyz
  1  'x, y, z'
loop_
 _atom_site_type_symbol
 _atom_site_label
 _atom_site_symmetry_multiplicity
 _atom_site_fract_x
 _atom_site_fract_y
 _atom_site_fract_z
 _atom_site_occupancy
  C  C0  1  0.85701800  0.85701800  0.85701800  1
  C  C1  1  0.64521900  0.64521900  0.64521900  1
  C  C2  1  0.35402300  0.35402300  0.35402300  1
  Ni  Ni3  1  0.14315800  0.14315800  0.14315800  1
  Cu  Cu4  1  0.00289900  0.00289900  0.00289900  1
  Cu  Cu5  1  0.50136200  0.50136200  0.50136200  1
  C  C6  1  0.95190400  0.24779500  0.54750800  1
  C  C7  1  0.54750800  0.95190400  0.24779500  1
  C  C8  1  0.74507300  0.46007400  0.04391200  1
  C  C9  1  0.46007400  0.04391200  0.74507300  1
  C  C10  1  0.04391200  0.74507300  0.46007400  1
  C  C11  1  0.24779500  0.54750800  0.95190400  1
  C  C12  1  0.88734100  0.66613900  0.52077100  1
  C  C13  1  0.66613900  0.52077100  0.88734100  1
  C  C14  1  0.94182200  0.09006600  0.74472200  1
  C  C15  1  0.52077100  0.88734100  0.66613900  1
  C  C16  1  0.97832900  0.18392600  0.39986200  1
  C  C17  1  0.75871700  0.41161300  0.57175200  1
  C  C18  1  0.74472200  0.94182200  0.09006600  1
  C  C19  1  0.57175200  0.75871700  0.41161300  1
  C  C20  1  0.81410400  0.62108700  0.99688800  1
  C  C21  1  0.41161300  0.57175200  0.75871700  1
  C  C22  1  0.89663700  0.26796100  0.04715700  1
  C  C23  1  0.62108700  0.99688800  0.81410400  1
  C  C24  1  0.39986200  0.97832900  0.18392600  1
  C  C25  1  0.09006600  0.74472200  0.94182200  1
  C  C26  1  0.58574000  0.44882700  0.23909800  1
  C  C27  1  0.18392600  0.39986200  0.97832900  1
  C  C28  1  0.44882700  0.23909800  0.58574000  1
  C  C29  1  0.26796100  0.04715700  0.89663700  1
  C  C30  1  0.23909800  0.58574000  0.44882700  1
  C  C31  1  0.99688800  0.81410400  0.62108700  1
  C  C32  1  0.49546100  0.12012000  0.31191300  1
  C  C33  1  0.04715700  0.89663700  0.26796100  1
  C  C34  1  0.31191300  0.49546100  0.12012000  1
  C  C35  1  0.12012000  0.31191300  0.49546100  1
