# generated using pymatgen
data_Cu3Ni2C31
_symmetry_space_group_name_H-M   'P 1'
_cell_length_a   8.66850398
_cell_length_b   8.66850398
_cell_length_c   8.66850402
_cell_angle_alpha   59.81895143
_cell_angle_beta   59.81895143
_cell_angle_gamma   59.81895606
_symmetry_Int_Tables_number   1
_chemical_formula_structural   Cu3Ni2C31
_chemical_formula_sum   'Cu3 Ni2 C31'
_cell_volume   458.70035823
_cell_formula_units_Z   1
loop_
 _symmetry_equiv_pos_site_id
 _symmetry_equiv_pos_as_xyz
  1  'x, y, z'
loop_
 _atom_site_type_symbol
 _atom_site_label
 _atom_site_symmetry_multiplicity
 _atom_site_fract_x
 _atom_site_fract_y
 _atom_site_fract_z
 _atom_site_occupancy
  C  C0  1  0.85437700  0.85437700  0.85437700  1
  Ni  Ni1  1  0.00061700  0.00061700  0.00061700  1
  Ni  Ni2  1  0.50007000  0.50007000  0.50007000  1
  Cu  Cu3  1  0.35603300  0.35603300  0.35603300  1
  Cu  Cu4  1  0.14496200  0.14496200  0.14496200  1
  Cu  Cu5  1  0.64332500  0.64332500  0.64332500  1
  C  C6  1  0.04157800  0.45725700  0.74986800  1
  C  C7  1  0.45725700  0.74986800  0.04157800  1
  C  C8  1  0.74986800  0.04157800  0.45725700  1
  C  C9  1  0.24978500  0.95828900  0.54238000  1
  C  C10  1  0.54238000  0.24978500  0.95828900  1
  C  C11  1  0.95828900  0.54238100  0.24978500  1
  C  C12  1  0.49455600  0.69443000  0.88118400  1
  C  C13  1  0.69443000  0.88118400  0.49455600  1
  C  C14  1  0.88118400  0.49455600  0.69443000  1
  C  C15  1  0.05856400  0.26564500  0.91583100  1
  C  C16  1  0.99819400  0.62215400  0.80714200  1
  C  C17  1  0.23443800  0.44446400  0.58622100  1
  C  C18  1  0.26564500  0.91583100  0.05856400  1
  C  C19  1  0.44446400  0.58622100  0.23443800  1
  C  C20  1  0.19413200  0.99415700  0.38190800  1
  C  C21  1  0.58622100  0.23443800  0.44446400  1
  C  C22  1  0.08335500  0.94027700  0.73572800  1
  C  C23  1  0.38190800  0.19413200  0.99415700  1
  C  C24  1  0.62215400  0.80714200  0.99819400  1
  C  C25  1  0.91583100  0.05856400  0.26564500  1
  C  C26  1  0.41367600  0.76389800  0.56096400  1
  C  C27  1  0.80714200  0.99819400  0.62215400  1
  C  C28  1  0.56096400  0.41367600  0.76389800  1
  C  C29  1  0.73572800  0.08335500  0.94027700  1
  C  C30  1  0.76389800  0.56096400  0.41367600  1
  C  C31  1  0.99415700  0.38190800  0.19413200  1
  C  C32  1  0.94027700  0.73572800  0.08335500  1
  C  C33  1  0.11834900  0.50727500  0.30491800  1
  C  C34  1  0.30491800  0.11834900  0.50727500  1
  C  C35  1  0.50727500  0.30491800  0.11834900  1
