# generated using pymatgen
data_Cu6NiC33
_symmetry_space_group_name_H-M   'P 1'
_cell_length_a   8.40767800
_cell_length_b   8.51447846
_cell_length_c   8.51473330
_cell_angle_alpha   62.70720911
_cell_angle_beta   63.07883216
_cell_angle_gamma   63.10660669
_symmetry_Int_Tables_number   1
_chemical_formula_structural   Cu6NiC33
_chemical_formula_sum   'Cu6 Ni1 C33'
_cell_volume   459.37165335
_cell_formula_units_Z   1
loop_
 _symmetry_equiv_pos_site_id
 _symmetry_equiv_pos_as_xyz
  1  'x, y, z'
loop_
 _atom_site_type_symbol
 _atom_site_label
 _atom_site_symmetry_multiplicity
 _atom_site_fract_x
 _atom_site_fract_y
 _atom_site_fract_z
 _atom_site_occupancy
  C  C0  1  0.25333300  0.64791700  0.85209600  1
  C  C1  1  0.70505100  0.35982600  0.15561200  1
  C  C2  1  0.36382100  0.15179000  0.70533600  1
  C  C3  1  0.15105200  0.70213700  0.36306000  1
  C  C4  1  0.98341900  0.00118600  0.99883800  1
  C  C5  1  0.51225100  0.50116000  0.49653700  1
  C  C6  1  0.85706100  0.85491900  0.85243700  1
  C  C7  1  0.64436100  0.64746700  0.64413300  1
  C  C8  1  0.35391100  0.34982000  0.35315200  1
  Ni  Ni9  1  0.14724400  0.14808700  0.15207600  1
  Cu  Cu10  1  0.74956300  0.04649200  0.45717600  1
  Cu  Cu11  1  0.44843200  0.74833200  0.04571000  1
  Cu  Cu12  1  0.05512400  0.45709000  0.75169100  1
  Cu  Cu13  1  0.94295900  0.55911700  0.25531700  1
  Cu  Cu14  1  0.56078300  0.25256200  0.94463500  1
  Cu  Cu15  1  0.25371300  0.94556700  0.55919700  1
  C  C16  1  0.89010500  0.50144800  0.69633500  1
  C  C17  1  0.68589300  0.89435700  0.48482500  1
  C  C18  1  0.94360600  0.74216800  0.08953700  1
  C  C19  1  0.45469100  0.69013900  0.89808900  1
  C  C20  1  0.97884200  0.39677800  0.19030200  1
  C  C21  1  0.74871700  0.57271100  0.40413800  1
  C  C22  1  0.75137800  0.09821500  0.92448600  1
  C  C23  1  0.55364900  0.41360400  0.75940400  1
  C  C24  1  0.82697800  0.01237100  0.60164900  1
  C  C25  1  0.40050300  0.74927300  0.57541600  1
  C  C26  1  0.89954700  0.08048200  0.24792500  1
  C  C27  1  0.60654100  0.81627300  0.99542500  1
  C  C28  1  0.39954200  0.18049200  0.98434400  1
  C  C29  1  0.10178600  0.92303300  0.75317800  1
  C  C30  1  0.59509400  0.24507900  0.43466800  1
  C  C31  1  0.18733300  0.97936200  0.39895800  1
  C  C32  1  0.43481600  0.59250800  0.24292700  1
  C  C33  1  0.24241300  0.90124900  0.08467900  1
  C  C34  1  0.25121800  0.43002200  0.59385800  1
  C  C35  1  0.04370500  0.59814500  0.82179100  1
  C  C36  1  0.52420000  0.31397100  0.10407300  1
  C  C37  1  0.07857600  0.25011100  0.90339900  1
  C  C38  1  0.31738200  0.10341900  0.52281400  1
  C  C39  1  0.10141500  0.51832200  0.32378200  1
