# generated using pymatgen
data_Cu19(Ni3C2)2
_symmetry_space_group_name_H-M   'P 1'
_cell_length_a   14.82664369
_cell_length_b   14.82664369
_cell_length_c   7.08602300
_cell_angle_alpha   90.00000000
_cell_angle_beta   90.00000000
_cell_angle_gamma   119.99999862
_symmetry_Int_Tables_number   1
_chemical_formula_structural   Cu19(Ni3C2)2
_chemical_formula_sum   'Cu57 Ni18 C12'
_cell_volume   1349.02158018
_cell_formula_units_Z   3
loop_
 _symmetry_equiv_pos_site_id
 _symmetry_equiv_pos_as_xyz
  1  'x, y, z'
loop_
 _atom_site_type_symbol
 _atom_site_label
 _atom_site_symmetry_multiplicity
 _atom_site_fract_x
 _atom_site_fract_y
 _atom_site_fract_z
 _atom_site_occupancy
  C  C0  1  0.57648700  0.18911200  0.52083900  1
  C  C1  1  0.66666700  0.33333300  0.16153100  1
  C  C2  1  0.00000000  0.00000000  0.87480300  1
  C  C3  1  0.61262500  0.42351300  0.52083900  1
  C  C4  1  0.02692100  0.13652800  0.51411900  1
  C  C5  1  0.81088800  0.38737500  0.52083900  1
  C  C6  1  0.30265600  0.52861000  0.34357300  1
  C  C7  1  0.22595500  0.69734400  0.34357300  1
  C  C8  1  0.33333300  0.66666700  0.98427000  1
  C  C9  1  0.10960700  0.97307900  0.51411900  1
  C  C10  1  0.47139000  0.77404500  0.34357300  1
  C  C11  1  0.86347200  0.89039300  0.51411900  1
  Ni  Ni12  1  0.22429500  0.17887200  0.32117600  1
  Ni  Ni13  1  0.53781400  0.10960000  0.12979800  1
  Ni  Ni14  1  0.43514900  0.24501900  0.71120100  1
  Ni  Ni15  1  0.82112800  0.04542300  0.32117600  1
  Ni  Ni16  1  0.75498100  0.19012900  0.71120100  1
  Ni  Ni17  1  0.57178700  0.46218600  0.12979800  1
  Ni  Ni18  1  0.02472700  0.20750400  0.90698600  1
  Ni  Ni19  1  0.89040000  0.42821300  0.12979800  1
  Ni  Ni20  1  0.80987100  0.56485100  0.71120100  1
  Ni  Ni21  1  0.10902100  0.49197800  0.53814700  1
  Ni  Ni22  1  0.95457700  0.77570500  0.32117600  1
  Ni  Ni23  1  0.30313700  0.45665500  0.95169900  1
  Ni  Ni24  1  0.15351900  0.69686300  0.95169900  1
  Ni  Ni25  1  0.50802200  0.61704300  0.53814700  1
  Ni  Ni26  1  0.18277700  0.97527300  0.90698600  1
  Ni  Ni27  1  0.38295700  0.89097900  0.53814700  1
  Ni  Ni28  1  0.54334500  0.84648100  0.95169900  1
  Ni  Ni29  1  0.79249600  0.81722300  0.90698600  1
  Cu  Cu30  1  0.13855400  0.02715200  0.96427400  1
  Cu  Cu31  1  0.22721200  0.10740300  0.42099400  1
  Cu  Cu32  1  0.29995500  0.24250600  0.23353800  1
  Cu  Cu33  1  0.49680100  0.02738300  0.04449000  1
  Cu  Cu34  1  0.35536000  0.21333200  0.80168900  1
  Cu  Cu35  1  0.49735300  0.12204600  0.28297800  1
  Cu  Cu36  1  0.49291200  0.20239800  0.72842300  1
  Cu  Cu37  1  0.46575600  0.32187500  0.59433800  1
  Cu  Cu38  1  0.67812500  0.14388100  0.59433800  1
  Cu  Cu39  1  0.75749400  0.05744900  0.23353800  1
  Cu  Cu40  1  0.62357800  0.18900100  0.07065700  1
  Cu  Cu41  1  0.78666800  0.14202800  0.80168900  1
  Cu  Cu42  1  0.56542200  0.37642200  0.07065700  1
  Cu  Cu43  1  0.66666700  0.33333300  0.43559500  1
  Cu  Cu44  1  0.00000000  0.00000000  0.59928500  1
  Cu  Cu45  1  0.53058100  0.50319900  0.04449000  1
  Cu  Cu46  1  0.89259700  0.11980900  0.42099400  1
  Cu  Cu47  1  0.97284800  0.11140200  0.96427400  1
  Cu  Cu48  1  0.79760200  0.29051500  0.72842300  1
  Cu  Cu49  1  0.62469300  0.50264700  0.28297800  1
  Cu  Cu50  1  0.70948500  0.50708800  0.72842300  1
  Cu  Cu51  1  0.81099900  0.43457800  0.07065700  1
  Cu  Cu52  1  0.87795400  0.37530700  0.28297800  1
  Cu  Cu53  1  0.07054400  0.22478000  0.74445300  1
  Cu  Cu54  1  0.13725300  0.18034600  0.31754700  1
  Cu  Cu55  1  0.03050700  0.27797700  0.00315100  1
  Cu  Cu56  1  0.85611900  0.53424400  0.59433800  1
  Cu  Cu57  1  0.97261700  0.46941900  0.04449000  1
  Cu  Cu58  1  0.85797200  0.64464000  0.80168900  1
  Cu  Cu59  1  0.03248400  0.43193000  0.62973300  1
  Cu  Cu60  1  0.94255100  0.70004500  0.23353800  1
  Cu  Cu61  1  0.88019100  0.77278800  0.42099400  1
  Cu  Cu62  1  0.29641400  0.38617400  0.85619400  1
  Cu  Cu63  1  0.10783700  0.56188300  0.43188000  1
  Cu  Cu64  1  0.19386100  0.48695800  0.54491300  1
  Cu  Cu65  1  0.25685000  0.44030500  0.11396800  1
  Cu  Cu66  1  0.88859800  0.86144600  0.96427400  1
  Cu  Cu67  1  0.08976000  0.70358600  0.85619400  1
  Cu  Cu68  1  0.19641300  0.64328800  0.89517700  1
  Cu  Cu69  1  0.35671200  0.55312500  0.89517700  1
  Cu  Cu70  1  0.18345500  0.74315000  0.11396800  1
  Cu  Cu71  1  0.04309300  0.86274700  0.31754700  1
  Cu  Cu72  1  0.43811700  0.54595400  0.43188000  1
  Cu  Cu73  1  0.33333300  0.66666700  0.26001900  1
  Cu  Cu74  1  0.29309800  0.80613900  0.54491300  1
  Cu  Cu75  1  0.15423600  0.92945600  0.74445300  1
  Cu  Cu76  1  0.56807000  0.60055400  0.62973300  1
  Cu  Cu77  1  0.24747000  0.96949300  0.00315100  1
  Cu  Cu78  1  0.44687500  0.80358700  0.89517700  1
  Cu  Cu79  1  0.51304200  0.70690200  0.54491300  1
  Cu  Cu80  1  0.45404600  0.89216300  0.43188000  1
  Cu  Cu81  1  0.39944600  0.96751600  0.62973300  1
  Cu  Cu82  1  0.55969500  0.81654500  0.11396800  1
  Cu  Cu83  1  0.72202300  0.75253000  0.00315100  1
  Cu  Cu84  1  0.61382600  0.91024000  0.85619400  1
  Cu  Cu85  1  0.77522000  0.84576400  0.74445300  1
  Cu  Cu86  1  0.81965400  0.95690700  0.31754700  1
