# generated using pymatgen
data_Cu18Ni4C5
_symmetry_space_group_name_H-M   'P 1'
_cell_length_a   11.52144800
_cell_length_b   12.77784300
_cell_length_c   13.93786187
_cell_angle_alpha   68.07584802
_cell_angle_beta   90.00000000
_cell_angle_gamma   90.00000000
_symmetry_Int_Tables_number   1
_chemical_formula_structural   Cu18Ni4C5
_chemical_formula_sum   'Cu72 Ni16 C20'
_cell_volume   1903.52448656
_cell_formula_units_Z   4
loop_
 _symmetry_equiv_pos_site_id
 _symmetry_equiv_pos_as_xyz
  1  'x, y, z'
loop_
 _atom_site_type_symbol
 _atom_site_label
 _atom_site_symmetry_multiplicity
 _atom_site_fract_x
 _atom_site_fract_y
 _atom_site_fract_z
 _atom_site_occupancy
  C  C0  1  0.55057000  0.71236500  0.38023000  1
  C  C1  1  0.05057000  0.28763500  0.11977000  1
  C  C2  1  0.44943000  0.28763500  0.61977000  1
  C  C3  1  0.94943000  0.71236500  0.88023000  1
  C  C4  1  0.78612000  0.81695800  0.40134400  1
  C  C5  1  0.28612000  0.18304200  0.09865600  1
  C  C6  1  0.21388000  0.18304200  0.59865600  1
  C  C7  1  0.71388000  0.81695800  0.90134400  1
  C  C8  1  0.49278500  0.71157900  0.16350600  1
  C  C9  1  0.99278500  0.28842100  0.33649400  1
  C  C10  1  0.50721500  0.28842100  0.83649400  1
  C  C11  1  0.00721500  0.71157900  0.66350600  1
  C  C12  1  0.40382300  0.58542400  0.57355100  1
  C  C13  1  0.90382300  0.41457600  0.92644900  1
  C  C14  1  0.59617700  0.41457600  0.42644900  1
  C  C15  1  0.09617700  0.58542400  0.07355100  1
  C  C16  1  0.43458200  0.92705900  0.38190600  1
  C  C17  1  0.93458200  0.07294100  0.11809400  1
  C  C18  1  0.56541800  0.07294100  0.61809400  1
  C  C19  1  0.06541800  0.92705900  0.88190600  1
  Ni  Ni20  1  0.13707300  0.72597900  0.37572400  1
  Ni  Ni21  1  0.63707300  0.27402100  0.12427600  1
  Ni  Ni22  1  0.86292700  0.27402100  0.62427600  1
  Ni  Ni23  1  0.36292700  0.72597900  0.87572400  1
  Ni  Ni24  1  0.72252700  0.49843000  0.15396000  1
  Ni  Ni25  1  0.22252700  0.50157000  0.34604000  1
  Ni  Ni26  1  0.27747300  0.50157000  0.84604000  1
  Ni  Ni27  1  0.77747300  0.49843000  0.65396000  1
  Ni  Ni28  1  0.06987700  0.98104600  0.38329100  1
  Ni  Ni29  1  0.56987700  0.01895400  0.11670900  1
  Ni  Ni30  1  0.93012300  0.01895400  0.61670900  1
  Ni  Ni31  1  0.43012300  0.98104600  0.88329100  1
  Ni  Ni32  1  0.72612600  0.13851600  0.35322500  1
  Ni  Ni33  1  0.22612600  0.86148400  0.14677500  1
  Ni  Ni34  1  0.27387400  0.86148400  0.64677500  1
  Ni  Ni35  1  0.77387400  0.13851600  0.85322500  1
  Cu  Cu36  1  0.80781700  0.89673500  0.45262800  1
  Cu  Cu37  1  0.30781700  0.10326500  0.04737200  1
  Cu  Cu38  1  0.19218300  0.10326500  0.54737200  1
  Cu  Cu39  1  0.69218300  0.89673500  0.95262800  1
  Cu  Cu40  1  0.89828100  0.79604100  0.36206800  1
  Cu  Cu41  1  0.39828100  0.20395900  0.13793200  1
  Cu  Cu42  1  0.10171900  0.20395900  0.63793200  1
  Cu  Cu43  1  0.60171900  0.79604100  0.86206800  1
  Cu  Cu44  1  0.69837300  0.86138300  0.31519200  1
  Cu  Cu45  1  0.19837300  0.13861700  0.18480800  1
  Cu  Cu46  1  0.30162700  0.13861700  0.68480800  1
  Cu  Cu47  1  0.80162700  0.86138300  0.81519200  1
  Cu  Cu48  1  0.73210600  0.70883700  0.47347600  1
  Cu  Cu49  1  0.23210600  0.29116300  0.02652400  1
  Cu  Cu50  1  0.26789400  0.29116300  0.52652400  1
  Cu  Cu51  1  0.76789400  0.70883700  0.97347600  1
  Cu  Cu52  1  0.60196900  0.75061500  0.19868100  1
  Cu  Cu53  1  0.10196900  0.24938500  0.30131900  1
  Cu  Cu54  1  0.39803100  0.24938500  0.80131900  1
  Cu  Cu55  1  0.89803100  0.75061500  0.69868100  1
  Cu  Cu56  1  0.51666200  0.63087600  0.11316300  1
  Cu  Cu57  1  0.01666200  0.36912400  0.38683700  1
  Cu  Cu58  1  0.48333800  0.36912400  0.88683700  1
  Cu  Cu59  1  0.98333800  0.63087600  0.61316300  1
  Cu  Cu60  1  0.43004800  0.80557100  0.08234100  1
  Cu  Cu61  1  0.93004800  0.19442900  0.41765900  1
  Cu  Cu62  1  0.56995200  0.19442900  0.91765900  1
  Cu  Cu63  1  0.06995200  0.80557100  0.58234100  1
  Cu  Cu64  1  0.42022300  0.66415600  0.25913400  1
  Cu  Cu65  1  0.92022300  0.33584400  0.24086600  1
  Cu  Cu66  1  0.57977700  0.33584400  0.74086600  1
  Cu  Cu67  1  0.07977700  0.66415600  0.75913400  1
  Cu  Cu68  1  0.37785400  0.46096700  0.60968200  1
  Cu  Cu69  1  0.87785400  0.53903300  0.89031800  1
  Cu  Cu70  1  0.62214600  0.53903300  0.39031800  1
  Cu  Cu71  1  0.12214600  0.46096700  0.10968200  1
  Cu  Cu72  1  0.36579900  0.64040100  0.46217500  1
  Cu  Cu73  1  0.86579900  0.35959900  0.03782500  1
  Cu  Cu74  1  0.63420100  0.35959900  0.53782500  1
  Cu  Cu75  1  0.13420100  0.64040100  0.96217500  1
  Cu  Cu76  1  0.53336800  0.60067600  0.56782400  1
  Cu  Cu77  1  0.03336800  0.39932400  0.93217600  1
  Cu  Cu78  1  0.46663200  0.39932400  0.43217600  1
  Cu  Cu79  1  0.96663200  0.60067600  0.06782400  1
  Cu  Cu80  1  0.34678100  0.63230200  0.64147800  1
  Cu  Cu81  1  0.84678100  0.36769800  0.85852200  1
  Cu  Cu82  1  0.65321900  0.36769800  0.35852200  1
  Cu  Cu83  1  0.15321900  0.63230200  0.14147800  1
  Cu  Cu84  1  0.43039300  0.87840600  0.29905200  1
  Cu  Cu85  1  0.93039300  0.12159400  0.20094800  1
  Cu  Cu86  1  0.56960700  0.12159400  0.70094800  1
  Cu  Cu87  1  0.06960700  0.87840600  0.79905200  1
  Cu  Cu88  1  0.31834500  0.94417400  0.41705900  1
  Cu  Cu89  1  0.81834500  0.05582600  0.08294100  1
  Cu  Cu90  1  0.68165500  0.05582600  0.58294100  1
  Cu  Cu91  1  0.18165500  0.94417400  0.91705900  1
  Cu  Cu92  1  0.50538800  0.84299900  0.46673600  1
  Cu  Cu93  1  0.00538800  0.15700100  0.03326400  1
  Cu  Cu94  1  0.49461200  0.15700100  0.53326400  1
  Cu  Cu95  1  0.99461200  0.84299900  0.96673600  1
  Cu  Cu96  1  0.48876600  0.04012700  0.34421200  1
  Cu  Cu97  1  0.98876600  0.95987300  0.15578800  1
  Cu  Cu98  1  0.51123400  0.95987300  0.65578800  1
  Cu  Cu99  1  0.01123400  0.04012700  0.84421200  1
  Cu  Cu100  1  0.38778200  0.29486400  0.29278000  1
  Cu  Cu101  1  0.88778200  0.70513600  0.20722000  1
  Cu  Cu102  1  0.61221800  0.70513600  0.70722000  1
  Cu  Cu103  1  0.11221800  0.29486400  0.79278000  1
  Cu  Cu104  1  0.37801500  0.38573800  0.22237200  1
  Cu  Cu105  1  0.87801500  0.61426200  0.27762800  1
  Cu  Cu106  1  0.62198500  0.61426200  0.77762800  1
  Cu  Cu107  1  0.12198500  0.38573800  0.72237200  1
