# generated using pymatgen
data_Cu19Ni5C12
_symmetry_space_group_name_H-M   'P 1'
_cell_length_a   4.83523700
_cell_length_b   5.85588950
_cell_length_c   15.99555439
_cell_angle_alpha   89.28302075
_cell_angle_beta   89.61765288
_cell_angle_gamma   89.38484924
_symmetry_Int_Tables_number   1
_chemical_formula_structural   Cu19Ni5C12
_chemical_formula_sum   'Cu19 Ni5 C12'
_cell_volume   452.83669656
_cell_formula_units_Z   1
loop_
 _symmetry_equiv_pos_site_id
 _symmetry_equiv_pos_as_xyz
  1  'x, y, z'
loop_
 _atom_site_type_symbol
 _atom_site_label
 _atom_site_symmetry_multiplicity
 _atom_site_fract_x
 _atom_site_fract_y
 _atom_site_fract_z
 _atom_site_occupancy
  C  C0  1  0.99818500  0.17328700  0.40589100  1
  C  C1  1  0.01709700  0.85222100  0.24971900  1
  C  C2  1  0.98794200  0.18192700  0.08037500  1
  C  C3  1  0.02878100  0.14525000  0.74684300  1
  C  C4  1  0.01023000  0.85291400  0.58347200  1
  C  C5  1  0.01415200  0.83981000  0.91125600  1
  C  C6  1  0.48995300  0.31530500  0.58947000  1
  C  C7  1  0.52075600  0.33752900  0.92094100  1
  C  C8  1  0.49680200  0.32591700  0.26119300  1
  C  C9  1  0.51790600  0.64275900  0.08283200  1
  C  C10  1  0.51627400  0.64473600  0.41812600  1
  C  C11  1  0.47929200  0.67653700  0.75185800  1
  Ni  Ni12  1  0.21637300  0.12398600  0.30545100  1
  Ni  Ni13  1  0.21048300  0.09928000  0.64099100  1
  Ni  Ni14  1  0.21878200  0.90009100  0.80237600  1
  Ni  Ni15  1  0.71607500  0.40603500  0.03175500  1
  Ni  Ni16  1  0.71648600  0.37456300  0.36043700  1
  Cu  Cu17  1  0.22456500  0.11364200  0.97281900  1
  Cu  Cu18  1  0.24728000  0.87437300  0.13287000  1
  Cu  Cu19  1  0.22899900  0.89834800  0.46867400  1
  Cu  Cu20  1  0.27793400  0.38207700  0.15051900  1
  Cu  Cu21  1  0.26603900  0.61841100  0.30931200  1
  Cu  Cu22  1  0.26191700  0.39268700  0.47686700  1
  Cu  Cu23  1  0.26620400  0.59997600  0.63910300  1
  Cu  Cu24  1  0.27104200  0.39875900  0.81104600  1
  Cu  Cu25  1  0.26663900  0.61581500  0.97884900  1
  Cu  Cu26  1  0.72764700  0.60364600  0.19671400  1
  Cu  Cu27  1  0.73828900  0.61709600  0.53379800  1
  Cu  Cu28  1  0.72889400  0.61989100  0.85952600  1
  Cu  Cu29  1  0.74228200  0.37580700  0.69963700  1
  Cu  Cu30  1  0.76116900  0.10116400  0.19071700  1
  Cu  Cu31  1  0.77344600  0.12032000  0.51647100  1
  Cu  Cu32  1  0.76583600  0.87971400  0.35893600  1
  Cu  Cu33  1  0.76658900  0.89046800  0.02287500  1
  Cu  Cu34  1  0.78286100  0.12416100  0.85199900  1
  Cu  Cu35  1  0.74679700  0.88149700  0.68628400  1
