# generated using pymatgen
data_Cu7Ni3C10
_symmetry_space_group_name_H-M   'P 1'
_cell_length_a   6.52211900
_cell_length_b   6.67307652
_cell_length_c   8.43280527
_cell_angle_alpha   86.77136285
_cell_angle_beta   89.31108647
_cell_angle_gamma   78.21790026
_symmetry_Int_Tables_number   1
_chemical_formula_structural   Cu7Ni3C10
_chemical_formula_sum   'Cu14 Ni6 C20'
_cell_volume   358.71466329
_cell_formula_units_Z   2
loop_
 _symmetry_equiv_pos_site_id
 _symmetry_equiv_pos_as_xyz
  1  'x, y, z'
loop_
 _atom_site_type_symbol
 _atom_site_label
 _atom_site_symmetry_multiplicity
 _atom_site_fract_x
 _atom_site_fract_y
 _atom_site_fract_z
 _atom_site_occupancy
  C  C0  1  0.75537100  0.01137100  0.37634300  1
  C  C1  1  0.24462900  0.98862900  0.62365700  1
  Ni  Ni2  1  0.51483200  0.31622600  0.79885500  1
  Ni  Ni3  1  0.48516800  0.68377400  0.20114500  1
  Ni  Ni4  1  0.83415000  0.28783500  0.63204400  1
  Ni  Ni5  1  0.16585000  0.71216500  0.36795600  1
  Ni  Ni6  1  0.30068600  0.03981900  0.26464500  1
  Ni  Ni7  1  0.69931400  0.96018100  0.73535500  1
  Cu  Cu8  1  0.34910900  0.56919000  0.89958100  1
  Cu  Cu9  1  0.65089100  0.43081000  0.10041900  1
  Cu  Cu10  1  0.85082400  0.45719300  0.42080000  1
  Cu  Cu11  1  0.14917600  0.54280700  0.57920000  1
  Cu  Cu12  1  0.35620900  0.31763900  0.34936100  1
  Cu  Cu13  1  0.64379100  0.68236100  0.65063900  1
  Cu  Cu14  1  0.26960000  0.25285500  0.06471700  1
  Cu  Cu15  1  0.73040000  0.74714500  0.93528300  1
  Cu  Cu16  1  0.05277500  0.37324300  0.77940700  1
  Cu  Cu17  1  0.94722500  0.62675700  0.22059300  1
  Cu  Cu18  1  0.77290400  0.05037400  0.02956300  1
  Cu  Cu19  1  0.22709600  0.94962600  0.97043700  1
  Cu  Cu20  1  0.93853300  0.16574400  0.10383800  1
  Cu  Cu21  1  0.06146700  0.83425600  0.89616200  1
  C  C22  1  0.67218500  0.40388000  0.73568100  1
  C  C23  1  0.32781500  0.59612000  0.26431900  1
  C  C24  1  0.35425600  0.42123100  0.89027600  1
  C  C25  1  0.64574400  0.57876900  0.10972400  1
  C  C26  1  0.50787500  0.11395300  0.77772200  1
  C  C27  1  0.49212500  0.88604700  0.22227800  1
  C  C28  1  0.79542300  0.33761600  0.46250200  1
  C  C29  1  0.20457700  0.66238400  0.53749800  1
  C  C30  1  0.85129800  0.06199200  0.65237600  1
  C  C31  1  0.14870200  0.93800800  0.34762400  1
  C  C32  1  0.38077700  0.16984600  0.37898400  1
  C  C33  1  0.61922300  0.83015400  0.62101600  1
  C  C34  1  0.78781400  0.15285800  0.10720700  1
  C  C35  1  0.21218600  0.84714200  0.89279300  1
  C  C36  1  0.19892200  0.15237300  0.12091800  1
  C  C37  1  0.80107800  0.84762700  0.87908200  1
  C  C38  1  0.04297800  0.33347600  0.67066500  1
  C  C39  1  0.95702200  0.66652400  0.32933500  1
