# generated using pymatgen
data_CuNi7C12
_symmetry_space_group_name_H-M   'P 1'
_cell_length_a   9.25355998
_cell_length_b   9.25355998
_cell_length_c   9.25355998
_cell_angle_alpha   109.47633692
_cell_angle_beta   109.47275766
_cell_angle_gamma   109.46456755
_symmetry_Int_Tables_number   1
_chemical_formula_structural   CuNi7C12
_chemical_formula_sum   'Cu2 Ni14 C24'
_cell_volume   609.96460833
_cell_formula_units_Z   2
loop_
 _symmetry_equiv_pos_site_id
 _symmetry_equiv_pos_as_xyz
  1  'x, y, z'
loop_
 _atom_site_type_symbol
 _atom_site_label
 _atom_site_symmetry_multiplicity
 _atom_site_fract_x
 _atom_site_fract_y
 _atom_site_fract_z
 _atom_site_occupancy
  Ni  Ni0  1  0.21734100  0.25000000  0.46734100  1
  Ni  Ni1  1  0.99919700  0.49985900  0.49940400  1
  Ni  Ni2  1  0.75000000  0.96719000  0.21719000  1
  Ni  Ni3  1  0.25000000  0.53281000  0.28281000  1
  Ni  Ni4  1  0.53327600  0.78327600  0.75000000  1
  Ni  Ni5  1  0.03210300  0.28210300  0.75000000  1
  Ni  Ni6  1  0.99954400  0.00014100  0.99933700  1
  Ni  Ni7  1  0.50080300  0.00020700  0.50066300  1
  Ni  Ni8  1  0.50045600  0.49979300  0.00059600  1
  Ni  Ni9  1  0.28265900  0.75000000  0.03265900  1
  Ni  Ni10  1  0.46789700  0.21789700  0.25000000  1
  Ni  Ni11  1  0.96672400  0.71672400  0.25000000  1
  Ni  Ni12  1  0.75000000  0.46783000  0.71783000  1
  Ni  Ni13  1  0.25000000  0.03217000  0.78217000  1
  Cu  Cu14  1  0.71706700  0.25000000  0.96706700  1
  Cu  Cu15  1  0.78293300  0.75000000  0.53293300  1
  C  C16  1  0.48931600  0.72811400  0.95765800  1
  C  C17  1  0.27045600  0.53165900  0.54234200  1
  C  C18  1  0.04156000  0.77026700  0.53135000  1
  C  C19  1  0.23937700  0.27076700  0.22810500  1
  C  C20  1  0.26062300  0.48872900  0.03139000  1
  C  C21  1  0.45844000  0.98979000  0.72870600  1
  C  C22  1  0.22954400  0.77188600  0.26120300  1
  C  C23  1  0.01068400  0.96834100  0.23879700  1
  C  C24  1  0.03133400  0.54235700  0.77067600  1
  C  C25  1  0.77176900  0.04382900  0.01110300  1
  C  C26  1  0.27168100  0.26065800  0.72932400  1
  C  C27  1  0.53272700  0.76066600  0.48889700  1
  C  C28  1  0.46866600  0.23934200  0.51102300  1
  C  C29  1  0.22831900  0.95764300  0.98897700  1
  C  C30  1  0.72823100  0.73933400  0.27206100  1
  C  C31  1  0.96727300  0.45617100  0.22793900  1
  C  C32  1  0.98754300  0.02972400  0.75873800  1
  C  C33  1  0.77098600  0.22880400  0.74126200  1
  C  C34  1  0.54266200  0.01127100  0.27189500  1
  C  C35  1  0.73891600  0.51021000  0.96865000  1
  C  C36  1  0.76108400  0.72973300  0.77129400  1
  C  C37  1  0.95733800  0.22923300  0.46861000  1
  C  C38  1  0.72901400  0.47027600  0.45781800  1
  C  C39  1  0.51245700  0.27119600  0.04218200  1
