# generated using pymatgen
data_Cu2Ni2C
_symmetry_space_group_name_H-M   'P 1'
_cell_length_a   8.75572800
_cell_length_b   8.71838659
_cell_length_c   7.15788274
_cell_angle_alpha   100.67829982
_cell_angle_beta   103.04467565
_cell_angle_gamma   103.38953683
_symmetry_Int_Tables_number   1
_chemical_formula_structural   Cu2Ni2C
_chemical_formula_sum   'Cu8 Ni8 C4'
_cell_volume   501.30071168
_cell_formula_units_Z   4
loop_
 _symmetry_equiv_pos_site_id
 _symmetry_equiv_pos_as_xyz
  1  'x, y, z'
loop_
 _atom_site_type_symbol
 _atom_site_label
 _atom_site_symmetry_multiplicity
 _atom_site_fract_x
 _atom_site_fract_y
 _atom_site_fract_z
 _atom_site_occupancy
  C  C0  1  0.77074400  0.24263400  0.76757000  1
  C  C1  1  0.22925600  0.75736600  0.23243000  1
  C  C2  1  0.57382300  0.74533300  0.91991000  1
  C  C3  1  0.42617700  0.25466700  0.08009000  1
  Ni  Ni4  1  0.70305800  0.14354000  0.06765900  1
  Ni  Ni5  1  0.29694200  0.85646000  0.93234100  1
  Ni  Ni6  1  0.45043100  0.34755500  0.80076600  1
  Ni  Ni7  1  0.54956900  0.65244500  0.19923400  1
  Ni  Ni8  1  0.56209500  0.81347400  0.64010400  1
  Ni  Ni9  1  0.43790500  0.18652600  0.35989600  1
  Ni  Ni10  1  0.87451600  0.68360800  0.96309500  1
  Ni  Ni11  1  0.12548400  0.31639200  0.03690500  1
  Cu  Cu12  1  0.86632300  0.07499000  0.41921900  1
  Cu  Cu13  1  0.13367700  0.92501000  0.58078100  1
  Cu  Cu14  1  0.03112900  0.90060800  0.65501300  1
  Cu  Cu15  1  0.96887100  0.09939200  0.34498700  1
  Cu  Cu16  1  0.78317200  0.51546100  0.50144600  1
  Cu  Cu17  1  0.21682800  0.48453900  0.49855400  1
  Cu  Cu18  1  0.14754200  0.45036100  0.60150400  1
  Cu  Cu19  1  0.85245800  0.54963900  0.39849600  1
