# generated using pymatgen
data_Cu(NiC)4
_symmetry_space_group_name_H-M   'P 1'
_cell_length_a   13.67939200
_cell_length_b   8.03336400
_cell_length_c   9.48770743
_cell_angle_alpha   74.82376116
_cell_angle_beta   90.00000000
_cell_angle_gamma   90.00000000
_symmetry_Int_Tables_number   1
_chemical_formula_structural   Cu(NiC)4
_chemical_formula_sum   'Cu4 Ni16 C16'
_cell_volume   1006.25755713
_cell_formula_units_Z   4
loop_
 _symmetry_equiv_pos_site_id
 _symmetry_equiv_pos_as_xyz
  1  'x, y, z'
loop_
 _atom_site_type_symbol
 _atom_site_label
 _atom_site_symmetry_multiplicity
 _atom_site_fract_x
 _atom_site_fract_y
 _atom_site_fract_z
 _atom_site_occupancy
  C  C0  1  0.55318200  0.95292800  0.22677600  1
  C  C1  1  0.05318200  0.04707200  0.77322400  1
  C  C2  1  0.56860700  0.36957200  0.31319200  1
  C  C3  1  0.06860700  0.63042800  0.68680800  1
  Ni  Ni4  1  0.37293400  0.54132500  0.74435200  1
  Ni  Ni5  1  0.87293400  0.45867500  0.25564800  1
  Ni  Ni6  1  0.32286200  0.46640900  0.51763900  1
  Ni  Ni7  1  0.82286200  0.53359100  0.48236100  1
  Ni  Ni8  1  0.39560900  0.55835400  0.87293500  1
  Ni  Ni9  1  0.89560900  0.44164600  0.12706500  1
  Ni  Ni10  1  0.41443400  0.57319300  0.00181500  1
  Ni  Ni11  1  0.91443400  0.42680700  0.99818500  1
  Ni  Ni12  1  0.70303500  0.91169300  0.49206800  1
  Ni  Ni13  1  0.20303500  0.08830700  0.50793200  1
  Ni  Ni14  1  0.64508300  0.02426200  0.84484700  1
  Ni  Ni15  1  0.14508300  0.97573800  0.15515300  1
  Ni  Ni16  1  0.70283300  0.96313400  0.74289800  1
  Ni  Ni17  1  0.20283300  0.03686600  0.25710200  1
  Ni  Ni18  1  0.74608700  0.98009400  0.86539600  1
  Ni  Ni19  1  0.24608700  0.01990600  0.13460400  1
  Cu  Cu20  1  0.35693900  0.53589200  0.61975900  1
  Cu  Cu21  1  0.85693900  0.46410800  0.38024100  1
  Cu  Cu22  1  0.70411900  0.92441100  0.61446400  1
  Cu  Cu23  1  0.20411900  0.07558900  0.38553600  1
  C  C24  1  0.45774400  0.06026600  0.39852100  1
  C  C25  1  0.95774400  0.93973400  0.60147900  1
  C  C26  1  0.34174000  0.03434100  0.02377400  1
  C  C27  1  0.84174000  0.96565900  0.97622600  1
  C  C28  1  0.62557300  0.71970300  0.15432100  1
  C  C29  1  0.12557300  0.28029700  0.84567900  1
  C  C30  1  0.36582200  0.56036300  0.34211800  1
  C  C31  1  0.86582200  0.43963700  0.65788200  1
  C  C32  1  0.64174200  0.40485400  0.53157800  1
  C  C33  1  0.14174200  0.59514600  0.46842200  1
  C  C34  1  0.59645600  0.28461500  0.08801400  1
  C  C35  1  0.09645600  0.71538500  0.91198600  1
