# generated using pymatgen
data_Cu(NiC4)3
_symmetry_space_group_name_H-M   'P 1'
_cell_length_a   5.97928208
_cell_length_b   5.97928208
_cell_length_c   5.97928184
_cell_angle_alpha   60.56453809
_cell_angle_beta   60.56453809
_cell_angle_gamma   60.56453285
_symmetry_Int_Tables_number   1
_chemical_formula_structural   Cu(NiC4)3
_chemical_formula_sum   'Cu1 Ni3 C12'
_cell_volume   153.08607231
_cell_formula_units_Z   1
loop_
 _symmetry_equiv_pos_site_id
 _symmetry_equiv_pos_as_xyz
  1  'x, y, z'
loop_
 _atom_site_type_symbol
 _atom_site_label
 _atom_site_symmetry_multiplicity
 _atom_site_fract_x
 _atom_site_fract_y
 _atom_site_fract_z
 _atom_site_occupancy
  C  C0  1  0.50000000  0.50000000  0.50000000  1
  C  C1  1  0.50000000  0.00000000  0.00000000  1
  C  C2  1  0.00000000  0.00000000  0.50000000  1
  C  C3  1  0.00000000  0.50000000  0.00000000  1
  Ni  Ni4  1  0.00000000  0.50000000  0.50000000  1
  Ni  Ni5  1  0.50000000  0.50000000  0.00000000  1
  Ni  Ni6  1  0.50000000  0.00000000  0.50000000  1
  Cu  Cu7  1  0.00000000  0.00000000  0.00000000  1
  C  C8  1  0.73300800  0.73300800  0.73300800  1
  C  C9  1  0.76857600  0.23679800  0.23679800  1
  C  C10  1  0.23679800  0.23679800  0.76857600  1
  C  C11  1  0.26699200  0.26699200  0.26699200  1
  C  C12  1  0.23679800  0.76857600  0.23679800  1
  C  C13  1  0.23142400  0.76320200  0.76320200  1
  C  C14  1  0.76320200  0.76320200  0.23142400  1
  C  C15  1  0.76320200  0.23142400  0.76320200  1
