# generated using pymatgen
data_Cu4NiC7
_symmetry_space_group_name_H-M   'P 1'
_cell_length_a   10.45307100
_cell_length_b   9.89439407
_cell_length_c   7.61166514
_cell_angle_alpha   92.13686282
_cell_angle_beta   94.76088934
_cell_angle_gamma   90.72999936
_symmetry_Int_Tables_number   1
_chemical_formula_structural   Cu4NiC7
_chemical_formula_sum   'Cu24 Ni6 C42'
_cell_volume   783.88930654
_cell_formula_units_Z   6
loop_
 _symmetry_equiv_pos_site_id
 _symmetry_equiv_pos_as_xyz
  1  'x, y, z'
loop_
 _atom_site_type_symbol
 _atom_site_label
 _atom_site_symmetry_multiplicity
 _atom_site_fract_x
 _atom_site_fract_y
 _atom_site_fract_z
 _atom_site_occupancy
  C  C0  1  0.93436200  0.09114400  0.88236500  1
  C  C1  1  0.06563800  0.90885600  0.11763500  1
  C  C2  1  0.58935600  0.04938200  0.86779400  1
  C  C3  1  0.41064400  0.95061800  0.13220600  1
  C  C4  1  0.93723200  0.41682000  0.13679100  1
  C  C5  1  0.06276800  0.58318000  0.86320900  1
  C  C6  1  0.75834900  0.77040400  0.66134100  1
  C  C7  1  0.24165100  0.22959600  0.33865900  1
  C  C8  1  0.55027000  0.42189500  0.14591500  1
  C  C9  1  0.44973000  0.57810500  0.85408500  1
  Ni  Ni10  1  0.74545400  0.25989600  0.39097000  1
  Ni  Ni11  1  0.25454600  0.74010400  0.60903000  1
  Ni  Ni12  1  0.73438100  0.04763700  0.14739200  1
  Ni  Ni13  1  0.26561900  0.95236300  0.85260800  1
  Ni  Ni14  1  0.76331800  0.71772100  0.99486900  1
  Ni  Ni15  1  0.23668200  0.28227900  0.00513100  1
  Cu  Cu16  1  0.71902200  0.38822700  0.89263400  1
  Cu  Cu17  1  0.28097800  0.61177300  0.10736600  1
  Cu  Cu18  1  0.76522000  0.32512600  0.75390800  1
  Cu  Cu19  1  0.23478000  0.67487400  0.24609200  1
  Cu  Cu20  1  0.90958700  0.10714800  0.58800400  1
  Cu  Cu21  1  0.09041300  0.89285200  0.41199600  1
  Cu  Cu22  1  0.99139300  0.94278800  0.61998400  1
  Cu  Cu23  1  0.00860700  0.05721200  0.38001600  1
  Cu  Cu24  1  0.60494900  0.08708800  0.58452300  1
  Cu  Cu25  1  0.39505100  0.91291200  0.41547700  1
  Cu  Cu26  1  0.51068500  0.92493400  0.61189900  1
  Cu  Cu27  1  0.48931500  0.07506600  0.38810100  1
  Cu  Cu28  1  0.58330800  0.44009100  0.60366100  1
  Cu  Cu29  1  0.41669200  0.55990900  0.39633900  1
  Cu  Cu30  1  0.51285600  0.61978900  0.60049500  1
  Cu  Cu31  1  0.48714400  0.38021100  0.39950500  1
  Cu  Cu32  1  0.75758200  0.82901100  0.38154100  1
  Cu  Cu33  1  0.24241800  0.17098900  0.61845900  1
  Cu  Cu34  1  0.74816700  0.62243400  0.38119400  1
  Cu  Cu35  1  0.25183300  0.37756600  0.61880600  1
  Cu  Cu36  1  0.08854300  0.55953000  0.40329700  1
  Cu  Cu37  1  0.91145700  0.44047000  0.59670300  1
  Cu  Cu38  1  0.99699000  0.39088900  0.37785600  1
  Cu  Cu39  1  0.00301000  0.60911100  0.62214400  1
  C  C40  1  0.73112100  0.06640600  0.30305800  1
  C  C41  1  0.26887900  0.93359400  0.69694200  1
  C  C42  1  0.71178100  0.83671400  0.12770500  1
  C  C43  1  0.28821900  0.16328600  0.87229500  1
  C  C44  1  0.61033200  0.12887100  0.09349000  1
  C  C45  1  0.38966800  0.87112900  0.90651000  1
  C  C46  1  0.87231800  0.10716800  0.10348300  1
  C  C47  1  0.12768200  0.89283200  0.89651700  1
  C  C48  1  0.61910300  0.25458300  0.47583300  1
  C  C49  1  0.38089700  0.74541700  0.52416700  1
  C  C50  1  0.87938700  0.25202400  0.46678800  1
  C  C51  1  0.12061200  0.74797600  0.53321200  1
  C  C52  1  0.74748000  0.40187400  0.29655700  1
  C  C53  1  0.25252000  0.59812600  0.70344300  1
  C  C54  1  0.65904200  0.56298200  0.98320500  1
  C  C55  1  0.34095800  0.43701800  0.01679500  1
  C  C56  1  0.90633800  0.66625500  0.02855500  1
  C  C57  1  0.09366200  0.33374500  0.97144500  1
  C  C58  1  0.75562200  0.83959300  0.88609600  1
  C  C59  1  0.24437800  0.16040700  0.11390400  1
  C  C60  1  0.74717500  0.28183400  0.83720700  1
  C  C61  1  0.25282500  0.71816600  0.16279300  1
  C  C62  1  0.92740000  0.02802400  0.65692300  1
  C  C63  1  0.07260000  0.97197600  0.34307700  1
  C  C64  1  0.59036500  0.99523700  0.64575000  1
  C  C65  1  0.40963500  0.00476300  0.35425000  1
  C  C66  1  0.57059400  0.55287600  0.65551200  1
  C  C67  1  0.42940600  0.44712400  0.34448800  1
  C  C68  1  0.75497800  0.73359500  0.43770800  1
  C  C69  1  0.24502200  0.26640500  0.56229200  1
  C  C70  1  0.07052000  0.45889200  0.33815300  1
  C  C71  1  0.92948000  0.54110800  0.66184700  1
