# generated using pymatgen
data_Cu2Ni3C13
_symmetry_space_group_name_H-M   'P 1'
_cell_length_a   6.70119400
_cell_length_b   8.23748110
_cell_length_c   9.98729956
_cell_angle_alpha   107.14189060
_cell_angle_beta   102.66572407
_cell_angle_gamma   102.24645147
_symmetry_Int_Tables_number   1
_chemical_formula_structural   Cu2Ni3C13
_chemical_formula_sum   'Cu4 Ni6 C26'
_cell_volume   490.83269153
_cell_formula_units_Z   2
loop_
 _symmetry_equiv_pos_site_id
 _symmetry_equiv_pos_as_xyz
  1  'x, y, z'
loop_
 _atom_site_type_symbol
 _atom_site_label
 _atom_site_symmetry_multiplicity
 _atom_site_fract_x
 _atom_site_fract_y
 _atom_site_fract_z
 _atom_site_occupancy
  Ni  Ni0  1  0.22920800  0.16767200  0.76469800  1
  Ni  Ni1  1  0.40989200  0.22504700  0.37862500  1
  Ni  Ni2  1  0.88006400  0.39832400  0.16681000  1
  Ni  Ni3  1  0.11993600  0.60167600  0.83319000  1
  Ni  Ni4  1  0.59010800  0.77495300  0.62137500  1
  Ni  Ni5  1  0.77079200  0.83232800  0.23530200  1
  Cu  Cu6  1  0.95223500  0.29455800  0.48459600  1
  Cu  Cu7  1  0.62253200  0.56201700  0.89409200  1
  Cu  Cu8  1  0.37746800  0.43798300  0.10590800  1
  Cu  Cu9  1  0.04776500  0.70544200  0.51540400  1
  C  C10  1  0.74866200  0.23558900  0.73446100  1
  C  C11  1  0.25133800  0.76441100  0.26553900  1
  C  C12  1  0.82087700  0.05239800  0.32551300  1
  C  C13  1  0.22753400  0.20529800  0.94132900  1
  C  C14  1  0.99972100  0.23082000  0.67583900  1
  C  C15  1  0.32208400  0.99679700  0.28147100  1
  C  C16  1  0.49435900  0.28255500  0.76747100  1
  C  C17  1  0.66144500  0.27858100  0.50679500  1
  C  C18  1  0.84073800  0.18983400  0.07711100  1
  C  C19  1  0.86810800  0.48190800  0.84759300  1
  C  C20  1  0.23500000  0.28173100  0.47626100  1
  C  C21  1  0.91998400  0.43865100  0.35751700  1
  C  C22  1  0.33567600  0.53127200  0.92070400  1
  C  C23  1  0.42549600  0.33754100  0.25636000  1
  C  C24  1  0.57450400  0.66245900  0.74364000  1
  C  C25  1  0.66432400  0.46872800  0.07929600  1
  C  C26  1  0.08001600  0.56134900  0.64248300  1
  C  C27  1  0.76500000  0.71826900  0.52373900  1
  C  C28  1  0.13189200  0.51809200  0.15240700  1
  C  C29  1  0.15926200  0.81016600  0.92288900  1
  C  C30  1  0.33855500  0.72141900  0.49320500  1
  C  C31  1  0.50564100  0.71744500  0.23252900  1
  C  C32  1  0.67791600  0.00320300  0.71852900  1
  C  C33  1  0.00027900  0.76918000  0.32416100  1
  C  C34  1  0.77246600  0.79470200  0.05867100  1
  C  C35  1  0.17912300  0.94760200  0.67448700  1
