# generated using pymatgen
data_Cu5(NiC8)2
_symmetry_space_group_name_H-M   'P 1'
_cell_length_a   11.13335500
_cell_length_b   11.13335500
_cell_length_c   7.82503100
_cell_angle_alpha   90.00000000
_cell_angle_beta   90.00000000
_cell_angle_gamma   90.00000000
_symmetry_Int_Tables_number   1
_chemical_formula_structural   Cu5(NiC8)2
_chemical_formula_sum   'Cu20 Ni8 C64'
_cell_volume   969.92506208
_cell_formula_units_Z   4
loop_
 _symmetry_equiv_pos_site_id
 _symmetry_equiv_pos_as_xyz
  1  'x, y, z'
loop_
 _atom_site_type_symbol
 _atom_site_label
 _atom_site_symmetry_multiplicity
 _atom_site_fract_x
 _atom_site_fract_y
 _atom_site_fract_z
 _atom_site_occupancy
  C  C0  1  0.75000000  0.25000000  0.00000000  1
  C  C1  1  0.25000000  0.25000000  0.00000000  1
  C  C2  1  0.50000000  0.50000000  0.50000000  1
  C  C3  1  0.75000000  0.75000000  0.00000000  1
  C  C4  1  0.25000000  0.75000000  0.00000000  1
  C  C5  1  0.00000000  0.00000000  0.50000000  1
  C  C6  1  0.00000000  0.27224700  0.47399800  1
  C  C7  1  0.33847600  0.32570000  0.33591300  1
  C  C8  1  0.66152400  0.32570000  0.33591300  1
  C  C9  1  0.00000000  0.33552900  0.97099800  1
  C  C10  1  0.32570000  0.33847600  0.66408700  1
  C  C11  1  0.67430000  0.33847600  0.66408700  1
  C  C12  1  0.88435300  0.38435300  0.24978400  1
  C  C13  1  0.11564700  0.38435300  0.24978400  1
  C  C14  1  0.50000000  0.38973300  0.11124300  1
  C  C15  1  0.88983800  0.38983800  0.69891800  1
  C  C16  1  0.11016200  0.38983800  0.69891800  1
  C  C17  1  0.83552900  0.50000000  0.97099800  1
  C  C18  1  0.77224700  0.50000000  0.47399800  1
  C  C19  1  0.00000000  0.50000000  0.46720900  1
  C  C20  1  0.38973300  0.50000000  0.88875700  1
  C  C21  1  0.61026700  0.50000000  0.88875700  1
  C  C22  1  0.16447100  0.50000000  0.97099800  1
  C  C23  1  0.22775300  0.50000000  0.47399800  1
  C  C24  1  0.88983800  0.61016200  0.69891800  1
  C  C25  1  0.11016200  0.61016200  0.69891800  1
  C  C26  1  0.50000000  0.61026700  0.11124300  1
  C  C27  1  0.88435300  0.61564700  0.24978400  1
  C  C28  1  0.11564700  0.61564700  0.24978400  1
  C  C29  1  0.32570000  0.66152400  0.66408700  1
  C  C30  1  0.67430000  0.66152400  0.66408700  1
  C  C31  1  0.00000000  0.66447100  0.97099800  1
  C  C32  1  0.33847600  0.67430000  0.33591300  1
  C  C33  1  0.66152400  0.67430000  0.33591300  1
  C  C34  1  0.00000000  0.72775300  0.47399800  1
  C  C35  1  0.50000000  0.77224700  0.52600200  1
  C  C36  1  0.83847600  0.82570000  0.66408700  1
  C  C37  1  0.16152400  0.82570000  0.66408700  1
  C  C38  1  0.50000000  0.83552900  0.02900200  1
  C  C39  1  0.82570000  0.83847600  0.33591300  1
  C  C40  1  0.17430000  0.83847600  0.33591300  1
  C  C41  1  0.38435300  0.88435300  0.75021600  1
  C  C42  1  0.61564700  0.88435300  0.75021600  1
  C  C43  1  0.00000000  0.88973300  0.88875700  1
  C  C44  1  0.38983800  0.88983800  0.30108200  1
  C  C45  1  0.61016200  0.88983800  0.30108200  1
  C  C46  1  0.66447100  0.00000000  0.02900200  1
  C  C47  1  0.72775300  0.00000000  0.52600200  1
  C  C48  1  0.88973300  0.00000000  0.11124300  1
  C  C49  1  0.11026700  0.00000000  0.11124300  1
  C  C50  1  0.27224700  0.00000000  0.52600200  1
  C  C51  1  0.33552900  0.00000000  0.02900200  1
  C  C52  1  0.50000000  0.00000000  0.53279100  1
  C  C53  1  0.38983800  0.11016200  0.30108200  1
  C  C54  1  0.61016200  0.11016200  0.30108200  1
  C  C55  1  0.00000000  0.11026700  0.88875700  1
  C  C56  1  0.38435300  0.11564700  0.75021600  1
  C  C57  1  0.61564700  0.11564700  0.75021600  1
  C  C58  1  0.82570000  0.16152400  0.33591300  1
  C  C59  1  0.17430000  0.16152400  0.33591300  1
  C  C60  1  0.50000000  0.16447100  0.02900200  1
  C  C61  1  0.83847600  0.17430000  0.66408700  1
  C  C62  1  0.16152400  0.17430000  0.66408700  1
  C  C63  1  0.50000000  0.22775300  0.52600200  1
  Ni  Ni64  1  0.50000000  0.31804600  0.82475400  1
  Ni  Ni65  1  0.31804600  0.50000000  0.17524600  1
  Ni  Ni66  1  0.68195400  0.50000000  0.17524600  1
  Ni  Ni67  1  0.50000000  0.68195400  0.82475400  1
  Ni  Ni68  1  0.00000000  0.81804600  0.17524600  1
  Ni  Ni69  1  0.81804600  0.00000000  0.82475400  1
  Ni  Ni70  1  0.18195400  0.00000000  0.82475400  1
  Ni  Ni71  1  0.00000000  0.18195400  0.17524600  1
  Cu  Cu72  1  0.81344200  0.31344200  0.48227300  1
  Cu  Cu73  1  0.18655800  0.31344200  0.48227300  1
  Cu  Cu74  1  0.50000000  0.25628900  0.26334200  1
  Cu  Cu75  1  0.00000000  0.50000000  0.10799000  1
  Cu  Cu76  1  0.00000000  0.50000000  0.85108400  1
  Cu  Cu77  1  0.25628900  0.50000000  0.73665800  1
  Cu  Cu78  1  0.74371100  0.50000000  0.73665800  1
  Cu  Cu79  1  0.50000000  0.74371100  0.26334200  1
  Cu  Cu80  1  0.81344200  0.68655800  0.48227300  1
  Cu  Cu81  1  0.18655800  0.68655800  0.48227300  1
  Cu  Cu82  1  0.31344200  0.81344200  0.51772700  1
  Cu  Cu83  1  0.68655800  0.81344200  0.51772700  1
  Cu  Cu84  1  0.00000000  0.75628900  0.73665800  1
  Cu  Cu85  1  0.75628900  0.00000000  0.26334200  1
  Cu  Cu86  1  0.24371100  0.00000000  0.26334200  1
  Cu  Cu87  1  0.50000000  0.00000000  0.14891600  1
  Cu  Cu88  1  0.50000000  0.00000000  0.89201000  1
  Cu  Cu89  1  0.00000000  0.24371100  0.73665800  1
  Cu  Cu90  1  0.68655800  0.18655800  0.51772700  1
  Cu  Cu91  1  0.31344200  0.18655800  0.51772700  1
