# generated using pymatgen
data_CuNiC10
_symmetry_space_group_name_H-M   'P 1'
_cell_length_a   5.29173120
_cell_length_b   13.05456629
_cell_length_c   8.96642442
_cell_angle_alpha   90.08537080
_cell_angle_beta   88.26542507
_cell_angle_gamma   89.96607925
_symmetry_Int_Tables_number   1
_chemical_formula_structural   CuNiC10
_chemical_formula_sum   'Cu4 Ni4 C40'
_cell_volume   619.12721604
_cell_formula_units_Z   4
loop_
 _symmetry_equiv_pos_site_id
 _symmetry_equiv_pos_as_xyz
  1  'x, y, z'
loop_
 _atom_site_type_symbol
 _atom_site_label
 _atom_site_symmetry_multiplicity
 _atom_site_fract_x
 _atom_site_fract_y
 _atom_site_fract_z
 _atom_site_occupancy
  C  C0  1  0.76567400  0.11818400  0.08158000  1
  C  C1  1  0.76569100  0.61820700  0.08156500  1
  C  C2  1  0.23460900  0.36813000  0.91964200  1
  C  C3  1  0.23456500  0.86812700  0.91967600  1
  C  C4  1  0.25225400  0.23898700  0.26862800  1
  C  C5  1  0.25226300  0.73899700  0.26864100  1
  C  C6  1  0.74807100  0.48949200  0.73160100  1
  C  C7  1  0.74804800  0.98946900  0.73162500  1
  C  C8  1  0.78208000  0.88090900  0.34510100  1
  C  C9  1  0.21808900  0.63130800  0.65459100  1
  C  C10  1  0.78209300  0.38104800  0.34513800  1
  C  C11  1  0.21818800  0.13132900  0.65462500  1
  Ni  Ni12  1  0.72208800  0.12689700  0.42514500  1
  Ni  Ni13  1  0.72207600  0.62689200  0.42517200  1
  Ni  Ni14  1  0.27856700  0.37715600  0.57428900  1
  Ni  Ni15  1  0.27829500  0.87704200  0.57420500  1
  Cu  Cu16  1  0.72049700  0.37440700  0.06837600  1
  Cu  Cu17  1  0.72043400  0.87441500  0.06841100  1
  Cu  Cu18  1  0.27880000  0.12460700  0.93204600  1
  Cu  Cu19  1  0.27881400  0.62460400  0.93203900  1
  C  C20  1  0.31342400  0.13273700  0.07093500  1
  C  C21  1  0.31342300  0.63271700  0.07092200  1
  C  C22  1  0.68798500  0.38420400  0.92964800  1
  C  C23  1  0.68777400  0.88429000  0.92968800  1
  C  C24  1  0.94666400  0.37257100  0.12589500  1
  C  C25  1  0.94660900  0.87254600  0.12586900  1
  C  C26  1  0.05204300  0.12437000  0.87556100  1
  C  C27  1  0.05204500  0.62437800  0.87556400  1
  C  C28  1  0.53139200  0.36803900  0.16615500  1
  C  C29  1  0.53137000  0.86801100  0.16623900  1
  C  C30  1  0.46626000  0.11799300  0.83301500  1
  C  C31  1  0.46624900  0.61800700  0.83299600  1
  C  C32  1  0.77286600  0.03279800  0.32250200  1
  C  C33  1  0.77289700  0.53282100  0.32248200  1
  C  C34  1  0.22768500  0.28339600  0.67714500  1
  C  C35  1  0.22746400  0.78338600  0.67719300  1
  C  C36  1  0.78923800  0.22105600  0.32573200  1
  C  C37  1  0.78931900  0.72101100  0.32573800  1
  C  C38  1  0.21050300  0.47134700  0.67389500  1
  C  C39  1  0.21071000  0.97132400  0.67381000  1
  C  C40  1  0.12085700  0.37141700  0.43258000  1
  C  C41  1  0.12038500  0.87141100  0.43253700  1
  C  C42  1  0.88027500  0.12185000  0.56657300  1
  C  C43  1  0.88026800  0.62186800  0.56654200  1
  C  C44  1  0.43654400  0.13265900  0.47209200  1
  C  C45  1  0.43650500  0.63266400  0.47206300  1
  C  C46  1  0.56426400  0.38324500  0.52748800  1
  C  C47  1  0.56378400  0.88274700  0.52704300  1
