# generated using pymatgen
data_CuNiC16
_symmetry_space_group_name_H-M   'P 1'
_cell_length_a   4.57354401
_cell_length_b   9.21234414
_cell_length_c   9.21214897
_cell_angle_alpha   89.99500396
_cell_angle_beta   90.00233872
_cell_angle_gamma   90.00602212
_symmetry_Int_Tables_number   1
_chemical_formula_structural   CuNiC16
_chemical_formula_sum   'Cu2 Ni2 C32'
_cell_volume   388.13603391
_cell_formula_units_Z   2
loop_
 _symmetry_equiv_pos_site_id
 _symmetry_equiv_pos_as_xyz
  1  'x, y, z'
loop_
 _atom_site_type_symbol
 _atom_site_label
 _atom_site_symmetry_multiplicity
 _atom_site_fract_x
 _atom_site_fract_y
 _atom_site_fract_z
 _atom_site_occupancy
  C  C0  1  0.00000300  0.49999900  0.49488200  1
  C  C1  1  0.00002100  0.00001400  0.99488100  1
  C  C2  1  0.00001000  0.25511700  0.24998100  1
  C  C3  1  0.00001300  0.75511300  0.75000600  1
  C  C4  1  0.00001300  0.74488400  0.24999400  1
  C  C5  1  0.00000800  0.24488700  0.75001500  1
  C  C6  1  0.00002200  0.49998700  0.00511500  1
  C  C7  1  0.00000300  0.00000100  0.50511900  1
  C  C8  1  0.58949800  0.74999700  0.50000000  1
  C  C9  1  0.41047900  0.25000300  0.50000100  1
  C  C10  1  0.58943100  0.24999700  0.00000000  1
  C  C11  1  0.41041000  0.75000100  0.00000200  1
  Ni  Ni12  1  0.49999100  0.49998300  0.24999700  1
  Ni  Ni13  1  0.49999400  0.00001000  0.74998400  1
  Cu  Cu14  1  0.49998800  0.49999600  0.75002100  1
  Cu  Cu15  1  0.49998200  0.00001000  0.24999500  1
  C  C16  1  0.22212000  0.24999800  0.99999700  1
  C  C17  1  0.22216400  0.74996600  0.49999900  1
  C  C18  1  0.77784900  0.75000100  0.00000100  1
  C  C19  1  0.77780400  0.25002700  0.50001400  1
  C  C20  1  0.28587500  0.39788000  0.35205800  1
  C  C21  1  0.28574200  0.89793900  0.85204900  1
  C  C22  1  0.71426600  0.39793400  0.14796400  1
  C  C23  1  0.71419800  0.89794000  0.64794800  1
  C  C24  1  0.71419400  0.60207400  0.35204000  1
  C  C25  1  0.71427300  0.10206500  0.85203700  1
  C  C26  1  0.28574300  0.60206100  0.14794900  1
  C  C27  1  0.28587400  0.10210300  0.64792600  1
  C  C28  1  0.73589000  0.39250100  0.85750700  1
  C  C29  1  0.73580800  0.89251000  0.35751600  1
  C  C30  1  0.26424100  0.39245500  0.64246300  1
  C  C31  1  0.26408100  0.89250300  0.14247700  1
  C  C32  1  0.26408700  0.60749900  0.85752300  1
  C  C33  1  0.26423000  0.10753800  0.35754200  1
  C  C34  1  0.73579300  0.60750600  0.64249900  1
  C  C35  1  0.73589500  0.10749900  0.14249700  1
