# generated using pymatgen
data_Cu2Ni8C5
_symmetry_space_group_name_H-M   'P 1'
_cell_length_a   6.88357800
_cell_length_b   7.47945890
_cell_length_c   7.71366603
_cell_angle_alpha   117.05815673
_cell_angle_beta   90.89695422
_cell_angle_gamma   91.25420247
_symmetry_Int_Tables_number   1
_chemical_formula_structural   Cu2Ni8C5
_chemical_formula_sum   'Cu4 Ni16 C10'
_cell_volume   353.44140728
_cell_formula_units_Z   2
loop_
 _symmetry_equiv_pos_site_id
 _symmetry_equiv_pos_as_xyz
  1  'x, y, z'
loop_
 _atom_site_type_symbol
 _atom_site_label
 _atom_site_symmetry_multiplicity
 _atom_site_fract_x
 _atom_site_fract_y
 _atom_site_fract_z
 _atom_site_occupancy
  C  C0  1  0.84168000  0.41161800  0.22859200  1
  C  C1  1  0.15832000  0.58838200  0.77140800  1
  C  C2  1  0.00000000  0.00000000  0.00000000  1
  C  C3  1  0.50000000  0.50000000  0.50000000  1
  C  C4  1  0.74621000  0.25183200  0.74812200  1
  C  C5  1  0.25379000  0.74816800  0.25187800  1
  C  C6  1  0.89945100  0.78317300  0.54239900  1
  C  C7  1  0.60332900  0.71845000  0.96330300  1
  C  C8  1  0.39667100  0.28155000  0.03669700  1
  C  C9  1  0.10054900  0.21682700  0.45760100  1
  Ni  Ni10  1  0.75255100  0.88730300  0.97362200  1
  Ni  Ni11  1  0.78848300  0.96552200  0.57023700  1
  Ni  Ni12  1  0.72389800  0.53826400  0.93708800  1
  Ni  Ni13  1  0.99513800  0.31974500  0.65216200  1
  Ni  Ni14  1  0.75043400  0.60761500  0.51873400  1
  Ni  Ni15  1  0.46045600  0.66336400  0.78499200  1
  Ni  Ni16  1  0.96213900  0.18222700  0.28262500  1
  Ni  Ni17  1  0.50523200  0.18825000  0.84742300  1
  Ni  Ni18  1  0.49476800  0.81175000  0.15257700  1
  Ni  Ni19  1  0.03786100  0.81777300  0.71737500  1
  Ni  Ni20  1  0.53954400  0.33663600  0.21500800  1
  Ni  Ni21  1  0.24956600  0.39238500  0.48126600  1
  Ni  Ni22  1  0.00486200  0.68025500  0.34783800  1
  Ni  Ni23  1  0.27610200  0.46173600  0.06291200  1
  Ni  Ni24  1  0.21151700  0.03447800  0.42976300  1
  Ni  Ni25  1  0.24744900  0.11269700  0.02637800  1
  Cu  Cu26  1  0.89651200  0.22403800  0.96015700  1
  Cu  Cu27  1  0.39936500  0.71744600  0.45738700  1
  Cu  Cu28  1  0.60063500  0.28255400  0.54261300  1
  Cu  Cu29  1  0.10348800  0.77596200  0.03984300  1
