# generated using pymatgen
data_Cu(Ni6C5)2
_symmetry_space_group_name_H-M   'P 1'
_cell_length_a   8.44988400
_cell_length_b   8.44988400
_cell_length_c   8.44988400
_cell_angle_alpha   90.00000000
_cell_angle_beta   90.00000000
_cell_angle_gamma   90.00000000
_symmetry_Int_Tables_number   1
_chemical_formula_structural   Cu(Ni6C5)2
_chemical_formula_sum   'Cu2 Ni24 C20'
_cell_volume   603.32627727
_cell_formula_units_Z   2
loop_
 _symmetry_equiv_pos_site_id
 _symmetry_equiv_pos_as_xyz
  1  'x, y, z'
loop_
 _atom_site_type_symbol
 _atom_site_label
 _atom_site_symmetry_multiplicity
 _atom_site_fract_x
 _atom_site_fract_y
 _atom_site_fract_z
 _atom_site_occupancy
  C  C0  1  0.14313000  0.14313000  0.14313000  1
  C  C1  1  0.14313000  0.85687000  0.85687000  1
  C  C2  1  0.35687000  0.35687000  0.64313000  1
  C  C3  1  0.35687000  0.64313000  0.35687000  1
  C  C4  1  0.64313000  0.35687000  0.35687000  1
  C  C5  1  0.64313000  0.64313000  0.64313000  1
  C  C6  1  0.85687000  0.14313000  0.85687000  1
  C  C7  1  0.85687000  0.85687000  0.14313000  1
  C  C8  1  0.00000000  0.50000000  0.25000000  1
  C  C9  1  0.00000000  0.50000000  0.75000000  1
  C  C10  1  0.25000000  0.00000000  0.50000000  1
  C  C11  1  0.50000000  0.25000000  0.00000000  1
  C  C12  1  0.50000000  0.75000000  0.00000000  1
  C  C13  1  0.75000000  0.00000000  0.50000000  1
  C  C14  1  0.00000000  0.25000000  0.50000000  1
  C  C15  1  0.00000000  0.75000000  0.50000000  1
  C  C16  1  0.25000000  0.50000000  0.00000000  1
  C  C17  1  0.50000000  0.00000000  0.25000000  1
  C  C18  1  0.50000000  0.00000000  0.75000000  1
  C  C19  1  0.75000000  0.50000000  0.00000000  1
  Ni  Ni20  1  0.11575100  0.35289900  0.59973800  1
  Ni  Ni21  1  0.11575100  0.64710100  0.40026200  1
  Ni  Ni22  1  0.09973800  0.14710100  0.38424900  1
  Ni  Ni23  1  0.09973800  0.85289900  0.61575100  1
  Ni  Ni24  1  0.14710100  0.38424900  0.09973800  1
  Ni  Ni25  1  0.14710100  0.61575100  0.90026200  1
  Ni  Ni26  1  0.35289900  0.40026200  0.88424900  1
  Ni  Ni27  1  0.35289900  0.59973800  0.11575100  1
  Ni  Ni28  1  0.40026200  0.11575100  0.64710100  1
  Ni  Ni29  1  0.40026200  0.88424900  0.35289900  1
  Ni  Ni30  1  0.38424900  0.09973800  0.14710100  1
  Ni  Ni31  1  0.38424900  0.90026200  0.85289900  1
  Ni  Ni32  1  0.61575100  0.09973800  0.85289900  1
  Ni  Ni33  1  0.61575100  0.90026200  0.14710100  1
  Ni  Ni34  1  0.59973800  0.11575100  0.35289900  1
  Ni  Ni35  1  0.59973800  0.88424900  0.64710100  1
  Ni  Ni36  1  0.64710100  0.40026200  0.11575100  1
  Ni  Ni37  1  0.64710100  0.59973800  0.88424900  1
  Ni  Ni38  1  0.85289900  0.38424900  0.90026200  1
  Ni  Ni39  1  0.85289900  0.61575100  0.09973800  1
  Ni  Ni40  1  0.90026200  0.14710100  0.61575100  1
  Ni  Ni41  1  0.90026200  0.85289900  0.38424900  1
  Ni  Ni42  1  0.88424900  0.35289900  0.40026200  1
  Ni  Ni43  1  0.88424900  0.64710100  0.59973800  1
  Cu  Cu44  1  0.00000000  0.00000000  0.00000000  1
  Cu  Cu45  1  0.50000000  0.50000000  0.50000000  1
