# generated using pymatgen
data_Cu3Ni3C22
_symmetry_space_group_name_H-M   'P 1'
_cell_length_a   5.76459908
_cell_length_b   5.76459908
_cell_length_c   9.64508434
_cell_angle_alpha   89.83543712
_cell_angle_beta   89.83543712
_cell_angle_gamma   60.54368129
_symmetry_Int_Tables_number   1
_chemical_formula_structural   Cu3Ni3C22
_chemical_formula_sum   'Cu3 Ni3 C22'
_cell_volume   279.07811465
_cell_formula_units_Z   1
loop_
 _symmetry_equiv_pos_site_id
 _symmetry_equiv_pos_as_xyz
  1  'x, y, z'
loop_
 _atom_site_type_symbol
 _atom_site_label
 _atom_site_symmetry_multiplicity
 _atom_site_fract_x
 _atom_site_fract_y
 _atom_site_fract_z
 _atom_site_occupancy
  C  C0  1  0.32606600  0.32606600  0.89023100  1
  C  C1  1  0.01386400  0.01386400  0.99600800  1
  C  C2  1  0.01091200  0.01091200  0.49917300  1
  C  C3  1  0.65911100  0.65911100  0.39681300  1
  Ni  Ni4  1  0.16610700  0.65907300  0.21526100  1
  Ni  Ni5  1  0.65907300  0.16610700  0.21526100  1
  Ni  Ni6  1  0.82774100  0.82774100  0.71460600  1
  Cu  Cu7  1  0.16923200  0.16923200  0.21296700  1
  Cu  Cu8  1  0.33627900  0.82935700  0.71367900  1
  Cu  Cu9  1  0.82935700  0.33627900  0.71367900  1
  C  C10  1  0.33492900  0.33492900  0.49140600  1
  C  C11  1  0.66730600  0.66730600  0.98669600  1
  C  C12  1  0.16416600  0.68332400  0.60589200  1
  C  C13  1  0.48008000  0.48008000  0.33214500  1
  C  C14  1  0.33457400  0.33457400  0.10041100  1
  C  C15  1  0.00395700  0.00395700  0.31380800  1
  C  C16  1  0.00310700  0.00310700  0.81139800  1
  C  C17  1  0.68332400  0.16416600  0.60589200  1
  C  C18  1  0.03092300  0.47351300  0.33278200  1
  C  C19  1  0.47351300  0.03092300  0.33278200  1
  C  C20  1  0.84096100  0.84096100  0.10185100  1
  C  C21  1  0.16120300  0.16120300  0.61607500  1
  C  C22  1  0.50892300  0.96140400  0.83226700  1
  C  C23  1  0.96140400  0.50892300  0.83226700  1
  C  C24  1  0.66244000  0.66244000  0.60529000  1
  C  C25  1  0.32266200  0.84996500  0.10876200  1
  C  C26  1  0.51532100  0.51532100  0.82205100  1
  C  C27  1  0.84996500  0.32266200  0.10876200  1
