# generated using pymatgen
data_Cu3Ni3C22
_symmetry_space_group_name_H-M   'P 1'
_cell_length_a   6.05897587
_cell_length_b   5.98049021
_cell_length_c   9.83431628
_cell_angle_alpha   89.99538859
_cell_angle_beta   91.65966007
_cell_angle_gamma   119.32893351
_symmetry_Int_Tables_number   1
_chemical_formula_structural   Cu3Ni3C22
_chemical_formula_sum   'Cu3 Ni3 C22'
_cell_volume   310.50520882
_cell_formula_units_Z   1
loop_
 _symmetry_equiv_pos_site_id
 _symmetry_equiv_pos_as_xyz
  1  'x, y, z'
loop_
 _atom_site_type_symbol
 _atom_site_label
 _atom_site_symmetry_multiplicity
 _atom_site_fract_x
 _atom_site_fract_y
 _atom_site_fract_z
 _atom_site_occupancy
  C  C0  1  0.31932600  0.66308300  0.90195600  1
  C  C1  1  0.99644100  0.99652700  0.98385400  1
  C  C2  1  0.01203900  0.00840800  0.49392600  1
  C  C3  1  0.66057200  0.32744800  0.40958700  1
  Ni  Ni4  1  0.17759000  0.84069300  0.21311700  1
  Ni  Ni5  1  0.18815100  0.34460600  0.21750500  1
  Ni  Ni6  1  0.34417700  0.16946100  0.72142800  1
  Cu  Cu7  1  0.65977300  0.82528600  0.20980800  1
  Cu  Cu8  1  0.84029300  0.65894000  0.70880000  1
  Cu  Cu9  1  0.83592800  0.17707000  0.70996300  1
  C  C10  1  0.34278800  0.67243800  0.49027700  1
  C  C11  1  0.67960100  0.33760900  0.98355900  1
  C  C12  1  0.18358900  0.84224100  0.59200200  1
  C  C13  1  0.04739700  0.52358900  0.34053200  1
  C  C14  1  0.29792500  0.64915700  0.10799900  1
  C  C15  1  0.01957600  0.01300300  0.30429300  1
  C  C16  1  0.02147900  0.00829300  0.79968500  1
  C  C17  1  0.18577800  0.34683600  0.59516200  1
  C  C18  1  0.46238800  0.95944600  0.33832500  1
  C  C19  1  0.46216900  0.49754800  0.34169300  1
  C  C20  1  0.32999800  0.16715600  0.10578400  1
  C  C21  1  0.66257900  0.82962400  0.57269400  1
  C  C22  1  0.49885300  0.46121800  0.86021800  1
  C  C23  1  0.49833200  0.03211000  0.85022200  1
  C  C24  1  0.63109800  0.31824700  0.60769800  1
  C  C25  1  0.84905900  0.67442800  0.09691200  1
  C  C26  1  0.95804100  0.47702400  0.85674000  1
  C  C27  1  0.83506000  0.17881500  0.09410000  1
