# generated using pymatgen
data_Cu3Ni3C22
_symmetry_space_group_name_H-M   'P 1'
_cell_length_a   6.11584800
_cell_length_b   6.15009010
_cell_length_c   9.72599109
_cell_angle_alpha   89.70959655
_cell_angle_beta   90.88658323
_cell_angle_gamma   119.01025983
_symmetry_Int_Tables_number   1
_chemical_formula_structural   Cu3Ni3C22
_chemical_formula_sum   'Cu3 Ni3 C22'
_cell_volume   319.88545278
_cell_formula_units_Z   1
loop_
 _symmetry_equiv_pos_site_id
 _symmetry_equiv_pos_as_xyz
  1  'x, y, z'
loop_
 _atom_site_type_symbol
 _atom_site_label
 _atom_site_symmetry_multiplicity
 _atom_site_fract_x
 _atom_site_fract_y
 _atom_site_fract_z
 _atom_site_occupancy
  C  C0  1  0.33732900  0.66671900  0.12391600  1
  C  C1  1  0.02028100  0.98089200  0.01276400  1
  C  C2  1  0.00494200  0.98169400  0.49269200  1
  C  C3  1  0.68645000  0.33454300  0.59595300  1
  C  C4  1  0.31684400  0.68176700  0.49143700  1
  C  C5  1  0.62657900  0.33773100  0.02882100  1
  Ni  Ni6  1  0.17611700  0.83638100  0.78567200  1
  Ni  Ni7  1  0.82527100  0.66344000  0.28456100  1
  Ni  Ni8  1  0.33563200  0.17425100  0.28740900  1
  Cu  Cu9  1  0.66439400  0.82922700  0.78407300  1
  Cu  Cu10  1  0.16776500  0.34041300  0.78265700  1
  Cu  Cu11  1  0.82638000  0.17292800  0.28567800  1
  C  C12  1  0.67466800  0.86408100  0.40080600  1
  C  C13  1  0.51293900  0.53658700  0.65938100  1
  C  C14  1  0.36274100  0.68753000  0.89929400  1
  C  C15  1  0.97579000  0.97501600  0.67968800  1
  C  C16  1  0.98616200  0.01100700  0.19324300  1
  C  C17  1  0.13901900  0.32420600  0.40361100  1
  C  C18  1  0.50115800  0.96375200  0.66455900  1
  C  C19  1  0.04853700  0.52752600  0.65361600  1
  C  C20  1  0.81864400  0.13083000  0.89843600  1
  C  C21  1  0.16709400  0.83886000  0.39838900  1
  C  C22  1  0.95583500  0.45983000  0.15785300  1
  C  C23  1  0.52995600  0.03720100  0.16332600  1
  C  C24  1  0.67705800  0.32945400  0.39441000  1
  C  C25  1  0.82287200  0.67921800  0.89797000  1
  C  C26  1  0.51102000  0.48314000  0.16082900  1
  C  C27  1  0.32882200  0.15207400  0.91111500  1
