# generated using pymatgen
data_Cu3(Ni6C5)4
_symmetry_space_group_name_H-M   'P 1'
_cell_length_a   13.65879572
_cell_length_b   13.65879572
_cell_length_c   6.44972100
_cell_angle_alpha   90.00000000
_cell_angle_beta   90.00000000
_cell_angle_gamma   119.99999865
_symmetry_Int_Tables_number   1
_chemical_formula_structural   Cu3(Ni6C5)4
_chemical_formula_sum   'Cu6 Ni48 C40'
_cell_volume   1042.06878237
_cell_formula_units_Z   2
loop_
 _symmetry_equiv_pos_site_id
 _symmetry_equiv_pos_as_xyz
  1  'x, y, z'
loop_
 _atom_site_type_symbol
 _atom_site_label
 _atom_site_symmetry_multiplicity
 _atom_site_fract_x
 _atom_site_fract_y
 _atom_site_fract_z
 _atom_site_occupancy
  C  C0  1  0.18332600  0.25528200  0.74315300  1
  C  C1  1  0.92804400  0.18332600  0.24315300  1
  C  C2  1  0.37559900  0.49987800  0.24409300  1
  C  C3  1  0.49987800  0.12427900  0.74409300  1
  C  C4  1  0.25528200  0.07195600  0.24315300  1
  C  C5  1  0.87572100  0.37559900  0.74409300  1
  C  C6  1  0.66666700  0.33333300  0.56202400  1
  C  C7  1  0.33333300  0.66666700  0.06202400  1
  C  C8  1  0.12427900  0.62440100  0.24409300  1
  C  C9  1  0.74471800  0.92804400  0.74315300  1
  C  C10  1  0.50012200  0.87572100  0.24409300  1
  C  C11  1  0.62440100  0.50012200  0.74409300  1
  C  C12  1  0.07195600  0.81667400  0.74315300  1
  C  C13  1  0.81667400  0.74471800  0.24315300  1
  C  C14  1  0.70541200  0.12652200  0.98902800  1
  C  C15  1  0.70572500  0.12310000  0.48876100  1
  C  C16  1  0.12652200  0.42111100  0.48902800  1
  C  C17  1  0.12310000  0.41737500  0.98876100  1
  C  C18  1  0.58262500  0.70572500  0.98876100  1
  C  C19  1  0.57888900  0.70541200  0.48902800  1
  C  C20  1  0.00000000  0.00000000  0.99280000  1
  C  C21  1  0.00000000  0.00000000  0.49280000  1
  C  C22  1  0.42111100  0.29458800  0.98902800  1
  C  C23  1  0.41737500  0.29427500  0.48876100  1
  C  C24  1  0.87690000  0.58262500  0.48876100  1
  C  C25  1  0.87347800  0.57888900  0.98902800  1
  C  C26  1  0.29427500  0.87690000  0.98876100  1
  C  C27  1  0.29458800  0.87347800  0.48902800  1
  C  C28  1  0.18314900  0.24230500  0.24104800  1
  C  C29  1  0.94084400  0.18314900  0.74104800  1
  C  C30  1  0.36777200  0.48464400  0.74000000  1
  C  C31  1  0.48464400  0.11687200  0.24000000  1
  C  C32  1  0.88312800  0.36777200  0.24000000  1
  C  C33  1  0.24230500  0.05915600  0.74104800  1
  C  C34  1  0.75769500  0.94084400  0.24104800  1
  C  C35  1  0.11687200  0.63222800  0.74000000  1
  C  C36  1  0.51535600  0.88312800  0.74000000  1
  C  C37  1  0.63222800  0.51535600  0.24000000  1
  C  C38  1  0.05915600  0.81685100  0.24104800  1
  C  C39  1  0.81685100  0.75769500  0.74104800  1
  Ni  Ni40  1  0.12451200  0.10927800  0.24237900  1
  Ni  Ni41  1  0.01523400  0.12451200  0.74237900  1
  Ni  Ni42  1  0.69436800  0.01135300  0.23833800  1
  Ni  Ni43  1  0.36566600  0.36777900  0.74524100  1
  Ni  Ni44  1  0.14759400  0.27874300  0.43908800  1
  Ni  Ni45  1  0.86885100  0.14759400  0.93908800  1
  Ni  Ni46  1  0.14508200  0.27677300  0.04404500  1
  Ni  Ni47  1  0.86830900  0.14508200  0.54404500  1
  Ni  Ni48  1  0.01135300  0.31698500  0.73833800  1
  Ni  Ni49  1  0.36777900  0.00211200  0.24524100  1
  Ni  Ni50  1  0.42799300  0.54609500  0.53876300  1
  Ni  Ni51  1  0.54609500  0.11810200  0.03876300  1
  Ni  Ni52  1  0.24331700  0.45885900  0.73853800  1
  Ni  Ni53  1  0.55308300  0.13018200  0.43979400  1
  Ni  Ni54  1  0.42290100  0.55308300  0.93979400  1
  Ni  Ni55  1  0.68301500  0.69436800  0.73833800  1
  Ni  Ni56  1  0.78445800  0.24331700  0.23853800  1
  Ni  Ni57  1  0.99788800  0.36566600  0.24524100  1
  Ni  Ni58  1  0.10927800  0.98476600  0.74237900  1
  Ni  Ni59  1  0.45885900  0.21554200  0.23853800  1
  Ni  Ni60  1  0.27677300  0.13169100  0.54404500  1
  Ni  Ni61  1  0.88189800  0.42799300  0.03876300  1
  Ni  Ni62  1  0.27874300  0.13114900  0.93908800  1
  Ni  Ni63  1  0.13018200  0.57709900  0.93979400  1
  Ni  Ni64  1  0.86981800  0.42290100  0.43979400  1
  Ni  Ni65  1  0.72125700  0.86885100  0.43908800  1
  Ni  Ni66  1  0.11810200  0.57200700  0.53876300  1
  Ni  Ni67  1  0.72322700  0.86830900  0.04404500  1
  Ni  Ni68  1  0.54114100  0.78445800  0.73853800  1
  Ni  Ni69  1  0.89072200  0.01523400  0.24237900  1
  Ni  Ni70  1  0.00211200  0.63433400  0.74524100  1
  Ni  Ni71  1  0.21554200  0.75668300  0.73853800  1
  Ni  Ni72  1  0.31698500  0.30563200  0.23833800  1
  Ni  Ni73  1  0.57709900  0.44691700  0.43979400  1
  Ni  Ni74  1  0.44691700  0.86981800  0.93979400  1
  Ni  Ni75  1  0.75668300  0.54114100  0.23853800  1
  Ni  Ni76  1  0.45390500  0.88189800  0.53876300  1
  Ni  Ni77  1  0.57200700  0.45390500  0.03876300  1
  Ni  Ni78  1  0.63222100  0.99788800  0.74524100  1
  Ni  Ni79  1  0.98864700  0.68301500  0.23833800  1
  Ni  Ni80  1  0.13169100  0.85491800  0.04404500  1
  Ni  Ni81  1  0.85491800  0.72322700  0.54404500  1
  Ni  Ni82  1  0.13114900  0.85240600  0.43908800  1
  Ni  Ni83  1  0.85240600  0.72125700  0.93908800  1
  Ni  Ni84  1  0.63433400  0.63222100  0.24524100  1
  Ni  Ni85  1  0.30563200  0.98864700  0.73833800  1
  Ni  Ni86  1  0.98476600  0.87548800  0.24237900  1
  Ni  Ni87  1  0.87548800  0.89072200  0.74237900  1
  Cu  Cu88  1  0.72530100  0.24146000  0.72948500  1
  Cu  Cu89  1  0.24146000  0.51615900  0.22948500  1
  Cu  Cu90  1  0.48384100  0.72530100  0.22948500  1
  Cu  Cu91  1  0.51615900  0.27469900  0.72948500  1
  Cu  Cu92  1  0.75854000  0.48384100  0.72948500  1
  Cu  Cu93  1  0.27469900  0.75854000  0.22948500  1
