# generated using pymatgen
data_CuNi4C11
_symmetry_space_group_name_H-M   'P 1'
_cell_length_a   6.01513076
_cell_length_b   6.01513076
_cell_length_c   6.17494389
_cell_angle_alpha   59.27952600
_cell_angle_beta   59.27952600
_cell_angle_gamma   61.56438915
_symmetry_Int_Tables_number   1
_chemical_formula_structural   CuNi4C11
_chemical_formula_sum   'Cu1 Ni4 C11'
_cell_volume   157.95947785
_cell_formula_units_Z   1
loop_
 _symmetry_equiv_pos_site_id
 _symmetry_equiv_pos_as_xyz
  1  'x, y, z'
loop_
 _atom_site_type_symbol
 _atom_site_label
 _atom_site_symmetry_multiplicity
 _atom_site_fract_x
 _atom_site_fract_y
 _atom_site_fract_z
 _atom_site_occupancy
  C  C0  1  0.00000000  0.50000000  0.00000000  1
  C  C1  1  0.50000000  0.00000000  0.00000000  1
  C  C2  1  0.00000000  0.00000000  0.50000000  1
  Ni  Ni3  1  0.00000000  0.00000000  0.00000000  1
  Ni  Ni4  1  0.50000000  0.00000000  0.50000000  1
  Ni  Ni5  1  0.00000000  0.50000000  0.50000000  1
  Ni  Ni6  1  0.50000000  0.50000000  0.50000000  1
  Cu  Cu7  1  0.50000000  0.50000000  0.00000000  1
  C  C8  1  0.73528200  0.73528200  0.76885100  1
  C  C9  1  0.26551600  0.74099000  0.23454900  1
  C  C10  1  0.74099000  0.26551600  0.23454900  1
  C  C11  1  0.26471800  0.26471800  0.23114900  1
  C  C12  1  0.24961800  0.24961800  0.72757000  1
  C  C13  1  0.73448400  0.25901000  0.76545100  1
  C  C14  1  0.25901000  0.73448400  0.76545100  1
  C  C15  1  0.75038200  0.75038200  0.27243000  1
