# generated using pymatgen
data_Cu5(NiC)2
_symmetry_space_group_name_H-M   'P 1'
_cell_length_a   6.93455902
_cell_length_b   6.93455902
_cell_length_c   11.63268478
_cell_angle_alpha   75.08568182
_cell_angle_beta   75.08568182
_cell_angle_gamma   70.20915270
_symmetry_Int_Tables_number   1
_chemical_formula_structural   Cu5(NiC)2
_chemical_formula_sum   'Cu10 Ni4 C4'
_cell_volume   499.62746136
_cell_formula_units_Z   2
loop_
 _symmetry_equiv_pos_site_id
 _symmetry_equiv_pos_as_xyz
  1  'x, y, z'
loop_
 _atom_site_type_symbol
 _atom_site_label
 _atom_site_symmetry_multiplicity
 _atom_site_fract_x
 _atom_site_fract_y
 _atom_site_fract_z
 _atom_site_occupancy
  C  C0  1  0.53900800  0.89643500  0.18283900  1
  C  C1  1  0.10356500  0.46099200  0.31716100  1
  C  C2  1  0.46099200  0.10356500  0.81716100  1
  C  C3  1  0.89643500  0.53900800  0.68283900  1
  Ni  Ni4  1  0.75091100  0.05995800  0.44204400  1
  Ni  Ni5  1  0.94004200  0.24908900  0.05795600  1
  Ni  Ni6  1  0.24908900  0.94004200  0.55795600  1
  Ni  Ni7  1  0.05995800  0.75091100  0.94204400  1
  Cu  Cu8  1  0.31493900  0.68506100  0.75000000  1
  Cu  Cu9  1  0.68506100  0.31493900  0.25000000  1
  Cu  Cu10  1  0.14845200  0.87486200  0.38535900  1
  Cu  Cu11  1  0.12513800  0.85154800  0.11464100  1
  Cu  Cu12  1  0.85154800  0.12513800  0.61464100  1
  Cu  Cu13  1  0.87486200  0.14845200  0.88535900  1
  Cu  Cu14  1  0.35864200  0.24907300  0.53780200  1
  Cu  Cu15  1  0.75092700  0.64135800  0.96219800  1
  Cu  Cu16  1  0.24907300  0.35864200  0.03780200  1
  Cu  Cu17  1  0.64135800  0.75092700  0.46219800  1
