# generated using pymatgen
data_Cu11NiC6
_symmetry_space_group_name_H-M   'P 1'
_cell_length_a   4.83779200
_cell_length_b   5.84457567
_cell_length_c   8.11251353
_cell_angle_alpha   87.61952124
_cell_angle_beta   89.51346286
_cell_angle_gamma   89.59270135
_symmetry_Int_Tables_number   1
_chemical_formula_structural   Cu11NiC6
_chemical_formula_sum   'Cu11 Ni1 C6'
_cell_volume   229.16858531
_cell_formula_units_Z   1
loop_
 _symmetry_equiv_pos_site_id
 _symmetry_equiv_pos_as_xyz
  1  'x, y, z'
loop_
 _atom_site_type_symbol
 _atom_site_label
 _atom_site_symmetry_multiplicity
 _atom_site_fract_x
 _atom_site_fract_y
 _atom_site_fract_z
 _atom_site_occupancy
  C  C0  1  0.49727000  0.17028300  0.33482000  1
  C  C1  1  0.51122300  0.49124100  0.99536900  1
  C  C2  1  0.50429600  0.82913900  0.66588300  1
  C  C3  1  0.00650600  0.66515400  0.32959300  1
  C  C4  1  0.98752800  0.33262600  0.67818100  1
  C  C5  1  0.98333600  0.02222700  0.99402600  1
  Ni  Ni6  1  0.80561800  0.28146800  0.91010400  1
  Cu  Cu7  1  0.80173400  0.63240000  0.56497600  1
  Cu  Cu8  1  0.80624500  0.97378900  0.22263900  1
  Cu  Cu9  1  0.71182300  0.80209000  0.90204800  1
  Cu  Cu10  1  0.69465800  0.47411000  0.23876600  1
  Cu  Cu11  1  0.70257100  0.12856700  0.56317700  1
  Cu  Cu12  1  0.30170400  0.86497700  0.43026600  1
  Cu  Cu13  1  0.30034200  0.53391600  0.76483800  1
  Cu  Cu14  1  0.28828000  0.19440500  0.10336800  1
  Cu  Cu15  1  0.20274800  0.02085700  0.77582000  1
  Cu  Cu16  1  0.19587900  0.36503300  0.43768500  1
  Cu  Cu17  1  0.19823900  0.71771700  0.08844200  1
