# generated using pymatgen
data_Cu6NiC4
_symmetry_space_group_name_H-M   'P 1'
_cell_length_a   5.60421300
_cell_length_b   7.44029874
_cell_length_c   7.44787807
_cell_angle_alpha   59.96690555
_cell_angle_beta   89.99989675
_cell_angle_gamma   89.99787606
_symmetry_Int_Tables_number   1
_chemical_formula_structural   Cu6NiC4
_chemical_formula_sum   'Cu12 Ni2 C8'
_cell_volume   268.85818979
_cell_formula_units_Z   2
loop_
 _symmetry_equiv_pos_site_id
 _symmetry_equiv_pos_as_xyz
  1  'x, y, z'
loop_
 _atom_site_type_symbol
 _atom_site_label
 _atom_site_symmetry_multiplicity
 _atom_site_fract_x
 _atom_site_fract_y
 _atom_site_fract_z
 _atom_site_occupancy
  C  C0  1  0.98159600  0.33320200  0.33336700  1
  C  C1  1  0.50168900  0.63161200  0.18416500  1
  C  C2  1  0.00180500  0.81520600  0.81533300  1
  C  C3  1  0.00181900  0.81518300  0.36942100  1
  C  C4  1  0.48166700  0.66675200  0.66660200  1
  C  C5  1  0.50180500  0.18477300  0.63055300  1
  C  C6  1  0.50183200  0.18477300  0.18463200  1
  C  C7  1  0.00158900  0.36840100  0.81578400  1
  Ni  Ni8  1  0.62924500  0.33343900  0.33327200  1
  Ni  Ni9  1  0.12927300  0.66659400  0.66665700  1
  Cu  Cu10  1  0.89306700  0.12965800  0.73976100  1
  Cu  Cu11  1  0.89307000  0.12965600  0.13057400  1
  Cu  Cu12  1  0.39180000  0.26084100  0.86957400  1
  Cu  Cu13  1  0.89179500  0.73914700  0.13041900  1
  Cu  Cu14  1  0.39307700  0.87032800  0.86942700  1
  Cu  Cu15  1  0.39320900  0.87039600  0.26020900  1
  Cu  Cu16  1  0.22740200  0.08319900  0.45839600  1
  Cu  Cu17  1  0.22596600  0.45838200  0.45838700  1
  Cu  Cu18  1  0.22597100  0.45838200  0.08322000  1
  Cu  Cu19  1  0.72597200  0.54159100  0.91681100  1
  Cu  Cu20  1  0.72597800  0.54158800  0.54159000  1
  Cu  Cu21  1  0.72729000  0.91689500  0.54154800  1
