# generated using pymatgen
data_Cu4Ni4C35
_symmetry_space_group_name_H-M   'P 1'
_cell_length_a   13.79018200
_cell_length_b   7.07435400
_cell_length_c   11.67441988
_cell_angle_alpha   73.21396722
_cell_angle_beta   90.00000000
_cell_angle_gamma   90.00000000
_symmetry_Int_Tables_number   1
_chemical_formula_structural   Cu4Ni4C35
_chemical_formula_sum   'Cu8 Ni8 C70'
_cell_volume   1090.38771290
_cell_formula_units_Z   2
loop_
 _symmetry_equiv_pos_site_id
 _symmetry_equiv_pos_as_xyz
  1  'x, y, z'
loop_
 _atom_site_type_symbol
 _atom_site_label
 _atom_site_symmetry_multiplicity
 _atom_site_fract_x
 _atom_site_fract_y
 _atom_site_fract_z
 _atom_site_occupancy
  C  C0  1  0.50000000  0.00000000  0.50000000  1
  C  C1  1  0.00000000  0.00000000  0.00000000  1
  C  C2  1  0.47768800  0.41949500  0.18850300  1
  C  C3  1  0.97768800  0.58050500  0.31149700  1
  C  C4  1  0.52231200  0.58050500  0.81149700  1
  C  C5  1  0.02231200  0.41949500  0.68850300  1
  C  C6  1  0.32100600  0.24073800  0.38315900  1
  C  C7  1  0.82100600  0.75926200  0.11684100  1
  C  C8  1  0.67899400  0.75926200  0.61684100  1
  C  C9  1  0.17899400  0.24073800  0.88315900  1
  C  C10  1  0.19515900  0.25194100  0.35530500  1
  C  C11  1  0.69515900  0.74805900  0.14469500  1
  C  C12  1  0.80484100  0.74805900  0.64469500  1
  C  C13  1  0.30484100  0.25194100  0.85530500  1
  C  C14  1  0.08867600  0.09190200  0.50137000  1
  C  C15  1  0.58867600  0.90809800  0.99863000  1
  C  C16  1  0.91132400  0.90809800  0.49863000  1
  C  C17  1  0.41132400  0.09190200  0.00137000  1
  C  C18  1  0.13037500  0.95344800  0.64245600  1
  C  C19  1  0.63037500  0.04655200  0.85754400  1
  C  C20  1  0.86962500  0.04655200  0.35754400  1
  C  C21  1  0.36962500  0.95344800  0.14245600  1
  C  C22  1  0.41955700  0.48929400  0.57623400  1
  C  C23  1  0.91955700  0.51070600  0.92376600  1
  C  C24  1  0.58044300  0.51070600  0.42376600  1
  C  C25  1  0.08044300  0.48929400  0.07623400  1
  C  C26  1  0.29396000  0.45567700  0.59649400  1
  C  C27  1  0.79396000  0.54432300  0.90350600  1
  C  C28  1  0.70604000  0.54432300  0.40350600  1
  C  C29  1  0.20604000  0.45567700  0.09649400  1
  C  C30  1  0.18742500  0.63905000  0.45692400  1
  C  C31  1  0.68742500  0.36095000  0.04307600  1
  C  C32  1  0.81257500  0.36095000  0.54307600  1
  C  C33  1  0.31257500  0.63905000  0.95692400  1
  C  C34  1  0.23099300  0.81489700  0.32811900  1
  C  C35  1  0.73099300  0.18510300  0.17188100  1
  C  C36  1  0.76900700  0.18510300  0.67188100  1
  C  C37  1  0.26900700  0.81489700  0.82811900  1
  Ni  Ni38  1  0.23668300  0.08419500  0.52261000  1
  Ni  Ni39  1  0.73668300  0.91580500  0.97739000  1
  Ni  Ni40  1  0.76331700  0.91580500  0.47739000  1
  Ni  Ni41  1  0.26331700  0.08419500  0.02261000  1
  Ni  Ni42  1  0.33539900  0.66833500  0.44479200  1
  Ni  Ni43  1  0.83539900  0.33166500  0.05520800  1
  Ni  Ni44  1  0.66460100  0.33166500  0.55520800  1
  Ni  Ni45  1  0.16460100  0.66833500  0.94479200  1
  Cu  Cu46  1  0.32965000  0.99713300  0.62193200  1
  Cu  Cu47  1  0.82965000  0.00286700  0.87806800  1
  Cu  Cu48  1  0.67035000  0.00286700  0.37806800  1
  Cu  Cu49  1  0.17035000  0.99713300  0.12193200  1
  Cu  Cu50  1  0.43156800  0.79140800  0.35980800  1
  Cu  Cu51  1  0.93156800  0.20859200  0.14019200  1
  Cu  Cu52  1  0.56843200  0.20859200  0.64019200  1
  Cu  Cu53  1  0.06843200  0.79140800  0.85980800  1
  C  C54  1  0.25219500  0.19979600  0.41113600  1
  C  C55  1  0.75219500  0.80020400  0.08886400  1
  C  C56  1  0.74780500  0.80020400  0.58886400  1
  C  C57  1  0.24780500  0.19979600  0.91113600  1
  C  C58  1  0.14498000  0.03803500  0.55758100  1
  C  C59  1  0.64498000  0.96196500  0.94241900  1
  C  C60  1  0.85502000  0.96196500  0.44241900  1
  C  C61  1  0.35502000  0.03803500  0.05758100  1
  C  C62  1  0.35082200  0.52752700  0.54700800  1
  C  C63  1  0.85082200  0.47247300  0.95299200  1
  C  C64  1  0.64917800  0.47247300  0.45299200  1
  C  C65  1  0.14917800  0.52752700  0.04700800  1
  C  C66  1  0.24451600  0.70974900  0.40688000  1
  C  C67  1  0.74451600  0.29025100  0.09312000  1
  C  C68  1  0.75548400  0.29025100  0.59312000  1
  C  C69  1  0.25548400  0.70974900  0.90688000  1
  C  C70  1  0.46431400  0.30384600  0.34402000  1
  C  C71  1  0.96431400  0.69615400  0.15598000  1
  C  C72  1  0.53568600  0.69615400  0.65598000  1
  C  C73  1  0.03568600  0.30384600  0.84402000  1
  C  C74  1  0.55607300  0.62279400  0.16241800  1
  C  C75  1  0.05607300  0.37720600  0.33758200  1
  C  C76  1  0.44392700  0.37720600  0.83758200  1
  C  C77  1  0.94392700  0.62279400  0.66241800  1
  C  C78  1  0.52805200  0.25149600  0.12143400  1
  C  C79  1  0.02805200  0.74850400  0.37856600  1
  C  C80  1  0.47194800  0.74850400  0.87856600  1
  C  C81  1  0.97194800  0.25149600  0.62143400  1
  C  C82  1  0.36228000  0.48900100  0.12757700  1
  C  C83  1  0.86228000  0.51099900  0.37242300  1
  C  C84  1  0.63772000  0.51099900  0.87242300  1
  C  C85  1  0.13772000  0.48900100  0.62757700  1
