# generated using pymatgen
data_CuNiC8
_symmetry_space_group_name_H-M   'P 1'
_cell_length_a   6.93411500
_cell_length_b   6.77819300
_cell_length_c   13.34903190
_cell_angle_alpha   77.34896473
_cell_angle_beta   90.00000000
_cell_angle_gamma   90.00000000
_symmetry_Int_Tables_number   1
_chemical_formula_structural   CuNiC8
_chemical_formula_sum   'Cu4 Ni4 C32'
_cell_volume   612.18244101
_cell_formula_units_Z   4
loop_
 _symmetry_equiv_pos_site_id
 _symmetry_equiv_pos_as_xyz
  1  'x, y, z'
loop_
 _atom_site_type_symbol
 _atom_site_label
 _atom_site_symmetry_multiplicity
 _atom_site_fract_x
 _atom_site_fract_y
 _atom_site_fract_z
 _atom_site_occupancy
  C  C0  1  0.72375000  0.52135100  0.67873100  1
  C  C1  1  0.22375000  0.47864900  0.82126900  1
  C  C2  1  0.27625000  0.47864900  0.32126900  1
  C  C3  1  0.77625000  0.52135100  0.17873100  1
  Ni  Ni4  1  0.21092900  0.58935400  0.57368400  1
  Ni  Ni5  1  0.71092900  0.41064600  0.92631600  1
  Ni  Ni6  1  0.78907100  0.41064600  0.42631600  1
  Ni  Ni7  1  0.28907100  0.58935400  0.07368400  1
  Cu  Cu8  1  0.53016100  0.94771500  0.87070900  1
  Cu  Cu9  1  0.03016100  0.05228500  0.62929100  1
  Cu  Cu10  1  0.46983900  0.05228500  0.12929100  1
  Cu  Cu11  1  0.96983900  0.94771500  0.37070900  1
  C  C12  1  0.77769800  0.79607900  0.66997200  1
  C  C13  1  0.27769800  0.20392100  0.83002800  1
  C  C14  1  0.22230200  0.20392100  0.33002800  1
  C  C15  1  0.72230200  0.79607900  0.16997200  1
  C  C16  1  0.19414200  0.75752300  0.79832200  1
  C  C17  1  0.69414200  0.24247700  0.70167800  1
  C  C18  1  0.80585800  0.24247700  0.20167800  1
  C  C19  1  0.30585800  0.75752300  0.29832200  1
  C  C20  1  0.12736100  0.81680800  0.52702500  1
  C  C21  1  0.62736100  0.18319200  0.97297500  1
  C  C22  1  0.87263900  0.18319200  0.47297500  1
  C  C23  1  0.37263900  0.81680800  0.02702500  1
  C  C24  1  0.75722400  0.54060800  0.51420100  1
  C  C25  1  0.25722400  0.45939200  0.98579900  1
  C  C26  1  0.24277600  0.45939200  0.48579900  1
  C  C27  1  0.74277600  0.54060800  0.01420100  1
  C  C28  1  0.05811400  0.46976800  0.66397900  1
  C  C29  1  0.55811400  0.53023200  0.83602100  1
  C  C30  1  0.94188600  0.53023200  0.33602100  1
  C  C31  1  0.44188600  0.46976800  0.16397900  1
  C  C32  1  0.40441800  0.58126800  0.64705500  1
  C  C33  1  0.90441800  0.41873200  0.85294500  1
  C  C34  1  0.59558200  0.41873200  0.35294500  1
  C  C35  1  0.09558200  0.58126800  0.14705500  1
  C  C36  1  0.47310000  0.04080500  0.53426800  1
  C  C37  1  0.97310000  0.95919500  0.96573200  1
  C  C38  1  0.52690000  0.95919500  0.46573200  1
  C  C39  1  0.02690000  0.04080500  0.03426800  1
