# generated using pymatgen
data_CuNi7C40
_symmetry_space_group_name_H-M   'P 1'
_cell_length_a   6.06556600
_cell_length_b   8.30142503
_cell_length_c   10.50096864
_cell_angle_alpha   90.86111448
_cell_angle_beta   90.66410991
_cell_angle_gamma   103.47123206
_symmetry_Int_Tables_number   1
_chemical_formula_structural   CuNi7C40
_chemical_formula_sum   'Cu1 Ni7 C40'
_cell_volume   514.08601380
_cell_formula_units_Z   1
loop_
 _symmetry_equiv_pos_site_id
 _symmetry_equiv_pos_as_xyz
  1  'x, y, z'
loop_
 _atom_site_type_symbol
 _atom_site_label
 _atom_site_symmetry_multiplicity
 _atom_site_fract_x
 _atom_site_fract_y
 _atom_site_fract_z
 _atom_site_occupancy
  C  C0  1  0.95433600  0.28170500  0.32515600  1
  C  C1  1  0.95254000  0.28314800  0.82553900  1
  C  C2  1  0.54700400  0.21898900  0.42466300  1
  C  C3  1  0.54593400  0.21858500  0.92380700  1
  C  C4  1  0.45430300  0.78138800  0.07482300  1
  C  C5  1  0.45381400  0.78167800  0.57541100  1
  C  C6  1  0.04645900  0.71872500  0.17452300  1
  C  C7  1  0.04672500  0.71757800  0.67539600  1
  Ni  Ni8  1  0.81483300  0.58065800  0.41653700  1
  Ni  Ni9  1  0.68554100  0.92003900  0.33346900  1
  Ni  Ni10  1  0.68770300  0.91706500  0.83376100  1
  Ni  Ni11  1  0.31375600  0.07942400  0.16638400  1
  Ni  Ni12  1  0.31424300  0.07969500  0.66655200  1
  Ni  Ni13  1  0.18700600  0.41965400  0.08225500  1
  Ni  Ni14  1  0.18582000  0.42009900  0.58394100  1
  Cu  Cu15  1  0.81449200  0.57849600  0.91928600  1
  C  C16  1  0.83313900  0.09627000  0.08434800  1
  C  C17  1  0.83338700  0.09620400  0.58492000  1
  C  C18  1  0.66498900  0.40487700  0.16409300  1
  C  C19  1  0.66731100  0.40601600  0.66604200  1
  C  C20  1  0.33320200  0.59586000  0.33455700  1
  C  C21  1  0.33452900  0.59534600  0.83507800  1
  C  C22  1  0.16639200  0.90393000  0.41532500  1
  C  C23  1  0.16537400  0.90178800  0.91537200  1
  C  C24  1  0.82523200  0.12322600  0.45528600  1
  C  C25  1  0.82452900  0.12261500  0.95475800  1
  C  C26  1  0.98577400  0.81207000  0.34026500  1
  C  C27  1  0.98467500  0.80731800  0.84167600  1
  C  C28  1  0.83602400  0.52023400  0.10448400  1
  C  C29  1  0.84147100  0.51705400  0.60630800  1
  C  C30  1  0.67687700  0.37826600  0.29342300  1
  C  C31  1  0.67633100  0.38318700  0.79601500  1
  C  C32  1  0.48501100  0.31087300  0.09021700  1
  C  C33  1  0.48700700  0.31178200  0.59194600  1
  C  C34  1  0.34074600  0.01683400  0.35701000  1
  C  C35  1  0.65945200  0.98357700  0.14320400  1
  C  C36  1  0.33796400  0.01558800  0.85657600  1
  C  C37  1  0.65956000  0.98341900  0.64359600  1
  C  C38  1  0.51425200  0.68817700  0.40907900  1
  C  C39  1  0.51601500  0.68628100  0.90978400  1
  C  C40  1  0.32418200  0.62247600  0.20497200  1
  C  C41  1  0.32652300  0.62316600  0.70554400  1
  C  C42  1  0.15963100  0.48316800  0.39335300  1
  C  C43  1  0.15902100  0.48314100  0.89293200  1
  C  C44  1  0.01408800  0.18897200  0.15891800  1
  C  C45  1  0.01424700  0.18842000  0.65955600  1
  C  C46  1  0.17445700  0.87638200  0.04510400  1
  C  C47  1  0.17410200  0.87655400  0.54475100  1
