# generated using pymatgen
data_Cu6Ni2C
_symmetry_space_group_name_H-M   'P 1'
_cell_length_a   4.85082731
_cell_length_b   6.40683394
_cell_length_c   16.62590410
_cell_angle_alpha   80.71815900
_cell_angle_beta   98.43411749
_cell_angle_gamma   112.59079020
_symmetry_Int_Tables_number   1
_chemical_formula_structural   Cu6Ni2C
_chemical_formula_sum   'Cu24 Ni8 C4'
_cell_volume   468.77596523
_cell_formula_units_Z   4
loop_
 _symmetry_equiv_pos_site_id
 _symmetry_equiv_pos_as_xyz
  1  'x, y, z'
loop_
 _atom_site_type_symbol
 _atom_site_label
 _atom_site_symmetry_multiplicity
 _atom_site_fract_x
 _atom_site_fract_y
 _atom_site_fract_z
 _atom_site_occupancy
  C  C0  1  0.99944600  0.50051600  0.50001200  1
  C  C1  1  0.50014500  0.24990200  0.74999600  1
  C  C2  1  0.00057300  0.99956200  0.00000300  1
  C  C3  1  0.49981600  0.75008500  0.25002500  1
  Ni  Ni4  1  0.90708900  0.16251800  0.65101000  1
  Ni  Ni5  1  0.40705000  0.91197500  0.90098700  1
  Ni  Ni6  1  0.90632900  0.66205400  0.15088900  1
  Ni  Ni7  1  0.40623300  0.41275200  0.40101000  1
  Ni  Ni8  1  0.59245000  0.58788400  0.59901700  1
  Ni  Ni9  1  0.09355800  0.33755200  0.84905800  1
  Ni  Ni10  1  0.59415900  0.08745900  0.09900500  1
  Ni  Ni11  1  0.09308200  0.83780300  0.34901400  1
  Cu  Cu12  1  0.64605600  0.14068600  0.66880200  1
  Cu  Cu13  1  0.14568600  0.88947200  0.91855700  1
  Cu  Cu14  1  0.64527700  0.63979900  0.16853300  1
  Cu  Cu15  1  0.14520900  0.39082600  0.41866800  1
  Cu  Cu16  1  0.41342800  0.65063100  0.54396300  1
  Cu  Cu17  1  0.91463800  0.40035800  0.79411400  1
  Cu  Cu18  1  0.41481200  0.14929200  0.04384000  1
  Cu  Cu19  1  0.91377100  0.89984400  0.29390500  1
  Cu  Cu20  1  0.51995700  0.51962400  0.67291800  1
  Cu  Cu21  1  0.02171700  0.26948900  0.92308100  1
  Cu  Cu22  1  0.52166500  0.01991400  0.17298500  1
  Cu  Cu23  1  0.02076200  0.77036800  0.42302500  1
  Cu  Cu24  1  0.97900600  0.23060700  0.57702600  1
  Cu  Cu25  1  0.47981200  0.98009300  0.82705400  1
  Cu  Cu26  1  0.97862400  0.72961500  0.07685200  1
  Cu  Cu27  1  0.47848600  0.48026200  0.32705100  1
  Cu  Cu28  1  0.08581800  0.09945000  0.70599800  1
  Cu  Cu29  1  0.58629100  0.84984200  0.95610900  1
  Cu  Cu30  1  0.08587000  0.60019400  0.20594000  1
  Cu  Cu31  1  0.58539400  0.35038800  0.45611300  1
  Cu  Cu32  1  0.85354000  0.60994800  0.58130900  1
  Cu  Cu33  1  0.35475000  0.35956700  0.83130300  1
  Cu  Cu34  1  0.85553300  0.10989600  0.08147100  1
  Cu  Cu35  1  0.35396800  0.85977300  0.33135700  1
