# generated using pymatgen
data_Cu15(NiC8)2
_symmetry_space_group_name_H-M   'P 1'
_cell_length_a   10.57477100
_cell_length_b   7.36364200
_cell_length_c   17.05316173
_cell_angle_alpha   70.83426486
_cell_angle_beta   90.00000000
_cell_angle_gamma   90.00000000
_symmetry_Int_Tables_number   1
_chemical_formula_structural   Cu15(NiC8)2
_chemical_formula_sum   'Cu60 Ni8 C64'
_cell_volume   1254.30749746
_cell_formula_units_Z   4
loop_
 _symmetry_equiv_pos_site_id
 _symmetry_equiv_pos_as_xyz
  1  'x, y, z'
loop_
 _atom_site_type_symbol
 _atom_site_label
 _atom_site_symmetry_multiplicity
 _atom_site_fract_x
 _atom_site_fract_y
 _atom_site_fract_z
 _atom_site_occupancy
  C  C0  1  0.32917300  0.10955900  0.13266100  1
  C  C1  1  0.82917300  0.89044100  0.36733900  1
  C  C2  1  0.17082700  0.10955900  0.63266100  1
  C  C3  1  0.67082700  0.89044100  0.86733900  1
  C  C4  1  0.26389400  0.76547400  0.69675800  1
  C  C5  1  0.11139200  0.73929500  0.69855900  1
  C  C6  1  0.71999700  0.52300500  0.94994900  1
  C  C7  1  0.58353100  0.53345200  0.89781400  1
  C  C8  1  0.10872500  0.46672500  0.92957900  1
  C  C9  1  0.24712700  0.22159400  0.25877800  1
  C  C10  1  0.49709300  0.70100700  0.56953000  1
  C  C11  1  0.04082300  0.47106900  0.83822200  1
  C  C12  1  0.85482000  0.97059200  0.50805000  1
  C  C13  1  0.54182700  0.17186500  0.20414500  1
  C  C14  1  0.63273700  0.97541200  0.44132700  1
  C  C15  1  0.54082300  0.52893100  0.66177800  1
  C  C16  1  0.99709300  0.29899300  0.93047000  1
  C  C17  1  0.31740800  0.01261300  0.29407700  1
  C  C18  1  0.39934000  0.24949900  0.97411400  1
  C  C19  1  0.60872500  0.53327500  0.57042100  1
  C  C20  1  0.07032000  0.12698400  0.11821900  1
  C  C21  1  0.57617500  0.10188400  0.12679100  1
  C  C22  1  0.07617500  0.89811600  0.37320900  1
  C  C23  1  0.57032000  0.87301600  0.38178100  1
  C  C24  1  0.89934000  0.75050100  0.52588600  1
  C  C25  1  0.81740800  0.98738700  0.20592300  1
  C  C26  1  0.08353100  0.46654800  0.60218600  1
  C  C27  1  0.21999700  0.47699500  0.55005100  1
  C  C28  1  0.13273700  0.02458800  0.05867300  1
  C  C29  1  0.04182700  0.82813500  0.29585500  1
  C  C30  1  0.61139200  0.26070500  0.80144100  1
  C  C31  1  0.76389400  0.23452600  0.80324200  1
  C  C32  1  0.35482000  0.02940800  0.99195000  1
  C  C33  1  0.25287300  0.22159400  0.75877800  1
  C  C34  1  0.74712700  0.77840600  0.24122200  1
  C  C35  1  0.64518000  0.97059200  0.00805000  1
  C  C36  1  0.23610600  0.76547400  0.19675800  1
  C  C37  1  0.38860800  0.73929500  0.19855900  1
  C  C38  1  0.95817300  0.17186500  0.70414500  1
  C  C39  1  0.86726300  0.97541200  0.94132700  1
  C  C40  1  0.78000300  0.52300500  0.44994900  1
  C  C41  1  0.91646900  0.53345200  0.39781400  1
  C  C42  1  0.18259200  0.01261300  0.79407700  1
  C  C43  1  0.10066000  0.24949900  0.47411400  1
  C  C44  1  0.42968000  0.12698400  0.61821900  1
  C  C45  1  0.92382500  0.10188400  0.62679100  1
  C  C46  1  0.42382500  0.89811600  0.87320900  1
  C  C47  1  0.92968000  0.87301600  0.88178100  1
  C  C48  1  0.39127500  0.46672500  0.42957900  1
  C  C49  1  0.60066000  0.75050100  0.02588600  1
  C  C50  1  0.68259200  0.98738700  0.70592300  1
  C  C51  1  0.00290700  0.70100700  0.06953000  1
  C  C52  1  0.45917700  0.47106900  0.33822200  1
  C  C53  1  0.36726300  0.02458800  0.55867300  1
  C  C54  1  0.45817300  0.82813500  0.79585500  1
  C  C55  1  0.14518000  0.02940800  0.49195000  1
  C  C56  1  0.95917700  0.52893100  0.16177800  1
  C  C57  1  0.50290700  0.29899300  0.43047000  1
  C  C58  1  0.75287300  0.77840600  0.74122200  1
  C  C59  1  0.89127500  0.53327500  0.07042100  1
  C  C60  1  0.41646900  0.46654800  0.10218600  1
  C  C61  1  0.28000300  0.47699500  0.05005100  1
  C  C62  1  0.88860800  0.26070500  0.30144100  1
  C  C63  1  0.73610600  0.23452600  0.30324200  1
  Ni  Ni64  1  0.40763000  0.48121300  0.79150900  1
  Ni  Ni65  1  0.90763000  0.51878700  0.70849100  1
  Ni  Ni66  1  0.82735500  0.20037400  0.04697100  1
  Ni  Ni67  1  0.32735500  0.79962600  0.45302900  1
  Ni  Ni68  1  0.67264500  0.20037400  0.54697100  1
  Ni  Ni69  1  0.17264500  0.79962600  0.95302900  1
  Ni  Ni70  1  0.09237000  0.48121300  0.29150900  1
  Ni  Ni71  1  0.59237000  0.51878700  0.20849100  1
  Cu  Cu72  1  0.18357500  0.82084100  0.66664100  1
  Cu  Cu73  1  0.39981900  0.69511700  0.74836000  1
  Cu  Cu74  1  0.39715900  0.85129900  0.51920800  1
  Cu  Cu75  1  0.33857200  0.39570100  0.09432600  1
  Cu  Cu76  1  0.82035700  0.41561900  0.02112800  1
  Cu  Cu77  1  0.00530500  0.59685800  0.75376200  1
  Cu  Cu78  1  0.78353200  0.60509400  0.71153800  1
  Cu  Cu79  1  0.45057900  0.44096300  0.87913600  1
  Cu  Cu80  1  0.56802800  0.61412600  0.60205300  1
  Cu  Cu81  1  0.06802800  0.38587400  0.89794700  1
  Cu  Cu82  1  0.27083800  0.10137800  0.24495500  1
  Cu  Cu83  1  0.95057900  0.55903700  0.62086400  1
  Cu  Cu84  1  0.88895600  0.87701800  0.48172400  1
  Cu  Cu85  1  0.28353200  0.39490600  0.78846200  1
  Cu  Cu86  1  0.89679600  0.12823700  0.12698300  1
  Cu  Cu87  1  0.51045800  0.09069600  0.16992200  1
  Cu  Cu88  1  0.19743300  0.88231100  0.44493300  1
  Cu  Cu89  1  0.50530500  0.40314200  0.74623800  1
  Cu  Cu90  1  0.14977800  0.12005500  0.08828100  1
  Cu  Cu91  1  0.64977800  0.87994500  0.41171900  1
  Cu  Cu92  1  0.69743300  0.11768900  0.05506700  1
  Cu  Cu93  1  0.01045800  0.90930400  0.33007800  1
  Cu  Cu94  1  0.39679600  0.87176300  0.37301700  1
  Cu  Cu95  1  0.89715900  0.14870100  0.98079200  1
  Cu  Cu96  1  0.38895600  0.12298200  0.01827600  1
  Cu  Cu97  1  0.89981900  0.30488300  0.75164000  1
  Cu  Cu98  1  0.77083800  0.89862200  0.25504500  1
  Cu  Cu99  1  0.16142800  0.39570100  0.59432600  1
  Cu  Cu100  1  0.67964300  0.41561900  0.52112800  1
  Cu  Cu101  1  0.68357500  0.17915900  0.83335900  1
  Cu  Cu102  1  0.31642500  0.82084100  0.16664100  1
  Cu  Cu103  1  0.32035700  0.58438100  0.47887200  1
  Cu  Cu104  1  0.83857200  0.60429900  0.40567400  1
  Cu  Cu105  1  0.22916200  0.10137800  0.74495500  1
  Cu  Cu106  1  0.10018100  0.69511700  0.24836000  1
  Cu  Cu107  1  0.61104400  0.87701800  0.98172400  1
  Cu  Cu108  1  0.10284100  0.85129900  0.01920800  1
  Cu  Cu109  1  0.60320400  0.12823700  0.62698300  1
  Cu  Cu110  1  0.98954200  0.09069600  0.66992200  1
  Cu  Cu111  1  0.30256700  0.88231100  0.94493300  1
  Cu  Cu112  1  0.35022200  0.12005500  0.58828100  1
  Cu  Cu113  1  0.85022200  0.87994500  0.91171900  1
  Cu  Cu114  1  0.49469500  0.59685800  0.25376200  1
  Cu  Cu115  1  0.80256700  0.11768900  0.55506700  1
  Cu  Cu116  1  0.48954200  0.90930400  0.83007800  1
  Cu  Cu117  1  0.10320400  0.87176300  0.87301700  1
  Cu  Cu118  1  0.71646800  0.60509400  0.21153800  1
  Cu  Cu119  1  0.11104400  0.12298200  0.51827600  1
  Cu  Cu120  1  0.04942100  0.44096300  0.37913600  1
  Cu  Cu121  1  0.72916200  0.89862200  0.75504500  1
  Cu  Cu122  1  0.93197200  0.61412600  0.10205300  1
  Cu  Cu123  1  0.43197200  0.38587400  0.39794700  1
  Cu  Cu124  1  0.54942100  0.55903700  0.12086400  1
  Cu  Cu125  1  0.21646800  0.39490600  0.28846200  1
  Cu  Cu126  1  0.99469500  0.40314200  0.24623800  1
  Cu  Cu127  1  0.17964300  0.58438100  0.97887200  1
  Cu  Cu128  1  0.66142800  0.60429900  0.90567400  1
  Cu  Cu129  1  0.60284100  0.14870100  0.48079200  1
  Cu  Cu130  1  0.60018100  0.30488300  0.25164000  1
  Cu  Cu131  1  0.81642500  0.17915900  0.33335900  1
