# generated using pymatgen
data_Cu2Ni5C12
_symmetry_space_group_name_H-M   'P 1'
_cell_length_a   6.57995300
_cell_length_b   6.61848390
_cell_length_c   19.57237154
_cell_angle_alpha   96.79879664
_cell_angle_beta   97.09396131
_cell_angle_gamma   99.39135476
_symmetry_Int_Tables_number   1
_chemical_formula_structural   Cu2Ni5C12
_chemical_formula_sum   'Cu6 Ni15 C36'
_cell_volume   826.10494638
_cell_formula_units_Z   3
loop_
 _symmetry_equiv_pos_site_id
 _symmetry_equiv_pos_as_xyz
  1  'x, y, z'
loop_
 _atom_site_type_symbol
 _atom_site_label
 _atom_site_symmetry_multiplicity
 _atom_site_fract_x
 _atom_site_fract_y
 _atom_site_fract_z
 _atom_site_occupancy
  Ni  Ni0  1  0.29236900  0.82638100  0.43683900  1
  Ni  Ni1  1  0.96020000  0.49277600  0.10328700  1
  Ni  Ni2  1  0.62905400  0.16338400  0.76919500  1
  Ni  Ni3  1  0.89258900  0.59290800  0.28669700  1
  Ni  Ni4  1  0.22530400  0.92559700  0.62043600  1
  Ni  Ni5  1  0.56141200  0.26919300  0.95496600  1
  Ni  Ni6  1  0.44574300  0.27349700  0.13031800  1
  Ni  Ni7  1  0.77890400  0.60676000  0.46311700  1
  Ni  Ni8  1  0.10590700  0.94165800  0.79692500  1
  Ni  Ni9  1  0.89033100  0.06792400  0.20202700  1
  Ni  Ni10  1  0.22323600  0.40070700  0.53529700  1
  Ni  Ni11  1  0.43941500  0.73452000  0.04784500  1
  Ni  Ni12  1  0.77438500  0.06829800  0.38090200  1
  Ni  Ni13  1  0.10760100  0.39875400  0.71507400  1
  Ni  Ni14  1  0.03834400  0.50364600  0.89636600  1
  Cu  Cu15  1  0.33413400  0.33040400  0.33424300  1
  Cu  Cu16  1  0.66644800  0.66251100  0.66638500  1
  Cu  Cu17  1  0.00226100  0.00016600  0.00013300  1
  Cu  Cu18  1  0.55881900  0.72946000  0.86804100  1
  Cu  Cu19  1  0.36931000  0.83334700  0.23004700  1
  Cu  Cu20  1  0.70255400  0.16637700  0.56312300  1
  C  C21  1  0.02944100  0.16016900  0.10463700  1
  C  C22  1  0.36041700  0.49414600  0.43786100  1
  C  C23  1  0.69487200  0.82944400  0.77225400  1
  C  C24  1  0.58524700  0.95756200  0.64111900  1
  C  C25  1  0.25265600  0.62345900  0.30736100  1
  C  C26  1  0.91886800  0.28904900  0.97420000  1
  C  C27  1  0.77784200  0.37097100  0.18976100  1
  C  C28  1  0.10978900  0.70461700  0.52313300  1
  C  C29  1  0.44672900  0.02569600  0.85872700  1
  C  C30  1  0.03035300  0.77319500  0.19609500  1
  C  C31  1  0.67317900  0.43934300  0.85999500  1
  C  C32  1  0.36278500  0.10550700  0.52916800  1
  C  C33  1  0.33404700  0.09592400  0.01780300  1
  C  C34  1  0.66515000  0.42678900  0.35169200  1
  C  C35  1  0.99768200  0.76075100  0.68595300  1
  C  C36  1  0.62811600  0.47568100  0.05923100  1
  C  C37  1  0.96065900  0.80922400  0.39131000  1
  C  C38  1  0.29413400  0.14005000  0.72608000  1
  C  C39  1  0.69394700  0.85404800  0.27112800  1
  C  C40  1  0.02799200  0.18705200  0.60498500  1
  C  C41  1  0.37200000  0.53131500  0.93982000  1
  C  C42  1  0.99915300  0.23895600  0.31475900  1
  C  C43  1  0.33235300  0.57191000  0.64768000  1
  C  C44  1  0.66810500  0.90318700  0.98182600  1
  C  C45  1  0.65178900  0.90397400  0.47479200  1
  C  C46  1  0.31873800  0.57073600  0.14168600  1
  C  C47  1  0.98136700  0.23747900  0.80649400  1
  C  C48  1  0.55444800  0.96547400  0.14397000  1
  C  C49  1  0.88887900  0.29769300  0.47685500  1
  C  C50  1  0.23258400  0.63372700  0.80956500  1
  C  C51  1  0.08094900  0.71221900  0.02600800  1
  C  C52  1  0.41568800  0.03793700  0.35760300  1
  C  C53  1  0.74832500  0.37073400  0.68997700  1
  C  C54  1  0.30771700  0.17318700  0.22934200  1
  C  C55  1  0.64022200  0.50432300  0.56140700  1
  C  C56  1  0.96545300  0.83620500  0.89445400  1
