# generated using pymatgen
data_CuNi9C13
_symmetry_space_group_name_H-M   'P 1'
_cell_length_a   9.75484682
_cell_length_b   9.75484682
_cell_length_c   9.56589160
_cell_angle_alpha   78.54355563
_cell_angle_beta   78.54355563
_cell_angle_gamma   68.04127945
_symmetry_Int_Tables_number   1
_chemical_formula_structural   CuNi9C13
_chemical_formula_sum   'Cu2 Ni18 C26'
_cell_volume   819.62621756
_cell_formula_units_Z   2
loop_
 _symmetry_equiv_pos_site_id
 _symmetry_equiv_pos_as_xyz
  1  'x, y, z'
loop_
 _atom_site_type_symbol
 _atom_site_label
 _atom_site_symmetry_multiplicity
 _atom_site_fract_x
 _atom_site_fract_y
 _atom_site_fract_z
 _atom_site_occupancy
  C  C0  1  0.06341200  0.93658800  0.75000000  1
  C  C1  1  0.93658800  0.06341200  0.25000000  1
  Ni  Ni2  1  0.10372000  0.73566900  0.69459100  1
  Ni  Ni3  1  0.26433100  0.89628000  0.80540900  1
  Ni  Ni4  1  0.89628000  0.26433100  0.30540900  1
  Ni  Ni5  1  0.73566900  0.10372000  0.19459100  1
  Ni  Ni6  1  0.05212200  0.62660100  0.81783200  1
  Ni  Ni7  1  0.37339900  0.94787800  0.68216800  1
  Ni  Ni8  1  0.94787800  0.37339900  0.18216800  1
  Ni  Ni9  1  0.62660100  0.05212200  0.31783200  1
  Ni  Ni10  1  0.55504000  0.29552800  0.77137100  1
  Ni  Ni11  1  0.70447200  0.44496000  0.72862900  1
  Ni  Ni12  1  0.44496000  0.70447200  0.22862900  1
  Ni  Ni13  1  0.29552800  0.55504000  0.27137100  1
  Ni  Ni14  1  0.43817600  0.27016900  0.84099900  1
  Ni  Ni15  1  0.72983100  0.56182400  0.65900100  1
  Ni  Ni16  1  0.56182400  0.72983100  0.15900100  1
  Ni  Ni17  1  0.27016900  0.43817600  0.34099900  1
  Ni  Ni18  1  0.82239600  0.17760400  0.75000000  1
  Ni  Ni19  1  0.17760400  0.82239600  0.25000000  1
  C  C20  1  0.81644100  0.02132500  0.71105900  1
  C  C21  1  0.97867500  0.18355900  0.78894100  1
  C  C22  1  0.18355900  0.97867500  0.28894100  1
  C  C23  1  0.02132500  0.81644100  0.21105900  1
  Cu  Cu24  1  0.68538100  0.31461900  0.75000000  1
  Cu  Cu25  1  0.31461900  0.68538100  0.25000000  1
  C  C26  1  0.24960700  0.66397500  0.64389400  1
  C  C27  1  0.33602500  0.75039300  0.85610600  1
  C  C28  1  0.75039300  0.33602500  0.35610600  1
  C  C29  1  0.66397500  0.24960700  0.14389400  1
  C  C30  1  0.02375000  0.75799700  0.58247200  1
  C  C31  1  0.24200300  0.97625000  0.91752800  1
  C  C32  1  0.97625000  0.24200300  0.41752800  1
  C  C33  1  0.75799700  0.02375000  0.08247200  1
  C  C34  1  0.90354400  0.68648900  0.86166300  1
  C  C35  1  0.31351100  0.09645600  0.63833700  1
  C  C36  1  0.09645600  0.31351100  0.13833700  1
  C  C37  1  0.68648900  0.90354400  0.36166300  1
  C  C38  1  0.08014700  0.49474400  0.77257700  1
  C  C39  1  0.50525600  0.91985300  0.72742300  1
  C  C40  1  0.91985300  0.50525600  0.22742300  1
  C  C41  1  0.49474400  0.08014700  0.27257700  1
  C  C42  1  0.12486900  0.60022200  0.93277900  1
  C  C43  1  0.39977800  0.87513100  0.56722100  1
  C  C44  1  0.87513100  0.39977800  0.06722100  1
  C  C45  1  0.60022200  0.12486900  0.43277900  1
