# generated using pymatgen
data_Cu10Ni4C9
_symmetry_space_group_name_H-M   'P 1'
_cell_length_a   11.62896861
_cell_length_b   11.62896861
_cell_length_c   5.46536878
_cell_angle_alpha   89.79161643
_cell_angle_beta   89.79161643
_cell_angle_gamma   152.82113019
_symmetry_Int_Tables_number   1
_chemical_formula_structural   Cu10Ni4C9
_chemical_formula_sum   'Cu10 Ni4 C9'
_cell_volume   337.55714055
_cell_formula_units_Z   1
loop_
 _symmetry_equiv_pos_site_id
 _symmetry_equiv_pos_as_xyz
  1  'x, y, z'
loop_
 _atom_site_type_symbol
 _atom_site_label
 _atom_site_symmetry_multiplicity
 _atom_site_fract_x
 _atom_site_fract_y
 _atom_site_fract_z
 _atom_site_occupancy
  C  C0  1  0.50000000  0.50000000  0.00000000  1
  C  C1  1  0.91456900  0.58285200  0.75149900  1
  C  C2  1  0.58285200  0.91456900  0.75149900  1
  C  C3  1  0.41714800  0.08543100  0.24850100  1
  C  C4  1  0.08543100  0.41714800  0.24850100  1
  C  C5  1  0.16272500  0.32726700  0.74489500  1
  C  C6  1  0.32726700  0.16272500  0.74489500  1
  C  C7  1  0.67273300  0.83727500  0.25510500  1
  C  C8  1  0.83727500  0.67273300  0.25510500  1
  Ni  Ni9  1  0.04672200  0.45607000  0.75099900  1
  Ni  Ni10  1  0.45607000  0.04672200  0.75099900  1
  Ni  Ni11  1  0.54393000  0.95327800  0.24900100  1
  Ni  Ni12  1  0.95327800  0.54393000  0.24900100  1
  Cu  Cu13  1  0.39944700  0.60055300  0.50000000  1
  Cu  Cu14  1  0.25791400  0.25791400  0.75804100  1
  Cu  Cu15  1  0.10102900  0.89897100  0.50000000  1
  Cu  Cu16  1  0.59452500  0.40547500  0.00000000  1
  Cu  Cu17  1  0.74208600  0.74208600  0.24195900  1
  Cu  Cu18  1  0.89935500  0.10064500  0.00000000  1
  Cu  Cu19  1  0.89897100  0.10102900  0.50000000  1
  Cu  Cu20  1  0.60055300  0.39944700  0.50000000  1
  Cu  Cu21  1  0.10064500  0.89935500  0.00000000  1
  Cu  Cu22  1  0.40547500  0.59452500  0.00000000  1
