# generated using pymatgen
data_CuNi7C68
_symmetry_space_group_name_H-M   'P 1'
_cell_length_a   8.66337500
_cell_length_b   8.79268757
_cell_length_c   12.22460197
_cell_angle_alpha   89.96818758
_cell_angle_beta   89.99316646
_cell_angle_gamma   89.94156182
_symmetry_Int_Tables_number   1
_chemical_formula_structural   CuNi7C68
_chemical_formula_sum   'Cu1 Ni7 C68'
_cell_volume   931.20047107
_cell_formula_units_Z   1
loop_
 _symmetry_equiv_pos_site_id
 _symmetry_equiv_pos_as_xyz
  1  'x, y, z'
loop_
 _atom_site_type_symbol
 _atom_site_label
 _atom_site_symmetry_multiplicity
 _atom_site_fract_x
 _atom_site_fract_y
 _atom_site_fract_z
 _atom_site_occupancy
  C  C0  1  0.78277000  0.27785500  0.18126600  1
  C  C1  1  0.78262900  0.22236300  0.81866900  1
  C  C2  1  0.71778700  0.77784900  0.31907200  1
  C  C3  1  0.71695500  0.72222500  0.68121300  1
  C  C4  1  0.28309500  0.27770300  0.31879900  1
  C  C5  1  0.28271500  0.22283800  0.68131400  1
  C  C6  1  0.21691800  0.77795700  0.18115200  1
  C  C7  1  0.21733400  0.72183700  0.81842200  1
  Ni  Ni8  1  0.75062800  0.04061800  0.61288900  1
  Ni  Ni9  1  0.75131200  0.45853800  0.38724800  1
  Ni  Ni10  1  0.74913800  0.95894300  0.11282600  1
  Ni  Ni11  1  0.74926500  0.54108100  0.88723300  1
  Ni  Ni12  1  0.25054300  0.45915100  0.11233800  1
  Ni  Ni13  1  0.25089500  0.04057100  0.88733600  1
  Ni  Ni14  1  0.24954800  0.95905400  0.38721900  1
  Cu  Cu15  1  0.24792300  0.54148200  0.61157500  1
  C  C16  1  0.96230200  0.74938500  0.49982400  1
  C  C17  1  0.53957400  0.24999200  0.99997700  1
  C  C18  1  0.46017900  0.75001000  0.00014300  1
  C  C19  1  0.03961400  0.25071100  0.49967900  1
  C  C20  1  0.89406000  0.60687100  0.14710600  1
  C  C21  1  0.89390200  0.89315800  0.85286800  1
  C  C22  1  0.60414200  0.39517000  0.64652100  1
  C  C23  1  0.60587600  0.10695500  0.35306200  1
  C  C24  1  0.39413100  0.89262300  0.64628700  1
  C  C25  1  0.39386200  0.60747700  0.35359000  1
  C  C26  1  0.10552600  0.39307400  0.85189200  1
  C  C27  1  0.10596700  0.10700400  0.14711500  1
  C  C28  1  0.94381100  0.35786900  0.42886700  1
  C  C29  1  0.94423000  0.14326600  0.57139000  1
  C  C30  1  0.92707300  0.10457500  0.15592500  1
  C  C31  1  0.92674100  0.39576700  0.84339200  1
  C  C32  1  0.85466700  0.83587500  0.58052700  1
  C  C33  1  0.85358700  0.66120300  0.42146200  1
  C  C34  1  0.84360000  0.56618000  0.03069500  1
  C  C35  1  0.84348100  0.93375800  0.96933900  1
  C  C36  1  0.83761100  0.76767300  0.18013600  1
  C  C37  1  0.83744200  0.73247400  0.81995600  1
  C  C38  1  0.82545700  0.48607500  0.22590400  1
  C  C39  1  0.82539300  0.01436400  0.77405500  1
  C  C40  1  0.67435600  0.98591700  0.27419100  1
  C  C41  1  0.67336300  0.51454700  0.72588300  1
  C  C42  1  0.65958000  0.23323700  0.68002200  1
  C  C43  1  0.66235100  0.26762000  0.32002000  1
  C  C44  1  0.65540600  0.43417200  0.53025500  1
  C  C45  1  0.65682900  0.06595600  0.46959200  1
  C  C46  1  0.64795900  0.16238900  0.07936700  1
  C  C47  1  0.64792800  0.33765000  0.92077000  1
  C  C48  1  0.57281000  0.89463700  0.65598200  1
  C  C49  1  0.57255400  0.60460300  0.34472900  1
  C  C50  1  0.55659500  0.85731400  0.07116900  1
  C  C51  1  0.55655300  0.64257400  0.92886900  1
  C  C52  1  0.44312900  0.35743400  0.07120600  1
  C  C53  1  0.44330700  0.14281700  0.92883600  1
  C  C54  1  0.42439500  0.39784100  0.65538800  1
  C  C55  1  0.42703600  0.10443100  0.34409300  1
  C  C56  1  0.35205000  0.66218200  0.07937900  1
  C  C57  1  0.35198400  0.83763300  0.92059700  1
  C  C58  1  0.34349000  0.93347500  0.53037600  1
  C  C59  1  0.34375300  0.56538500  0.47029100  1
  C  C60  1  0.33724800  0.76762800  0.31994200  1
  C  C61  1  0.33683700  0.73052000  0.67976000  1
  C  C62  1  0.32645400  0.48585600  0.27480300  1
  C  C63  1  0.32535800  0.01278600  0.72570900  1
  C  C64  1  0.17430900  0.98621800  0.22600500  1
  C  C65  1  0.17495200  0.51445900  0.77365200  1
  C  C66  1  0.16261900  0.26790600  0.17993700  1
  C  C67  1  0.16263200  0.23215200  0.81960600  1
  C  C68  1  0.15626300  0.43407900  0.96829500  1
  C  C69  1  0.15668000  0.06635300  0.03070400  1
  C  C70  1  0.14885700  0.33825000  0.58020700  1
  C  C71  1  0.14823500  0.16265300  0.42092200  1
  C  C72  1  0.07294400  0.89563000  0.84406700  1
  C  C73  1  0.07309400  0.60406700  0.15608800  1
  C  C74  1  0.05748400  0.85716700  0.42898400  1
  C  C75  1  0.05892000  0.64088400  0.57202300  1
