# generated using pymatgen
data_Cu2Ni3C31
_symmetry_space_group_name_H-M   'P 1'
_cell_length_a   8.58286552
_cell_length_b   8.58286552
_cell_length_c   8.58286515
_cell_angle_alpha   61.20349391
_cell_angle_beta   61.20349391
_cell_angle_gamma   61.20348986
_symmetry_Int_Tables_number   1
_chemical_formula_structural   Cu2Ni3C31
_chemical_formula_sum   'Cu2 Ni3 C31'
_cell_volume   459.17934942
_cell_formula_units_Z   1
loop_
 _symmetry_equiv_pos_site_id
 _symmetry_equiv_pos_as_xyz
  1  'x, y, z'
loop_
 _atom_site_type_symbol
 _atom_site_label
 _atom_site_symmetry_multiplicity
 _atom_site_fract_x
 _atom_site_fract_y
 _atom_site_fract_z
 _atom_site_occupancy
  Ni  Ni0  1  0.85219300  0.85219300  0.85219300  1
  Ni  Ni1  1  0.64806500  0.64806500  0.64806500  1
  Ni  Ni2  1  0.35476400  0.35476400  0.35476400  1
  Cu  Cu3  1  0.99561700  0.99561700  0.99561700  1
  Cu  Cu4  1  0.50032800  0.50032800  0.50032800  1
  C  C5  1  0.14481600  0.14481600  0.14481600  1
  C  C6  1  0.25281700  0.55042300  0.94758300  1
  C  C7  1  0.74605700  0.45536100  0.05473000  1
  C  C8  1  0.45536100  0.05473000  0.74605700  1
  C  C9  1  0.05473000  0.74605700  0.45536100  1
  C  C10  1  0.94758300  0.25281700  0.55042300  1
  C  C11  1  0.55042300  0.94758300  0.25281700  1
  C  C12  1  0.90672900  0.68364400  0.47948000  1
  C  C13  1  0.68364400  0.47948000  0.90672900  1
  C  C14  1  0.93576300  0.09242000  0.74643200  1
  C  C15  1  0.47948000  0.90672900  0.68364400  1
  C  C16  1  0.99217600  0.17873500  0.39152700  1
  C  C17  1  0.74906600  0.40041600  0.55803100  1
  C  C18  1  0.74643200  0.93576300  0.09242000  1
  C  C19  1  0.55803100  0.74906600  0.40041600  1
  C  C20  1  0.82116700  0.60198900  0.01435000  1
  C  C21  1  0.40041600  0.55803100  0.74906600  1
  C  C22  1  0.91230000  0.24794200  0.06841300  1
  C  C23  1  0.60198900  0.01435000  0.82116700  1
  C  C24  1  0.39152700  0.99217600  0.17873500  1
  C  C25  1  0.09242000  0.74643200  0.93576300  1
  C  C26  1  0.59944000  0.43256900  0.25696900  1
  C  C27  1  0.17873500  0.39152700  0.99217600  1
  C  C28  1  0.43256900  0.25696900  0.59944000  1
  C  C29  1  0.24794200  0.06841300  0.91230000  1
  C  C30  1  0.25696900  0.59944000  0.43256900  1
  C  C31  1  0.01435000  0.82116700  0.60198900  1
  C  C32  1  0.50764200  0.10025100  0.31979100  1
  C  C33  1  0.06841300  0.91230000  0.24794200  1
  C  C34  1  0.31979100  0.50764200  0.10025100  1
  C  C35  1  0.10025100  0.31979100  0.50764200  1
