# generated using pymatgen
data_Cu16(Ni2C)3
_symmetry_space_group_name_H-M   'P 1'
_cell_length_a   6.77568900
_cell_length_b   7.79926450
_cell_length_c   9.83479338
_cell_angle_alpha   70.13118492
_cell_angle_beta   82.35314984
_cell_angle_gamma   83.34399386
_symmetry_Int_Tables_number   1
_chemical_formula_structural   Cu16(Ni2C)3
_chemical_formula_sum   'Cu16 Ni6 C3'
_cell_volume   483.04444423
_cell_formula_units_Z   1
loop_
 _symmetry_equiv_pos_site_id
 _symmetry_equiv_pos_as_xyz
  1  'x, y, z'
loop_
 _atom_site_type_symbol
 _atom_site_label
 _atom_site_symmetry_multiplicity
 _atom_site_fract_x
 _atom_site_fract_y
 _atom_site_fract_z
 _atom_site_occupancy
  C  C0  1  0.26279700  0.50115700  0.34768700  1
  C  C1  1  0.73720300  0.49884300  0.65231300  1
  C  C2  1  0.50000000  0.50000000  0.00000000  1
  Ni  Ni3  1  0.12057600  0.90920300  0.39022100  1
  Ni  Ni4  1  0.87942400  0.09079700  0.60977900  1
  Ni  Ni5  1  0.20361700  0.88680400  0.88967600  1
  Ni  Ni6  1  0.79638300  0.11319600  0.11032400  1
  Ni  Ni7  1  0.69857200  0.63799700  0.30564600  1
  Ni  Ni8  1  0.30142800  0.36200300  0.69435400  1
  Cu  Cu9  1  0.21237200  0.99926400  0.28641500  1
  Cu  Cu10  1  0.78762800  0.00073600  0.71358500  1
  Cu  Cu11  1  0.03229400  0.81273500  0.49467000  1
  Cu  Cu12  1  0.96770600  0.18726500  0.50533000  1
  Cu  Cu13  1  0.20267100  0.82068000  0.01628800  1
  Cu  Cu14  1  0.79732900  0.17932000  0.98371200  1
  Cu  Cu15  1  0.20368000  0.95307800  0.76303700  1
  Cu  Cu16  1  0.79632000  0.04692200  0.23696300  1
  Cu  Cu17  1  0.87779400  0.58643000  0.34381700  1
  Cu  Cu18  1  0.12220600  0.41357000  0.65618300  1
  Cu  Cu19  1  0.65310700  0.64140300  0.18286700  1
  Cu  Cu20  1  0.34689400  0.35859700  0.81713300  1
  Cu  Cu21  1  0.64375300  0.62784900  0.85445300  1
  Cu  Cu22  1  0.35624700  0.37215100  0.14554700  1
  Cu  Cu23  1  0.56123600  0.67936500  0.39822800  1
  Cu  Cu24  1  0.43876400  0.32063500  0.60177200  1
