# generated using pymatgen
data_CuNi5C3
_symmetry_space_group_name_H-M   'P 1'
_cell_length_a   3.01623500
_cell_length_b   6.42920700
_cell_length_c   10.17295160
_cell_angle_alpha   71.62146410
_cell_angle_beta   90.00000000
_cell_angle_gamma   90.00000000
_symmetry_Int_Tables_number   1
_chemical_formula_structural   CuNi5C3
_chemical_formula_sum   'Cu2 Ni10 C6'
_cell_volume   187.21175627
_cell_formula_units_Z   2
loop_
 _symmetry_equiv_pos_site_id
 _symmetry_equiv_pos_as_xyz
  1  'x, y, z'
loop_
 _atom_site_type_symbol
 _atom_site_label
 _atom_site_symmetry_multiplicity
 _atom_site_fract_x
 _atom_site_fract_y
 _atom_site_fract_z
 _atom_site_occupancy
  C  C0  1  0.00000000  0.99298700  0.01432500  1
  C  C1  1  0.50000000  0.81319100  0.33954700  1
  C  C2  1  0.50000000  0.50101600  0.99946800  1
  C  C3  1  0.00000000  0.66482700  0.66796700  1
  C  C4  1  0.00000000  0.34791300  0.32841500  1
  C  C5  1  0.50000000  0.17370400  0.65222000  1
  Ni  Ni6  1  0.50000000  0.93318600  0.13671800  1
  Ni  Ni7  1  0.00000000  0.30552100  0.99889700  1
  Ni  Ni8  1  0.00000000  0.69681900  0.99854400  1
  Ni  Ni9  1  0.00000000  0.35914600  0.66607300  1
  Ni  Ni10  1  0.50000000  0.73521500  0.53895200  1
  Ni  Ni11  1  0.50000000  0.39750100  0.20180700  1
  Ni  Ni12  1  0.50000000  0.26888900  0.45704600  1
  Ni  Ni13  1  0.50000000  0.60229300  0.79539100  1
  Ni  Ni14  1  0.00000000  0.97456700  0.66677900  1
  Ni  Ni15  1  0.00000000  0.63548300  0.33511000  1
  Cu  Cu16  1  0.00000000  0.03189800  0.33384900  1
  Cu  Cu17  1  0.50000000  0.06584600  0.86889200  1
