# generated using pymatgen
data_CuNiC3
_symmetry_space_group_name_H-M   'P 1'
_cell_length_a   12.24029294
_cell_length_b   12.24029294
_cell_length_c   5.48500473
_cell_angle_alpha   81.14556163
_cell_angle_beta   81.14556163
_cell_angle_gamma   120.13658713
_symmetry_Int_Tables_number   1
_chemical_formula_structural   CuNiC3
_chemical_formula_sum   'Cu6 Ni6 C18'
_cell_volume   676.04690462
_cell_formula_units_Z   6
loop_
 _symmetry_equiv_pos_site_id
 _symmetry_equiv_pos_as_xyz
  1  'x, y, z'
loop_
 _atom_site_type_symbol
 _atom_site_label
 _atom_site_symmetry_multiplicity
 _atom_site_fract_x
 _atom_site_fract_y
 _atom_site_fract_z
 _atom_site_occupancy
  C  C0  1  0.60786100  0.39213900  0.00000000  1
  C  C1  1  0.39213900  0.60786100  0.00000000  1
  C  C2  1  0.11008600  0.88991400  0.00000000  1
  C  C3  1  0.88991400  0.11008600  0.00000000  1
  Ni  Ni4  1  0.72587100  0.72587100  0.51547900  1
  Ni  Ni5  1  0.27412900  0.27412900  0.48452100  1
  Ni  Ni6  1  0.88822100  0.60079700  0.99495900  1
  Ni  Ni7  1  0.60079700  0.88822100  0.99495900  1
  Ni  Ni8  1  0.11177900  0.39920300  0.00504100  1
  Ni  Ni9  1  0.39920300  0.11177900  0.00504100  1
  Cu  Cu10  1  0.85389300  0.85389300  0.36460500  1
  Cu  Cu11  1  0.14610700  0.14610700  0.63539500  1
  Cu  Cu12  1  0.00384000  0.73514900  0.76881400  1
  Cu  Cu13  1  0.73514900  0.00384000  0.76881400  1
  Cu  Cu14  1  0.99616000  0.26485100  0.23118600  1
  Cu  Cu15  1  0.26485100  0.99616000  0.23118600  1
  C  C16  1  0.62023100  0.62023100  0.69670700  1
  C  C17  1  0.37976900  0.37976900  0.30329300  1
  C  C18  1  0.79902800  0.50022600  0.13524400  1
  C  C19  1  0.50022600  0.79902800  0.13524400  1
  C  C20  1  0.20097200  0.49977400  0.86475600  1
  C  C21  1  0.49977400  0.20097200  0.86475600  1
  C  C22  1  0.70612900  0.23007900  0.09781300  1
  C  C23  1  0.23007900  0.70612900  0.09781300  1
  C  C24  1  0.29387100  0.76992100  0.90218700  1
  C  C25  1  0.76992100  0.29387100  0.90218700  1
  C  C26  1  0.46262300  0.34589600  0.25096600  1
  C  C27  1  0.34589600  0.46262300  0.25096600  1
  C  C28  1  0.53737700  0.65410400  0.74903400  1
  C  C29  1  0.65410400  0.53737700  0.74903400  1
