# generated using pymatgen
data_CuNi3C10
_symmetry_space_group_name_H-M   'P 1'
_cell_length_a   5.76430426
_cell_length_b   5.76430426
_cell_length_c   9.38812400
_cell_angle_alpha   90.00000000
_cell_angle_beta   90.00000000
_cell_angle_gamma   120.00000299
_symmetry_Int_Tables_number   1
_chemical_formula_structural   CuNi3C10
_chemical_formula_sum   'Cu2 Ni6 C20'
_cell_volume   270.14891557
_cell_formula_units_Z   2
loop_
 _symmetry_equiv_pos_site_id
 _symmetry_equiv_pos_as_xyz
  1  'x, y, z'
loop_
 _atom_site_type_symbol
 _atom_site_label
 _atom_site_symmetry_multiplicity
 _atom_site_fract_x
 _atom_site_fract_y
 _atom_site_fract_z
 _atom_site_occupancy
  C  C0  1  0.33333300  0.66666700  0.89727000  1
  C  C1  1  0.00000000  0.00000000  0.99483200  1
  C  C2  1  0.00000000  0.00000000  0.49483200  1
  C  C3  1  0.66666700  0.33333300  0.39727000  1
  Ni  Ni4  1  0.17024700  0.82975300  0.21513100  1
  Ni  Ni5  1  0.17024700  0.34049400  0.21513100  1
  Ni  Ni6  1  0.65950600  0.82975300  0.21513100  1
  Ni  Ni7  1  0.34049400  0.17024700  0.71513100  1
  Ni  Ni8  1  0.82975300  0.65950600  0.71513100  1
  Ni  Ni9  1  0.82975300  0.17024700  0.71513100  1
  Cu  Cu10  1  0.33333300  0.66666700  0.49051600  1
  Cu  Cu11  1  0.66666700  0.33333300  0.99051600  1
  C  C12  1  0.16125000  0.83875000  0.59918600  1
  C  C13  1  0.03446200  0.51723100  0.33623600  1
  C  C14  1  0.33333300  0.66666700  0.11253700  1
  C  C15  1  0.00000000  0.00000000  0.30707000  1
  C  C16  1  0.00000000  0.00000000  0.80707000  1
  C  C17  1  0.16125000  0.32250000  0.59918600  1
  C  C18  1  0.48276900  0.96553800  0.33623600  1
  C  C19  1  0.48276900  0.51723100  0.33623600  1
  C  C20  1  0.32250000  0.16125000  0.09918600  1
  C  C21  1  0.67750000  0.83875000  0.59918600  1
  C  C22  1  0.51723100  0.48276900  0.83623600  1
  C  C23  1  0.51723100  0.03446200  0.83623600  1
  C  C24  1  0.66666700  0.33333300  0.61253700  1
  C  C25  1  0.83875000  0.67750000  0.09918600  1
  C  C26  1  0.96553800  0.48276900  0.83623600  1
  C  C27  1  0.83875000  0.16125000  0.09918600  1
