# generated using pymatgen
data_Cu6NiC17
_symmetry_space_group_name_H-M   'P 1'
_cell_length_a   11.28237579
_cell_length_b   11.28237579
_cell_length_c   10.02960500
_cell_angle_alpha   90.00000000
_cell_angle_beta   90.00000000
_cell_angle_gamma   100.05371819
_symmetry_Int_Tables_number   1
_chemical_formula_structural   Cu6NiC17
_chemical_formula_sum   'Cu24 Ni4 C68'
_cell_volume   1257.08434288
_cell_formula_units_Z   4
loop_
 _symmetry_equiv_pos_site_id
 _symmetry_equiv_pos_as_xyz
  1  'x, y, z'
loop_
 _atom_site_type_symbol
 _atom_site_label
 _atom_site_symmetry_multiplicity
 _atom_site_fract_x
 _atom_site_fract_y
 _atom_site_fract_z
 _atom_site_occupancy
  C  C0  1  0.99446900  0.50553100  0.75000000  1
  C  C1  1  0.24732900  0.24732900  0.50000000  1
  C  C2  1  0.25267100  0.25267100  0.00000000  1
  C  C3  1  0.49446900  0.00553100  0.75000000  1
  C  C4  1  0.50553100  0.99446900  0.25000000  1
  C  C5  1  0.74732900  0.74732900  0.00000000  1
  C  C6  1  0.75267100  0.75267100  0.50000000  1
  C  C7  1  0.00553100  0.49446900  0.25000000  1
  Ni  Ni8  1  0.16207600  0.33792400  0.75000000  1
  Ni  Ni9  1  0.33792400  0.16207600  0.25000000  1
  Ni  Ni10  1  0.66207600  0.83792400  0.75000000  1
  Ni  Ni11  1  0.83792400  0.66207600  0.25000000  1
  Cu  Cu12  1  0.02266300  0.76032100  0.99257000  1
  Cu  Cu13  1  0.07915300  0.70287200  0.45520500  1
  Cu  Cu14  1  0.04174100  0.17791500  0.30517000  1
  Cu  Cu15  1  0.23967900  0.97733700  0.99257000  1
  Cu  Cu16  1  0.20287200  0.57915300  0.95520500  1
  Cu  Cu17  1  0.29712800  0.92084700  0.45520500  1
  Cu  Cu18  1  0.26032100  0.52266300  0.49257000  1
  Cu  Cu19  1  0.17791500  0.04174100  0.69483000  1
  Cu  Cu20  1  0.32208500  0.45825900  0.19483000  1
  Cu  Cu21  1  0.42084700  0.79712800  0.95520500  1
  Cu  Cu22  1  0.47733700  0.73967900  0.49257000  1
  Cu  Cu23  1  0.45825900  0.32208500  0.80517000  1
  Cu  Cu24  1  0.54174100  0.67791500  0.19483000  1
  Cu  Cu25  1  0.52266300  0.26032100  0.50743000  1
  Cu  Cu26  1  0.57915300  0.20287200  0.04479500  1
  Cu  Cu27  1  0.67791500  0.54174100  0.80517000  1
  Cu  Cu28  1  0.82208500  0.95825900  0.30517000  1
  Cu  Cu29  1  0.73967900  0.47733700  0.50743000  1
  Cu  Cu30  1  0.70287200  0.07915300  0.54479500  1
  Cu  Cu31  1  0.79712800  0.42084700  0.04479500  1
  Cu  Cu32  1  0.76032100  0.02266300  0.00743000  1
  Cu  Cu33  1  0.95825900  0.82208500  0.69483000  1
  Cu  Cu34  1  0.92084700  0.29712800  0.54479500  1
  Cu  Cu35  1  0.97733700  0.23967900  0.00743000  1
  C  C36  1  0.04889100  0.95110900  0.68985600  1
  C  C37  1  0.00195000  0.65049000  0.32626500  1
  C  C38  1  0.11233300  0.88766700  0.02056300  1
  C  C39  1  0.00369600  0.26964900  0.41847600  1
  C  C40  1  0.09618700  0.64874000  0.01183700  1
  C  C41  1  0.02508600  0.24530100  0.16301200  1
  C  C42  1  0.17734000  0.82266000  0.41808400  1
  C  C43  1  0.14874000  0.59618700  0.51183700  1
  C  C44  1  0.09558200  0.25437800  0.91459500  1
  C  C45  1  0.15049000  0.50195000  0.82626500  1
  C  C46  1  0.16399600  0.17846300  0.66223100  1
  C  C47  1  0.23035100  0.49630400  0.08152400  1
  C  C48  1  0.17846300  0.16399600  0.33776900  1
  C  C49  1  0.34951000  0.99805000  0.32626500  1
  C  C50  1  0.25469900  0.47491400  0.33698800  1
  C  C51  1  0.24562200  0.40441800  0.58540500  1
  C  C52  1  0.35126000  0.90381300  0.01183700  1
  C  C53  1  0.32266000  0.67734000  0.91808400  1
  C  C54  1  0.25437800  0.09558200  0.08540500  1
  C  C55  1  0.24530100  0.02508600  0.83698800  1
  C  C56  1  0.40381300  0.85126000  0.51183700  1
  C  C57  1  0.32153700  0.33600400  0.83776900  1
  C  C58  1  0.26964900  0.00369600  0.58152400  1
  C  C59  1  0.38766700  0.61233300  0.52056300  1
  C  C60  1  0.33600400  0.32153700  0.16223100  1
  C  C61  1  0.49805000  0.84951000  0.82626500  1
  C  C62  1  0.45110900  0.54889100  0.18985600  1
  C  C63  1  0.40441800  0.24562200  0.41459500  1
  C  C64  1  0.50369600  0.76964900  0.08152400  1
  C  C65  1  0.52508600  0.74530100  0.33698800  1
  C  C66  1  0.47491400  0.25469900  0.66301200  1
  C  C67  1  0.49630400  0.23035100  0.91847600  1
  C  C68  1  0.59558200  0.75437800  0.58540500  1
  C  C69  1  0.54889100  0.45110900  0.81014400  1
  C  C70  1  0.50195000  0.15049000  0.17373500  1
  C  C71  1  0.66399600  0.67846300  0.83776900  1
  C  C72  1  0.61233300  0.38766700  0.47943700  1
  C  C73  1  0.73035100  0.99630400  0.41847600  1
  C  C74  1  0.67846300  0.66399600  0.16223100  1
  C  C75  1  0.59618700  0.14874000  0.48816300  1
  C  C76  1  0.75469900  0.97491400  0.16301200  1
  C  C77  1  0.74562200  0.90441800  0.91459500  1
  C  C78  1  0.67734000  0.32266000  0.08191600  1
  C  C79  1  0.64874000  0.09618700  0.98816300  1
  C  C80  1  0.75437800  0.59558200  0.41459500  1
  C  C81  1  0.74530100  0.52508600  0.66301200  1
  C  C82  1  0.65049000  0.00195000  0.67373500  1
  C  C83  1  0.82153700  0.83600400  0.66223100  1
  C  C84  1  0.76964900  0.50369600  0.91847600  1
  C  C85  1  0.83600400  0.82153700  0.33776900  1
  C  C86  1  0.84951000  0.49805000  0.17373500  1
  C  C87  1  0.90441800  0.74562200  0.08540500  1
  C  C88  1  0.85126000  0.40381300  0.48816300  1
  C  C89  1  0.82266000  0.17734000  0.58191600  1
  C  C90  1  0.97491400  0.75469900  0.83698800  1
  C  C91  1  0.90381300  0.35126000  0.98816300  1
  C  C92  1  0.99630400  0.73035100  0.58152400  1
  C  C93  1  0.88766700  0.11233300  0.97943700  1
  C  C94  1  0.99805000  0.34951000  0.67373500  1
  C  C95  1  0.95110900  0.04889100  0.31014400  1
