# generated using pymatgen
data_Cu6NiC8
_symmetry_space_group_name_H-M   'P 1'
_cell_length_a   6.81865900
_cell_length_b   6.65296700
_cell_length_c   8.95288122
_cell_angle_alpha   89.35788517
_cell_angle_beta   90.00000000
_cell_angle_gamma   90.00000000
_symmetry_Int_Tables_number   1
_chemical_formula_structural   Cu6NiC8
_chemical_formula_sum   'Cu12 Ni2 C16'
_cell_volume   406.11580398
_cell_formula_units_Z   2
loop_
 _symmetry_equiv_pos_site_id
 _symmetry_equiv_pos_as_xyz
  1  'x, y, z'
loop_
 _atom_site_type_symbol
 _atom_site_label
 _atom_site_symmetry_multiplicity
 _atom_site_fract_x
 _atom_site_fract_y
 _atom_site_fract_z
 _atom_site_occupancy
  C  C0  1  0.15368700  0.75458200  0.57432500  1
  C  C1  1  0.84631300  0.75458200  0.07432500  1
  C  C2  1  0.15368700  0.24541800  0.92567500  1
  C  C3  1  0.84631300  0.24541800  0.42567500  1
  C  C4  1  0.72342900  0.88063700  0.74562100  1
  C  C5  1  0.27657100  0.88063700  0.24562100  1
  C  C6  1  0.39603100  0.72290800  0.85625800  1
  C  C7  1  0.60396900  0.72290800  0.35625800  1
  C  C8  1  0.65769600  0.72944100  0.52852500  1
  C  C9  1  0.34230400  0.72944100  0.02852500  1
  C  C10  1  0.65769600  0.27055900  0.97147500  1
  C  C11  1  0.34230400  0.27055900  0.47147500  1
  C  C12  1  0.39603100  0.27709200  0.64374200  1
  C  C13  1  0.60396900  0.27709200  0.14374200  1
  C  C14  1  0.72342900  0.11936300  0.75437900  1
  C  C15  1  0.27657100  0.11936300  0.25437900  1
  Ni  Ni16  1  0.67099500  0.50000000  0.75000000  1
  Ni  Ni17  1  0.32900500  0.50000000  0.25000000  1
  Cu  Cu18  1  0.81200500  0.00000000  0.75000000  1
  Cu  Cu19  1  0.18799500  0.00000000  0.25000000  1
  Cu  Cu20  1  0.28978700  0.76037300  0.92731700  1
  Cu  Cu21  1  0.71021300  0.76037300  0.42731700  1
  Cu  Cu22  1  0.57209500  0.66659900  0.72198200  1
  Cu  Cu23  1  0.42790500  0.66659900  0.22198200  1
  Cu  Cu24  1  0.85890100  0.50000000  0.75000000  1
  Cu  Cu25  1  0.14109900  0.50000000  0.25000000  1
  Cu  Cu26  1  0.57209500  0.33340100  0.77801800  1
  Cu  Cu27  1  0.42790500  0.33340100  0.27801800  1
  Cu  Cu28  1  0.28978700  0.23962700  0.57268300  1
  Cu  Cu29  1  0.71021300  0.23962700  0.07268300  1
