# generated using pymatgen
data_Cu3NiC10
_symmetry_space_group_name_H-M   'P 1'
_cell_length_a   8.13931500
_cell_length_b   8.13931500
_cell_length_c   8.13931500
_cell_angle_alpha   90.00000000
_cell_angle_beta   90.00000000
_cell_angle_gamma   90.00000000
_symmetry_Int_Tables_number   1
_chemical_formula_structural   Cu3NiC10
_chemical_formula_sum   'Cu12 Ni4 C40'
_cell_volume   539.21699198
_cell_formula_units_Z   4
loop_
 _symmetry_equiv_pos_site_id
 _symmetry_equiv_pos_as_xyz
  1  'x, y, z'
loop_
 _atom_site_type_symbol
 _atom_site_label
 _atom_site_symmetry_multiplicity
 _atom_site_fract_x
 _atom_site_fract_y
 _atom_site_fract_z
 _atom_site_occupancy
  C  C0  1  0.99509300  0.99509300  0.99509300  1
  C  C1  1  0.25490700  0.25490700  0.25490700  1
  C  C2  1  0.24509300  0.74509300  0.75490700  1
  C  C3  1  0.50490700  0.00490700  0.49509300  1
  C  C4  1  0.49509300  0.50490700  0.00490700  1
  C  C5  1  0.75490700  0.24509300  0.74509300  1
  C  C6  1  0.74509300  0.75490700  0.24509300  1
  C  C7  1  0.00490700  0.49509300  0.50490700  1
  Ni  Ni8  1  0.12500000  0.87500000  0.37500000  1
  Ni  Ni9  1  0.37500000  0.12500000  0.87500000  1
  Ni  Ni10  1  0.62500000  0.62500000  0.62500000  1
  Ni  Ni11  1  0.87500000  0.37500000  0.12500000  1
  Cu  Cu12  1  0.12587800  0.12412200  0.62500000  1
  Cu  Cu13  1  0.12500000  0.37412200  0.87587800  1
  Cu  Cu14  1  0.12412200  0.62500000  0.12587800  1
  Cu  Cu15  1  0.37587800  0.37500000  0.62587800  1
  Cu  Cu16  1  0.37500000  0.62587800  0.37587800  1
  Cu  Cu17  1  0.37412200  0.87587800  0.12500000  1
  Cu  Cu18  1  0.62587800  0.37587800  0.37500000  1
  Cu  Cu19  1  0.62500000  0.12587800  0.12412200  1
  Cu  Cu20  1  0.62412200  0.87500000  0.87412200  1
  Cu  Cu21  1  0.87587800  0.12500000  0.37412200  1
  Cu  Cu22  1  0.87500000  0.87412200  0.62412200  1
  Cu  Cu23  1  0.87412200  0.62412200  0.87500000  1
  C  C24  1  0.11167700  0.11711800  0.38905100  1
  C  C25  1  0.11094900  0.88832300  0.61711800  1
  C  C26  1  0.10845000  0.60845000  0.89155000  1
  C  C27  1  0.13288200  0.13832300  0.86094900  1
  C  C28  1  0.11711800  0.38905100  0.11167700  1
  C  C29  1  0.14155000  0.35845000  0.64155000  1
  C  C30  1  0.13905100  0.63288200  0.36167700  1
  C  C31  1  0.13832300  0.86094900  0.13288200  1
  C  C32  1  0.36167700  0.13905100  0.63288200  1
  C  C33  1  0.36094900  0.36711800  0.86167700  1
  C  C34  1  0.35845000  0.64155000  0.14155000  1
  C  C35  1  0.38288200  0.61094900  0.61167700  1
  C  C36  1  0.36711800  0.86167700  0.36094900  1
  C  C37  1  0.39155000  0.39155000  0.39155000  1
  C  C38  1  0.38905100  0.11167700  0.11711800  1
  C  C39  1  0.38832300  0.88288200  0.88905100  1
  C  C40  1  0.61167700  0.38288200  0.61094900  1
  C  C41  1  0.61094900  0.61167700  0.38288200  1
  C  C42  1  0.60845000  0.89155000  0.10845000  1
  C  C43  1  0.63288200  0.36167700  0.13905100  1
  C  C44  1  0.61711800  0.11094900  0.88832300  1
  C  C45  1  0.64155000  0.14155000  0.35845000  1
  C  C46  1  0.63905100  0.86711800  0.63832300  1
  C  C47  1  0.63832300  0.63905100  0.86711800  1
  C  C48  1  0.86167700  0.36094900  0.36711800  1
  C  C49  1  0.86094900  0.13288200  0.13832300  1
  C  C50  1  0.85845000  0.85845000  0.85845000  1
  C  C51  1  0.88288200  0.88905100  0.38832300  1
  C  C52  1  0.86711800  0.63832300  0.63905100  1
  C  C53  1  0.89155000  0.10845000  0.60845000  1
  C  C54  1  0.88905100  0.38832300  0.88288200  1
  C  C55  1  0.88832300  0.61711800  0.11094900  1
