# generated using pymatgen
data_Cu2Ni2C
_symmetry_space_group_name_H-M   'P 1'
_cell_length_a   3.90086400
_cell_length_b   7.71043200
_cell_length_c   8.68143900
_cell_angle_alpha   90.00000000
_cell_angle_beta   90.00000000
_cell_angle_gamma   90.00000000
_symmetry_Int_Tables_number   1
_chemical_formula_structural   Cu2Ni2C
_chemical_formula_sum   'Cu4 Ni4 C2'
_cell_volume   261.11464990
_cell_formula_units_Z   2
loop_
 _symmetry_equiv_pos_site_id
 _symmetry_equiv_pos_as_xyz
  1  'x, y, z'
loop_
 _atom_site_type_symbol
 _atom_site_label
 _atom_site_symmetry_multiplicity
 _atom_site_fract_x
 _atom_site_fract_y
 _atom_site_fract_z
 _atom_site_occupancy
  C  C0  1  0.95262200  0.01785000  0.00000000  1
  C  C1  1  0.04737800  0.51785000  0.00000000  1
  Ni  Ni2  1  0.00829700  0.04325400  0.28382000  1
  Ni  Ni3  1  0.00829700  0.04325400  0.71618000  1
  Ni  Ni4  1  0.99170300  0.54325400  0.28382000  1
  Ni  Ni5  1  0.99170300  0.54325400  0.71618000  1
  Cu  Cu6  1  0.49404700  0.03402600  0.00000000  1
  Cu  Cu7  1  0.00368700  0.28449600  0.00000000  1
  Cu  Cu8  1  0.50595300  0.53402600  0.00000000  1
  Cu  Cu9  1  0.99631300  0.78449600  0.00000000  1
