# generated using pymatgen
data_CuNiC
_symmetry_space_group_name_H-M   'P 1'
_cell_length_a   10.98215600
_cell_length_b   7.66316900
_cell_length_c   7.91746515
_cell_angle_alpha   81.49257947
_cell_angle_beta   90.00000000
_cell_angle_gamma   90.00000000
_symmetry_Int_Tables_number   1
_chemical_formula_structural   CuNiC
_chemical_formula_sum   'Cu12 Ni12 C12'
_cell_volume   658.98726221
_cell_formula_units_Z   12
loop_
 _symmetry_equiv_pos_site_id
 _symmetry_equiv_pos_as_xyz
  1  'x, y, z'
loop_
 _atom_site_type_symbol
 _atom_site_label
 _atom_site_symmetry_multiplicity
 _atom_site_fract_x
 _atom_site_fract_y
 _atom_site_fract_z
 _atom_site_occupancy
  C  C0  1  0.50862700  0.07752300  0.27294100  1
  C  C1  1  0.21231400  0.07524300  0.98271600  1
  C  C2  1  0.19336500  0.12753300  0.53071400  1
  C  C3  1  0.69336500  0.37246700  0.46928600  1
  C  C4  1  0.71231400  0.42475700  0.01728400  1
  C  C5  1  0.00862700  0.42247700  0.72705900  1
  C  C6  1  0.99137300  0.57752300  0.27294100  1
  C  C7  1  0.28768600  0.57524300  0.98271600  1
  C  C8  1  0.30663500  0.62753300  0.53071400  1
  C  C9  1  0.80663500  0.87246700  0.46928600  1
  C  C10  1  0.78768600  0.92475700  0.01728400  1
  C  C11  1  0.49137300  0.92247700  0.72705900  1
  Ni  Ni12  1  0.60511700  0.10207100  0.51187700  1
  Ni  Ni13  1  0.31621300  0.06675500  0.75128600  1
  Ni  Ni14  1  0.58916500  0.35237200  0.23107800  1
  Ni  Ni15  1  0.08916500  0.14762800  0.76892200  1
  Ni  Ni16  1  0.81621300  0.43324500  0.24871400  1
  Ni  Ni17  1  0.10511700  0.39792900  0.48812300  1
  Ni  Ni18  1  0.89488300  0.60207100  0.51187700  1
  Ni  Ni19  1  0.18378700  0.56675500  0.75128600  1
  Ni  Ni20  1  0.91083500  0.85237200  0.23107800  1
  Ni  Ni21  1  0.41083500  0.64762800  0.76892200  1
  Ni  Ni22  1  0.68378700  0.93324500  0.24871400  1
  Ni  Ni23  1  0.39488300  0.89792900  0.48812300  1
  Cu  Cu24  1  0.86381800  0.20475900  0.00337600  1
  Cu  Cu25  1  0.85221400  0.20844800  0.56987400  1
  Cu  Cu26  1  0.62291700  0.12938300  0.94344400  1
  Cu  Cu27  1  0.12291700  0.37061700  0.05655600  1
  Cu  Cu28  1  0.35221400  0.29155200  0.43012600  1
  Cu  Cu29  1  0.36381800  0.29524100  0.99662400  1
  Cu  Cu30  1  0.63618200  0.70475900  0.00337600  1
  Cu  Cu31  1  0.64778600  0.70844800  0.56987400  1
  Cu  Cu32  1  0.87708300  0.62938300  0.94344400  1
  Cu  Cu33  1  0.37708300  0.87061700  0.05655600  1
  Cu  Cu34  1  0.14778600  0.79155200  0.43012600  1
  Cu  Cu35  1  0.13618200  0.79524100  0.99662400  1
