# generated using pymatgen
data_Cu3NiC37
_symmetry_space_group_name_H-M   'P 1'
_cell_length_a   8.87568715
_cell_length_b   8.87568715
_cell_length_c   8.87568718
_cell_angle_alpha   59.58656024
_cell_angle_beta   59.58656024
_cell_angle_gamma   59.58655952
_symmetry_Int_Tables_number   1
_chemical_formula_structural   Cu3NiC37
_chemical_formula_sum   'Cu3 Ni1 C37'
_cell_volume   489.76783239
_cell_formula_units_Z   1
loop_
 _symmetry_equiv_pos_site_id
 _symmetry_equiv_pos_as_xyz
  1  'x, y, z'
loop_
 _atom_site_type_symbol
 _atom_site_label
 _atom_site_symmetry_multiplicity
 _atom_site_fract_x
 _atom_site_fract_y
 _atom_site_fract_z
 _atom_site_occupancy
  C  C0  1  0.93214600  0.74805700  0.20141400  1
  C  C1  1  0.74805700  0.20141400  0.93214600  1
  C  C2  1  0.53125300  0.53125300  0.53125300  1
  C  C3  1  0.20141400  0.93214600  0.74805700  1
  C  C4  1  0.72708500  0.21796800  0.38883700  1
  C  C5  1  0.38883700  0.72708500  0.21796800  1
  C  C6  1  0.21796800  0.38883700  0.72708500  1
  Ni  Ni7  1  0.14530400  0.14530400  0.14530400  1
  Cu  Cu8  1  0.64735200  0.64735200  0.64735200  1
  Cu  Cu9  1  0.85344000  0.85344000  0.85344000  1
  Cu  Cu10  1  0.35366200  0.35366200  0.35366200  1
  C  C11  1  0.95779600  0.24843300  0.54554300  1
  C  C12  1  0.54554300  0.95779600  0.24843300  1
  C  C13  1  0.24843300  0.54554300  0.95779600  1
  C  C14  1  0.75165500  0.45928400  0.04438900  1
  C  C15  1  0.45928400  0.04438900  0.75165500  1
  C  C16  1  0.04438900  0.75165500  0.45928400  1
  C  C17  1  0.93343300  0.08091500  0.73257100  1
  C  C18  1  0.99663600  0.19329400  0.38242500  1
  C  C19  1  0.77343800  0.41146900  0.55879700  1
  C  C20  1  0.52404600  0.12101500  0.28054700  1
  C  C21  1  0.73257100  0.93343300  0.08091500  1
  C  C22  1  0.55879700  0.77343800  0.41146900  1
  C  C23  1  0.28054700  0.52404600  0.12101500  1
  C  C24  1  0.41146900  0.55879700  0.77343800  1
  C  C25  1  0.80627500  0.62069500  0.99175600  1
  C  C26  1  0.90617000  0.26765400  0.10083800  1
  C  C27  1  0.12101500  0.28054700  0.52404600  1
  C  C28  1  0.62069500  0.99175600  0.80627500  1
  C  C29  1  0.38242500  0.99663600  0.19329400  1
  C  C30  1  0.88861100  0.72327700  0.45773200  1
  C  C31  1  0.08091500  0.73257100  0.93343300  1
  C  C32  1  0.19329400  0.38242500  0.99663600  1
  C  C33  1  0.58124000  0.46108500  0.22617000  1
  C  C34  1  0.72327700  0.45773200  0.88861100  1
  C  C35  1  0.46108500  0.22617000  0.58124000  1
  C  C36  1  0.26765400  0.10083800  0.90617000  1
  C  C37  1  0.45773200  0.88861100  0.72327700  1
  C  C38  1  0.99175600  0.80627500  0.62069500  1
  C  C39  1  0.22617000  0.58124000  0.46108500  1
  C  C40  1  0.10083800  0.90617000  0.26765400  1
