# generated using pymatgen
data_Cu2Ni3C31
_symmetry_space_group_name_H-M   'P 1'
_cell_length_a   8.76778680
_cell_length_b   8.76778680
_cell_length_c   8.76778687
_cell_angle_alpha   60.14399788
_cell_angle_beta   60.14399788
_cell_angle_gamma   60.14400391
_symmetry_Int_Tables_number   1
_chemical_formula_structural   Cu2Ni3C31
_chemical_formula_sum   'Cu2 Ni3 C31'
_cell_volume   478.15560545
_cell_formula_units_Z   1
loop_
 _symmetry_equiv_pos_site_id
 _symmetry_equiv_pos_as_xyz
  1  'x, y, z'
loop_
 _atom_site_type_symbol
 _atom_site_label
 _atom_site_symmetry_multiplicity
 _atom_site_fract_x
 _atom_site_fract_y
 _atom_site_fract_z
 _atom_site_occupancy
  Ni  Ni0  1  0.14585800  0.14585800  0.14585800  1
  Ni  Ni1  1  0.35283100  0.35283100  0.35283100  1
  Ni  Ni2  1  0.64624300  0.64624300  0.64624300  1
  Cu  Cu3  1  0.00047900  0.00047900  0.00047900  1
  Cu  Cu4  1  0.49905700  0.49905700  0.49905700  1
  C  C5  1  0.85217700  0.85217700  0.85217700  1
  C  C6  1  0.74808800  0.05164900  0.44310600  1
  C  C7  1  0.05164900  0.44310600  0.74808800  1
  C  C8  1  0.53649600  0.26087400  0.95706200  1
  C  C9  1  0.95706200  0.53649600  0.26087400  1
  C  C10  1  0.26087400  0.95706200  0.53649600  1
  C  C11  1  0.44310600  0.74808800  0.05164900  1
  C  C12  1  0.33487200  0.11158800  0.47837800  1
  C  C13  1  0.47837800  0.33487200  0.11158800  1
  C  C14  1  0.91024400  0.06474700  0.25352200  1
  C  C15  1  0.11158800  0.47837800  0.33487200  1
  C  C16  1  0.80602400  0.03282200  0.59112600  1
  C  C17  1  0.58473400  0.24141100  0.42176400  1
  C  C18  1  0.06474700  0.25352200  0.91024400  1
  C  C19  1  0.24141100  0.42176400  0.58473400  1
  C  C20  1  0.38456200  0.18974000  0.99951000  1
  C  C21  1  0.42176400  0.58473400  0.24141100  1
  C  C22  1  0.72977100  0.10832500  0.95226200  1
  C  C23  1  0.99951000  0.38456200  0.18974000  1
  C  C24  1  0.03282200  0.59112600  0.80602400  1
  C  C25  1  0.25352200  0.91024400  0.06474700  1
  C  C26  1  0.55071200  0.42082300  0.76419700  1
  C  C27  1  0.59112600  0.80602400  0.03282200  1
  C  C28  1  0.76419700  0.55071200  0.42082300  1
  C  C29  1  0.95226200  0.72977100  0.10832500  1
  C  C30  1  0.42082300  0.76419700  0.55071200  1
  C  C31  1  0.18974000  0.99951000  0.38456200  1
  C  C32  1  0.88300800  0.49936200  0.69257800  1
  C  C33  1  0.10832500  0.95226200  0.72977100  1
  C  C34  1  0.49936200  0.69257800  0.88300800  1
  C  C35  1  0.69257800  0.88300800  0.49936200  1
