# generated using pymatgen
data_Cu7NiC16
_symmetry_space_group_name_H-M   'P 1'
_cell_length_a   11.61559929
_cell_length_b   11.61559929
_cell_length_c   11.87668611
_cell_angle_alpha   65.81788813
_cell_angle_beta   65.81788813
_cell_angle_gamma   68.90476628
_symmetry_Int_Tables_number   1
_chemical_formula_structural   Cu7NiC16
_chemical_formula_sum   'Cu28 Ni4 C64'
_cell_volume   1297.51413710
_cell_formula_units_Z   4
loop_
 _symmetry_equiv_pos_site_id
 _symmetry_equiv_pos_as_xyz
  1  'x, y, z'
loop_
 _atom_site_type_symbol
 _atom_site_label
 _atom_site_symmetry_multiplicity
 _atom_site_fract_x
 _atom_site_fract_y
 _atom_site_fract_z
 _atom_site_occupancy
  Ni  Ni0  1  0.78573100  0.78573100  0.57081600  1
  Ni  Ni1  1  0.21426900  0.21426900  0.42918400  1
  Ni  Ni2  1  0.07143800  0.07143800  0.14245200  1
  Ni  Ni3  1  0.92856200  0.92856200  0.85754800  1
  Cu  Cu4  1  0.57533000  0.85004100  0.42579300  1
  Cu  Cu5  1  0.85004100  0.57533000  0.42579300  1
  Cu  Cu6  1  0.78555900  0.50510700  0.78195200  1
  Cu  Cu7  1  0.06638800  0.79031400  0.35753800  1
  Cu  Cu8  1  0.50510700  0.78555900  0.78195200  1
  Cu  Cu9  1  0.36595500  0.63404500  0.50000000  1
  Cu  Cu10  1  0.63404500  0.36595500  0.50000000  1
  Cu  Cu11  1  0.79031400  0.06638800  0.35753800  1
  Cu  Cu12  1  0.43384100  0.71468700  0.14825300  1
  Cu  Cu13  1  0.28531300  0.56615900  0.85174700  1
  Cu  Cu14  1  0.71932200  0.99594400  0.71400500  1
  Cu  Cu15  1  0.14995900  0.42467000  0.57420700  1
  Cu  Cu16  1  0.00405600  0.28067800  0.28599500  1
  Cu  Cu17  1  0.71468700  0.43384100  0.14825300  1
  Cu  Cu18  1  0.99594400  0.71932200  0.71400500  1
  Cu  Cu19  1  0.56615900  0.28531300  0.85174700  1
  Cu  Cu20  1  0.42467000  0.14995900  0.57420700  1
  Cu  Cu21  1  0.28067800  0.00405600  0.28599500  1
  Cu  Cu22  1  0.64749600  0.91927300  0.07520800  1
  Cu  Cu23  1  0.08072700  0.35250400  0.92479200  1
  Cu  Cu24  1  0.20968600  0.93361200  0.64246200  1
  Cu  Cu25  1  0.35250400  0.08072700  0.92479200  1
  Cu  Cu26  1  0.91927300  0.64749600  0.07520800  1
  Cu  Cu27  1  0.93361200  0.20968600  0.64246200  1
  Cu  Cu28  1  0.21444100  0.49489300  0.21804800  1
  Cu  Cu29  1  0.49489300  0.21444100  0.21804800  1
  Cu  Cu30  1  0.86025400  0.13974600  0.00000000  1
  Cu  Cu31  1  0.13974600  0.86025400  0.00000000  1
  C  C32  1  0.71448300  0.71448300  0.92802200  1
  C  C33  1  0.57167500  0.57167500  0.64322000  1
  C  C34  1  0.42832500  0.42832500  0.35678000  1
  C  C35  1  0.50000000  0.50000000  0.00000000  1
  C  C36  1  0.85751700  0.85751700  0.21426000  1
  C  C37  1  0.28551700  0.28551700  0.07197800  1
  C  C38  1  0.14248300  0.14248300  0.78574000  1
  C  C39  1  0.00000000  0.00000000  0.50000000  1
  C  C40  1  0.82199000  0.82199000  0.38896500  1
  C  C41  1  0.75310400  0.75310400  0.24956300  1
  C  C42  1  0.45786600  0.82874600  0.28380500  1
  C  C43  1  0.82874600  0.45786600  0.28380500  1
  C  C44  1  0.81965500  0.81965500  0.89415100  1
  C  C45  1  0.53254900  0.53254900  0.32240600  1
  C  C46  1  0.74925300  0.74925300  0.75284200  1
  C  C47  1  0.67684800  0.67684800  0.60720400  1
  C  C48  1  0.60641300  0.60641300  0.46838600  1
  C  C49  1  0.75551700  0.38724300  0.64408300  1
  C  C50  1  0.38724300  0.75551700  0.64408300  1
  C  C51  1  0.18604700  0.81395300  0.50000000  1
  C  C52  1  0.81395300  0.18604700  0.50000000  1
  C  C53  1  0.24448300  0.61275700  0.35591700  1
  C  C54  1  0.61275700  0.24448300  0.35591700  1
  C  C55  1  0.39358700  0.39358700  0.53161400  1
  C  C56  1  0.25074700  0.25074700  0.24715800  1
  C  C57  1  0.32315200  0.32315200  0.39279600  1
  C  C58  1  0.67938100  0.67938100  0.10216000  1
  C  C59  1  0.53544800  0.53544800  0.82105000  1
  C  C60  1  0.60796600  0.60796600  0.96465200  1
  C  C61  1  0.46745100  0.46745100  0.67759400  1
  C  C62  1  0.96566100  0.60545800  0.57245400  1
  C  C63  1  0.67912300  0.32087700  0.00000000  1
  C  C64  1  0.17125400  0.54213400  0.71619500  1
  C  C65  1  0.74955300  0.10876900  0.85628600  1
  C  C66  1  0.32087700  0.67912300  0.00000000  1
  C  C67  1  0.60545800  0.96566100  0.57245400  1
  C  C68  1  0.54213400  0.17125400  0.71619500  1
  C  C69  1  0.39454200  0.03433900  0.42754600  1
  C  C70  1  0.10876900  0.74955300  0.85628600  1
  C  C71  1  0.03433900  0.39454200  0.42754600  1
  C  C72  1  0.17801000  0.17801000  0.61103500  1
  C  C73  1  0.03480000  0.03480000  0.32562400  1
  C  C74  1  0.39203400  0.39203400  0.03534800  1
  C  C75  1  0.24689600  0.24689600  0.75043700  1
  C  C76  1  0.10451900  0.10451900  0.46566900  1
  C  C77  1  0.46455200  0.46455200  0.17895000  1
  C  C78  1  0.32061900  0.32061900  0.89784000  1
  C  C79  1  0.67210200  0.04220300  0.21427500  1
  C  C80  1  0.95779700  0.32789800  0.78572500  1
  C  C81  1  0.10223500  0.47098000  0.07067700  1
  C  C82  1  0.52902000  0.89776500  0.92932300  1
  C  C83  1  0.04220300  0.67210200  0.21427500  1
  C  C84  1  0.47098000  0.10223500  0.07067700  1
  C  C85  1  0.32789800  0.95779700  0.78572500  1
  C  C86  1  0.89776500  0.52902000  0.92932300  1
  C  C87  1  0.10786200  0.10786200  0.96012100  1
  C  C88  1  0.03732700  0.03732700  0.82156400  1
  C  C89  1  0.89548100  0.89548100  0.53433100  1
  C  C90  1  0.18034500  0.18034500  0.10584900  1
  C  C91  1  0.96520000  0.96520000  0.67437600  1
  C  C92  1  0.25044700  0.89123100  0.14371400  1
  C  C93  1  0.89123100  0.25044700  0.14371400  1
  C  C94  1  0.89213800  0.89213800  0.03987900  1
  C  C95  1  0.96267300  0.96267300  0.17843600  1
