# generated using pymatgen
data_Cu2Ni4C5
_symmetry_space_group_name_H-M   'P 1'
_cell_length_a   4.40392100
_cell_length_b   9.56861724
_cell_length_c   10.97044832
_cell_angle_alpha   84.01603162
_cell_angle_beta   80.44269002
_cell_angle_gamma   80.34815935
_symmetry_Int_Tables_number   1
_chemical_formula_structural   Cu2Ni4C5
_chemical_formula_sum   'Cu8 Ni16 C20'
_cell_volume   448.02851743
_cell_formula_units_Z   4
loop_
 _symmetry_equiv_pos_site_id
 _symmetry_equiv_pos_as_xyz
  1  'x, y, z'
loop_
 _atom_site_type_symbol
 _atom_site_label
 _atom_site_symmetry_multiplicity
 _atom_site_fract_x
 _atom_site_fract_y
 _atom_site_fract_z
 _atom_site_occupancy
  C  C0  1  0.38922300  0.52319100  0.32406500  1
  C  C1  1  0.61077700  0.47680900  0.67593500  1
  C  C2  1  0.26640100  0.38166000  0.42506700  1
  C  C3  1  0.73359900  0.61834000  0.57493300  1
  C  C4  1  0.59108000  0.11181600  0.22825200  1
  C  C5  1  0.40892000  0.88818400  0.77174800  1
  C  C6  1  0.44523100  0.15203200  0.37987400  1
  C  C7  1  0.55476900  0.84796800  0.62012600  1
  C  C8  1  0.17389400  0.14364400  0.01429800  1
  C  C9  1  0.82610600  0.85635600  0.98570200  1
  C  C10  1  0.03051900  0.14433200  0.17182700  1
  C  C11  1  0.96948100  0.85566800  0.82817300  1
  C  C12  1  0.03062400  0.32719400  0.87769100  1
  C  C13  1  0.96937600  0.67280600  0.12230900  1
  C  C14  1  0.69019900  0.45195000  0.91694900  1
  C  C15  1  0.30980100  0.54805000  0.08305100  1
  C  C16  1  0.51411800  0.32572800  0.25695600  1
  C  C17  1  0.48588200  0.67427300  0.74304400  1
  C  C18  1  0.82458000  0.30953100  0.05916900  1
  C  C19  1  0.17542000  0.69046900  0.94083100  1
  Ni  Ni20  1  0.02190400  0.83340500  0.39630800  1
  Ni  Ni21  1  0.97809600  0.16659500  0.60369200  1
  Ni  Ni22  1  0.37898700  0.41724100  0.34224900  1
  Ni  Ni23  1  0.62101300  0.58275900  0.65775100  1
  Ni  Ni24  1  0.52867600  0.18622800  0.29148700  1
  Ni  Ni25  1  0.47132400  0.81377200  0.70851300  1
  Ni  Ni26  1  0.61376500  0.38134400  0.14269500  1
  Ni  Ni27  1  0.38623500  0.61865600  0.85730500  1
  Ni  Ni28  1  0.02385800  0.19079800  0.08483400  1
  Ni  Ni29  1  0.97614200  0.80920200  0.91516600  1
  Ni  Ni30  1  0.84390300  0.36345500  0.94061200  1
  Ni  Ni31  1  0.15609700  0.63654500  0.05938800  1
  Ni  Ni32  1  0.16003300  0.90903000  0.29269000  1
  Ni  Ni33  1  0.83996700  0.09097000  0.70731000  1
  Ni  Ni34  1  0.43134900  0.84294400  0.23000200  1
  Ni  Ni35  1  0.56865100  0.15705600  0.76999800  1
  Cu  Cu36  1  0.12883700  0.71310100  0.43961200  1
  Cu  Cu37  1  0.87116300  0.28689900  0.56038800  1
  Cu  Cu38  1  0.77000700  0.90258200  0.44356100  1
  Cu  Cu39  1  0.22999300  0.09741800  0.55643900  1
  Cu  Cu40  1  0.55895800  0.71784200  0.25123600  1
  Cu  Cu41  1  0.44104200  0.28215800  0.74876400  1
  Cu  Cu42  1  0.54669500  0.92412700  0.14225600  1
  Cu  Cu43  1  0.45330500  0.07587300  0.85774400  1
