# generated using pymatgen
data_Cu14Ni2C61
_symmetry_space_group_name_H-M   'P 1'
_cell_length_a   5.57924200
_cell_length_b   5.58209379
_cell_length_c   36.60483755
_cell_angle_alpha   94.01365521
_cell_angle_beta   90.29441572
_cell_angle_gamma   119.43507022
_symmetry_Int_Tables_number   1
_chemical_formula_structural   Cu14Ni2C61
_chemical_formula_sum   'Cu14 Ni2 C61'
_cell_volume   989.39346692
_cell_formula_units_Z   1
loop_
 _symmetry_equiv_pos_site_id
 _symmetry_equiv_pos_as_xyz
  1  'x, y, z'
loop_
 _atom_site_type_symbol
 _atom_site_label
 _atom_site_symmetry_multiplicity
 _atom_site_fract_x
 _atom_site_fract_y
 _atom_site_fract_z
 _atom_site_occupancy
  Ni  Ni0  1  0.15771500  0.62754200  0.90344000  1
  Ni  Ni1  1  0.02865700  0.12513800  0.77705300  1
  Cu  Cu2  1  0.68893700  0.86144500  0.97093600  1
  Cu  Cu3  1  0.56272200  0.36427100  0.84555800  1
  Cu  Cu4  1  0.95708600  0.65555000  0.65181900  1
  Cu  Cu5  1  0.44011600  0.86201500  0.71965200  1
  Cu  Cu6  1  0.79033800  0.13032300  0.53072100  1
  Cu  Cu7  1  0.34795300  0.37661900  0.59524400  1
  Cu  Cu8  1  0.66414200  0.62956200  0.40529700  1
  Cu  Cu9  1  0.21099000  0.87029100  0.46961000  1
  Cu  Cu10  1  0.53896300  0.12949500  0.28043800  1
  Cu  Cu11  1  0.08541900  0.37010600  0.34485800  1
  Cu  Cu12  1  0.41491600  0.63030100  0.15499000  1
  Cu  Cu13  1  0.96027300  0.86985900  0.21994600  1
  Cu  Cu14  1  0.29201000  0.12766400  0.03123500  1
  Cu  Cu15  1  0.83429000  0.36825900  0.09624000  1
  C  C16  1  0.02490900  0.51027000  0.00419800  1
  C  C17  1  0.89492600  0.00968900  0.87910600  1
  C  C18  1  0.76774000  0.50824100  0.75377700  1
  C  C19  1  0.14834200  0.23141100  0.68548500  1
  C  C20  1  0.40222600  0.23321300  0.93450300  1
  C  C21  1  0.63191200  0.00186000  0.62512800  1
  C  C22  1  0.27365000  0.73100800  0.80916300  1
  C  C23  1  0.93738000  0.24990600  0.43767900  1
  C  C24  1  0.50028400  0.50016900  0.49996100  1
  C  C25  1  0.37475500  0.99974600  0.37506600  1
  C  C26  1  0.06607000  0.75219500  0.56172600  1
  C  C27  1  0.68690400  0.24979200  0.18795200  1
  C  C28  1  0.24985100  0.49980500  0.25000400  1
  C  C29  1  0.56305600  0.74980900  0.06149300  1
  C  C30  1  0.12697800  0.00100900  0.12510400  1
  C  C31  1  0.81225000  0.74993700  0.31257900  1
  C  C32  1  0.28406700  0.91686400  0.97564900  1
  C  C33  1  0.60574600  0.10333800  0.90303700  1
  C  C34  1  0.15787800  0.40925800  0.84912400  1
  C  C35  1  0.30220900  0.41249200  0.97263800  1
  C  C36  1  0.47622700  0.60186600  0.77728100  1
  C  C37  1  0.61684800  0.59548700  0.89800500  1
  C  C38  1  0.06428100  0.06941200  0.92041700  1
  C  C39  1  0.01449300  0.89576700  0.72294100  1
  C  C40  1  0.18458800  0.91820500  0.84672800  1
  C  C41  1  0.35619500  0.09171000  0.65153800  1
  C  C42  1  0.48833300  0.09133900  0.77178400  1
  C  C43  1  0.41236600  0.91313800  0.58466800  1
  C  C44  1  0.93342800  0.56992000  0.79563800  1
  C  C45  1  0.89444400  0.41099000  0.60006200  1
  C  C46  1  0.04499100  0.43081100  0.72063300  1
  C  C47  1  0.22026200  0.58413100  0.52664400  1
  C  C48  1  0.38594100  0.59943100  0.64906100  1
  C  C49  1  0.29133600  0.41645100  0.45842200  1
  C  C50  1  0.81714900  0.07861200  0.66506400  1
  C  C51  1  0.75980600  0.90566800  0.47614500  1
  C  C52  1  0.91661600  0.92382700  0.59687700  1
  C  C53  1  0.09421000  0.08276100  0.40217900  1
  C  C54  1  0.24346700  0.09554700  0.52365800  1
  C  C55  1  0.16549800  0.91602300  0.33352200  1
  C  C56  1  0.71019000  0.58463900  0.54132700  1
  C  C57  1  0.63404300  0.40444900  0.35091800  1
  C  C58  1  0.78133000  0.41709200  0.47297000  1
  C  C59  1  0.96943600  0.58289800  0.27716400  1
  C  C60  1  0.11592600  0.59547700  0.39908200  1
  C  C61  1  0.04094000  0.41620200  0.20841700  1
  C  C62  1  0.58511900  0.08422000  0.41638800  1
  C  C63  1  0.50978000  0.90437800  0.22606500  1
  C  C64  1  0.65573200  0.91705000  0.34784900  1
  C  C65  1  0.84559800  0.08339800  0.15215400  1
  C  C66  1  0.99100600  0.09575700  0.27411400  1
  C  C67  1  0.90799500  0.91327600  0.08294900  1
  C  C68  1  0.45958700  0.58396000  0.29147700  1
  C  C69  1  0.38823400  0.40230900  0.10124700  1
  C  C70  1  0.53095200  0.41713100  0.22300600  1
  C  C71  1  0.71463700  0.58538400  0.02397300  1
  C  C72  1  0.86687600  0.59809000  0.14939300  1
  C  C73  1  0.33575400  0.08412000  0.16686800  1
  C  C74  1  0.40688100  0.91961400  0.09809500  1
  C  C75  1  0.73206700  0.10041100  0.02132500  1
  C  C76  1  0.21302800  0.58560100  0.04479400  1
