# generated using pymatgen
data_Cu2NiC7
_symmetry_space_group_name_H-M   'P 1'
_cell_length_a   6.99026000
_cell_length_b   6.13807500
_cell_length_c   9.82972709
_cell_angle_alpha   86.50758274
_cell_angle_beta   90.00000000
_cell_angle_gamma   90.00000000
_symmetry_Int_Tables_number   1
_chemical_formula_structural   Cu2NiC7
_chemical_formula_sum   'Cu8 Ni4 C28'
_cell_volume   420.97827959
_cell_formula_units_Z   4
loop_
 _symmetry_equiv_pos_site_id
 _symmetry_equiv_pos_as_xyz
  1  'x, y, z'
loop_
 _atom_site_type_symbol
 _atom_site_label
 _atom_site_symmetry_multiplicity
 _atom_site_fract_x
 _atom_site_fract_y
 _atom_site_fract_z
 _atom_site_occupancy
  C  C0  1  0.41418100  0.40330300  0.34341300  1
  C  C1  1  0.08581900  0.90330300  0.34341300  1
  C  C2  1  0.91418100  0.09669700  0.65658700  1
  C  C3  1  0.58581900  0.59669700  0.65658700  1
  C  C4  1  0.20277000  0.21428200  0.01165700  1
  C  C5  1  0.29723000  0.71428200  0.01165700  1
  C  C6  1  0.70277000  0.28571800  0.98834300  1
  C  C7  1  0.79723000  0.78571800  0.98834300  1
  Ni  Ni8  1  0.52747800  0.00183500  0.19256800  1
  Ni  Ni9  1  0.97252200  0.50183500  0.19256800  1
  Ni  Ni10  1  0.02747800  0.49816500  0.80743200  1
  Ni  Ni11  1  0.47252200  0.99816500  0.80743200  1
  Cu  Cu12  1  0.72855700  0.15037000  0.41478800  1
  Cu  Cu13  1  0.89409700  0.32040200  0.43749800  1
  Cu  Cu14  1  0.77144300  0.65037000  0.41478800  1
  Cu  Cu15  1  0.60590300  0.82040200  0.43749800  1
  Cu  Cu16  1  0.39409700  0.17959800  0.56250200  1
  Cu  Cu17  1  0.22855700  0.34963000  0.58521200  1
  Cu  Cu18  1  0.10590300  0.67959800  0.56250200  1
  Cu  Cu19  1  0.27144300  0.84963000  0.58521200  1
  C  C20  1  0.46205100  0.19171100  0.08436200  1
  C  C21  1  0.03794900  0.69171100  0.08436200  1
  C  C22  1  0.76652400  0.44186800  0.14967000  1
  C  C23  1  0.73347600  0.94186800  0.14967000  1
  C  C24  1  0.11986400  0.31163000  0.18853200  1
  C  C25  1  0.38013600  0.81163000  0.18853200  1
  C  C26  1  0.52559700  0.08956000  0.33514200  1
  C  C27  1  0.97440300  0.58956000  0.33514200  1
  C  C28  1  0.85067200  0.17155200  0.46495000  1
  C  C29  1  0.64932800  0.67155200  0.46495000  1
  C  C30  1  0.35067200  0.32844800  0.53505000  1
  C  C31  1  0.14932800  0.82844800  0.53505000  1
  C  C32  1  0.02559700  0.41044000  0.66485800  1
  C  C33  1  0.47440300  0.91044000  0.66485800  1
  C  C34  1  0.61986400  0.18837000  0.81146800  1
  C  C35  1  0.88013600  0.68837000  0.81146800  1
  C  C36  1  0.26652400  0.05813200  0.85033000  1
  C  C37  1  0.23347600  0.55813200  0.85033000  1
  C  C38  1  0.96205100  0.30828900  0.91563800  1
  C  C39  1  0.53794900  0.80828900  0.91563800  1
