# generated using pymatgen
data_Cu8Ni2C21
_symmetry_space_group_name_H-M   'P 1'
_cell_length_a   4.91303300
_cell_length_b   7.18151812
_cell_length_c   12.36417905
_cell_angle_alpha   98.32533351
_cell_angle_beta   101.40890280
_cell_angle_gamma   109.87648245
_symmetry_Int_Tables_number   1
_chemical_formula_structural   Cu8Ni2C21
_chemical_formula_sum   'Cu8 Ni2 C21'
_cell_volume   391.36730422
_cell_formula_units_Z   1
loop_
 _symmetry_equiv_pos_site_id
 _symmetry_equiv_pos_as_xyz
  1  'x, y, z'
loop_
 _atom_site_type_symbol
 _atom_site_label
 _atom_site_symmetry_multiplicity
 _atom_site_fract_x
 _atom_site_fract_y
 _atom_site_fract_z
 _atom_site_occupancy
  C  C0  1  0.33560200  0.00103100  0.60556600  1
  C  C1  1  0.73153700  0.99647600  0.39585100  1
  Ni  Ni2  1  0.18113300  0.73614100  0.41237100  1
  Ni  Ni3  1  0.04465800  0.27350400  0.58619100  1
  Cu  Cu4  1  0.53302300  0.31067600  0.07801400  1
  Cu  Cu5  1  0.70140500  0.85665700  0.82411400  1
  Cu  Cu6  1  0.68890300  0.72034700  0.56940500  1
  Cu  Cu7  1  0.47604600  0.72557800  0.17067400  1
  Cu  Cu8  1  0.58049400  0.27536400  0.82900500  1
  Cu  Cu9  1  0.40000200  0.27549200  0.42969600  1
  Cu  Cu10  1  0.02206300  0.14270400  0.17536300  1
  Cu  Cu11  1  0.14272700  0.68930300  0.92197400  1
  C  C12  1  0.25899800  0.12917200  0.10216000  1
  C  C13  1  0.84112200  0.27149600  0.11818700  1
  C  C14  1  0.66317900  0.72761600  0.69940600  1
  C  C15  1  0.00094400  0.72495800  0.54481900  1
  C  C16  1  0.57676200  0.52978400  0.15381800  1
  C  C17  1  0.60331700  0.90553500  0.53075400  1
  C  C18  1  0.38055500  0.76217600  0.28731300  1
  C  C19  1  0.67443400  0.07374100  0.81548300  1
  C  C20  1  0.21352200  0.69408900  0.05700000  1
  C  C21  1  0.46268900  0.30608100  0.94303600  1
  C  C22  1  0.78529800  0.92566800  0.18319800  1
  C  C23  1  0.33391700  0.24115100  0.71231100  1
  C  C24  1  0.16799000  0.08953500  0.46817200  1
  C  C25  1  0.89488300  0.46985400  0.84671400  1
  C  C26  1  0.73147200  0.27107800  0.45367000  1
  C  C27  1  0.23598200  0.27060400  0.30029500  1
  C  C28  1  0.40832100  0.49663200  0.50078400  1
  C  C29  1  0.44840300  0.72913100  0.88120400  1
  C  C30  1  0.02340500  0.86992700  0.89802500  1
