# generated using pymatgen
data_CuNiC10
_symmetry_space_group_name_H-M   'P 1'
_cell_length_a   5.25929848
_cell_length_b   18.13285245
_cell_length_c   6.44934900
_cell_angle_alpha   89.99841055
_cell_angle_beta   90.00302871
_cell_angle_gamma   88.30885089
_symmetry_Int_Tables_number   1
_chemical_formula_structural   CuNiC10
_chemical_formula_sum   'Cu4 Ni4 C40'
_cell_volume   614.78125692
_cell_formula_units_Z   4
loop_
 _symmetry_equiv_pos_site_id
 _symmetry_equiv_pos_as_xyz
  1  'x, y, z'
loop_
 _atom_site_type_symbol
 _atom_site_label
 _atom_site_symmetry_multiplicity
 _atom_site_fract_x
 _atom_site_fract_y
 _atom_site_fract_z
 _atom_site_occupancy
  C  C0  1  0.24486300  0.11709500  0.01021500  1
  C  C1  1  0.24466200  0.61713500  0.01023500  1
  C  C2  1  0.24485200  0.11709600  0.48981000  1
  C  C3  1  0.24462900  0.61713200  0.48981300  1
  C  C4  1  0.75524000  0.38289900  0.51020000  1
  C  C5  1  0.75512200  0.88283800  0.51017300  1
  C  C6  1  0.75524900  0.38287800  0.98977800  1
  C  C7  1  0.75508700  0.88283400  0.98979500  1
  C  C8  1  0.80174700  0.67477700  0.75014900  1
  C  C9  1  0.19859600  0.82520700  0.24993200  1
  C  C10  1  0.80155600  0.17476800  0.75002900  1
  C  C11  1  0.19866800  0.32522400  0.24983500  1
  Ni  Ni12  1  0.70423000  0.21437800  0.24999900  1
  Ni  Ni13  1  0.70414200  0.71441800  0.25005100  1
  Ni  Ni14  1  0.29585700  0.28563100  0.74990600  1
  Ni  Ni15  1  0.29577200  0.78563700  0.74999400  1
  Cu  Cu16  1  0.72782800  0.04056200  0.74999800  1
  Cu  Cu17  1  0.72768900  0.54062400  0.75001600  1
  Cu  Cu18  1  0.27223900  0.45941900  0.24998900  1
  Cu  Cu19  1  0.27221900  0.95938300  0.25000800  1
  C  C20  1  0.30962400  0.02711600  0.25002500  1
  C  C21  1  0.30970100  0.52716100  0.25003200  1
  C  C22  1  0.69057600  0.47287700  0.75003900  1
  C  C23  1  0.69038300  0.97282200  0.74999300  1
  C  C24  1  0.95393600  0.06988400  0.75000700  1
  C  C25  1  0.95388300  0.56996300  0.75001900  1
  C  C26  1  0.04616500  0.43005900  0.24994100  1
  C  C27  1  0.04604100  0.93008200  0.25000200  1
  C  C28  1  0.54219000  0.09163700  0.75000500  1
  C  C29  1  0.54200700  0.59166300  0.74999500  1
  C  C30  1  0.45785800  0.40833400  0.24996100  1
  C  C31  1  0.45788600  0.90830500  0.25000200  1
  C  C32  1  0.13704500  0.20849500  0.75003500  1
  C  C33  1  0.13690000  0.70847800  0.75000000  1
  C  C34  1  0.86302900  0.29150800  0.24996100  1
  C  C35  1  0.86293500  0.79157200  0.24998300  1
  C  C36  1  0.39492900  0.23041200  0.24997300  1
  C  C37  1  0.39467000  0.73034400  0.24997300  1
  C  C38  1  0.60517700  0.26956400  0.75004600  1
  C  C39  1  0.60515300  0.76971000  0.75001400  1
  C  C40  1  0.78526800  0.16584200  0.04342100  1
  C  C41  1  0.78526800  0.66589200  0.04350300  1
  C  C42  1  0.78526000  0.16584200  0.45660500  1
  C  C43  1  0.78527500  0.66591000  0.45664200  1
  C  C44  1  0.21480400  0.33415500  0.54337300  1
  C  C45  1  0.21448800  0.83412600  0.54335900  1
  C  C46  1  0.21483000  0.33416100  0.95655500  1
  C  C47  1  0.21447100  0.83415000  0.95661200  1
