# generated using pymatgen
data_Cu3NiC13
_symmetry_space_group_name_H-M   'P 1'
_cell_length_a   6.01291240
_cell_length_b   6.01291240
_cell_length_c   9.94109600
_cell_angle_alpha   90.00000000
_cell_angle_beta   90.00000000
_cell_angle_gamma   120.00000436
_symmetry_Int_Tables_number   1
_chemical_formula_structural   Cu3NiC13
_chemical_formula_sum   'Cu6 Ni2 C26'
_cell_volume   311.26811340
_cell_formula_units_Z   2
loop_
 _symmetry_equiv_pos_site_id
 _symmetry_equiv_pos_as_xyz
  1  'x, y, z'
loop_
 _atom_site_type_symbol
 _atom_site_label
 _atom_site_symmetry_multiplicity
 _atom_site_fract_x
 _atom_site_fract_y
 _atom_site_fract_z
 _atom_site_occupancy
  C  C0  1  0.38849600  0.19424800  0.43706000  1
  C  C1  1  0.66666700  0.33333300  0.22441900  1
  C  C2  1  0.80575200  0.19424800  0.43706000  1
  C  C3  1  0.80575200  0.61150400  0.43706000  1
  C  C4  1  0.00000000  0.00000000  0.51573000  1
  C  C5  1  0.19424800  0.80575200  0.93706000  1
  C  C6  1  0.33333300  0.66666700  0.72441900  1
  C  C7  1  0.19424800  0.38849600  0.93706000  1
  C  C8  1  0.00000000  0.00000000  0.01573000  1
  C  C9  1  0.61150400  0.80575200  0.93706000  1
  Ni  Ni10  1  0.33333300  0.66666700  0.47548600  1
  Ni  Ni11  1  0.66666700  0.33333300  0.97548600  1
  Cu  Cu12  1  0.17054300  0.82945700  0.21458900  1
  Cu  Cu13  1  0.34108700  0.17054300  0.71458900  1
  Cu  Cu14  1  0.17054300  0.34108700  0.21458900  1
  Cu  Cu15  1  0.82945700  0.65891300  0.71458900  1
  Cu  Cu16  1  0.65891300  0.82945700  0.21458900  1
  Cu  Cu17  1  0.82945700  0.17054300  0.71458900  1
  C  C18  1  0.32137000  0.16068500  0.10066300  1
  C  C19  1  0.16068500  0.83931500  0.60066300  1
  C  C20  1  0.01355800  0.50677900  0.32946000  1
  C  C21  1  0.50677900  0.49322100  0.82946000  1
  C  C22  1  0.00000000  0.00000000  0.32570900  1
  C  C23  1  0.33333300  0.66666700  0.09993700  1
  C  C24  1  0.83931500  0.67863000  0.10066300  1
  C  C25  1  0.49322100  0.98644200  0.32946000  1
  C  C26  1  0.00000000  0.00000000  0.82570900  1
  C  C27  1  0.16068500  0.32137000  0.60066300  1
  C  C28  1  0.66666700  0.33333300  0.59993700  1
  C  C29  1  0.50677900  0.01355800  0.82946000  1
  C  C30  1  0.49322100  0.50677900  0.32946000  1
  C  C31  1  0.98644200  0.49322100  0.82946000  1
  C  C32  1  0.83931500  0.16068500  0.10066300  1
  C  C33  1  0.67863000  0.83931500  0.60066300  1
