# generated using pymatgen
data_Cu4Ni3C5
_symmetry_space_group_name_H-M   'P 1'
_cell_length_a   14.52319300
_cell_length_b   6.14007700
_cell_length_c   8.58433495
_cell_angle_alpha   60.04989395
_cell_angle_beta   90.00000000
_cell_angle_gamma   90.00000000
_symmetry_Int_Tables_number   1
_chemical_formula_structural   Cu4Ni3C5
_chemical_formula_sum   'Cu16 Ni12 C20'
_cell_volume   663.27150709
_cell_formula_units_Z   4
loop_
 _symmetry_equiv_pos_site_id
 _symmetry_equiv_pos_as_xyz
  1  'x, y, z'
loop_
 _atom_site_type_symbol
 _atom_site_label
 _atom_site_symmetry_multiplicity
 _atom_site_fract_x
 _atom_site_fract_y
 _atom_site_fract_z
 _atom_site_occupancy
  C  C0  1  0.91405600  0.73507300  0.71042400  1
  C  C1  1  0.58594400  0.73507300  0.21042400  1
  C  C2  1  0.08594400  0.26492700  0.28957600  1
  C  C3  1  0.41405600  0.26492700  0.78957600  1
  C  C4  1  0.71083900  0.30452600  0.78769800  1
  C  C5  1  0.78916100  0.30452600  0.28769800  1
  C  C6  1  0.28916100  0.69547400  0.21230200  1
  C  C7  1  0.21083900  0.69547400  0.71230200  1
  C  C8  1  0.90189600  0.93145800  0.13354700  1
  C  C9  1  0.59810400  0.93145800  0.63354700  1
  C  C10  1  0.09810400  0.06854200  0.86645300  1
  C  C11  1  0.40189600  0.06854200  0.36645300  1
  C  C12  1  0.90384300  0.24317900  0.68967000  1
  C  C13  1  0.59615700  0.24317900  0.18967000  1
  C  C14  1  0.09615700  0.75682100  0.31033000  1
  C  C15  1  0.40384300  0.75682100  0.81033000  1
  C  C16  1  0.90322500  0.44867400  0.48390700  1
  C  C17  1  0.59677500  0.44867400  0.98390700  1
  C  C18  1  0.09677500  0.55132600  0.51609300  1
  C  C19  1  0.40322500  0.55132600  0.01609300  1
  Ni  Ni20  1  0.79362700  0.83730200  0.05775600  1
  Ni  Ni21  1  0.70637300  0.83730200  0.55775600  1
  Ni  Ni22  1  0.20637300  0.16269800  0.94224400  1
  Ni  Ni23  1  0.29362700  0.16269800  0.44224400  1
  Ni  Ni24  1  0.78197900  0.83037200  0.23040300  1
  Ni  Ni25  1  0.71802100  0.83037200  0.73040300  1
  Ni  Ni26  1  0.21802100  0.16962800  0.76959700  1
  Ni  Ni27  1  0.28197900  0.16962800  0.26959700  1
  Ni  Ni28  1  0.86321400  0.34709700  0.58780800  1
  Ni  Ni29  1  0.63678600  0.34709700  0.08780800  1
  Ni  Ni30  1  0.13678600  0.65290300  0.41219200  1
  Ni  Ni31  1  0.36321400  0.65290300  0.91219200  1
  Cu  Cu32  1  0.87515300  0.28239100  0.00062500  1
  Cu  Cu33  1  0.62484700  0.28239100  0.50062500  1
  Cu  Cu34  1  0.12484700  0.71760900  0.99937500  1
  Cu  Cu35  1  0.37515300  0.71760900  0.49937500  1
  Cu  Cu36  1  0.92478400  0.96728900  0.34520600  1
  Cu  Cu37  1  0.57521600  0.96728900  0.84520600  1
  Cu  Cu38  1  0.07521600  0.03271100  0.65479400  1
  Cu  Cu39  1  0.42478400  0.03271100  0.15479400  1
  Cu  Cu40  1  0.95185800  0.59355800  0.26267700  1
  Cu  Cu41  1  0.54814200  0.59355800  0.76267700  1
  Cu  Cu42  1  0.04814200  0.40644200  0.73732300  1
  Cu  Cu43  1  0.45185800  0.40644200  0.23732300  1
  Cu  Cu44  1  0.95251700  0.96439600  0.89815500  1
  Cu  Cu45  1  0.54748300  0.96439600  0.39815500  1
  Cu  Cu46  1  0.04748300  0.03560400  0.10184500  1
  Cu  Cu47  1  0.45251700  0.03560400  0.60184500  1
