# generated using pymatgen
data_Cu5Ni5C
_symmetry_space_group_name_H-M   'P 1'
_cell_length_a   11.46155300
_cell_length_b   7.28178700
_cell_length_c   15.29525703
_cell_angle_alpha   66.63775862
_cell_angle_beta   90.00000000
_cell_angle_gamma   90.00000000
_symmetry_Int_Tables_number   1
_chemical_formula_structural   Cu5Ni5C
_chemical_formula_sum   'Cu40 Ni40 C8'
_cell_volume   1171.89456494
_cell_formula_units_Z   8
loop_
 _symmetry_equiv_pos_site_id
 _symmetry_equiv_pos_as_xyz
  1  'x, y, z'
loop_
 _atom_site_type_symbol
 _atom_site_label
 _atom_site_symmetry_multiplicity
 _atom_site_fract_x
 _atom_site_fract_y
 _atom_site_fract_z
 _atom_site_occupancy
  C  C0  1  0.12073200  0.64433600  0.05522200  1
  C  C1  1  0.42934400  0.05893900  0.18815100  1
  C  C2  1  0.92934400  0.94106100  0.31184900  1
  C  C3  1  0.62073200  0.35566400  0.44477800  1
  C  C4  1  0.37926800  0.64433600  0.55522200  1
  C  C5  1  0.07065600  0.05893900  0.68815100  1
  C  C6  1  0.57065600  0.94106100  0.81184900  1
  C  C7  1  0.87926800  0.35566400  0.94477800  1
  Ni  Ni8  1  0.70402700  0.63824600  0.02323400  1
  Ni  Ni9  1  0.67237400  0.85798700  0.04661800  1
  Ni  Ni10  1  0.82278600  0.77229500  0.04839000  1
  Ni  Ni11  1  0.59578700  0.62618100  0.11337300  1
  Ni  Ni12  1  0.80903500  0.50546700  0.11718700  1
  Ni  Ni13  1  0.77967400  0.90703600  0.11175200  1
  Ni  Ni14  1  0.67006100  0.42128100  0.11655600  1
  Ni  Ni15  1  0.67128400  0.75369800  0.17715400  1
  Ni  Ni16  1  0.82228200  0.66903000  0.17926600  1
  Ni  Ni17  1  0.70224300  0.49363100  0.20656400  1
  Ni  Ni18  1  0.20224300  0.50636900  0.29343600  1
  Ni  Ni19  1  0.32228200  0.33097000  0.32073400  1
  Ni  Ni20  1  0.17128400  0.24630200  0.32284600  1
  Ni  Ni21  1  0.17006100  0.57871900  0.38344400  1
  Ni  Ni22  1  0.30903500  0.49453300  0.38281300  1
  Ni  Ni23  1  0.09578700  0.37381900  0.38662700  1
  Ni  Ni24  1  0.27967400  0.09296400  0.38824800  1
  Ni  Ni25  1  0.32278600  0.22770500  0.45161000  1
  Ni  Ni26  1  0.17237400  0.14201300  0.45338200  1
  Ni  Ni27  1  0.20402700  0.36175400  0.47676600  1
  Ni  Ni28  1  0.79597300  0.63824600  0.52323400  1
  Ni  Ni29  1  0.82762600  0.85798700  0.54661800  1
  Ni  Ni30  1  0.67721400  0.77229500  0.54839000  1
  Ni  Ni31  1  0.72032600  0.90703600  0.61175200  1
  Ni  Ni32  1  0.90421300  0.62618100  0.61337300  1
  Ni  Ni33  1  0.69096500  0.50546700  0.61718700  1
  Ni  Ni34  1  0.82993900  0.42128100  0.61655600  1
  Ni  Ni35  1  0.82871600  0.75369800  0.67715400  1
  Ni  Ni36  1  0.67771800  0.66903000  0.67926600  1
  Ni  Ni37  1  0.79775700  0.49363100  0.70656400  1
  Ni  Ni38  1  0.29775700  0.50636900  0.79343600  1
  Ni  Ni39  1  0.17771800  0.33097000  0.82073400  1
  Ni  Ni40  1  0.32871600  0.24630200  0.82284600  1
  Ni  Ni41  1  0.32993900  0.57871900  0.88344400  1
  Ni  Ni42  1  0.22032600  0.09296400  0.88824800  1
  Ni  Ni43  1  0.19096500  0.49453300  0.88281300  1
  Ni  Ni44  1  0.40421300  0.37381900  0.88662700  1
  Ni  Ni45  1  0.17721400  0.22770500  0.95161000  1
  Ni  Ni46  1  0.32762600  0.14201300  0.95338200  1
  Ni  Ni47  1  0.29597300  0.36175400  0.97676600  1
  Cu  Cu48  1  0.10077500  0.16551400  0.01077000  1
  Cu  Cu49  1  0.38124400  0.00532700  0.01122900  1
  Cu  Cu50  1  0.30473200  0.35747500  0.05632200  1
  Cu  Cu51  1  0.49103900  0.62874000  0.11194300  1
  Cu  Cu52  1  0.81256000  0.06172800  0.11305500  1
  Cu  Cu53  1  0.89141800  0.39780100  0.12107700  1
  Cu  Cu54  1  0.63770700  0.26470500  0.11714000  1
  Cu  Cu55  1  0.19255700  0.62900900  0.21342400  1
  Cu  Cu56  1  0.89938400  0.63441700  0.23697900  1
  Cu  Cu57  1  0.61856400  0.79951300  0.23407600  1
  Cu  Cu58  1  0.39938400  0.36558300  0.26302100  1
  Cu  Cu59  1  0.11856400  0.20048700  0.26592400  1
  Cu  Cu60  1  0.69255700  0.37099100  0.28657600  1
  Cu  Cu61  1  0.39141800  0.60219900  0.37892300  1
  Cu  Cu62  1  0.99103900  0.37126000  0.38805700  1
  Cu  Cu63  1  0.13770700  0.73529500  0.38286000  1
  Cu  Cu64  1  0.31256000  0.93827200  0.38694500  1
  Cu  Cu65  1  0.80473200  0.64252500  0.44367800  1
  Cu  Cu66  1  0.88124400  0.99467300  0.48877100  1
  Cu  Cu67  1  0.60077500  0.83448600  0.48923000  1
  Cu  Cu68  1  0.39922500  0.16551400  0.51077000  1
  Cu  Cu69  1  0.11875600  0.00532700  0.51122900  1
  Cu  Cu70  1  0.19526800  0.35747500  0.55632200  1
  Cu  Cu71  1  0.68744000  0.06172800  0.61305500  1
  Cu  Cu72  1  0.86229300  0.26470500  0.61714000  1
  Cu  Cu73  1  0.00896100  0.62874000  0.61194300  1
  Cu  Cu74  1  0.60858200  0.39780100  0.62107700  1
  Cu  Cu75  1  0.30744300  0.62900900  0.71342400  1
  Cu  Cu76  1  0.88143600  0.79951300  0.73407600  1
  Cu  Cu77  1  0.60061600  0.63441700  0.73697900  1
  Cu  Cu78  1  0.38143600  0.20048700  0.76592400  1
  Cu  Cu79  1  0.10061600  0.36558300  0.76302100  1
  Cu  Cu80  1  0.80744300  0.37099100  0.78657600  1
  Cu  Cu81  1  0.36229300  0.73529500  0.88286000  1
  Cu  Cu82  1  0.10858200  0.60219900  0.87892300  1
  Cu  Cu83  1  0.18744000  0.93827200  0.88694500  1
  Cu  Cu84  1  0.50896100  0.37126000  0.88805700  1
  Cu  Cu85  1  0.69526800  0.64252500  0.94367800  1
  Cu  Cu86  1  0.61875600  0.99467300  0.98877100  1
  Cu  Cu87  1  0.89922500  0.83448600  0.98923000  1
