# generated using pymatgen
data_CuNiC5
_symmetry_space_group_name_H-M   'P 1'
_cell_length_a   7.63655940
_cell_length_b   7.63655940
_cell_length_c   10.47655978
_cell_angle_alpha   69.79841075
_cell_angle_beta   69.79841075
_cell_angle_gamma   70.61901104
_symmetry_Int_Tables_number   1
_chemical_formula_structural   CuNiC5
_chemical_formula_sum   'Cu2 Ni2 C10'
_cell_volume   522.19349375
_cell_formula_units_Z   2
loop_
 _symmetry_equiv_pos_site_id
 _symmetry_equiv_pos_as_xyz
  1  'x, y, z'
loop_
 _atom_site_type_symbol
 _atom_site_label
 _atom_site_symmetry_multiplicity
 _atom_site_fract_x
 _atom_site_fract_y
 _atom_site_fract_z
 _atom_site_occupancy
  Ni  Ni0  1  0.55175700  0.44824300  0.25000000  1
  Ni  Ni1  1  0.44824300  0.55175700  0.75000000  1
  Cu  Cu2  1  0.00000000  0.00000000  0.00000000  1
  Cu  Cu3  1  0.00000000  0.00000000  0.50000000  1
  C  C4  1  0.79011100  0.74930700  0.11928700  1
  C  C5  1  0.28697500  0.68859300  0.47238300  1
  C  C6  1  0.74930700  0.79011100  0.61928700  1
  C  C7  1  0.92323300  0.07676700  0.25000000  1
  C  C8  1  0.31140700  0.71302500  0.02761700  1
  C  C9  1  0.68859300  0.28697500  0.97238300  1
  C  C10  1  0.07676700  0.92323300  0.75000000  1
  C  C11  1  0.25069300  0.20988900  0.38071300  1
  C  C12  1  0.71302500  0.31140700  0.52761700  1
  C  C13  1  0.20988900  0.25069300  0.88071300  1
