# generated using pymatgen
data_Cu8NiC7
_symmetry_space_group_name_H-M   'P 1'
_cell_length_a   5.19491700
_cell_length_b   10.50760521
_cell_length_c   10.58325879
_cell_angle_alpha   82.09637809
_cell_angle_beta   89.57520672
_cell_angle_gamma   88.94204927
_symmetry_Int_Tables_number   1
_chemical_formula_structural   Cu8NiC7
_chemical_formula_sum   'Cu24 Ni3 C21'
_cell_volume   572.10704190
_cell_formula_units_Z   3
loop_
 _symmetry_equiv_pos_site_id
 _symmetry_equiv_pos_as_xyz
  1  'x, y, z'
loop_
 _atom_site_type_symbol
 _atom_site_label
 _atom_site_symmetry_multiplicity
 _atom_site_fract_x
 _atom_site_fract_y
 _atom_site_fract_z
 _atom_site_occupancy
  C  C0  1  0.49954500  0.79108400  0.00386400  1
  C  C1  1  0.49501200  0.99040100  0.20289700  1
  C  C2  1  0.42933300  0.87031600  0.46482300  1
  C  C3  1  0.42125800  0.54098000  0.13035400  1
  C  C4  1  0.38065300  0.61011600  0.38862300  1
  C  C5  1  0.47036800  0.73342900  0.72997300  1
  C  C6  1  0.46871100  0.26765100  0.26733000  1
  C  C7  1  0.38473800  0.38144200  0.61845900  1
  C  C8  1  0.43791800  0.46856300  0.86943300  1
  C  C9  1  0.44253200  0.12834900  0.53447000  1
  C  C10  1  0.50525300  0.20820300  0.99221300  1
  C  C11  1  0.50571600  0.01162600  0.79609100  1
  C  C12  1  0.98796500  0.79554500  0.25073000  1
  C  C13  1  0.96220800  0.90511500  0.66595100  1
  C  C14  1  0.95454800  0.34005700  0.09780900  1
  C  C15  1  0.93054600  0.61713200  0.59555300  1
  C  C16  1  0.00219400  0.00050400  0.01118900  1
  C  C17  1  0.90773400  0.38864800  0.39617600  1
  C  C18  1  0.95420200  0.66192000  0.89573400  1
  C  C19  1  0.97280100  0.09241300  0.32064500  1
  C  C20  1  0.95360900  0.24436400  0.75916400  1
  Ni  Ni21  1  0.13881300  0.97473900  0.19673200  1
  Ni  Ni22  1  0.11066000  0.28007600  0.27359900  1
  Ni  Ni23  1  0.11456200  0.72457800  0.72134500  1
  Cu  Cu24  1  0.68408000  0.88245500  0.10768100  1
  Cu  Cu25  1  0.14164400  0.80239400  0.99939500  1
  Cu  Cu26  1  0.68609200  0.93974500  0.35227700  1
  Cu  Cu27  1  0.66645500  0.63317400  0.03171300  1
  Cu  Cu28  1  0.19132600  0.00156600  0.50105400  1
  Cu  Cu29  1  0.17854900  0.75241500  0.43313700  1
  Cu  Cu30  1  0.20489100  0.62721600  0.23213400  1
  Cu  Cu31  1  0.73649900  0.58717700  0.41553000  1
  Cu  Cu32  1  0.64946200  0.42131700  0.22109700  1
  Cu  Cu33  1  0.66220900  0.78858800  0.58216700  1
  Cu  Cu34  1  0.19357200  0.48840000  0.49633300  1
  Cu  Cu35  1  0.63649300  0.84241100  0.83726700  1
  Cu  Cu36  1  0.63727500  0.15886700  0.15701300  1
  Cu  Cu37  1  0.66481300  0.21525900  0.41405100  1
  Cu  Cu38  1  0.66285300  0.58030400  0.76834400  1
  Cu  Cu39  1  0.74431500  0.37205700  0.61623100  1
  Cu  Cu40  1  0.19753800  0.40315300  0.76736400  1
  Cu  Cu41  1  0.20991600  0.22829400  0.60840400  1
  Cu  Cu42  1  0.18494500  0.49907200  0.00251900  1
  Cu  Cu43  1  0.69417700  0.05588000  0.64736800  1
  Cu  Cu44  1  0.69016000  0.35718900  0.94791900  1
  Cu  Cu45  1  0.14840900  0.20261000  0.97925200  1
  Cu  Cu46  1  0.14716100  0.01958100  0.80905100  1
  Cu  Cu47  1  0.70152400  0.11363000  0.88954600  1
