# generated using pymatgen
data_Cu2Ni2C7
_symmetry_space_group_name_H-M   'P 1'
_cell_length_a   7.08599400
_cell_length_b   7.52438000
_cell_length_c   12.26165230
_cell_angle_alpha   81.06586393
_cell_angle_beta   90.00000000
_cell_angle_gamma   90.00000000
_symmetry_Int_Tables_number   1
_chemical_formula_structural   Cu2Ni2C7
_chemical_formula_sum   'Cu8 Ni8 C28'
_cell_volume   645.83146822
_cell_formula_units_Z   4
loop_
 _symmetry_equiv_pos_site_id
 _symmetry_equiv_pos_as_xyz
  1  'x, y, z'
loop_
 _atom_site_type_symbol
 _atom_site_label
 _atom_site_symmetry_multiplicity
 _atom_site_fract_x
 _atom_site_fract_y
 _atom_site_fract_z
 _atom_site_occupancy
  Ni  Ni0  1  0.88628400  0.52251300  0.63786200  1
  Ni  Ni1  1  0.38628400  0.47748700  0.86213800  1
  Ni  Ni2  1  0.67428400  0.74965900  0.38538500  1
  Ni  Ni3  1  0.17428400  0.25034100  0.11461500  1
  Ni  Ni4  1  0.82571600  0.74965900  0.88538500  1
  Ni  Ni5  1  0.32571600  0.25034100  0.61461500  1
  Ni  Ni6  1  0.61371600  0.52251300  0.13786200  1
  Ni  Ni7  1  0.11371600  0.47748700  0.36213800  1
  Cu  Cu8  1  0.85775800  0.25158400  0.89760000  1
  Cu  Cu9  1  0.35775800  0.74841600  0.60240000  1
  Cu  Cu10  1  0.10839300  0.94446900  0.38758400  1
  Cu  Cu11  1  0.60839300  0.05553100  0.11241600  1
  Cu  Cu12  1  0.39160700  0.94446900  0.88758400  1
  Cu  Cu13  1  0.89160700  0.05553100  0.61241600  1
  Cu  Cu14  1  0.64224200  0.25158400  0.39760000  1
  Cu  Cu15  1  0.14224200  0.74841600  0.10240000  1
  C  C16  1  0.68103300  0.01038400  0.93697800  1
  C  C17  1  0.22869500  0.52228300  0.67461400  1
  C  C18  1  0.10007500  0.37493700  0.93061100  1
  C  C19  1  0.06323400  0.81760500  0.25042000  1
  C  C20  1  0.60730500  0.80463600  0.19974600  1
  C  C21  1  0.60007500  0.62506300  0.56938900  1
  C  C22  1  0.98663200  0.68834000  0.46857400  1
  C  C23  1  0.72869500  0.47771700  0.82538600  1
  C  C24  1  0.36810100  0.82315200  0.42394200  1
  C  C25  1  0.43676600  0.81760500  0.75042000  1
  C  C26  1  0.18103300  0.98961600  0.56302200  1
  C  C27  1  0.89269500  0.80463600  0.69974600  1
  C  C28  1  0.86810100  0.17684800  0.07605800  1
  C  C29  1  0.51336800  0.68834000  0.96857400  1
  C  C30  1  0.48663200  0.31166000  0.03142600  1
  C  C31  1  0.13189900  0.82315200  0.92394200  1
  C  C32  1  0.10730500  0.19536400  0.30025400  1
  C  C33  1  0.81896700  0.01038400  0.43697800  1
  C  C34  1  0.56323400  0.18239500  0.24958000  1
  C  C35  1  0.63189900  0.17684800  0.57605800  1
  C  C36  1  0.27130500  0.52228300  0.17461400  1
  C  C37  1  0.01336800  0.31166000  0.53142600  1
  C  C38  1  0.39992500  0.37493700  0.43061100  1
  C  C39  1  0.39269500  0.19536400  0.80025400  1
  C  C40  1  0.93676600  0.18239500  0.74958000  1
  C  C41  1  0.89992500  0.62506300  0.06938900  1
  C  C42  1  0.77130500  0.47771700  0.32538600  1
  C  C43  1  0.31896700  0.98961600  0.06302200  1
