# generated using pymatgen
data_Cu3NiC2
_symmetry_space_group_name_H-M   'P 1'
_cell_length_a   6.06608500
_cell_length_b   6.07498175
_cell_length_c   4.61060701
_cell_angle_alpha   89.99606189
_cell_angle_beta   90.00000000
_cell_angle_gamma   119.95157230
_symmetry_Int_Tables_number   1
_chemical_formula_structural   Cu3NiC2
_chemical_formula_sum   'Cu6 Ni2 C4'
_cell_volume   147.21563274
_cell_formula_units_Z   2
loop_
 _symmetry_equiv_pos_site_id
 _symmetry_equiv_pos_as_xyz
  1  'x, y, z'
loop_
 _atom_site_type_symbol
 _atom_site_label
 _atom_site_symmetry_multiplicity
 _atom_site_fract_x
 _atom_site_fract_y
 _atom_site_fract_z
 _atom_site_occupancy
  C  C0  1  0.00129700  0.00000000  0.50000000  1
  C  C1  1  0.99989400  0.49996000  0.99975900  1
  C  C2  1  0.49993300  0.50004000  0.00024100  1
  C  C3  1  0.49981600  0.00000000  0.00000000  1
  Ni  Ni4  1  0.33337900  0.66699900  0.80939400  1
  Ni  Ni5  1  0.66638000  0.33300100  0.19060600  1
  Cu  Cu6  1  0.16793800  0.83127800  0.23626100  1
  Cu  Cu7  1  0.16868900  0.33782400  0.23621600  1
  Cu  Cu8  1  0.33666100  0.16872200  0.76373900  1
  Cu  Cu9  1  0.66329300  0.83153600  0.23541100  1
  Cu  Cu10  1  0.83086500  0.66217600  0.76378400  1
  Cu  Cu11  1  0.83175700  0.16846400  0.76458900  1
