# generated using pymatgen
data_Cu3Ni2C3
_symmetry_space_group_name_H-M   'P 1'
_cell_length_a   5.74666417
_cell_length_b   5.74666417
_cell_length_c   10.78118200
_cell_angle_alpha   90.00000000
_cell_angle_beta   90.00000000
_cell_angle_gamma   138.33955233
_symmetry_Int_Tables_number   1
_chemical_formula_structural   Cu3Ni2C3
_chemical_formula_sum   'Cu6 Ni4 C6'
_cell_volume   236.66462511
_cell_formula_units_Z   2
loop_
 _symmetry_equiv_pos_site_id
 _symmetry_equiv_pos_as_xyz
  1  'x, y, z'
loop_
 _atom_site_type_symbol
 _atom_site_label
 _atom_site_symmetry_multiplicity
 _atom_site_fract_x
 _atom_site_fract_y
 _atom_site_fract_z
 _atom_site_occupancy
  C  C0  1  0.80790600  0.19209400  0.25000000  1
  C  C1  1  0.85672200  0.14327800  0.94339400  1
  C  C2  1  0.85672200  0.14327800  0.55660600  1
  C  C3  1  0.19209400  0.80790600  0.75000000  1
  C  C4  1  0.14327800  0.85672200  0.05660600  1
  C  C5  1  0.14327800  0.85672200  0.44339400  1
  Ni  Ni6  1  0.70103900  0.29896100  0.42122500  1
  Ni  Ni7  1  0.70103900  0.29896100  0.07877500  1
  Ni  Ni8  1  0.29896100  0.70103900  0.57877500  1
  Ni  Ni9  1  0.29896100  0.70103900  0.92122500  1
  Cu  Cu10  1  0.75430300  0.24569700  0.75000000  1
  Cu  Cu11  1  0.95633800  0.04366200  0.11594700  1
  Cu  Cu12  1  0.95633800  0.04366200  0.38405300  1
  Cu  Cu13  1  0.24569700  0.75430300  0.25000000  1
  Cu  Cu14  1  0.04366200  0.95633800  0.88405300  1
  Cu  Cu15  1  0.04366200  0.95633800  0.61594700  1
