# generated using pymatgen
data_Cu16(Ni3C7)3
_symmetry_space_group_name_H-M   'P 1'
_cell_length_a   11.38965762
_cell_length_b   11.38965762
_cell_length_c   6.48252288
_cell_angle_alpha   86.74301849
_cell_angle_beta   86.74301849
_cell_angle_gamma   143.82845251
_symmetry_Int_Tables_number   1
_chemical_formula_structural   Cu16(Ni3C7)3
_chemical_formula_sum   'Cu16 Ni9 C21'
_cell_volume   487.94465368
_cell_formula_units_Z   1
loop_
 _symmetry_equiv_pos_site_id
 _symmetry_equiv_pos_as_xyz
  1  'x, y, z'
loop_
 _atom_site_type_symbol
 _atom_site_label
 _atom_site_symmetry_multiplicity
 _atom_site_fract_x
 _atom_site_fract_y
 _atom_site_fract_z
 _atom_site_occupancy
  C  C0  1  0.99702400  0.99702400  0.00437600  1
  C  C1  1  0.76064000  0.57624600  0.98682300  1
  C  C2  1  0.57624600  0.76064000  0.98682300  1
  C  C3  1  0.97595500  0.20156800  0.27323300  1
  C  C4  1  0.20156800  0.97595500  0.27323300  1
  C  C5  1  0.19990400  0.37002700  0.15697900  1
  C  C6  1  0.37002700  0.19990400  0.15697900  1
  C  C7  1  0.70972500  0.40719900  0.72815500  1
  C  C8  1  0.40719900  0.70972500  0.72815500  1
  C  C9  1  0.53084100  0.33316800  0.83771900  1
  C  C10  1  0.33316800  0.53084100  0.83771900  1
  C  C11  1  0.68853400  0.57427200  0.20875800  1
  C  C12  1  0.57427200  0.68853400  0.20875800  1
  C  C13  1  0.90124500  0.97103300  0.47147200  1
  C  C14  1  0.97103300  0.90124500  0.47147200  1
  C  C15  1  0.85375400  0.19805200  0.97550800  1
  C  C16  1  0.19805200  0.85375400  0.97550800  1
  C  C17  1  0.89040200  0.14178600  0.67945100  1
  C  C18  1  0.14178600  0.89040200  0.67945100  1
  C  C19  1  0.81935400  0.24462300  0.52618200  1
  C  C20  1  0.24462300  0.81935400  0.52618200  1
  Ni  Ni21  1  0.84615500  0.19400100  0.82000600  1
  Ni  Ni22  1  0.19400100  0.84615500  0.82000600  1
  Ni  Ni23  1  0.80154300  0.25962500  0.72292400  1
  Ni  Ni24  1  0.25962500  0.80154300  0.72292400  1
  Ni  Ni25  1  0.87253700  0.17518500  0.48702300  1
  Ni  Ni26  1  0.17518500  0.87253700  0.48702300  1
  Ni  Ni27  1  0.78670900  0.30494500  0.36647300  1
  Ni  Ni28  1  0.30494500  0.78670900  0.36647300  1
  Ni  Ni29  1  0.40636000  0.40636000  0.62235200  1
  Cu  Cu30  1  0.93528700  0.07187900  0.72329200  1
  Cu  Cu31  1  0.07187900  0.93528700  0.72329200  1
  Cu  Cu32  1  0.72654200  0.35547500  0.42136500  1
  Cu  Cu33  1  0.35547500  0.72654200  0.42136500  1
  Cu  Cu34  1  0.82143600  0.30436900  0.18166900  1
  Cu  Cu35  1  0.30436900  0.82143600  0.18166900  1
  Cu  Cu36  1  0.48860100  0.38710600  0.52977600  1
  Cu  Cu37  1  0.38710600  0.48860100  0.52977600  1
  Cu  Cu38  1  0.79595700  0.66435300  0.08544000  1
  Cu  Cu39  1  0.66435300  0.79595700  0.08544000  1
  Cu  Cu40  1  0.34128900  0.34128900  0.82524800  1
  Cu  Cu41  1  0.90576500  0.90576500  0.38526100  1
  Cu  Cu42  1  0.06341600  0.23625600  0.14517200  1
  Cu  Cu43  1  0.23625600  0.06341600  0.14517200  1
  Cu  Cu44  1  0.65652300  0.39753100  0.86286200  1
  Cu  Cu45  1  0.39753100  0.65652300  0.86286200  1
