# generated using pymatgen
data_Cu3NiC10
_symmetry_space_group_name_H-M   'P 1'
_cell_length_a   7.12124400
_cell_length_b   9.05129800
_cell_length_c   12.11078600
_cell_angle_alpha   90.00000000
_cell_angle_beta   90.00000000
_cell_angle_gamma   90.00000000
_symmetry_Int_Tables_number   1
_chemical_formula_structural   Cu3NiC10
_chemical_formula_sum   'Cu12 Ni4 C40'
_cell_volume   780.61889688
_cell_formula_units_Z   4
loop_
 _symmetry_equiv_pos_site_id
 _symmetry_equiv_pos_as_xyz
  1  'x, y, z'
loop_
 _atom_site_type_symbol
 _atom_site_label
 _atom_site_symmetry_multiplicity
 _atom_site_fract_x
 _atom_site_fract_y
 _atom_site_fract_z
 _atom_site_occupancy
  C  C0  1  0.75000000  0.47009000  0.46227500  1
  C  C1  1  0.75000000  0.97009000  0.03772500  1
  C  C2  1  0.25000000  0.52991000  0.53772500  1
  C  C3  1  0.25000000  0.02991000  0.96227500  1
  Ni  Ni4  1  0.75000000  0.51208900  0.70985600  1
  Ni  Ni5  1  0.75000000  0.01208900  0.79014400  1
  Ni  Ni6  1  0.25000000  0.98791100  0.20985600  1
  Ni  Ni7  1  0.25000000  0.48791100  0.29014400  1
  Cu  Cu8  1  0.95975400  0.75627800  0.33916500  1
  Cu  Cu9  1  0.95975400  0.25627800  0.16083500  1
  Cu  Cu10  1  0.75000000  0.31040700  0.96781300  1
  Cu  Cu11  1  0.75000000  0.81040700  0.53218700  1
  Cu  Cu12  1  0.54024600  0.25627800  0.16083500  1
  Cu  Cu13  1  0.54024600  0.75627800  0.33916500  1
  Cu  Cu14  1  0.45975400  0.24372200  0.66083500  1
  Cu  Cu15  1  0.45975400  0.74372200  0.83916500  1
  Cu  Cu16  1  0.25000000  0.18959300  0.46781300  1
  Cu  Cu17  1  0.25000000  0.68959300  0.03218700  1
  Cu  Cu18  1  0.04024600  0.24372200  0.66083500  1
  Cu  Cu19  1  0.04024600  0.74372200  0.83916500  1
  C  C20  1  0.96354900  0.64700700  0.75014800  1
  C  C21  1  0.96354900  0.14700700  0.74985200  1
  C  C22  1  0.94092500  0.88510100  0.87290300  1
  C  C23  1  0.94092500  0.38510100  0.62709700  1
  C  C24  1  0.92476000  0.35165600  0.05048600  1
  C  C25  1  0.92476000  0.85165600  0.44951400  1
  C  C26  1  0.75000000  0.70642200  0.30100300  1
  C  C27  1  0.75000000  0.41120100  0.87222200  1
  C  C28  1  0.75000000  0.91120100  0.62777800  1
  C  C29  1  0.75000000  0.14486100  0.95495900  1
  C  C30  1  0.75000000  0.20642200  0.19899700  1
  C  C31  1  0.75000000  0.64486100  0.54504100  1
  C  C32  1  0.57524000  0.35165600  0.05048600  1
  C  C33  1  0.57524000  0.85165600  0.44951400  1
  C  C34  1  0.55907500  0.88510100  0.87290300  1
  C  C35  1  0.55907500  0.38510100  0.62709700  1
  C  C36  1  0.53645100  0.64700700  0.75014800  1
  C  C37  1  0.53645100  0.14700700  0.74985200  1
  C  C38  1  0.46354900  0.85299300  0.25014800  1
  C  C39  1  0.46354900  0.35299300  0.24985200  1
  C  C40  1  0.44092500  0.11489900  0.12709700  1
  C  C41  1  0.44092500  0.61489900  0.37290300  1
  C  C42  1  0.42476000  0.14834400  0.55048600  1
  C  C43  1  0.42476000  0.64834400  0.94951400  1
  C  C44  1  0.25000000  0.85513900  0.04504100  1
  C  C45  1  0.25000000  0.58879900  0.12777800  1
  C  C46  1  0.25000000  0.35513900  0.45495900  1
  C  C47  1  0.25000000  0.08879900  0.37222200  1
  C  C48  1  0.25000000  0.29357800  0.69899700  1
  C  C49  1  0.25000000  0.79357800  0.80100300  1
  C  C50  1  0.07524000  0.14834400  0.55048600  1
  C  C51  1  0.07524000  0.64834400  0.94951400  1
  C  C52  1  0.05907500  0.61489900  0.37290300  1
  C  C53  1  0.05907500  0.11489900  0.12709700  1
  C  C54  1  0.03645100  0.35299300  0.24985200  1
  C  C55  1  0.03645100  0.85299300  0.25014800  1
