# generated using pymatgen
data_Cu(NiC2)2
_symmetry_space_group_name_H-M   'P 1'
_cell_length_a   5.93513006
_cell_length_b   5.93513006
_cell_length_c   5.93513056
_cell_angle_alpha   59.85519605
_cell_angle_beta   59.85519605
_cell_angle_gamma   59.85520671
_symmetry_Int_Tables_number   1
_chemical_formula_structural   Cu(NiC2)2
_chemical_formula_sum   'Cu2 Ni4 C8'
_cell_volume   147.34870863
_cell_formula_units_Z   2
loop_
 _symmetry_equiv_pos_site_id
 _symmetry_equiv_pos_as_xyz
  1  'x, y, z'
loop_
 _atom_site_type_symbol
 _atom_site_label
 _atom_site_symmetry_multiplicity
 _atom_site_fract_x
 _atom_site_fract_y
 _atom_site_fract_z
 _atom_site_occupancy
  Ni  Ni0  1  0.62735300  0.62735300  0.11730200  1
  Ni  Ni1  1  0.62735300  0.11730200  0.62735300  1
  Ni  Ni2  1  0.24583600  0.24583600  0.24583600  1
  Ni  Ni3  1  0.11730200  0.62735300  0.62735300  1
  Cu  Cu4  1  0.00209600  0.00209600  0.00209600  1
  Cu  Cu5  1  0.62679400  0.62679400  0.62679400  1
  C  C6  1  0.85215900  0.37872700  0.37872700  1
  C  C7  1  0.38020500  0.38020500  0.38020500  1
  C  C8  1  0.87097300  0.87097300  0.40657400  1
  C  C9  1  0.86492400  0.86492400  0.86492400  1
  C  C10  1  0.87097300  0.40657400  0.87097300  1
  C  C11  1  0.40657400  0.87097300  0.87097300  1
  C  C12  1  0.37872700  0.85215900  0.37872700  1
  C  C13  1  0.37872700  0.37872700  0.85215900  1
