# generated using pymatgen
data_Cu(NiC2)3
_symmetry_space_group_name_H-M   'P 1'
_cell_length_a   6.54526718
_cell_length_b   6.54526718
_cell_length_c   4.72820316
_cell_angle_alpha   80.19204545
_cell_angle_beta   80.19204545
_cell_angle_gamma   89.28217056
_symmetry_Int_Tables_number   1
_chemical_formula_structural   Cu(NiC2)3
_chemical_formula_sum   'Cu2 Ni6 C12'
_cell_volume   196.65250894
_cell_formula_units_Z   2
loop_
 _symmetry_equiv_pos_site_id
 _symmetry_equiv_pos_as_xyz
  1  'x, y, z'
loop_
 _atom_site_type_symbol
 _atom_site_label
 _atom_site_symmetry_multiplicity
 _atom_site_fract_x
 _atom_site_fract_y
 _atom_site_fract_z
 _atom_site_occupancy
  C  C0  1  0.15929900  0.58396000  0.38431200  1
  C  C1  1  0.41604000  0.84070100  0.61568800  1
  C  C2  1  0.58396000  0.15929900  0.38431200  1
  C  C3  1  0.84070100  0.41604000  0.61568800  1
  C  C4  1  0.32955300  0.93043100  0.12719100  1
  C  C5  1  0.63930800  0.63930800  0.12025700  1
  C  C6  1  0.36069200  0.36069200  0.87974300  1
  C  C7  1  0.93043100  0.32955300  0.12719100  1
  C  C8  1  0.67044700  0.06956900  0.87280900  1
  C  C9  1  0.06956900  0.67044700  0.87280900  1
  C  C10  1  0.12726700  0.12726700  0.62580100  1
  C  C11  1  0.87273300  0.87273300  0.37419900  1
  Ni  Ni12  1  0.13987700  0.86012300  0.50000000  1
  Ni  Ni13  1  0.86012300  0.13987700  0.50000000  1
  Ni  Ni14  1  0.89926500  0.60787300  0.25269900  1
  Ni  Ni15  1  0.60787300  0.89926500  0.25269900  1
  Ni  Ni16  1  0.39212700  0.10073500  0.74730100  1
  Ni  Ni17  1  0.10073500  0.39212700  0.74730100  1
  Cu  Cu18  1  0.35344100  0.64655900  0.00000000  1
  Cu  Cu19  1  0.64655900  0.35344100  0.00000000  1
