# generated using pymatgen
data_CuNiC7
_symmetry_space_group_name_H-M   'P 1'
_cell_length_a   9.13087300
_cell_length_b   9.19587500
_cell_length_c   9.20327670
_cell_angle_alpha   89.93085864
_cell_angle_beta   90.00000000
_cell_angle_gamma   90.00000000
_symmetry_Int_Tables_number   1
_chemical_formula_structural   CuNiC7
_chemical_formula_sum   'Cu6 Ni6 C42'
_cell_volume   772.76514411
_cell_formula_units_Z   6
loop_
 _symmetry_equiv_pos_site_id
 _symmetry_equiv_pos_as_xyz
  1  'x, y, z'
loop_
 _atom_site_type_symbol
 _atom_site_label
 _atom_site_symmetry_multiplicity
 _atom_site_fract_x
 _atom_site_fract_y
 _atom_site_fract_z
 _atom_site_occupancy
  C  C0  1  0.78963200  0.78308400  0.21781300  1
  C  C1  1  0.78963200  0.21691600  0.78218700  1
  C  C2  1  0.71287500  0.71156300  0.71321600  1
  C  C3  1  0.71287500  0.28843700  0.28678400  1
  C  C4  1  0.28370700  0.28303900  0.71698000  1
  C  C5  1  0.28370700  0.71696100  0.28302000  1
  C  C6  1  0.21123600  0.78815800  0.78367900  1
  C  C7  1  0.21123600  0.21184200  0.21632100  1
  Ni  Ni8  1  0.00054200  0.50036100  0.74959500  1
  Ni  Ni9  1  0.75070000  0.00000000  0.50000000  1
  Ni  Ni10  1  0.50090300  0.75030400  0.00054600  1
  Ni  Ni11  1  0.50090300  0.24969600  0.99945400  1
  Ni  Ni12  1  0.24978700  0.00000000  0.50000000  1
  Ni  Ni13  1  0.00054200  0.49963900  0.25040500  1
  Cu  Cu14  1  0.99977700  0.25092600  0.50124200  1
  Cu  Cu15  1  0.99977700  0.74907400  0.49875800  1
  Cu  Cu16  1  0.75133700  0.50000000  0.00000000  1
  Cu  Cu17  1  0.50054800  0.00073400  0.24964600  1
  Cu  Cu18  1  0.50054800  0.99926600  0.75035400  1
  Cu  Cu19  1  0.25066000  0.50000000  0.00000000  1
  C  C20  1  0.98496600  0.00000000  0.00000000  1
  C  C21  1  0.48486300  0.50000000  0.50000000  1
  C  C22  1  0.95445000  0.35145800  0.36125400  1
  C  C23  1  0.95445000  0.64854200  0.63874600  1
  C  C24  1  0.85385900  0.15508800  0.54440800  1
  C  C25  1  0.85385900  0.84491200  0.45559200  1
  C  C26  1  0.84901900  0.45508300  0.85798300  1
  C  C27  1  0.84901900  0.54491700  0.14201700  1
  C  C28  1  0.65562400  0.64490300  0.95712400  1
  C  C29  1  0.65562400  0.35509700  0.04287600  1
  C  C30  1  0.64410300  0.95536600  0.65289400  1
  C  C31  1  0.64410300  0.04463400  0.34710600  1
  C  C32  1  0.57663600  0.49913900  0.63080800  1
  C  C33  1  0.57663600  0.50086100  0.36919200  1
  C  C34  1  0.54742200  0.14124400  0.84841100  1
  C  C35  1  0.54742200  0.85875600  0.15158900  1
  C  C36  1  0.45695900  0.85686400  0.84837100  1
  C  C37  1  0.45695900  0.14313600  0.15162900  1
  C  C38  1  0.39368600  0.36968500  0.49887200  1
  C  C39  1  0.39368600  0.63031500  0.50112800  1
  C  C40  1  0.35696200  0.04222800  0.65373500  1
  C  C41  1  0.35696200  0.95777200  0.34626500  1
  C  C42  1  0.34865300  0.35736300  0.95512200  1
  C  C43  1  0.34865300  0.64263700  0.04487800  1
  C  C44  1  0.15380000  0.54357100  0.85653300  1
  C  C45  1  0.15380000  0.45642900  0.14346700  1
  C  C46  1  0.14316900  0.15371400  0.46038000  1
  C  C47  1  0.14316900  0.84628600  0.53962000  1
  C  C48  1  0.07666400  0.86735900  0.04151500  1
  C  C49  1  0.07666400  0.13264100  0.95848500  1
  C  C50  1  0.04244900  0.34663700  0.64528600  1
  C  C51  1  0.04244900  0.65336300  0.35471400  1
  C  C52  1  0.00016900  0.93114900  0.82585400  1
  C  C53  1  0.00016900  0.06885100  0.17414600  1
