# generated using pymatgen
data_Cu6Ni3C31
_symmetry_space_group_name_H-M   'P 1'
_cell_length_a   9.20620972
_cell_length_b   9.20620972
_cell_length_c   13.23259330
_cell_angle_alpha   83.91734745
_cell_angle_beta   83.91734745
_cell_angle_gamma   76.00441251
_symmetry_Int_Tables_number   1
_chemical_formula_structural   Cu6Ni3C31
_chemical_formula_sum   'Cu12 Ni6 C62'
_cell_volume   1078.34204439
_cell_formula_units_Z   2
loop_
 _symmetry_equiv_pos_site_id
 _symmetry_equiv_pos_as_xyz
  1  'x, y, z'
loop_
 _atom_site_type_symbol
 _atom_site_label
 _atom_site_symmetry_multiplicity
 _atom_site_fract_x
 _atom_site_fract_y
 _atom_site_fract_z
 _atom_site_occupancy
  C  C0  1  0.66059500  0.33940500  0.75000000  1
  C  C1  1  0.33940500  0.66059500  0.25000000  1
  Ni  Ni2  1  0.93086500  0.06913500  0.75000000  1
  Ni  Ni3  1  0.06913500  0.93086500  0.25000000  1
  Ni  Ni4  1  0.70719700  0.64271700  0.65063900  1
  Ni  Ni5  1  0.35728300  0.29280300  0.84936100  1
  Ni  Ni6  1  0.29280300  0.35728300  0.34936100  1
  Ni  Ni7  1  0.64271700  0.70719700  0.15063900  1
  C  C8  1  0.85133600  0.99036400  0.96351300  1
  C  C9  1  0.00963600  0.14866400  0.53648700  1
  C  C10  1  0.14866400  0.00963600  0.03648700  1
  C  C11  1  0.99036400  0.85133600  0.46351300  1
  C  C12  1  0.76567500  0.88784000  0.88777300  1
  C  C13  1  0.11216000  0.23432500  0.61222700  1
  C  C14  1  0.23432500  0.11216000  0.11222700  1
  C  C15  1  0.88784000  0.76567500  0.38777300  1
  C  C16  1  0.92427800  0.79285700  0.95632100  1
  C  C17  1  0.20714300  0.07572200  0.54367900  1
  C  C18  1  0.07572200  0.20714300  0.04367900  1
  C  C19  1  0.79285700  0.92427800  0.45632100  1
  C  C20  1  0.97889600  0.59279700  0.75667100  1
  C  C21  1  0.40720300  0.02110400  0.74332900  1
  C  C22  1  0.02110400  0.40720300  0.24332900  1
  C  C23  1  0.59279700  0.97889600  0.25667100  1
  C  C24  1  0.03073200  0.51970300  0.63366700  1
  C  C25  1  0.48029700  0.96926800  0.86633300  1
  C  C26  1  0.96926800  0.48029700  0.36633300  1
  C  C27  1  0.51970300  0.03073200  0.13366700  1
  C  C28  1  0.07526600  0.69163400  0.65768200  1
  C  C29  1  0.30836600  0.92473400  0.84231800  1
  C  C30  1  0.92473400  0.30836600  0.34231800  1
  C  C31  1  0.69163400  0.07526600  0.15768200  1
  C  C32  1  0.39966000  0.88777500  0.53696300  1
  C  C33  1  0.11222500  0.60034000  0.96303700  1
  C  C34  1  0.60034000  0.11222500  0.46303700  1
  C  C35  1  0.88777500  0.39966000  0.03696300  1
  C  C36  1  0.45197700  0.68862400  0.52904200  1
  C  C37  1  0.31137600  0.54802300  0.97095800  1
  C  C38  1  0.54802300  0.31137600  0.47095800  1
  C  C39  1  0.68862400  0.45197600  0.02904200  1
  C  C40  1  0.38509900  0.76372500  0.65015700  1
  C  C41  1  0.23627500  0.61490100  0.84984300  1
  C  C42  1  0.61490100  0.23627500  0.34984300  1
  C  C43  1  0.76372500  0.38509900  0.15015700  1
  C  C44  1  0.87131600  0.89803000  0.91404300  1
  C  C45  1  0.10197000  0.12868400  0.58595700  1
  C  C46  1  0.12868400  0.10197000  0.08595700  1
  C  C47  1  0.89803000  0.87131600  0.41404300  1
  C  C48  1  0.99319400  0.62161000  0.67420100  1
  C  C49  1  0.37839000  0.00680600  0.82579900  1
  C  C50  1  0.00680600  0.37839000  0.32579900  1
  C  C51  1  0.62161000  0.99319400  0.17420100  1
  C  C52  1  0.44972700  0.77958000  0.57689600  1
  C  C53  1  0.22042000  0.55027300  0.92310400  1
  C  C54  1  0.55027300  0.22042000  0.42310400  1
  C  C55  1  0.77958000  0.44972700  0.07689600  1
  Cu  Cu56  1  0.73806400  0.08938800  0.68632600  1
  Cu  Cu57  1  0.91061200  0.26193600  0.81367400  1
  Cu  Cu58  1  0.26193600  0.91061200  0.31367400  1
  Cu  Cu59  1  0.08938800  0.73806400  0.18632600  1
  Cu  Cu60  1  0.73561700  0.45272300  0.58197500  1
  Cu  Cu61  1  0.54727700  0.26438300  0.91802500  1
  Cu  Cu62  1  0.26438300  0.54727700  0.41802500  1
  Cu  Cu63  1  0.45272300  0.73561700  0.08197500  1
  Cu  Cu64  1  0.63319300  0.59848900  0.79600600  1
  Cu  Cu65  1  0.40151100  0.36680700  0.70399400  1
  Cu  Cu66  1  0.36680700  0.40151100  0.20399400  1
  Cu  Cu67  1  0.59848900  0.63319300  0.29600600  1
  C  C68  1  0.97571300  0.92174600  0.82717300  1
  C  C69  1  0.07825400  0.02428700  0.67282700  1
  C  C70  1  0.02428700  0.07825400  0.17282700  1
  C  C71  1  0.92174600  0.97571300  0.32717300  1
  C  C72  1  0.85314200  0.71113200  0.63782700  1
  C  C73  1  0.28886800  0.14685800  0.86217300  1
  C  C74  1  0.14685800  0.28886800  0.36217300  1
  C  C75  1  0.71113200  0.85314200  0.13782700  1
  C  C76  1  0.60139300  0.78561900  0.59333400  1
  C  C77  1  0.21438100  0.39860700  0.90666600  1
  C  C78  1  0.39860700  0.21438100  0.40666600  1
  C  C79  1  0.78561900  0.60139300  0.09333400  1
