# generated using pymatgen
data_Cu6Ni2C3
_symmetry_space_group_name_H-M   'P 1'
_cell_length_a   9.65538500
_cell_length_b   8.44190300
_cell_length_c   11.06149359
_cell_angle_alpha   89.02528965
_cell_angle_beta   90.00000000
_cell_angle_gamma   90.00000000
_symmetry_Int_Tables_number   1
_chemical_formula_structural   Cu6Ni2C3
_chemical_formula_sum   'Cu48 Ni16 C24'
_cell_volume   901.48992744
_cell_formula_units_Z   8
loop_
 _symmetry_equiv_pos_site_id
 _symmetry_equiv_pos_as_xyz
  1  'x, y, z'
loop_
 _atom_site_type_symbol
 _atom_site_label
 _atom_site_symmetry_multiplicity
 _atom_site_fract_x
 _atom_site_fract_y
 _atom_site_fract_z
 _atom_site_occupancy
  C  C0  1  0.36679700  0.43591800  0.06570300  1
  C  C1  1  0.13320300  0.93591800  0.06570300  1
  C  C2  1  0.86035700  0.43230600  0.12832500  1
  C  C3  1  0.63964300  0.93230600  0.12832500  1
  C  C4  1  0.10519500  0.30171400  0.21418200  1
  C  C5  1  0.39480500  0.80171400  0.21418200  1
  C  C6  1  0.33697000  0.46630000  0.33119500  1
  C  C7  1  0.16303000  0.96630000  0.33119500  1
  C  C8  1  0.90226200  0.43199600  0.40506900  1
  C  C9  1  0.59773800  0.93199600  0.40506900  1
  C  C10  1  0.40226200  0.06800400  0.59493100  1
  C  C11  1  0.09773800  0.56800400  0.59493100  1
  C  C12  1  0.83697000  0.03370000  0.66880500  1
  C  C13  1  0.66303000  0.53370000  0.66880500  1
  C  C14  1  0.60519500  0.19828600  0.78581800  1
  C  C15  1  0.89480500  0.69828600  0.78581800  1
  C  C16  1  0.36035700  0.06769400  0.87167500  1
  C  C17  1  0.13964300  0.56769400  0.87167500  1
  C  C18  1  0.86679700  0.06408200  0.93429700  1
  C  C19  1  0.63320300  0.56408200  0.93429700  1
  C  C20  1  0.60517100  0.28318100  0.28247800  1
  C  C21  1  0.89482900  0.78318100  0.28247800  1
  C  C22  1  0.10517100  0.21681900  0.71752200  1
  C  C23  1  0.39482900  0.71681900  0.71752200  1
  Ni  Ni24  1  0.61570000  0.24634400  0.02332000  1
  Ni  Ni25  1  0.88430000  0.74634400  0.02332000  1
  Ni  Ni26  1  0.36570800  0.13872900  0.20687000  1
  Ni  Ni27  1  0.13429200  0.63872900  0.20687000  1
  Ni  Ni28  1  0.86878000  0.12536500  0.28795800  1
  Ni  Ni29  1  0.63122000  0.62536500  0.28795800  1
  Ni  Ni30  1  0.14610100  0.28095100  0.49091000  1
  Ni  Ni31  1  0.35389900  0.78095100  0.49091000  1
  Ni  Ni32  1  0.64610100  0.21904900  0.50909000  1
  Ni  Ni33  1  0.85389900  0.71904900  0.50909000  1
  Ni  Ni34  1  0.36878000  0.37463500  0.71204200  1
  Ni  Ni35  1  0.13122000  0.87463500  0.71204200  1
  Ni  Ni36  1  0.86570800  0.36127100  0.79313000  1
  Ni  Ni37  1  0.63429200  0.86127100  0.79313000  1
  Ni  Ni38  1  0.11570000  0.25365600  0.97668000  1
  Ni  Ni39  1  0.38430000  0.75365600  0.97668000  1
  Cu  Cu40  1  0.17818700  0.38144000  0.00480300  1
  Cu  Cu41  1  0.32181300  0.88144000  0.00480300  1
  Cu  Cu42  1  0.00756100  0.20222100  0.03210100  1
  Cu  Cu43  1  0.49243900  0.70222100  0.03210100  1
  Cu  Cu44  1  0.66613600  0.33458900  0.11331600  1
  Cu  Cu45  1  0.83386400  0.83458900  0.11331600  1
  Cu  Cu46  1  0.23687600  0.10210100  0.19699400  1
  Cu  Cu47  1  0.26312400  0.60210100  0.19699400  1
  Cu  Cu48  1  0.46540800  0.03942400  0.20484800  1
  Cu  Cu49  1  0.03459200  0.53942400  0.20484800  1
  Cu  Cu50  1  0.39985400  0.28911300  0.22225100  1
  Cu  Cu51  1  0.10014600  0.78911300  0.22225100  1
  Cu  Cu52  1  0.90917900  0.26875600  0.27457400  1
  Cu  Cu53  1  0.73786700  0.08861900  0.28032400  1
  Cu  Cu54  1  0.59082100  0.76875600  0.27457400  1
  Cu  Cu55  1  0.76213300  0.58861900  0.28032400  1
  Cu  Cu56  1  0.95766800  0.01268800  0.30940800  1
  Cu  Cu57  1  0.54233200  0.51268800  0.30940800  1
  Cu  Cu58  1  0.17689300  0.34499100  0.38950100  1
  Cu  Cu59  1  0.32310700  0.84499100  0.38950100  1
  Cu  Cu60  1  0.53958900  0.16567300  0.44562500  1
  Cu  Cu61  1  0.96041100  0.66567300  0.44562500  1
  Cu  Cu62  1  0.71379100  0.33446300  0.45832000  1
  Cu  Cu63  1  0.78620900  0.83446300  0.45832000  1
  Cu  Cu64  1  0.21379100  0.16553700  0.54168000  1
  Cu  Cu65  1  0.28620900  0.66553700  0.54168000  1
  Cu  Cu66  1  0.03958900  0.33432700  0.55437500  1
  Cu  Cu67  1  0.46041100  0.83432700  0.55437500  1
  Cu  Cu68  1  0.67689300  0.15500900  0.61049900  1
  Cu  Cu69  1  0.82310700  0.65500900  0.61049900  1
  Cu  Cu70  1  0.45766800  0.48731200  0.69059200  1
  Cu  Cu71  1  0.04233200  0.98731200  0.69059200  1
  Cu  Cu72  1  0.23786700  0.41138100  0.71967600  1
  Cu  Cu73  1  0.40917900  0.23124400  0.72542600  1
  Cu  Cu74  1  0.26213300  0.91138100  0.71967600  1
  Cu  Cu75  1  0.09082100  0.73124400  0.72542600  1
  Cu  Cu76  1  0.89985400  0.21088700  0.77774900  1
  Cu  Cu77  1  0.60014600  0.71088700  0.77774900  1
  Cu  Cu78  1  0.96540800  0.46057600  0.79515200  1
  Cu  Cu79  1  0.53459200  0.96057600  0.79515200  1
  Cu  Cu80  1  0.73687600  0.39789900  0.80300600  1
  Cu  Cu81  1  0.76312400  0.89789900  0.80300600  1
  Cu  Cu82  1  0.16613600  0.16541100  0.88668400  1
  Cu  Cu83  1  0.33386400  0.66541100  0.88668400  1
  Cu  Cu84  1  0.50756100  0.29777900  0.96789900  1
  Cu  Cu85  1  0.99243900  0.79777900  0.96789900  1
  Cu  Cu86  1  0.67818700  0.11856000  0.99519700  1
  Cu  Cu87  1  0.82181300  0.61856000  0.99519700  1
