# generated using pymatgen
data_Cu12Ni2C15
_symmetry_space_group_name_H-M   'P 1'
_cell_length_a   18.44245800
_cell_length_b   7.27880000
_cell_length_c   10.34086733
_cell_angle_alpha   47.98415323
_cell_angle_beta   90.00000000
_cell_angle_gamma   90.00000000
_symmetry_Int_Tables_number   1
_chemical_formula_structural   Cu12Ni2C15
_chemical_formula_sum   'Cu48 Ni8 C60'
_cell_volume   1031.33755064
_cell_formula_units_Z   4
loop_
 _symmetry_equiv_pos_site_id
 _symmetry_equiv_pos_as_xyz
  1  'x, y, z'
loop_
 _atom_site_type_symbol
 _atom_site_label
 _atom_site_symmetry_multiplicity
 _atom_site_fract_x
 _atom_site_fract_y
 _atom_site_fract_z
 _atom_site_occupancy
  C  C0  1  0.50000000  0.00000000  0.50000000  1
  C  C1  1  0.00000000  0.00000000  0.00000000  1
  C  C2  1  0.50000000  0.00000000  0.00000000  1
  C  C3  1  0.00000000  0.00000000  0.50000000  1
  C  C4  1  0.75645800  0.32742000  0.97566100  1
  C  C5  1  0.74354200  0.32742000  0.47566100  1
  C  C6  1  0.24354200  0.67258000  0.02433900  1
  C  C7  1  0.25645800  0.67258000  0.52433900  1
  Ni  Ni8  1  0.59678500  0.49870400  0.79888300  1
  Ni  Ni9  1  0.90321500  0.49870400  0.29888300  1
  Ni  Ni10  1  0.40321500  0.50129600  0.20111700  1
  Ni  Ni11  1  0.09678500  0.50129600  0.70111700  1
  Ni  Ni12  1  0.60492100  0.15355400  0.17865000  1
  Ni  Ni13  1  0.89507900  0.15355400  0.67865000  1
  Ni  Ni14  1  0.39507900  0.84644600  0.82135000  1
  Ni  Ni15  1  0.10492100  0.84644600  0.32135000  1
  Cu  Cu16  1  0.49581900  0.57640800  0.58635700  1
  Cu  Cu17  1  0.00418100  0.57640800  0.08635700  1
  Cu  Cu18  1  0.50418100  0.42359200  0.41364300  1
  Cu  Cu19  1  0.99581900  0.42359200  0.91364300  1
  Cu  Cu20  1  0.51085600  0.78451800  0.37961000  1
  Cu  Cu21  1  0.98914400  0.78451800  0.87961000  1
  Cu  Cu22  1  0.48914400  0.21548200  0.62039000  1
  Cu  Cu23  1  0.01085600  0.21548200  0.12039000  1
  Cu  Cu24  1  0.88872700  0.26747100  0.09970400  1
  Cu  Cu25  1  0.61127300  0.26747100  0.59970400  1
  Cu  Cu26  1  0.11127300  0.73252900  0.90029600  1
  Cu  Cu27  1  0.38872700  0.73252900  0.40029600  1
  Cu  Cu28  1  0.83542700  0.29900800  0.20747100  1
  Cu  Cu29  1  0.66457300  0.29900800  0.70747100  1
  Cu  Cu30  1  0.16457300  0.70099200  0.79252900  1
  Cu  Cu31  1  0.33542700  0.70099200  0.29252900  1
  Cu  Cu32  1  0.85671400  0.67908600  0.71776700  1
  Cu  Cu33  1  0.64328600  0.67908600  0.21776700  1
  Cu  Cu34  1  0.14328600  0.32091400  0.28223300  1
  Cu  Cu35  1  0.35671400  0.32091400  0.78223300  1
  Cu  Cu36  1  0.87037500  0.41856800  0.77538600  1
  Cu  Cu37  1  0.62962500  0.41856800  0.27538600  1
  Cu  Cu38  1  0.12962500  0.58143200  0.22461400  1
  Cu  Cu39  1  0.37037500  0.58143200  0.72461400  1
  Cu  Cu40  1  0.78903200  0.05975500  0.89553500  1
  Cu  Cu41  1  0.71096800  0.05975500  0.39553500  1
  Cu  Cu42  1  0.21096800  0.94024500  0.10446500  1
  Cu  Cu43  1  0.28903200  0.94024500  0.60446500  1
  Cu  Cu44  1  0.82953900  0.93261300  0.07142100  1
  Cu  Cu45  1  0.67046100  0.93261300  0.57142100  1
  Cu  Cu46  1  0.17046100  0.06738700  0.92857900  1
  Cu  Cu47  1  0.32953900  0.06738700  0.42857900  1
  Cu  Cu48  1  0.38509400  0.04712400  0.14139000  1
  Cu  Cu49  1  0.11490600  0.04712400  0.64139000  1
  Cu  Cu50  1  0.61490600  0.95287600  0.85861000  1
  Cu  Cu51  1  0.88509400  0.95287600  0.35861000  1
  Cu  Cu52  1  0.42663800  0.29998600  0.03360100  1
  Cu  Cu53  1  0.07336200  0.29998600  0.53360100  1
  Cu  Cu54  1  0.57336200  0.70001400  0.96639900  1
  Cu  Cu55  1  0.92663800  0.70001400  0.46639900  1
  Cu  Cu56  1  0.74229600  0.64064600  0.03597100  1
  Cu  Cu57  1  0.75770400  0.64064600  0.53597100  1
  Cu  Cu58  1  0.25770400  0.35935400  0.96402900  1
  Cu  Cu59  1  0.24229600  0.35935400  0.46402900  1
  Cu  Cu60  1  0.76463400  0.81509900  0.83818200  1
  Cu  Cu61  1  0.73536600  0.81509900  0.33818200  1
  Cu  Cu62  1  0.23536600  0.18490100  0.16181800  1
  Cu  Cu63  1  0.26463400  0.18490100  0.66181800  1
  C  C64  1  0.57405300  0.18208800  0.30075200  1
  C  C65  1  0.92594700  0.18208800  0.80075200  1
  C  C66  1  0.42594700  0.81791200  0.69924800  1
  C  C67  1  0.07405300  0.81791200  0.19924800  1
  C  C68  1  0.68835600  0.12931500  0.19129300  1
  C  C69  1  0.81164400  0.12931500  0.69129300  1
  C  C70  1  0.31164400  0.87068500  0.80870700  1
  C  C71  1  0.18835600  0.87068500  0.30870700  1
  C  C72  1  0.67361100  0.41094800  0.80518400  1
  C  C73  1  0.82638900  0.41094800  0.30518400  1
  C  C74  1  0.32638900  0.58905200  0.19481600  1
  C  C75  1  0.17361100  0.58905200  0.69481600  1
  C  C76  1  0.58561300  0.42441500  0.98667800  1
  C  C77  1  0.91438700  0.42441500  0.48667800  1
  C  C78  1  0.41438700  0.57558500  0.01332200  1
  C  C79  1  0.08561300  0.57558500  0.51332200  1
  C  C80  1  0.56918400  0.95327800  0.18923100  1
  C  C81  1  0.93081600  0.95327800  0.68923100  1
  C  C82  1  0.43081600  0.04672200  0.81076900  1
  C  C83  1  0.06918400  0.04672200  0.31076900  1
  C  C84  1  0.58778900  0.77798400  0.66237700  1
  C  C85  1  0.91221100  0.77798400  0.16237700  1
  C  C86  1  0.41221100  0.22201600  0.33762300  1
  C  C87  1  0.08778900  0.22201600  0.83762300  1
  C  C88  1  0.53802100  0.35846200  0.78908400  1
  C  C89  1  0.96197900  0.35846200  0.28908400  1
  C  C90  1  0.46197900  0.64153800  0.21091600  1
  C  C91  1  0.03802100  0.64153800  0.71091600  1
  C  C92  1  0.47728300  0.73499500  0.47406900  1
  C  C93  1  0.02271700  0.73499500  0.97406900  1
  C  C94  1  0.52271700  0.26500500  0.52593100  1
  C  C95  1  0.97728300  0.26500500  0.02593100  1
  C  C96  1  0.84037300  0.22055500  0.15663100  1
  C  C97  1  0.65962700  0.22055500  0.65663100  1
  C  C98  1  0.15962700  0.77944500  0.84336900  1
  C  C99  1  0.34037300  0.77944500  0.34336900  1
  C  C100  1  0.83349400  0.52068600  0.77262100  1
  C  C101  1  0.66650600  0.52068600  0.27262100  1
  C  C102  1  0.16650600  0.47931400  0.22737900  1
  C  C103  1  0.33349400  0.47931400  0.72737900  1
  C  C104  1  0.78379400  0.02153900  0.00670800  1
  C  C105  1  0.71620600  0.02153900  0.50670800  1
  C  C106  1  0.21620600  0.97846100  0.99329200  1
  C  C107  1  0.28379400  0.97846100  0.49329200  1
  C  C108  1  0.42032800  0.15471900  0.04579800  1
  C  C109  1  0.07967200  0.15471900  0.54579800  1
  C  C110  1  0.57967200  0.84528100  0.95420200  1
  C  C111  1  0.92032800  0.84528100  0.45420200  1
  C  C112  1  0.74311900  0.65264000  0.93583100  1
  C  C113  1  0.75688100  0.65264000  0.43583100  1
  C  C114  1  0.25688100  0.34736000  0.06416900  1
  C  C115  1  0.24311900  0.34736000  0.56416900  1
