# generated using pymatgen
data_Cu2Ni3C19
_symmetry_space_group_name_H-M   'P 1'
_cell_length_a   6.33440618
_cell_length_b   6.33440618
_cell_length_c   9.32224822
_cell_angle_alpha   88.66555484
_cell_angle_beta   88.66555484
_cell_angle_gamma   59.10536903
_symmetry_Int_Tables_number   1
_chemical_formula_structural   Cu2Ni3C19
_chemical_formula_sum   'Cu2 Ni3 C19'
_cell_volume   320.86421778
_cell_formula_units_Z   1
loop_
 _symmetry_equiv_pos_site_id
 _symmetry_equiv_pos_as_xyz
  1  'x, y, z'
loop_
 _atom_site_type_symbol
 _atom_site_label
 _atom_site_symmetry_multiplicity
 _atom_site_fract_x
 _atom_site_fract_y
 _atom_site_fract_z
 _atom_site_occupancy
  C  C0  1  0.83122800  0.83122800  0.79620300  1
  C  C1  1  0.16826800  0.66210600  0.29685800  1
  C  C2  1  0.66210600  0.16826800  0.29685800  1
  Ni  Ni3  1  0.33780600  0.83299300  0.79373600  1
  Ni  Ni4  1  0.83299300  0.33780600  0.79373600  1
  Ni  Ni5  1  0.16782000  0.16782000  0.29226200  1
  Cu  Cu6  1  0.67093700  0.67093700  0.51075200  1
  Cu  Cu7  1  0.33776000  0.33776000  0.01788600  1
  C  C8  1  0.36404700  0.82177400  0.40051900  1
  C  C9  1  0.52460900  0.52460900  0.64699900  1
  C  C10  1  0.66009300  0.66009300  0.90303900  1
  C  C11  1  0.00360200  0.00360200  0.70144000  1
  C  C12  1  0.99614900  0.99614900  0.21185700  1
  C  C13  1  0.82177400  0.36404700  0.40051900  1
  C  C14  1  0.51713800  0.94937500  0.64392100  1
  C  C15  1  0.94937500  0.51713800  0.64392100  1
  C  C16  1  0.18162800  0.18162800  0.89976000  1
  C  C17  1  0.82245200  0.82245200  0.39874800  1
  C  C18  1  0.04567000  0.47114900  0.14431600  1
  C  C19  1  0.47114900  0.04567000  0.14431600  1
  C  C20  1  0.33624100  0.33624100  0.39060900  1
  C  C21  1  0.18467200  0.63885700  0.90157100  1
  C  C22  1  0.47205800  0.47205800  0.15304000  1
  C  C23  1  0.63885700  0.18467200  0.90157100  1
