# generated using pymatgen
data_CuNiC6
_symmetry_space_group_name_H-M   'P 1'
_cell_length_a   5.88188883
_cell_length_b   5.88188883
_cell_length_c   9.19070067
_cell_angle_alpha   88.29636955
_cell_angle_beta   88.29636955
_cell_angle_gamma   59.21449400
_symmetry_Int_Tables_number   1
_chemical_formula_structural   CuNiC6
_chemical_formula_sum   'Cu3 Ni3 C18'
_cell_volume   273.00245933
_cell_formula_units_Z   3
loop_
 _symmetry_equiv_pos_site_id
 _symmetry_equiv_pos_as_xyz
  1  'x, y, z'
loop_
 _atom_site_type_symbol
 _atom_site_label
 _atom_site_symmetry_multiplicity
 _atom_site_fract_x
 _atom_site_fract_y
 _atom_site_fract_z
 _atom_site_occupancy
  Ni  Ni0  1  0.33766800  0.83398700  0.78868900  1
  Ni  Ni1  1  0.83398700  0.33766800  0.78868900  1
  Ni  Ni2  1  0.16853500  0.16853500  0.28668800  1
  Cu  Cu3  1  0.83101800  0.83101800  0.78921300  1
  Cu  Cu4  1  0.16868200  0.66379400  0.28977700  1
  Cu  Cu5  1  0.66379400  0.16868200  0.28977700  1
  C  C6  1  0.67149500  0.67149500  0.50977200  1
  C  C7  1  0.33638400  0.33638400  0.01513500  1
  C  C8  1  0.34492600  0.83381000  0.40380600  1
  C  C9  1  0.51992800  0.51992800  0.66336900  1
  C  C10  1  0.65696800  0.65696800  0.89217400  1
  C  C11  1  0.00790300  0.00790300  0.69485700  1
  C  C12  1  0.00423800  0.00423800  0.19727900  1
  C  C13  1  0.83381000  0.34492600  0.40380600  1
  C  C14  1  0.50571000  0.96168500  0.65362500  1
  C  C15  1  0.96168500  0.50571000  0.65362500  1
  C  C16  1  0.17107100  0.17107100  0.89825500  1
  C  C17  1  0.83768400  0.83768400  0.40795300  1
  C  C18  1  0.03207200  0.46904300  0.15327000  1
  C  C19  1  0.46904300  0.03207200  0.15327000  1
  C  C20  1  0.32865500  0.32865500  0.38585900  1
  C  C21  1  0.17220200  0.66318500  0.90479500  1
  C  C22  1  0.47923100  0.47923100  0.15579700  1
  C  C23  1  0.66318500  0.17220200  0.90479500  1
