# generated using pymatgen
data_CuNiC6
_symmetry_space_group_name_H-M   'P 1'
_cell_length_a   5.87299500
_cell_length_b   5.87517166
_cell_length_c   8.83445846
_cell_angle_alpha   89.99095058
_cell_angle_beta   90.48432260
_cell_angle_gamma   119.66747228
_symmetry_Int_Tables_number   1
_chemical_formula_structural   CuNiC6
_chemical_formula_sum   'Cu3 Ni3 C18'
_cell_volume   264.85981295
_cell_formula_units_Z   3
loop_
 _symmetry_equiv_pos_site_id
 _symmetry_equiv_pos_as_xyz
  1  'x, y, z'
loop_
 _atom_site_type_symbol
 _atom_site_label
 _atom_site_symmetry_multiplicity
 _atom_site_fract_x
 _atom_site_fract_y
 _atom_site_fract_z
 _atom_site_occupancy
  Ni  Ni0  1  0.34377400  0.17210000  0.20951900  1
  Ni  Ni1  1  0.17166800  0.34016600  0.71302000  1
  Ni  Ni2  1  0.17179500  0.83188100  0.71275600  1
  C  C3  1  0.66736800  0.33503400  0.50212600  1
  C  C4  1  0.33737500  0.66978000  0.00113700  1
  Cu  Cu5  1  0.83613100  0.17697800  0.21965000  1
  Cu  Cu6  1  0.83070400  0.66061600  0.20890800  1
  Cu  Cu7  1  0.66207200  0.83124800  0.71251000  1
  C  C8  1  0.82608400  0.17614700  0.59639200  1
  C  C9  1  0.94881800  0.46769900  0.34358500  1
  C  C10  1  0.66310100  0.32180000  0.10040400  1
  C  C11  1  0.00444000  0.01039200  0.30367200  1
  C  C12  1  0.01064900  0.00551800  0.81225600  1
  C  C13  1  0.82663400  0.65006600  0.59501900  1
  C  C14  1  0.52133600  0.04689600  0.33932500  1
  C  C15  1  0.51874500  0.46888800  0.33912000  1
  C  C16  1  0.64916200  0.82772100  0.09435100  1
  C  C17  1  0.34744200  0.17302300  0.59692600  1
  C  C18  1  0.47009500  0.51825600  0.84129900  1
  C  C19  1  0.46923500  0.95123900  0.84111400  1
  C  C20  1  0.32367700  0.66149500  0.60185800  1
  C  C21  1  0.17641100  0.35287600  0.09712200  1
  C  C22  1  0.04577800  0.52366600  0.83705800  1
  C  C23  1  0.17750300  0.82631600  0.09659500  1
