# generated using pymatgen
data_CuNiC5
_symmetry_space_group_name_H-M   'P 1'
_cell_length_a   14.58452000
_cell_length_b   8.20213900
_cell_length_c   11.02755023
_cell_angle_alpha   85.09053208
_cell_angle_beta   90.00000000
_cell_angle_gamma   90.00000000
_symmetry_Int_Tables_number   1
_chemical_formula_structural   CuNiC5
_chemical_formula_sum   'Cu4 Ni4 C20'
_cell_volume   1314.32275322
_cell_formula_units_Z   4
loop_
 _symmetry_equiv_pos_site_id
 _symmetry_equiv_pos_as_xyz
  1  'x, y, z'
loop_
 _atom_site_type_symbol
 _atom_site_label
 _atom_site_symmetry_multiplicity
 _atom_site_fract_x
 _atom_site_fract_y
 _atom_site_fract_z
 _atom_site_occupancy
  Ni  Ni0  1  0.04332800  0.05471000  0.82185700  1
  Ni  Ni1  1  0.37703300  0.40185100  0.62733800  1
  Ni  Ni2  1  0.87703300  0.59814900  0.37266200  1
  Ni  Ni3  1  0.54332800  0.94529000  0.17814300  1
  Cu  Cu4  1  0.62338600  0.00123300  0.59521800  1
  Cu  Cu5  1  0.23240200  0.50467000  0.12664700  1
  Cu  Cu6  1  0.73240200  0.49533000  0.87335300  1
  Cu  Cu7  1  0.12338600  0.99876700  0.40478200  1
  C  C8  1  0.75843300  0.97609900  0.38730300  1
  C  C9  1  0.49941700  0.07844400  0.79998400  1
  C  C10  1  0.27817300  0.14722300  0.23823500  1
  C  C11  1  0.52035800  0.23626300  0.41271000  1
  C  C12  1  0.22873900  0.32398200  0.88709700  1
  C  C13  1  0.01918300  0.25903800  0.53211500  1
  C  C14  1  0.71031700  0.20052700  0.04558000  1
  C  C15  1  0.73546600  0.33950700  0.62159500  1
  C  C16  1  0.03808200  0.41752200  0.18962200  1
  C  C17  1  0.93418300  0.43338200  0.86289100  1
  C  C18  1  0.43418300  0.56661800  0.13710900  1
  C  C19  1  0.53808200  0.58247800  0.81037800  1
  C  C20  1  0.23546600  0.66049300  0.37840500  1
  C  C21  1  0.21031700  0.79947300  0.95442000  1
  C  C22  1  0.51918300  0.74096200  0.46788500  1
  C  C23  1  0.72873900  0.67601800  0.11290300  1
  C  C24  1  0.02035800  0.76373700  0.58729000  1
  C  C25  1  0.77817300  0.85277700  0.76176500  1
  C  C26  1  0.99941700  0.92155600  0.20001600  1
  C  C27  1  0.25843300  0.02390100  0.61269700  1
