# generated using pymatgen
data_CuNiC10
_symmetry_space_group_name_H-M   'P 1'
_cell_length_a   6.49229600
_cell_length_b   9.94884186
_cell_length_c   10.42721993
_cell_angle_alpha   117.99973530
_cell_angle_beta   89.99862353
_cell_angle_gamma   90.00161438
_symmetry_Int_Tables_number   1
_chemical_formula_structural   CuNiC10
_chemical_formula_sum   'Cu4 Ni4 C40'
_cell_volume   594.66909255
_cell_formula_units_Z   4
loop_
 _symmetry_equiv_pos_site_id
 _symmetry_equiv_pos_as_xyz
  1  'x, y, z'
loop_
 _atom_site_type_symbol
 _atom_site_label
 _atom_site_symmetry_multiplicity
 _atom_site_fract_x
 _atom_site_fract_y
 _atom_site_fract_z
 _atom_site_occupancy
  C  C0  1  0.51978900  0.00125900  0.20830000  1
  C  C1  1  0.51973500  0.50126200  0.70826400  1
  C  C2  1  0.98021600  0.00131400  0.20834500  1
  C  C3  1  0.98024400  0.50126000  0.70826600  1
  C  C4  1  0.48030800  0.99876300  0.79171300  1
  C  C5  1  0.48022500  0.49876300  0.29167100  1
  C  C6  1  0.01966400  0.99875500  0.79171900  1
  C  C7  1  0.01976200  0.49878500  0.29168100  1
  C  C8  1  0.75007300  0.71757700  0.05884900  1
  C  C9  1  0.25002600  0.78246000  0.44118200  1
  C  C10  1  0.74995200  0.21745900  0.55885600  1
  C  C11  1  0.24986100  0.28224900  0.94097800  1
  Ni  Ni12  1  0.24996500  0.13905700  0.56958500  1
  Ni  Ni13  1  0.25004600  0.63892700  0.06950500  1
  Ni  Ni14  1  0.75002600  0.86101100  0.43044500  1
  Ni  Ni15  1  0.74996700  0.36094900  0.93042400  1
  Cu  Cu16  1  0.74998900  0.33303000  0.38361300  1
  Cu  Cu17  1  0.75002600  0.83306000  0.88348700  1
  Cu  Cu18  1  0.24999900  0.66700600  0.61651300  1
  Cu  Cu19  1  0.24998400  0.16697700  0.11644900  1
  C  C20  1  0.25001700  0.08805400  0.18306400  1
  C  C21  1  0.24998800  0.58799200  0.68302500  1
  C  C22  1  0.74997500  0.91207800  0.81697600  1
  C  C23  1  0.75000000  0.41200900  0.31706100  1
  C  C24  1  0.74997700  0.40273500  0.52934000  1
  C  C25  1  0.75006400  0.90274900  0.02923000  1
  C  C26  1  0.25001800  0.59730900  0.47076300  1
  C  C27  1  0.24995300  0.09718900  0.97069000  1
  C  C28  1  0.74998800  0.18602700  0.32315900  1
  C  C29  1  0.75002500  0.68606200  0.82304500  1
  C  C30  1  0.24999400  0.81400200  0.67695100  1
  C  C31  1  0.24997100  0.31397000  0.17681900  1
  C  C32  1  0.75004900  0.89728800  0.28559200  1
  C  C33  1  0.74998200  0.39732200  0.78562400  1
  C  C34  1  0.24998200  0.10265000  0.71439000  1
  C  C35  1  0.25004500  0.60279100  0.21446200  1
  C  C36  1  0.25003400  0.96312700  0.41391900  1
  C  C37  1  0.24999100  0.46300100  0.91392300  1
  C  C38  1  0.74998600  0.03691200  0.58612100  1
  C  C39  1  0.75008400  0.53689000  0.08605800  1
  C  C40  1  0.04663700  0.24705300  0.56653400  1
  C  C41  1  0.04678700  0.74692000  0.06634200  1
  C  C42  1  0.45327500  0.24708700  0.56655200  1
  C  C43  1  0.45336900  0.74687200  0.06632500  1
  C  C44  1  0.54676800  0.75307100  0.43362200  1
  C  C45  1  0.54666300  0.25295400  0.93348500  1
  C  C46  1  0.95329000  0.75308300  0.43362800  1
  C  C47  1  0.95323000  0.25288000  0.93345600  1
