# generated using pymatgen
data_CuNiC6
_symmetry_space_group_name_H-M   'P 1'
_cell_length_a   5.36762504
_cell_length_b   9.83684108
_cell_length_c   6.31138400
_cell_angle_alpha   89.99765503
_cell_angle_beta   90.00175573
_cell_angle_gamma   89.98571687
_symmetry_Int_Tables_number   1
_chemical_formula_structural   CuNiC6
_chemical_formula_sum   'Cu4 Ni4 C24'
_cell_volume   333.24405934
_cell_formula_units_Z   4
loop_
 _symmetry_equiv_pos_site_id
 _symmetry_equiv_pos_as_xyz
  1  'x, y, z'
loop_
 _atom_site_type_symbol
 _atom_site_label
 _atom_site_symmetry_multiplicity
 _atom_site_fract_x
 _atom_site_fract_y
 _atom_site_fract_z
 _atom_site_occupancy
  C  C0  1  0.32848100  0.49600400  0.24993600  1
  C  C1  1  0.32860200  0.99600800  0.25003500  1
  C  C2  1  0.67153500  0.24601800  0.25000400  1
  C  C3  1  0.67148700  0.74606800  0.25004400  1
  C  C4  1  0.32847600  0.49599300  0.75007900  1
  C  C5  1  0.32859600  0.99602600  0.74998000  1
  C  C6  1  0.67151300  0.24601600  0.75000500  1
  C  C7  1  0.67148700  0.74606500  0.74997100  1
  Ni  Ni8  1  0.16680700  0.25109400  0.99993800  1
  Ni  Ni9  1  0.16708700  0.75123800  0.99999100  1
  Ni  Ni10  1  0.83321900  0.00107200  0.50001300  1
  Ni  Ni11  1  0.83303200  0.50121400  0.50001100  1
  Cu  Cu12  1  0.82418500  0.99431600  0.00001500  1
  Cu  Cu13  1  0.17556400  0.74421100  0.49999600  1
  Cu  Cu14  1  0.82390600  0.49467000  0.00001700  1
  Cu  Cu15  1  0.17593900  0.24440400  0.49996100  1
  C  C16  1  0.16662100  0.41896200  0.00006000  1
  C  C17  1  0.16708600  0.91907900  0.00000500  1
  C  C18  1  0.83307200  0.16899200  0.50000400  1
  C  C19  1  0.83290900  0.66907100  0.49999600  1
  C  C20  1  0.87433500  0.19701100  0.00003300  1
  C  C21  1  0.87467200  0.69726100  0.00002200  1
  C  C22  1  0.12546000  0.44717300  0.49999300  1
  C  C23  1  0.12581400  0.94701600  0.49999900  1
  C  C24  1  0.68590800  0.44819600  0.28523700  1
  C  C25  1  0.68600100  0.94808000  0.28517300  1
  C  C26  1  0.31407800  0.19810300  0.21476800  1
  C  C27  1  0.31409300  0.69812600  0.21481800  1
  C  C28  1  0.31403300  0.19810300  0.78511200  1
  C  C29  1  0.31408000  0.69812700  0.78517700  1
  C  C30  1  0.68591700  0.44820000  0.71477200  1
  C  C31  1  0.68600500  0.94808000  0.71483500  1
