# generated using pymatgen
data_Cu3Ni2C3
_symmetry_space_group_name_H-M   'P 1'
_cell_length_a   3.17614300
_cell_length_b   8.16463100
_cell_length_c   8.33058400
_cell_angle_alpha   90.00000000
_cell_angle_beta   90.00000000
_cell_angle_gamma   90.00000000
_symmetry_Int_Tables_number   1
_chemical_formula_structural   Cu3Ni2C3
_chemical_formula_sum   'Cu6 Ni4 C6'
_cell_volume   216.02900084
_cell_formula_units_Z   2
loop_
 _symmetry_equiv_pos_site_id
 _symmetry_equiv_pos_as_xyz
  1  'x, y, z'
loop_
 _atom_site_type_symbol
 _atom_site_label
 _atom_site_symmetry_multiplicity
 _atom_site_fract_x
 _atom_site_fract_y
 _atom_site_fract_z
 _atom_site_occupancy
  C  C0  1  0.00000000  0.39611400  0.17220600  1
  C  C1  1  0.00000000  0.60388600  0.67220600  1
  C  C2  1  0.50000000  0.75805100  0.99155100  1
  C  C3  1  0.00000000  0.89901500  0.32983400  1
  C  C4  1  0.00000000  0.10098500  0.82983400  1
  C  C5  1  0.50000000  0.24194900  0.49155100  1
  Ni  Ni6  1  0.50000000  0.86566100  0.20931500  1
  Ni  Ni7  1  0.00000000  0.88543600  0.91678800  1
  Ni  Ni8  1  0.00000000  0.11456400  0.41678800  1
  Ni  Ni9  1  0.50000000  0.13433900  0.70931500  1
  Cu  Cu10  1  0.00000000  0.75525400  0.50342900  1
  Cu  Cu11  1  0.00000000  0.24474600  0.00342900  1
  Cu  Cu12  1  0.50000000  0.38007900  0.29879700  1
  Cu  Cu13  1  0.00000000  0.38732400  0.57828000  1
  Cu  Cu14  1  0.00000000  0.61267600  0.07828000  1
  Cu  Cu15  1  0.50000000  0.61992100  0.79879700  1
