# generated using pymatgen
data_CuNiC18
_symmetry_space_group_name_H-M   'P 1'
_cell_length_a   12.03685681
_cell_length_b   10.44740651
_cell_length_c   10.31825607
_cell_angle_alpha   70.84901705
_cell_angle_beta   55.07645324
_cell_angle_gamma   54.07452971
_symmetry_Int_Tables_number   1
_chemical_formula_structural   CuNiC18
_chemical_formula_sum   'Cu4 Ni4 C72'
_cell_volume   861.45954458
_cell_formula_units_Z   4
loop_
 _symmetry_equiv_pos_site_id
 _symmetry_equiv_pos_as_xyz
  1  'x, y, z'
loop_
 _atom_site_type_symbol
 _atom_site_label
 _atom_site_symmetry_multiplicity
 _atom_site_fract_x
 _atom_site_fract_y
 _atom_site_fract_z
 _atom_site_occupancy
  C  C0  1  0.00479100  0.36848200  0.87292000  1
  C  C1  1  0.37708000  0.49619200  0.24520900  1
  C  C2  1  0.50000000  0.50000000  0.50000000  1
  C  C3  1  0.36848200  0.00479100  0.75380800  1
  C  C4  1  0.25000000  0.25000000  0.25000000  1
  C  C5  1  0.49619200  0.37708000  0.88151800  1
  C  C6  1  0.75380800  0.87292000  0.36848200  1
  C  C7  1  0.00000000  0.00000000  0.00000000  1
  C  C8  1  0.88151800  0.24520900  0.49619200  1
  C  C9  1  0.75000000  0.75000000  0.75000000  1
  C  C10  1  0.87292000  0.75380800  0.00479100  1
  C  C11  1  0.24520900  0.88151800  0.37708000  1
  Ni  Ni12  1  0.12500000  0.62500000  0.12500000  1
  Ni  Ni13  1  0.12500000  0.12500000  0.12500000  1
  Ni  Ni14  1  0.62500000  0.12500000  0.12500000  1
  Ni  Ni15  1  0.12500000  0.12500000  0.62500000  1
  Cu  Cu16  1  0.12500000  0.62500000  0.62500000  1
  Cu  Cu17  1  0.62500000  0.62500000  0.12500000  1
  Cu  Cu18  1  0.62500000  0.62500000  0.62500000  1
  Cu  Cu19  1  0.62500000  0.12500000  0.62500000  1
  C  C20  1  0.99913200  0.50086800  0.50086800  1
  C  C21  1  0.87250000  0.50192300  0.25200200  1
  C  C22  1  0.37357600  0.25200200  0.50192300  1
  C  C23  1  0.25200200  0.37357600  0.87250000  1
  C  C24  1  0.74807700  0.37750000  0.87642400  1
  C  C25  1  0.74913200  0.25086800  0.25086800  1
  C  C26  1  0.50086800  0.99913200  0.99913200  1
  C  C27  1  0.99799800  0.87642400  0.37750000  1
  C  C28  1  0.50192300  0.87250000  0.37357600  1
  C  C29  1  0.87642400  0.99799800  0.74807700  1
  C  C30  1  0.37750000  0.74807700  0.99799800  1
  C  C31  1  0.25086800  0.74913200  0.74913200  1
  C  C32  1  0.73964200  0.51638000  0.92014300  1
  C  C33  1  0.12650900  0.50950000  0.33279000  1
  C  C34  1  0.34063100  0.61857000  0.03147700  1
  C  C35  1  0.00664000  0.53877000  0.63159000  1
  C  C36  1  0.82728000  0.53335900  0.12252900  1
  C  C37  1  0.12252900  0.51683200  0.82728000  1
  C  C38  1  0.32985700  0.42616600  0.51035800  1
  C  C39  1  0.24067700  0.21852300  0.63143000  1
  C  C40  1  0.41436000  0.24472700  0.33172500  1
  C  C41  1  0.61857000  0.34063100  0.00932300  1
  C  C42  1  0.00918800  0.33172500  0.24472700  1
  C  C43  1  0.42700000  0.61841000  0.71123000  1
  C  C44  1  0.61841000  0.42700000  0.24336000  1
  C  C45  1  0.24472700  0.41436000  0.00918800  1
  C  C46  1  0.21852300  0.24067700  0.90936900  1
  C  C47  1  0.42616600  0.32985700  0.73362000  1
  C  C48  1  0.03120200  0.33279000  0.50950000  1
  C  C49  1  0.73362000  0.51035800  0.42616600  1
  C  C50  1  0.51683200  0.12252900  0.53335900  1
  C  C51  1  0.91827500  0.24081200  0.83564000  1
  C  C52  1  0.74050000  0.12349100  0.21879800  1
  C  C53  1  0.71123000  0.24336000  0.42700000  1
  C  C54  1  0.33279000  0.03120200  0.12650900  1
  C  C55  1  0.71664100  0.42272000  0.73316800  1
  C  C56  1  0.53335900  0.82728000  0.51683200  1
  C  C57  1  0.91721000  0.21879800  0.12349100  1
  C  C58  1  0.53877000  0.00664000  0.82300000  1
  C  C59  1  0.50950000  0.12650900  0.03120200  1
  C  C60  1  0.33172500  0.00918800  0.41436000  1
  C  C61  1  0.73316800  0.12747100  0.71664100  1
  C  C62  1  0.51638000  0.73964200  0.82383400  1
  C  C63  1  0.21879800  0.91721000  0.74050000  1
  C  C64  1  0.82383400  0.92014300  0.51638000  1
  C  C65  1  0.03147700  0.00932300  0.34063100  1
  C  C66  1  0.00527300  0.83564000  0.24081200  1
  C  C67  1  0.63159000  0.82300000  0.00664000  1
  C  C68  1  0.82300000  0.63159000  0.53877000  1
  C  C69  1  0.24081200  0.91827500  0.00527300  1
  C  C70  1  0.63143000  0.90936900  0.24067700  1
  C  C71  1  0.83564000  0.00527300  0.91827500  1
  C  C72  1  0.00932300  0.03147700  0.61857000  1
  C  C73  1  0.92014300  0.82383400  0.73964200  1
  C  C74  1  0.12747100  0.73316800  0.42272000  1
  C  C75  1  0.42272000  0.71664100  0.12747100  1
  C  C76  1  0.24336000  0.71123000  0.61841000  1
  C  C77  1  0.90936900  0.63143000  0.21852300  1
  C  C78  1  0.12349100  0.74050000  0.91721000  1
  C  C79  1  0.51035800  0.73362000  0.32985700  1
