# generated using pymatgen
data_Cu3Ni2C31
_symmetry_space_group_name_H-M   'P 1'
_cell_length_a   8.57698881
_cell_length_b   8.57698881
_cell_length_c   8.57698845
_cell_angle_alpha   60.85680117
_cell_angle_beta   60.85680117
_cell_angle_gamma   60.85679569
_symmetry_Int_Tables_number   1
_chemical_formula_structural   Cu3Ni2C31
_chemical_formula_sum   'Cu3 Ni2 C31'
_cell_volume   454.77771228
_cell_formula_units_Z   1
loop_
 _symmetry_equiv_pos_site_id
 _symmetry_equiv_pos_as_xyz
  1  'x, y, z'
loop_
 _atom_site_type_symbol
 _atom_site_label
 _atom_site_symmetry_multiplicity
 _atom_site_fract_x
 _atom_site_fract_y
 _atom_site_fract_z
 _atom_site_occupancy
  Ni  Ni0  1  0.99669800  0.99669800  0.99669800  1
  Ni  Ni1  1  0.50102300  0.50102300  0.50102300  1
  Cu  Cu2  1  0.64666700  0.64666700  0.64666700  1
  Cu  Cu3  1  0.85289500  0.85289500  0.85289500  1
  Cu  Cu4  1  0.35446200  0.35446200  0.35446200  1
  C  C5  1  0.14507600  0.14507600  0.14507600  1
  C  C6  1  0.55070300  0.95073000  0.25250500  1
  C  C7  1  0.25250500  0.55070300  0.95073000  1
  C  C8  1  0.95073000  0.25250500  0.55070300  1
  C  C9  1  0.04700900  0.74601000  0.45736600  1
  C  C10  1  0.74601000  0.45736600  0.04700900  1
  C  C11  1  0.45736600  0.04700900  0.74601000  1
  C  C12  1  0.31749700  0.50302700  0.10996700  1
  C  C13  1  0.10996700  0.31749700  0.50302700  1
  C  C14  1  0.50302700  0.10996700  0.31749700  1
  C  C15  1  0.74595900  0.93723000  0.09209100  1
  C  C16  1  0.39698000  0.98407100  0.18419600  1
  C  C17  1  0.56528800  0.75343000  0.40952300  1
  C  C18  1  0.09209100  0.74595900  0.93723000  1
  C  C19  1  0.40952300  0.56528800  0.75343000  1
  C  C20  1  0.00522300  0.81887100  0.60868500  1
  C  C21  1  0.75343000  0.40952300  0.56528800  1
  C  C22  1  0.05980000  0.90666500  0.25579700  1
  C  C23  1  0.81887100  0.60868500  0.00522300  1
  C  C24  1  0.18419600  0.39698000  0.98407100  1
  C  C25  1  0.93723000  0.09209100  0.74595900  1
  C  C26  1  0.24553000  0.59076300  0.44017500  1
  C  C27  1  0.98407100  0.18419600  0.39698000  1
  C  C28  1  0.59076300  0.44017500  0.24553000  1
  C  C29  1  0.90666500  0.25579700  0.05980000  1
  C  C30  1  0.44017500  0.24553000  0.59076300  1
  C  C31  1  0.60868500  0.00522300  0.81887100  1
  C  C32  1  0.25579700  0.05980000  0.90666500  1
  C  C33  1  0.49593000  0.89172100  0.68043900  1
  C  C34  1  0.89172100  0.68043900  0.49593000  1
  C  C35  1  0.68043900  0.49593000  0.89172100  1
