# generated using pymatgen
data_Cu24Ni6C17
_symmetry_space_group_name_H-M   'P 1'
_cell_length_a   7.50170500
_cell_length_b   7.50170500
_cell_length_c   10.73655879
_cell_angle_alpha   74.21144249
_cell_angle_beta   74.21144249
_cell_angle_gamma   80.28099301
_symmetry_Int_Tables_number   1
_chemical_formula_structural   Cu24Ni6C17
_chemical_formula_sum   'Cu24 Ni6 C17'
_cell_volume   556.53667954
_cell_formula_units_Z   1
loop_
 _symmetry_equiv_pos_site_id
 _symmetry_equiv_pos_as_xyz
  1  'x, y, z'
loop_
 _atom_site_type_symbol
 _atom_site_label
 _atom_site_symmetry_multiplicity
 _atom_site_fract_x
 _atom_site_fract_y
 _atom_site_fract_z
 _atom_site_occupancy
  C  C0  1  0.71297400  0.49774800  0.67309200  1
  C  C1  1  0.94836800  0.17019900  0.82226500  1
  C  C2  1  0.82980100  0.05163200  0.17773500  1
  C  C3  1  0.78231400  0.88897200  0.50027400  1
  C  C4  1  0.50225200  0.28702600  0.32690800  1
  C  C5  1  0.55392900  0.44607100  0.00000000  1
  C  C6  1  0.38785400  0.17142300  0.67264200  1
  C  C7  1  0.82857600  0.61214600  0.32735800  1
  C  C8  1  0.16332600  0.38566000  0.17541100  1
  C  C9  1  0.11102800  0.21768600  0.49972600  1
  C  C10  1  0.88419900  0.77936000  0.00104600  1
  C  C11  1  0.22064000  0.11580100  0.99895400  1
  C  C12  1  0.61434000  0.83667400  0.82458900  1
  C  C13  1  0.05428300  0.82378700  0.68241900  1
  C  C14  1  0.49180400  0.71318500  0.19287600  1
  C  C15  1  0.17621300  0.94571700  0.31758100  1
  C  C16  1  0.28681500  0.50819600  0.80712400  1
  Ni  Ni17  1  0.98080800  0.01919200  0.00000000  1
  Ni  Ni18  1  0.34992200  0.29078300  0.49981700  1
  Ni  Ni19  1  0.31533800  0.35513100  0.99912000  1
  Ni  Ni20  1  0.70921700  0.65007800  0.50018300  1
  Ni  Ni21  1  0.02014300  0.97985700  0.50000000  1
  Ni  Ni22  1  0.64486900  0.68466200  0.00088000  1
  Cu  Cu23  1  0.91924900  0.32406500  0.63197900  1
  Cu  Cu24  1  0.63972500  0.49374100  0.29960100  1
  Cu  Cu25  1  0.50625900  0.36027500  0.70039900  1
  Cu  Cu26  1  0.95550300  0.83882200  0.31240600  1
  Cu  Cu27  1  0.67593500  0.08075100  0.36802100  1
  Cu  Cu28  1  0.65533600  0.25029600  0.12961900  1
  Cu  Cu29  1  0.74970400  0.34466400  0.87038100  1
  Cu  Cu30  1  0.58748100  0.99258600  0.63118800  1
  Cu  Cu31  1  0.83049700  0.71383300  0.68770800  1
  Cu  Cu32  1  0.28616700  0.16950300  0.31229200  1
  Cu  Cu33  1  0.70794900  0.83251000  0.18781000  1
  Cu  Cu34  1  0.82669700  0.95982400  0.81880600  1
  Cu  Cu35  1  0.00741400  0.41251900  0.36881200  1
  Cu  Cu36  1  0.16117800  0.04449700  0.68759400  1
  Cu  Cu37  1  0.99491200  0.59120600  0.13041200  1
  Cu  Cu38  1  0.40879400  0.00508800  0.86958800  1
  Cu  Cu39  1  0.16749000  0.29205100  0.81219000  1
  Cu  Cu40  1  0.34004000  0.75304300  0.35930600  1
  Cu  Cu41  1  0.24695700  0.65996000  0.64069400  1
  Cu  Cu42  1  0.32465000  0.92442500  0.12793900  1
  Cu  Cu43  1  0.04017600  0.17330300  0.18119400  1
  Cu  Cu44  1  0.50131400  0.62363700  0.81284100  1
  Cu  Cu45  1  0.37636300  0.49868600  0.18715900  1
  Cu  Cu46  1  0.07557500  0.67535000  0.87206100  1
