# generated using pymatgen
data_Cu13Ni6C7
_symmetry_space_group_name_H-M   'P 1'
_cell_length_a   7.65393552
_cell_length_b   7.65393552
_cell_length_c   12.29190347
_cell_angle_alpha   87.48966146
_cell_angle_beta   87.48966146
_cell_angle_gamma   116.96806293
_symmetry_Int_Tables_number   1
_chemical_formula_structural   Cu13Ni6C7
_chemical_formula_sum   'Cu26 Ni12 C14'
_cell_volume   639.53305392
_cell_formula_units_Z   2
loop_
 _symmetry_equiv_pos_site_id
 _symmetry_equiv_pos_as_xyz
  1  'x, y, z'
loop_
 _atom_site_type_symbol
 _atom_site_label
 _atom_site_symmetry_multiplicity
 _atom_site_fract_x
 _atom_site_fract_y
 _atom_site_fract_z
 _atom_site_occupancy
  C  C0  1  0.72240800  0.97199000  0.38067300  1
  C  C1  1  0.02801000  0.27759200  0.11932700  1
  C  C2  1  0.27759200  0.02801000  0.61932700  1
  C  C3  1  0.97199000  0.72240800  0.88067300  1
  C  C4  1  0.34404200  0.16986900  0.30637500  1
  C  C5  1  0.83013100  0.65595800  0.19362500  1
  C  C6  1  0.65595800  0.83013100  0.69362500  1
  C  C7  1  0.16986900  0.34404200  0.80637500  1
  C  C8  1  0.46751700  0.56326500  0.31234100  1
  C  C9  1  0.43673500  0.53248300  0.18765900  1
  C  C10  1  0.53248300  0.43673500  0.68765900  1
  C  C11  1  0.56326500  0.46751700  0.81234100  1
  C  C12  1  0.00000000  0.50000000  0.50000000  1
  C  C13  1  0.50000000  0.00000000  0.00000000  1
  Ni  Ni14  1  0.01216000  0.75881600  0.43231400  1
  Ni  Ni15  1  0.24118400  0.98784000  0.06768600  1
  Ni  Ni16  1  0.98784000  0.24118400  0.56768600  1
  Ni  Ni17  1  0.75881600  0.01216000  0.93231400  1
  Ni  Ni18  1  0.69750500  0.34751200  0.48473200  1
  Ni  Ni19  1  0.65248800  0.30249500  0.01526800  1
  Ni  Ni20  1  0.30249500  0.65248800  0.51526800  1
  Ni  Ni21  1  0.34751200  0.69750500  0.98473200  1
  Ni  Ni22  1  0.04266900  0.42370700  0.34387900  1
  Ni  Ni23  1  0.57629300  0.95733100  0.15612100  1
  Ni  Ni24  1  0.95733100  0.57629300  0.65612100  1
  Ni  Ni25  1  0.42370700  0.04266900  0.84387900  1
  Cu  Cu26  1  0.15657600  0.92317600  0.44406300  1
  Cu  Cu27  1  0.07682400  0.84342400  0.05593700  1
  Cu  Cu28  1  0.84342400  0.07682400  0.55593700  1
  Cu  Cu29  1  0.92317600  0.15657600  0.94406300  1
  Cu  Cu30  1  0.87810600  0.75736900  0.37553600  1
  Cu  Cu31  1  0.24263100  0.12189400  0.12446400  1
  Cu  Cu32  1  0.12189400  0.24263100  0.62446400  1
  Cu  Cu33  1  0.75736900  0.87810600  0.87553600  1
  Cu  Cu34  1  0.63461900  0.24622300  0.40340300  1
  Cu  Cu35  1  0.75377700  0.36538100  0.09659700  1
  Cu  Cu36  1  0.36538100  0.75377700  0.59659700  1
  Cu  Cu37  1  0.24622300  0.63461900  0.90340300  1
  Cu  Cu38  1  0.57059800  0.34402300  0.55466000  1
  Cu  Cu39  1  0.65597700  0.42940200  0.94534000  1
  Cu  Cu40  1  0.42940200  0.65597700  0.44534000  1
  Cu  Cu41  1  0.34402300  0.57059800  0.05466000  1
  Cu  Cu42  1  0.05724600  0.52973100  0.25950300  1
  Cu  Cu43  1  0.47026900  0.94275400  0.24049700  1
  Cu  Cu44  1  0.94275400  0.47026900  0.74049700  1
  Cu  Cu45  1  0.52973100  0.05724600  0.75950300  1
  Cu  Cu46  1  0.04991800  0.26343300  0.32943100  1
  Cu  Cu47  1  0.73656700  0.95008200  0.17056900  1
  Cu  Cu48  1  0.95008200  0.73656700  0.67056900  1
  Cu  Cu49  1  0.26343300  0.04991800  0.82943100  1
  Cu  Cu50  1  0.49747600  0.50252400  0.25000000  1
  Cu  Cu51  1  0.50252400  0.49747600  0.75000000  1
