# generated using pymatgen
data_Cu2Ni3C4
_symmetry_space_group_name_H-M   'P 1'
_cell_length_a   7.29378711
_cell_length_b   7.29378711
_cell_length_c   7.29378756
_cell_angle_alpha   35.70731465
_cell_angle_beta   35.70731465
_cell_angle_gamma   35.70731266
_symmetry_Int_Tables_number   1
_chemical_formula_structural   Cu2Ni3C4
_chemical_formula_sum   'Cu2 Ni3 C4'
_cell_volume   118.16250141
_cell_formula_units_Z   1
loop_
 _symmetry_equiv_pos_site_id
 _symmetry_equiv_pos_as_xyz
  1  'x, y, z'
loop_
 _atom_site_type_symbol
 _atom_site_label
 _atom_site_symmetry_multiplicity
 _atom_site_fract_x
 _atom_site_fract_y
 _atom_site_fract_z
 _atom_site_occupancy
  C  C0  1  0.00000000  0.00000000  0.00000000  1
  C  C1  1  0.80555600  0.80555600  0.80555600  1
  C  C2  1  0.19444400  0.19444400  0.19444400  1
  C  C3  1  0.50000000  0.50000000  0.50000000  1
  Ni  Ni4  1  0.19125200  0.80874800  0.50000000  1
  Ni  Ni5  1  0.50000000  0.19125200  0.80874800  1
  Ni  Ni6  1  0.80874800  0.50000000  0.19125200  1
  Cu  Cu7  1  0.72993800  0.72993800  0.72993800  1
  Cu  Cu8  1  0.27006200  0.27006200  0.27006200  1
