# generated using pymatgen
data_Cu2NiC6
_symmetry_space_group_name_H-M   'P 1'
_cell_length_a   7.52995837
_cell_length_b   7.52995837
_cell_length_c   10.22722395
_cell_angle_alpha   71.73208780
_cell_angle_beta   71.73208780
_cell_angle_gamma   92.28294973
_symmetry_Int_Tables_number   1
_chemical_formula_structural   Cu2NiC6
_chemical_formula_sum   'Cu8 Ni4 C24'
_cell_volume   516.74025034
_cell_formula_units_Z   4
loop_
 _symmetry_equiv_pos_site_id
 _symmetry_equiv_pos_as_xyz
  1  'x, y, z'
loop_
 _atom_site_type_symbol
 _atom_site_label
 _atom_site_symmetry_multiplicity
 _atom_site_fract_x
 _atom_site_fract_y
 _atom_site_fract_z
 _atom_site_occupancy
  C  C0  1  0.95553700  0.66452700  0.15685400  1
  C  C1  1  0.66452700  0.95553700  0.65685400  1
  C  C2  1  0.33547300  0.04446300  0.34314600  1
  C  C3  1  0.04446300  0.33547300  0.84314600  1
  Ni  Ni4  1  0.85419400  0.14580600  0.25000000  1
  Ni  Ni5  1  0.42073600  0.57926400  0.25000000  1
  Ni  Ni6  1  0.57926400  0.42073600  0.75000000  1
  Ni  Ni7  1  0.14580600  0.85419400  0.75000000  1
  Cu  Cu8  1  0.76516300  0.77322100  0.40989700  1
  Cu  Cu9  1  0.75132400  0.40387100  0.47049100  1
  Cu  Cu10  1  0.77322100  0.76516300  0.90989700  1
  Cu  Cu11  1  0.40387100  0.75132400  0.97049100  1
  Cu  Cu12  1  0.59612900  0.24867600  0.02950900  1
  Cu  Cu13  1  0.22677900  0.23483700  0.09010300  1
  Cu  Cu14  1  0.24867600  0.59612900  0.52950900  1
  Cu  Cu15  1  0.23483700  0.22677900  0.59010300  1
  C  C16  1  0.71635700  0.89852900  0.48129900  1
  C  C17  1  0.83159500  0.82323700  0.26186700  1
  C  C18  1  0.89852900  0.71635700  0.98129900  1
  C  C19  1  0.80883300  0.40708200  0.33236600  1
  C  C20  1  0.31676700  0.74678400  0.39538400  1
  C  C21  1  0.82323700  0.83159500  0.76186700  1
  C  C22  1  0.57888100  0.74590300  0.00004500  1
  C  C23  1  0.25409700  0.42111900  0.49995500  1
  C  C24  1  0.40708200  0.80883300  0.83236600  1
  C  C25  1  0.74678400  0.31676700  0.89538400  1
  C  C26  1  0.25321600  0.68323300  0.10461600  1
  C  C27  1  0.59291800  0.19116700  0.16763400  1
  C  C28  1  0.74590300  0.57888100  0.50004500  1
  C  C29  1  0.42111900  0.25409700  0.99995500  1
  C  C30  1  0.17676300  0.16840500  0.23813300  1
  C  C31  1  0.68323300  0.25321600  0.60461600  1
  C  C32  1  0.19116700  0.59291800  0.66763400  1
  C  C33  1  0.10147100  0.28364300  0.01870100  1
  C  C34  1  0.16840500  0.17676300  0.73813300  1
  C  C35  1  0.28364300  0.10147100  0.51870100  1
