# generated using pymatgen
data_Cu2NiC8
_symmetry_space_group_name_H-M   'P 1'
_cell_length_a   5.07241722
_cell_length_b   5.07241722
_cell_length_c   10.14641000
_cell_angle_alpha   90.00000000
_cell_angle_beta   90.00000000
_cell_angle_gamma   119.62509264
_symmetry_Int_Tables_number   1
_chemical_formula_structural   Cu2NiC8
_chemical_formula_sum   'Cu4 Ni2 C16'
_cell_volume   226.93490180
_cell_formula_units_Z   2
loop_
 _symmetry_equiv_pos_site_id
 _symmetry_equiv_pos_as_xyz
  1  'x, y, z'
loop_
 _atom_site_type_symbol
 _atom_site_label
 _atom_site_symmetry_multiplicity
 _atom_site_fract_x
 _atom_site_fract_y
 _atom_site_fract_z
 _atom_site_occupancy
  C  C0  1  0.65389100  0.15389100  0.75000000  1
  C  C1  1  0.84610900  0.34610900  0.25000000  1
  C  C2  1  0.15389100  0.65389100  0.75000000  1
  C  C3  1  0.34610900  0.84610900  0.25000000  1
  Ni  Ni4  1  0.00000000  0.00000000  0.00000000  1
  Ni  Ni5  1  0.50000000  0.50000000  0.50000000  1
  Cu  Cu6  1  0.83633700  0.16366300  0.50000000  1
  Cu  Cu7  1  0.66366300  0.33633700  0.00000000  1
  Cu  Cu8  1  0.33633700  0.66366300  0.00000000  1
  Cu  Cu9  1  0.16366300  0.83633700  0.50000000  1
  C  C10  1  0.67482100  0.00532800  0.10557700  1
  C  C11  1  0.32517900  0.99467200  0.89442300  1
  C  C12  1  0.50532800  0.17482100  0.39442300  1
  C  C13  1  0.82517900  0.49467200  0.60557700  1
  C  C14  1  0.18190000  0.18190000  0.59990800  1
  C  C15  1  0.31810000  0.31810000  0.09990800  1
  C  C16  1  0.68190000  0.68190000  0.90009200  1
  C  C17  1  0.99467200  0.32517900  0.89442300  1
  C  C18  1  0.81810000  0.81810000  0.40009200  1
  C  C19  1  0.17482100  0.50532800  0.39442300  1
  C  C20  1  0.49467200  0.82517900  0.60557700  1
  C  C21  1  0.00532800  0.67482100  0.10557700  1
