# generated using pymatgen
data_Cu22Ni4C5
_symmetry_space_group_name_H-M   'P 1'
_cell_length_a   10.25944100
_cell_length_b   10.26930232
_cell_length_c   12.70776600
_cell_angle_alpha   113.62792010
_cell_angle_beta   113.78517710
_cell_angle_gamma   90.14375705
_symmetry_Int_Tables_number   1
_chemical_formula_structural   Cu22Ni4C5
_chemical_formula_sum   'Cu44 Ni8 C10'
_cell_volume   1100.70545680
_cell_formula_units_Z   2
loop_
 _symmetry_equiv_pos_site_id
 _symmetry_equiv_pos_as_xyz
  1  'x, y, z'
loop_
 _atom_site_type_symbol
 _atom_site_label
 _atom_site_symmetry_multiplicity
 _atom_site_fract_x
 _atom_site_fract_y
 _atom_site_fract_z
 _atom_site_occupancy
  C  C0  1  0.36059200  0.11377800  0.30881600  1
  C  C1  1  0.38802000  0.55310100  0.19372800  1
  C  C2  1  0.87487200  0.62482300  0.74874700  1
  C  C3  1  0.05423000  0.30676300  0.69368800  1
  C  C4  1  0.80556100  0.14104300  0.19380900  1
  C  C5  1  0.19443900  0.85895700  0.80619100  1
  C  C6  1  0.94577000  0.69323700  0.30631200  1
  C  C7  1  0.12512800  0.37517700  0.25125300  1
  C  C8  1  0.61198000  0.44689900  0.80627200  1
  C  C9  1  0.63940800  0.88622200  0.69118400  1
  Ni  Ni10  1  0.29678500  0.44287600  0.24527000  1
  Ni  Ni11  1  0.79997800  0.79436800  0.74179700  1
  Ni  Ni12  1  0.94504600  0.45008200  0.74506700  1
  Ni  Ni13  1  0.05177100  0.69868600  0.75402000  1
  Ni  Ni14  1  0.94822900  0.30131400  0.24598000  1
  Ni  Ni15  1  0.05495400  0.54991800  0.25493300  1
  Ni  Ni16  1  0.20002200  0.20563200  0.25820300  1
  Ni  Ni17  1  0.70321500  0.55712400  0.75473000  1
  Cu  Cu18  1  0.24760900  0.92800200  0.18867500  1
  Cu  Cu19  1  0.20180000  0.55225400  0.07566200  1
  Cu  Cu20  1  0.37436200  0.72402000  0.31898000  1
  Cu  Cu21  1  0.47646400  0.29963600  0.42882500  1
  Cu  Cu22  1  0.40689800  0.12895300  0.18392100  1
  Cu  Cu23  1  0.52678700  0.03492200  0.36136200  1
  Cu  Cu24  1  0.39682300  0.38185500  0.06717300  1
  Cu  Cu25  1  0.47063900  0.66603200  0.14266200  1
  Cu  Cu26  1  0.68578000  0.90048900  0.56701500  1
  Cu  Cu27  1  0.57332300  0.55641500  0.31250900  1
  Cu  Cu28  1  0.96499500  0.71785200  0.92957900  1
  Cu  Cu29  1  0.78196400  0.53303700  0.56781400  1
  Cu  Cu30  1  0.73731000  0.25270000  0.31226600  1
  Cu  Cu31  1  0.88341300  0.16978400  0.56680800  1
  Cu  Cu32  1  0.67399400  0.97454000  0.14041900  1
  Cu  Cu33  1  0.66934300  0.18918700  0.06955300  1
  Cu  Cu34  1  0.05588100  0.23916100  0.81169000  1
  Cu  Cu35  1  0.83727200  0.82794400  0.36178100  1
  Cu  Cu36  1  0.12929900  0.97347500  0.92513000  1
  Cu  Cu37  1  0.77310000  0.55912800  0.18054200  1
  Cu  Cu38  1  0.05798200  0.90786700  0.68139100  1
  Cu  Cu39  1  0.94843200  0.62190000  0.42130700  1
  Cu  Cu40  1  0.05156800  0.37810000  0.57869300  1
  Cu  Cu41  1  0.94201800  0.09213300  0.31860900  1
  Cu  Cu42  1  0.22690000  0.44087200  0.81945800  1
  Cu  Cu43  1  0.87070100  0.02652500  0.07487000  1
  Cu  Cu44  1  0.16272800  0.17205600  0.63821900  1
  Cu  Cu45  1  0.94411900  0.76083900  0.18831000  1
  Cu  Cu46  1  0.33065700  0.81081300  0.93044700  1
  Cu  Cu47  1  0.32600600  0.02546000  0.85958100  1
  Cu  Cu48  1  0.11658700  0.83021600  0.43319200  1
  Cu  Cu49  1  0.26269000  0.74730000  0.68773400  1
  Cu  Cu50  1  0.21803600  0.46696300  0.43218600  1
  Cu  Cu51  1  0.03500500  0.28214800  0.07042100  1
  Cu  Cu52  1  0.42667700  0.44358500  0.68749100  1
  Cu  Cu53  1  0.31422000  0.09951100  0.43298500  1
  Cu  Cu54  1  0.52936100  0.33396800  0.85733800  1
  Cu  Cu55  1  0.60317700  0.61814500  0.93282700  1
  Cu  Cu56  1  0.47321300  0.96507800  0.63863800  1
  Cu  Cu57  1  0.59310200  0.87104700  0.81607900  1
  Cu  Cu58  1  0.52353600  0.70036400  0.57117500  1
  Cu  Cu59  1  0.62563800  0.27598000  0.68102000  1
  Cu  Cu60  1  0.79820000  0.44774600  0.92433800  1
  Cu  Cu61  1  0.75239100  0.07199800  0.81132500  1
