# generated using pymatgen
data_Cu(NiC4)3
_symmetry_space_group_name_H-M   'P 1'
_cell_length_a   5.17703722
_cell_length_b   5.98331107
_cell_length_c   10.78264825
_cell_angle_alpha   106.02238287
_cell_angle_beta   85.40813637
_cell_angle_gamma   73.14908961
_symmetry_Int_Tables_number   1
_chemical_formula_structural   Cu(NiC4)3
_chemical_formula_sum   'Cu2 Ni6 C24'
_cell_volume   302.55532231
_cell_formula_units_Z   2
loop_
 _symmetry_equiv_pos_site_id
 _symmetry_equiv_pos_as_xyz
  1  'x, y, z'
loop_
 _atom_site_type_symbol
 _atom_site_label
 _atom_site_symmetry_multiplicity
 _atom_site_fract_x
 _atom_site_fract_y
 _atom_site_fract_z
 _atom_site_occupancy
  C  C0  1  0.00227200  0.12268100  0.74869900  1
  C  C1  1  0.00012900  0.00037000  0.00187100  1
  C  C2  1  0.99832100  0.25278800  0.50089000  1
  C  C3  1  0.00170300  0.37222600  0.24889200  1
  C  C4  1  0.99935600  0.62514800  0.74824200  1
  C  C5  1  0.99780300  0.50205100  0.00155500  1
  C  C6  1  0.00066300  0.74777700  0.50144900  1
  C  C7  1  0.99970900  0.87695900  0.24842000  1
  Ni  Ni8  1  0.49867500  0.06282800  0.87491200  1
  Ni  Ni9  1  0.50029900  0.18677600  0.62474800  1
  Ni  Ni10  1  0.50007900  0.31244900  0.37499600  1
  Ni  Ni11  1  0.50126300  0.56219600  0.87509800  1
  Ni  Ni12  1  0.49970200  0.43825400  0.12526300  1
  Ni  Ni13  1  0.50004700  0.81244900  0.37498600  1
  Cu  Cu14  1  0.50102000  0.68545200  0.62488300  1
  Cu  Cu15  1  0.49908700  0.93953900  0.12513000  1
  C  C16  1  0.27187800  0.09132300  0.30893500  1
  C  C17  1  0.72799400  0.03690800  0.43906300  1
  C  C18  1  0.27065200  0.33857500  0.81006200  1
  C  C19  1  0.72935700  0.28629600  0.93997500  1
  C  C20  1  0.72714700  0.16183000  0.18681700  1
  C  C21  1  0.27031400  0.21022000  0.06063900  1
  C  C22  1  0.27291200  0.46312600  0.56318400  1
  C  C23  1  0.72954300  0.41500000  0.68946900  1
  C  C24  1  0.27208900  0.58801300  0.31093500  1
  C  C25  1  0.72812700  0.53363000  0.44105000  1
  C  C26  1  0.27411300  0.83662000  0.80955700  1
  C  C27  1  0.72571600  0.78852900  0.94040900  1
  C  C28  1  0.27325200  0.71387600  0.06243200  1
  C  C29  1  0.27262500  0.95565500  0.55919500  1
  C  C30  1  0.72740400  0.66929100  0.19073800  1
  C  C31  1  0.72674500  0.91116100  0.68750800  1
