# generated using pymatgen
data_Cu2Ni3C31
_symmetry_space_group_name_H-M   'P 1'
_cell_length_a   8.53986256
_cell_length_b   8.53986256
_cell_length_c   8.53986293
_cell_angle_alpha   61.02899166
_cell_angle_beta   61.02899166
_cell_angle_gamma   61.02898623
_symmetry_Int_Tables_number   1
_chemical_formula_structural   Cu2Ni3C31
_chemical_formula_sum   'Cu2 Ni3 C31'
_cell_volume   450.59552027
_cell_formula_units_Z   1
loop_
 _symmetry_equiv_pos_site_id
 _symmetry_equiv_pos_as_xyz
  1  'x, y, z'
loop_
 _atom_site_type_symbol
 _atom_site_label
 _atom_site_symmetry_multiplicity
 _atom_site_fract_x
 _atom_site_fract_y
 _atom_site_fract_z
 _atom_site_occupancy
  Ni  Ni0  1  0.85525400  0.85525400  0.85525400  1
  Ni  Ni1  1  0.64425300  0.64425300  0.64425300  1
  Ni  Ni2  1  0.35736700  0.35736700  0.35736700  1
  Cu  Cu3  1  0.99476300  0.99476300  0.99476300  1
  Cu  Cu4  1  0.50066900  0.50066900  0.50066900  1
  C  C5  1  0.14284400  0.14284400  0.14284400  1
  C  C6  1  0.95220000  0.25241100  0.54874000  1
  C  C7  1  0.54874000  0.95220000  0.25241100  1
  C  C8  1  0.25241100  0.54874000  0.95220000  1
  C  C9  1  0.74608100  0.45729800  0.04896900  1
  C  C10  1  0.45729800  0.04896900  0.74608100  1
  C  C11  1  0.04896900  0.74608100  0.45729800  1
  C  C12  1  0.89525600  0.68634300  0.48467000  1
  C  C13  1  0.68634300  0.48467000  0.89525600  1
  C  C14  1  0.94125900  0.08867400  0.74211200  1
  C  C15  1  0.48467000  0.89525600  0.68634300  1
  C  C16  1  0.99278100  0.18162500  0.38917700  1
  C  C17  1  0.75589600  0.40627500  0.55702900  1
  C  C18  1  0.74211200  0.94125900  0.08867400  1
  C  C19  1  0.55702900  0.75589600  0.40627500  1
  C  C20  1  0.81512000  0.60910600  0.01341700  1
  C  C21  1  0.40627500  0.55702900  0.75589600  1
  C  C22  1  0.91293300  0.25327300  0.06306400  1
  C  C23  1  0.60910600  0.01341700  0.81512000  1
  C  C24  1  0.38917700  0.99278100  0.18162500  1
  C  C25  1  0.08867400  0.74211200  0.94125900  1
  C  C26  1  0.59416300  0.43497500  0.24916000  1
  C  C27  1  0.18162500  0.38917700  0.99278100  1
  C  C28  1  0.43497500  0.24916000  0.59416300  1
  C  C29  1  0.25327300  0.06306400  0.91293300  1
  C  C30  1  0.24916000  0.59416300  0.43497500  1
  C  C31  1  0.01341700  0.81512000  0.60910600  1
  C  C32  1  0.50721000  0.11014900  0.31547900  1
  C  C33  1  0.06306400  0.91293300  0.25327300  1
  C  C34  1  0.31547900  0.50721000  0.11014900  1
  C  C35  1  0.11014900  0.31547900  0.50721000  1
