# generated using pymatgen
data_CuNi3C2
_symmetry_space_group_name_H-M   'P 1'
_cell_length_a   7.38926654
_cell_length_b   7.38926654
_cell_length_c   6.33003500
_cell_angle_alpha   90.00000000
_cell_angle_beta   90.00000000
_cell_angle_gamma   131.73551322
_symmetry_Int_Tables_number   1
_chemical_formula_structural   CuNi3C2
_chemical_formula_sum   'Cu4 Ni12 C8'
_cell_volume   257.91641668
_cell_formula_units_Z   4
loop_
 _symmetry_equiv_pos_site_id
 _symmetry_equiv_pos_as_xyz
  1  'x, y, z'
loop_
 _atom_site_type_symbol
 _atom_site_label
 _atom_site_symmetry_multiplicity
 _atom_site_fract_x
 _atom_site_fract_y
 _atom_site_fract_z
 _atom_site_occupancy
  C  C0  1  0.76207000  0.76207000  0.00000000  1
  C  C1  1  0.23793000  0.23793000  0.00000000  1
  C  C2  1  0.75735900  0.24264100  0.00000000  1
  C  C3  1  0.50000000  0.50000000  0.50000000  1
  C  C4  1  0.24264100  0.75735900  0.00000000  1
  C  C5  1  0.00000000  0.00000000  0.50000000  1
  C  C6  1  0.00000000  0.50000000  0.50000000  1
  C  C7  1  0.50000000  0.00000000  0.50000000  1
  Ni  Ni8  1  0.90822000  0.09178000  0.00000000  1
  Ni  Ni9  1  0.75109200  0.75109200  0.69462300  1
  Ni  Ni10  1  0.24890800  0.24890800  0.69462300  1
  Ni  Ni11  1  0.50000000  0.00000000  0.80626800  1
  Ni  Ni12  1  0.75109200  0.75109200  0.30537700  1
  Ni  Ni13  1  0.24890800  0.24890800  0.30537700  1
  Ni  Ni14  1  0.00000000  0.50000000  0.80626800  1
  Ni  Ni15  1  0.09178000  0.90822000  0.00000000  1
  Ni  Ni16  1  0.34456300  0.65543700  0.50000000  1
  Ni  Ni17  1  0.65543700  0.34456300  0.50000000  1
  Ni  Ni18  1  0.50000000  0.00000000  0.19373200  1
  Ni  Ni19  1  0.00000000  0.50000000  0.19373200  1
  Cu  Cu20  1  0.40661300  0.59338700  0.00000000  1
  Cu  Cu21  1  0.85884900  0.14115100  0.50000000  1
  Cu  Cu22  1  0.59338700  0.40661300  0.00000000  1
  Cu  Cu23  1  0.14115100  0.85884900  0.50000000  1
