# generated using pymatgen
data_Cu13Ni10
_symmetry_space_group_name_H-M   'P 1'
_cell_length_a   10.72918400
_cell_length_b   10.86115300
_cell_length_c   14.80590200
_cell_angle_alpha   90.00000000
_cell_angle_beta   90.00000000
_cell_angle_gamma   90.00000000
_symmetry_Int_Tables_number   1
_chemical_formula_structural   Cu13Ni10
_chemical_formula_sum   'Cu104 Ni80'
_cell_volume   1725.35114083
_cell_formula_units_Z   8
loop_
 _symmetry_equiv_pos_site_id
 _symmetry_equiv_pos_as_xyz
  1  'x, y, z'
loop_
 _atom_site_type_symbol
 _atom_site_label
 _atom_site_symmetry_multiplicity
 _atom_site_fract_x
 _atom_site_fract_y
 _atom_site_fract_z
 _atom_site_occupancy
  Ni  Ni0  1  0.93198100  0.99125900  0.34355100  1
  Ni  Ni1  1  0.56801900  0.99125900  0.84355100  1
  Ni  Ni2  1  0.77342500  0.98623400  0.31529600  1
  Ni  Ni3  1  0.72657500  0.98623400  0.81529600  1
  Ni  Ni4  1  0.68432500  0.97611900  0.41656200  1
  Ni  Ni5  1  0.81567500  0.97611900  0.91656200  1
  Ni  Ni6  1  0.94784700  0.96665200  0.46267300  1
  Ni  Ni7  1  0.55215300  0.96665200  0.96267300  1
  Ni  Ni8  1  0.70519500  0.94356500  0.00316800  1
  Ni  Ni9  1  0.79480500  0.94356500  0.50316800  1
  Ni  Ni10  1  0.32206400  0.94306300  0.08155900  1
  Ni  Ni11  1  0.17793600  0.94306300  0.58155900  1
  Ni  Ni12  1  0.50031300  0.85292600  0.88315600  1
  Ni  Ni13  1  0.99968700  0.85292600  0.38315600  1
  Ni  Ni14  1  0.89125000  0.85198800  0.29172200  1
  Ni  Ni15  1  0.60875000  0.85198800  0.79172200  1
  Ni  Ni16  1  0.91180800  0.80959700  0.47987000  1
  Ni  Ni17  1  0.58819200  0.80959700  0.97987000  1
  Ni  Ni18  1  0.39570100  0.76730300  0.37400100  1
  Ni  Ni19  1  0.10429900  0.76730300  0.87400100  1
  Ni  Ni20  1  0.89570100  0.73269700  0.37400100  1
  Ni  Ni21  1  0.60429900  0.73269700  0.87400100  1
  Ni  Ni22  1  0.41180800  0.69040300  0.47987000  1
  Ni  Ni23  1  0.08819200  0.69040300  0.97987000  1
  Ni  Ni24  1  0.39125000  0.64801200  0.29172200  1
  Ni  Ni25  1  0.10875000  0.64801200  0.79172200  1
  Ni  Ni26  1  0.00031300  0.64707400  0.88315600  1
  Ni  Ni27  1  0.49968700  0.64707400  0.38315600  1
  Ni  Ni28  1  0.82206400  0.55693700  0.08155900  1
  Ni  Ni29  1  0.67793600  0.55693700  0.58155900  1
  Ni  Ni30  1  0.20519500  0.55643500  0.00316800  1
  Ni  Ni31  1  0.29480500  0.55643500  0.50316800  1
  Ni  Ni32  1  0.44784700  0.53334800  0.46267300  1
  Ni  Ni33  1  0.05215300  0.53334800  0.96267300  1
  Ni  Ni34  1  0.31567500  0.52388100  0.91656200  1
  Ni  Ni35  1  0.18432500  0.52388100  0.41656200  1
  Ni  Ni36  1  0.27342500  0.51376600  0.31529600  1
  Ni  Ni37  1  0.22657500  0.51376600  0.81529600  1
  Ni  Ni38  1  0.43198100  0.50874100  0.34355100  1
  Ni  Ni39  1  0.06801900  0.50874100  0.84355100  1
  Ni  Ni40  1  0.93198100  0.49125900  0.15644900  1
  Ni  Ni41  1  0.56801900  0.49125900  0.65644900  1
  Ni  Ni42  1  0.77342500  0.48623400  0.18470400  1
  Ni  Ni43  1  0.72657500  0.48623400  0.68470400  1
  Ni  Ni44  1  0.68432500  0.47611900  0.08343800  1
  Ni  Ni45  1  0.81567500  0.47611900  0.58343800  1
  Ni  Ni46  1  0.94784700  0.46665200  0.03732700  1
  Ni  Ni47  1  0.55215300  0.46665200  0.53732700  1
  Ni  Ni48  1  0.70519500  0.44356500  0.49683200  1
  Ni  Ni49  1  0.79480500  0.44356500  0.99683200  1
  Ni  Ni50  1  0.32206400  0.44306300  0.41844100  1
  Ni  Ni51  1  0.17793600  0.44306300  0.91844100  1
  Ni  Ni52  1  0.50031300  0.35292600  0.61684400  1
  Ni  Ni53  1  0.99968700  0.35292600  0.11684400  1
  Ni  Ni54  1  0.89125000  0.35198800  0.20827800  1
  Ni  Ni55  1  0.60875000  0.35198800  0.70827800  1
  Ni  Ni56  1  0.91180800  0.30959700  0.02013000  1
  Ni  Ni57  1  0.58819200  0.30959700  0.52013000  1
  Ni  Ni58  1  0.39570100  0.26730300  0.12599900  1
  Ni  Ni59  1  0.10429900  0.26730300  0.62599900  1
  Ni  Ni60  1  0.89570100  0.23269700  0.12599900  1
  Ni  Ni61  1  0.60429900  0.23269700  0.62599900  1
  Ni  Ni62  1  0.41180800  0.19040300  0.02013000  1
  Ni  Ni63  1  0.08819200  0.19040300  0.52013000  1
  Ni  Ni64  1  0.39125000  0.14801200  0.20827800  1
  Ni  Ni65  1  0.10875000  0.14801200  0.70827800  1
  Ni  Ni66  1  0.00031300  0.14707400  0.61684400  1
  Ni  Ni67  1  0.49968700  0.14707400  0.11684400  1
  Ni  Ni68  1  0.82206400  0.05693700  0.41844100  1
  Ni  Ni69  1  0.67793600  0.05693700  0.91844100  1
  Ni  Ni70  1  0.29480500  0.05643500  0.99683200  1
  Ni  Ni71  1  0.20519500  0.05643500  0.49683200  1
  Ni  Ni72  1  0.44784700  0.03334800  0.03732700  1
  Ni  Ni73  1  0.05215300  0.03334800  0.53732700  1
  Ni  Ni74  1  0.31567500  0.02388100  0.58343800  1
  Ni  Ni75  1  0.18432500  0.02388100  0.08343800  1
  Ni  Ni76  1  0.27342500  0.01376600  0.18470400  1
  Ni  Ni77  1  0.22657500  0.01376600  0.68470400  1
  Ni  Ni78  1  0.43198100  0.00874100  0.15644900  1
  Ni  Ni79  1  0.06801900  0.00874100  0.65644900  1
  Cu  Cu80  1  0.08015400  0.98916300  0.07143700  1
  Cu  Cu81  1  0.41984600  0.98916300  0.57143700  1
  Cu  Cu82  1  0.23123400  0.96278500  0.24924600  1
  Cu  Cu83  1  0.26876600  0.96278500  0.74924600  1
  Cu  Cu84  1  0.73550600  0.96181700  0.07970100  1
  Cu  Cu85  1  0.76449400  0.96181700  0.57970100  1
  Cu  Cu86  1  0.49397900  0.94111000  0.20168100  1
  Cu  Cu87  1  0.00602100  0.94111000  0.70168100  1
  Cu  Cu88  1  0.68407700  0.90869600  0.34029100  1
  Cu  Cu89  1  0.81592300  0.90869600  0.84029100  1
  Cu  Cu90  1  0.70054300  0.87800700  0.46990500  1
  Cu  Cu91  1  0.79945700  0.87800700  0.96990500  1
  Cu  Cu92  1  0.41215900  0.87362300  0.35934600  1
  Cu  Cu93  1  0.08784100  0.87362300  0.85934600  1
  Cu  Cu94  1  0.31899800  0.83454500  0.06879300  1
  Cu  Cu95  1  0.18100200  0.83454500  0.56879300  1
  Cu  Cu96  1  0.10841900  0.83327700  0.37317500  1
  Cu  Cu97  1  0.39158100  0.83327700  0.87317500  1
  Cu  Cu98  1  0.91654000  0.82817300  0.21505900  1
  Cu  Cu99  1  0.58346000  0.82817300  0.71505900  1
  Cu  Cu100  1  0.80695000  0.76879300  0.31528700  1
  Cu  Cu101  1  0.69305000  0.76879300  0.81528700  1
  Cu  Cu102  1  0.32097600  0.76034500  0.44615200  1
  Cu  Cu103  1  0.17902400  0.76034500  0.94615200  1
  Cu  Cu104  1  0.94859200  0.75143600  0.54292700  1
  Cu  Cu105  1  0.55140800  0.75143600  0.04292700  1
  Cu  Cu106  1  0.05140800  0.74856400  0.04292700  1
  Cu  Cu107  1  0.44859200  0.74856400  0.54292700  1
  Cu  Cu108  1  0.82097600  0.73965500  0.44615200  1
  Cu  Cu109  1  0.67902400  0.73965500  0.94615200  1
  Cu  Cu110  1  0.30695000  0.73120700  0.31528700  1
  Cu  Cu111  1  0.19305000  0.73120700  0.81528700  1
  Cu  Cu112  1  0.41654000  0.67182700  0.21505900  1
  Cu  Cu113  1  0.08346000  0.67182700  0.71505900  1
  Cu  Cu114  1  0.89158100  0.66672300  0.87317500  1
  Cu  Cu115  1  0.60841900  0.66672300  0.37317500  1
  Cu  Cu116  1  0.81899800  0.66545500  0.06879300  1
  Cu  Cu117  1  0.68100200  0.66545500  0.56879300  1
  Cu  Cu118  1  0.91215900  0.62637700  0.35934600  1
  Cu  Cu119  1  0.58784100  0.62637700  0.85934600  1
  Cu  Cu120  1  0.20054300  0.62199300  0.46990500  1
  Cu  Cu121  1  0.29945700  0.62199300  0.96990500  1
  Cu  Cu122  1  0.31592300  0.59130400  0.84029100  1
  Cu  Cu123  1  0.18407700  0.59130400  0.34029100  1
  Cu  Cu124  1  0.99397900  0.55889000  0.20168100  1
  Cu  Cu125  1  0.50602100  0.55889000  0.70168100  1
  Cu  Cu126  1  0.23550600  0.53818300  0.07970100  1
  Cu  Cu127  1  0.26449400  0.53818300  0.57970100  1
  Cu  Cu128  1  0.73123400  0.53721500  0.24924600  1
  Cu  Cu129  1  0.76876600  0.53721500  0.74924600  1
  Cu  Cu130  1  0.58015400  0.51083700  0.07143700  1
  Cu  Cu131  1  0.91984600  0.51083700  0.57143700  1
  Cu  Cu132  1  0.41984600  0.48916300  0.92856300  1
  Cu  Cu133  1  0.08015400  0.48916300  0.42856300  1
  Cu  Cu134  1  0.23123400  0.46278500  0.25075400  1
  Cu  Cu135  1  0.26876600  0.46278500  0.75075400  1
  Cu  Cu136  1  0.73550600  0.46181700  0.42029900  1
  Cu  Cu137  1  0.76449400  0.46181700  0.92029900  1
  Cu  Cu138  1  0.49397900  0.44111000  0.29831900  1
  Cu  Cu139  1  0.00602100  0.44111000  0.79831900  1
  Cu  Cu140  1  0.68407700  0.40869600  0.15970900  1
  Cu  Cu141  1  0.81592300  0.40869600  0.65970900  1
  Cu  Cu142  1  0.70054300  0.37800700  0.03009500  1
  Cu  Cu143  1  0.79945700  0.37800700  0.53009500  1
  Cu  Cu144  1  0.41215900  0.37362300  0.14065400  1
  Cu  Cu145  1  0.08784100  0.37362300  0.64065400  1
  Cu  Cu146  1  0.31899800  0.33454500  0.43120700  1
  Cu  Cu147  1  0.18100200  0.33454500  0.93120700  1
  Cu  Cu148  1  0.39158100  0.33327700  0.62682500  1
  Cu  Cu149  1  0.10841900  0.33327700  0.12682500  1
  Cu  Cu150  1  0.91654000  0.32817300  0.28494100  1
  Cu  Cu151  1  0.58346000  0.32817300  0.78494100  1
  Cu  Cu152  1  0.80695000  0.26879300  0.18471300  1
  Cu  Cu153  1  0.69305000  0.26879300  0.68471300  1
  Cu  Cu154  1  0.32097600  0.26034500  0.05384800  1
  Cu  Cu155  1  0.17902400  0.26034500  0.55384800  1
  Cu  Cu156  1  0.55140800  0.25143600  0.45707300  1
  Cu  Cu157  1  0.94859200  0.25143600  0.95707300  1
  Cu  Cu158  1  0.44859200  0.24856400  0.95707300  1
  Cu  Cu159  1  0.05140800  0.24856400  0.45707300  1
  Cu  Cu160  1  0.82097600  0.23965500  0.05384800  1
  Cu  Cu161  1  0.67902400  0.23965500  0.55384800  1
  Cu  Cu162  1  0.30695000  0.23120700  0.18471300  1
  Cu  Cu163  1  0.19305000  0.23120700  0.68471300  1
  Cu  Cu164  1  0.41654000  0.17182700  0.28494100  1
  Cu  Cu165  1  0.08346000  0.17182700  0.78494100  1
  Cu  Cu166  1  0.89158100  0.16672300  0.62682500  1
  Cu  Cu167  1  0.60841900  0.16672300  0.12682500  1
  Cu  Cu168  1  0.81899800  0.16545500  0.43120700  1
  Cu  Cu169  1  0.68100200  0.16545500  0.93120700  1
  Cu  Cu170  1  0.91215900  0.12637700  0.14065400  1
  Cu  Cu171  1  0.58784100  0.12637700  0.64065400  1
  Cu  Cu172  1  0.29945700  0.12199300  0.53009500  1
  Cu  Cu173  1  0.20054300  0.12199300  0.03009500  1
  Cu  Cu174  1  0.31592300  0.09130400  0.65970900  1
  Cu  Cu175  1  0.18407700  0.09130400  0.15970900  1
  Cu  Cu176  1  0.99397900  0.05889000  0.29831900  1
  Cu  Cu177  1  0.50602100  0.05889000  0.79831900  1
  Cu  Cu178  1  0.26449400  0.03818300  0.92029900  1
  Cu  Cu179  1  0.23550600  0.03818300  0.42029900  1
  Cu  Cu180  1  0.76876600  0.03721500  0.75075400  1
  Cu  Cu181  1  0.73123400  0.03721500  0.25075400  1
  Cu  Cu182  1  0.91984600  0.01083700  0.92856300  1
  Cu  Cu183  1  0.58015400  0.01083700  0.42856300  1
