# generated using pymatgen
data_Cu(NiC12)3
_symmetry_space_group_name_H-M   'P 1'
_cell_length_a   8.47523900
_cell_length_b   8.49502258
_cell_length_c   8.50369897
_cell_angle_alpha   61.91223306
_cell_angle_beta   62.16295732
_cell_angle_gamma   61.96618955
_symmetry_Int_Tables_number   1
_chemical_formula_structural   Cu(NiC12)3
_chemical_formula_sum   'Cu1 Ni3 C36'
_cell_volume   452.41561599
_cell_formula_units_Z   1
loop_
 _symmetry_equiv_pos_site_id
 _symmetry_equiv_pos_as_xyz
  1  'x, y, z'
loop_
 _atom_site_type_symbol
 _atom_site_label
 _atom_site_symmetry_multiplicity
 _atom_site_fract_x
 _atom_site_fract_y
 _atom_site_fract_z
 _atom_site_occupancy
  C  C0  1  0.01650900  0.00292300  0.98441700  1
  C  C1  1  0.75425300  0.14579500  0.35282900  1
  C  C2  1  0.48396300  0.51189500  0.49559200  1
  C  C3  1  0.21625000  0.85213700  0.66078800  1
  C  C4  1  0.66236000  0.21315800  0.84894300  1
  C  C5  1  0.84831100  0.66365800  0.21329900  1
  Ni  Ni6  1  0.13808200  0.14377000  0.13859900  1
  Ni  Ni7  1  0.36038200  0.36323800  0.35548300  1
  Ni  Ni8  1  0.64181400  0.64474400  0.64508400  1
  Cu  Cu9  1  0.85618500  0.85354600  0.85264200  1
  C  C10  1  0.04980600  0.75008500  0.45204200  1
  C  C11  1  0.44850400  0.05206000  0.75189000  1
  C  C12  1  0.75042200  0.45594300  0.04786900  1
  C  C13  1  0.25230400  0.53877400  0.95983800  1
  C  C14  1  0.54202800  0.96510800  0.25180400  1
  C  C15  1  0.95815400  0.25151600  0.53630900  1
  C  C16  1  0.12482700  0.31275100  0.47927600  1
  C  C17  1  0.33148400  0.48825400  0.11420700  1
  C  C18  1  0.05083200  0.91762500  0.26515400  1
  C  C19  1  0.52219300  0.11854600  0.31741200  1
  C  C20  1  0.24479900  0.59059000  0.41957200  1
  C  C21  1  0.03565900  0.80113500  0.60923300  1
  C  C22  1  0.25713500  0.06801600  0.90945300  1
  C  C23  1  0.43626600  0.24306800  0.58309400  1
  C  C24  1  0.59484700  0.42672500  0.24660300  1
  C  C25  1  0.19568700  0.37939300  0.99021400  1
  C  C26  1  0.08930800  0.72838900  0.95869600  1
  C  C27  1  0.36772500  0.00834000  0.21059900  1
  C  C28  1  0.60897200  0.02832300  0.80612200  1
  C  C29  1  0.90368500  0.25682300  0.06828900  1
  C  C30  1  0.81046100  0.60900300  0.02823600  1
  C  C31  1  0.40257400  0.57375500  0.75950500  1
  C  C32  1  0.57222000  0.76458400  0.40362500  1
  C  C33  1  0.72726500  0.95597800  0.08383800  1
  C  C34  1  0.96707600  0.20123400  0.37955300  1
  C  C35  1  0.76083400  0.40571000  0.57516600  1
  C  C36  1  0.48512900  0.89066600  0.69051600  1
  C  C37  1  0.95716700  0.08584900  0.72487900  1
  C  C38  1  0.68877400  0.49489700  0.88727500  1
  C  C39  1  0.88575800  0.69099000  0.49305600  1
