# generated using pymatgen
data_Cu(NiC4)3
_symmetry_space_group_name_H-M   'P 1'
_cell_length_a   5.11267938
_cell_length_b   5.16807149
_cell_length_c   11.48098923
_cell_angle_alpha   98.91555211
_cell_angle_beta   94.24003492
_cell_angle_gamma   80.55216358
_symmetry_Int_Tables_number   1
_chemical_formula_structural   Cu(NiC4)3
_chemical_formula_sum   'Cu2 Ni6 C24'
_cell_volume   295.26194042
_cell_formula_units_Z   2
loop_
 _symmetry_equiv_pos_site_id
 _symmetry_equiv_pos_as_xyz
  1  'x, y, z'
loop_
 _atom_site_type_symbol
 _atom_site_label
 _atom_site_symmetry_multiplicity
 _atom_site_fract_x
 _atom_site_fract_y
 _atom_site_fract_z
 _atom_site_occupancy
  C  C0  1  0.99985900  0.99993000  0.99999500  1
  C  C1  1  0.99985500  0.49993900  0.49999300  1
  C  C2  1  0.50014700  0.12505900  0.12500800  1
  C  C3  1  0.50014900  0.62505800  0.62500400  1
  C  C4  1  0.00002700  0.25015000  0.24999300  1
  C  C5  1  0.00003000  0.75015100  0.74999500  1
  C  C6  1  0.49998200  0.37485400  0.37500200  1
  C  C7  1  0.49997900  0.87485000  0.87500200  1
  Ni  Ni8  1  0.75005700  0.06250200  0.56252200  1
  Ni  Ni9  1  0.25004200  0.68778400  0.18787200  1
  Ni  Ni10  1  0.24989800  0.43717800  0.93712900  1
  Ni  Ni11  1  0.75001400  0.56248700  0.06250300  1
  Ni  Ni12  1  0.25012200  0.18776800  0.68784400  1
  Ni  Ni13  1  0.24987900  0.93725300  0.43713600  1
  Cu  Cu14  1  0.74998400  0.81250200  0.31250700  1
  Cu  Cu15  1  0.74999300  0.31250900  0.81250600  1
  C  C16  1  0.12221200  0.36450300  0.09076000  1
  C  C17  1  0.12223200  0.86450900  0.59076000  1
  C  C18  1  0.37779100  0.76047300  0.03424000  1
  C  C19  1  0.37779600  0.26048700  0.53423800  1
  C  C20  1  0.62185800  0.49032900  0.21634400  1
  C  C21  1  0.62186700  0.99032600  0.71634000  1
  C  C22  1  0.87814200  0.13468600  0.40867000  1
  C  C23  1  0.87813200  0.63467800  0.90866400  1
  C  C24  1  0.87826800  0.88605600  0.15978900  1
  C  C25  1  0.87829400  0.38605600  0.65978600  1
  C  C26  1  0.62170100  0.73897400  0.46521900  1
  C  C27  1  0.62171400  0.23895500  0.96521500  1
  C  C28  1  0.11919400  0.61437900  0.34081500  1
  C  C29  1  0.11920600  0.11435900  0.84079800  1
  C  C30  1  0.38078100  0.01063500  0.28418200  1
  C  C31  1  0.38080100  0.51061400  0.78416800  1
