# generated using pymatgen
data_Cu3NiC11
_symmetry_space_group_name_H-M   'P 1'
_cell_length_a   5.77462404
_cell_length_b   5.79252020
_cell_length_c   14.32579673
_cell_angle_alpha   89.13323763
_cell_angle_beta   90.93204608
_cell_angle_gamma   121.58554588
_symmetry_Int_Tables_number   1
_chemical_formula_structural   Cu3NiC11
_chemical_formula_sum   'Cu9 Ni3 C33'
_cell_volume   408.13824005
_cell_formula_units_Z   3
loop_
 _symmetry_equiv_pos_site_id
 _symmetry_equiv_pos_as_xyz
  1  'x, y, z'
loop_
 _atom_site_type_symbol
 _atom_site_label
 _atom_site_symmetry_multiplicity
 _atom_site_fract_x
 _atom_site_fract_y
 _atom_site_fract_z
 _atom_site_occupancy
  C  C0  1  0.83322400  0.66656500  0.83332100  1
  C  C1  1  0.33335000  0.16680500  0.83330500  1
  C  C2  1  0.33329800  0.66656600  0.83329800  1
  C  C3  1  0.50017900  0.00062500  0.50030100  1
  C  C4  1  0.50100900  0.49746000  0.49934900  1
  C  C5  1  0.00014000  0.50034100  0.50152200  1
  C  C6  1  0.66642800  0.83283000  0.16518200  1
  C  C7  1  0.16654300  0.33277600  0.16637600  1
  C  C8  1  0.16560700  0.83572500  0.16737000  1
  Ni  Ni9  1  0.66847600  0.33363000  0.67007500  1
  Ni  Ni10  1  0.33336300  0.66664000  0.33335700  1
  Ni  Ni11  1  0.99824500  0.99970100  0.99663800  1
  Cu  Cu12  1  0.66908800  0.83532600  0.66683500  1
  Cu  Cu13  1  0.16584400  0.33167800  0.66673400  1
  Cu  Cu14  1  0.16769200  0.83494600  0.66398900  1
  Cu  Cu15  1  0.83335200  0.16664900  0.33332600  1
  Cu  Cu16  1  0.83334500  0.66660800  0.33334300  1
  Cu  Cu17  1  0.33332700  0.16661000  0.33332400  1
  Cu  Cu18  1  0.50090500  0.00183000  0.99992000  1
  Cu  Cu19  1  0.49904900  0.49849600  0.00269400  1
  Cu  Cu20  1  0.99744100  0.49799600  0.99979900  1
  C  C21  1  0.64206000  0.33370400  0.93221700  1
  C  C22  1  0.66498700  0.80645600  0.92508100  1
  C  C23  1  0.16929500  0.85660700  0.92731000  1
  C  C24  1  0.18463200  0.33007000  0.92828900  1
  C  C25  1  0.00178400  0.52743000  0.74179900  1
  C  C26  1  0.48272100  0.00388300  0.73811600  1
  C  C27  1  0.49536200  0.47598600  0.73923800  1
  C  C28  1  0.02526900  0.00047200  0.73433300  1
  C  C29  1  0.83339100  0.19497900  0.59906400  1
  C  C30  1  0.83527400  0.64680900  0.59599600  1
  C  C31  1  0.31396600  0.66096800  0.59465300  1
  C  C32  1  0.35275300  0.15924700  0.59240000  1
  C  C33  1  0.65116700  0.84412000  0.40687000  1
  C  C34  1  0.65361400  0.33848400  0.40544000  1
  C  C35  1  0.17400400  0.34969400  0.40521500  1
  C  C36  1  0.16400000  0.80993500  0.40369300  1
  C  C37  1  0.01309900  0.99472100  0.26125300  1
  C  C38  1  0.50281500  0.52332100  0.26301900  1
  C  C39  1  0.49269300  0.98353200  0.26142800  1
  C  C40  1  0.01549800  0.48912600  0.25982600  1
  C  C41  1  0.83078400  0.68615800  0.07097900  1
  C  C42  1  0.83495400  0.13912200  0.06760900  1
  C  C43  1  0.31414100  0.17385100  0.07401700  1
  C  C44  1  0.35184000  0.67151600  0.07210100  1
