# generated using pymatgen
data_Cu5(NiC8)2
_symmetry_space_group_name_H-M   'P 1'
_cell_length_a   5.13011689
_cell_length_b   9.07716525
_cell_length_c   9.99241372
_cell_angle_alpha   90.00000064
_cell_angle_beta   101.54424129
_cell_angle_gamma   90.00000621
_symmetry_Int_Tables_number   1
_chemical_formula_structural   Cu5(NiC8)2
_chemical_formula_sum   'Cu10 Ni4 C32'
_cell_volume   455.90279555
_cell_formula_units_Z   2
loop_
 _symmetry_equiv_pos_site_id
 _symmetry_equiv_pos_as_xyz
  1  'x, y, z'
loop_
 _atom_site_type_symbol
 _atom_site_label
 _atom_site_symmetry_multiplicity
 _atom_site_fract_x
 _atom_site_fract_y
 _atom_site_fract_z
 _atom_site_occupancy
  C  C0  1  0.75549000  0.08224600  0.50790600  1
  C  C1  1  0.25710200  0.41242700  0.99743000  1
  C  C2  1  0.50209300  0.41809400  0.74715100  1
  C  C3  1  0.74249100  0.42139300  0.50956400  1
  C  C4  1  0.74451000  0.58224600  0.99209400  1
  C  C5  1  0.99790700  0.91809400  0.75284900  1
  C  C6  1  0.24289800  0.91242700  0.50257000  1
  C  C7  1  0.75750900  0.92139300  0.99043600  1
  Ni  Ni8  1  0.01138200  0.24519000  0.75960100  1
  Ni  Ni9  1  0.49493000  0.24810800  0.25163900  1
  Ni  Ni10  1  0.00507000  0.74810800  0.24836100  1
  Ni  Ni11  1  0.48861800  0.74519000  0.74039900  1
  Cu  Cu12  1  0.00266300  0.08377100  0.24497400  1
  Cu  Cu13  1  0.49565400  0.07781000  0.74851300  1
  Cu  Cu14  1  0.25328100  0.25908200  0.50761800  1
  Cu  Cu15  1  0.75047400  0.24925000  0.00178000  1
  Cu  Cu16  1  0.99928400  0.42475200  0.25603700  1
  Cu  Cu17  1  0.00434600  0.57781000  0.75148700  1
  Cu  Cu18  1  0.49733700  0.58377200  0.25502600  1
  Cu  Cu19  1  0.24671900  0.75908200  0.99238200  1
  Cu  Cu20  1  0.74952600  0.74925000  0.49822000  1
  Cu  Cu21  1  0.50071600  0.92475200  0.24396300  1
  C  C22  1  0.12322300  0.09319400  0.63559600  1
  C  C23  1  0.38337600  0.09379000  0.37182100  1
  C  C24  1  0.37799600  0.24852700  0.86725700  1
  C  C25  1  0.85860200  0.09370100  0.86717000  1
  C  C26  1  0.62306900  0.09840000  0.12682700  1
  C  C27  1  0.12425100  0.25852400  0.13403000  1
  C  C28  1  0.10004600  0.40410500  0.64365100  1
  C  C29  1  0.63727200  0.24024100  0.63867200  1
  C  C30  1  0.86704000  0.24883700  0.36815700  1
  C  C31  1  0.39554700  0.40400100  0.36922700  1
  C  C32  1  0.61088600  0.40954000  0.13050500  1
  C  C33  1  0.88801300  0.40151100  0.87555500  1
  C  C34  1  0.37677700  0.59319400  0.86440400  1
  C  C35  1  0.11662400  0.59379000  0.12817900  1
  C  C36  1  0.12200400  0.74852700  0.63274300  1
  C  C37  1  0.64139800  0.59370100  0.63283000  1
  C  C38  1  0.37574900  0.75852400  0.36597000  1
  C  C39  1  0.87693100  0.59840000  0.37317300  1
  C  C40  1  0.86272800  0.74024100  0.86132800  1
  C  C41  1  0.10445300  0.90400100  0.13077300  1
  C  C42  1  0.39995400  0.90410500  0.85634900  1
  C  C43  1  0.63296000  0.74883700  0.13184300  1
  C  C44  1  0.61198700  0.90151100  0.62444500  1
  C  C45  1  0.88911400  0.90954000  0.36949500  1
