# generated using pymatgen
data_Cu2Ni2C7
_symmetry_space_group_name_H-M   'P 1'
_cell_length_a   9.42562219
_cell_length_b   9.42562219
_cell_length_c   6.62167293
_cell_angle_alpha   77.25688950
_cell_angle_beta   77.25688950
_cell_angle_gamma   96.32134116
_symmetry_Int_Tables_number   1
_chemical_formula_structural   Cu2Ni2C7
_chemical_formula_sum   'Cu8 Ni8 C28'
_cell_volume   551.81365184
_cell_formula_units_Z   4
loop_
 _symmetry_equiv_pos_site_id
 _symmetry_equiv_pos_as_xyz
  1  'x, y, z'
loop_
 _atom_site_type_symbol
 _atom_site_label
 _atom_site_symmetry_multiplicity
 _atom_site_fract_x
 _atom_site_fract_y
 _atom_site_fract_z
 _atom_site_occupancy
  C  C0  1  0.36802100  0.63197900  0.75000000  1
  C  C1  1  0.63197900  0.36802100  0.25000000  1
  C  C2  1  0.90615100  0.54099000  0.83597000  1
  C  C3  1  0.45901000  0.09384900  0.66403000  1
  C  C4  1  0.09384900  0.45901000  0.16403000  1
  C  C5  1  0.54099000  0.90615100  0.33597000  1
  C  C6  1  0.70018700  0.51531100  0.66076100  1
  C  C7  1  0.48468900  0.29981300  0.83923900  1
  C  C8  1  0.29981300  0.48468900  0.33923900  1
  C  C9  1  0.51531100  0.70018700  0.16076100  1
  C  C10  1  0.71193200  0.61966800  0.43904300  1
  C  C11  1  0.38033200  0.28806800  0.06095700  1
  C  C12  1  0.28806800  0.38033200  0.56095700  1
  C  C13  1  0.61966800  0.71193200  0.93904300  1
  C  C14  1  0.90522300  0.48946200  0.63501600  1
  C  C15  1  0.51053800  0.09477700  0.86498400  1
  C  C16  1  0.09477700  0.51053800  0.36498400  1
  C  C17  1  0.48946200  0.90522300  0.13501600  1
  C  C18  1  0.00000000  0.00000000  0.50000000  1
  C  C19  1  0.00000000  0.00000000  0.00000000  1
  Ni  Ni20  1  0.06764000  0.80545200  0.55557200  1
  Ni  Ni21  1  0.19454800  0.93236000  0.94442800  1
  Ni  Ni22  1  0.93236000  0.19454800  0.44442800  1
  Ni  Ni23  1  0.80545200  0.06764000  0.05557200  1
  Ni  Ni24  1  0.09605800  0.21128200  0.91215700  1
  Ni  Ni25  1  0.78871800  0.90394200  0.58784300  1
  Ni  Ni26  1  0.90394200  0.78871800  0.08784300  1
  Ni  Ni27  1  0.21128200  0.09605800  0.41215700  1
  Cu  Cu28  1  0.11217800  0.69362300  0.59350900  1
  Cu  Cu29  1  0.30637700  0.88782200  0.90649100  1
  Cu  Cu30  1  0.88782200  0.30637700  0.40649100  1
  Cu  Cu31  1  0.69362300  0.11217800  0.09350900  1
  Cu  Cu32  1  0.15253300  0.33611100  0.86403700  1
  Cu  Cu33  1  0.66388900  0.84746700  0.63596300  1
  Cu  Cu34  1  0.84746700  0.66388900  0.13596300  1
  Cu  Cu35  1  0.33611100  0.15253300  0.36403700  1
  C  C36  1  0.84525300  0.47537700  0.78088900  1
  C  C37  1  0.52462300  0.15474700  0.71911100  1
  C  C38  1  0.15474700  0.52462300  0.21911100  1
  C  C39  1  0.47537700  0.84525300  0.28088900  1
  C  C40  1  0.64212100  0.54245400  0.55382000  1
  C  C41  1  0.45754600  0.35787900  0.94618000  1
  C  C42  1  0.35787900  0.45754600  0.44618000  1
  C  C43  1  0.54245400  0.64212100  0.05382000  1
