# generated using pymatgen
data_Cu(NiC6)5
_symmetry_space_group_name_H-M   'P 1'
_cell_length_a   8.61114456
_cell_length_b   8.61114456
_cell_length_c   8.61114491
_cell_angle_alpha   59.63398994
_cell_angle_beta   59.63398994
_cell_angle_gamma   59.63399146
_symmetry_Int_Tables_number   1
_chemical_formula_structural   Cu(NiC6)5
_chemical_formula_sum   'Cu1 Ni5 C30'
_cell_volume   447.75497828
_cell_formula_units_Z   1
loop_
 _symmetry_equiv_pos_site_id
 _symmetry_equiv_pos_as_xyz
  1  'x, y, z'
loop_
 _atom_site_type_symbol
 _atom_site_label
 _atom_site_symmetry_multiplicity
 _atom_site_fract_x
 _atom_site_fract_y
 _atom_site_fract_z
 _atom_site_occupancy
  Ni  Ni0  1  0.99964800  0.99964800  0.99964800  1
  Ni  Ni1  1  0.35638900  0.35638900  0.35638900  1
  Ni  Ni2  1  0.50055900  0.50055900  0.50055900  1
  Ni  Ni3  1  0.14358900  0.14358900  0.14358900  1
  Ni  Ni4  1  0.64394800  0.64394800  0.64394800  1
  Cu  Cu5  1  0.85775400  0.85775400  0.85775400  1
  C  C6  1  0.45939400  0.74987600  0.03998900  1
  C  C7  1  0.74987600  0.03998900  0.45939400  1
  C  C8  1  0.03998900  0.45939400  0.74987600  1
  C  C9  1  0.96138200  0.53938700  0.25036900  1
  C  C10  1  0.25036900  0.96138200  0.53938700  1
  C  C11  1  0.53938700  0.25036900  0.96138200  1
  C  C12  1  0.69847000  0.87996300  0.48687500  1
  C  C13  1  0.87996300  0.48687500  0.69847000  1
  C  C14  1  0.48687500  0.69847000  0.87996300  1
  C  C15  1  0.26208500  0.91476600  0.05940500  1
  C  C16  1  0.61789300  0.80313300  0.00998700  1
  C  C17  1  0.44369400  0.57995600  0.23680500  1
  C  C18  1  0.91476600  0.05940500  0.26208500  1
  C  C19  1  0.57995600  0.23680500  0.44369400  1
  C  C20  1  0.98946500  0.37926100  0.19869200  1
  C  C21  1  0.23680500  0.44369400  0.57995600  1
  C  C22  1  0.94437200  0.73486200  0.08530400  1
  C  C23  1  0.19869200  0.98946500  0.37926100  1
  C  C24  1  0.80313300  0.00998700  0.61789300  1
  C  C25  1  0.05940500  0.26208500  0.91476600  1
  C  C26  1  0.76529800  0.55508800  0.41787200  1
  C  C27  1  0.00998700  0.61789300  0.80313300  1
  C  C28  1  0.41787200  0.76529800  0.55508800  1
  C  C29  1  0.08530400  0.94437200  0.73486200  1
  C  C30  1  0.55508800  0.41787200  0.76529800  1
  C  C31  1  0.37926100  0.19869200  0.98946500  1
  C  C32  1  0.73486200  0.08530400  0.94437200  1
  C  C33  1  0.50673600  0.30551300  0.12222100  1
  C  C34  1  0.12222100  0.50673600  0.30551300  1
  C  C35  1  0.30551300  0.12222100  0.50673600  1
