# generated using pymatgen
data_Cu3NiC36
_symmetry_space_group_name_H-M   'P 1'
_cell_length_a   8.83966600
_cell_length_b   8.49177700
_cell_length_c   12.42245186
_cell_angle_alpha   87.82909100
_cell_angle_beta   90.00000000
_cell_angle_gamma   90.00000000
_symmetry_Int_Tables_number   1
_chemical_formula_structural   Cu3NiC36
_chemical_formula_sum   'Cu6 Ni2 C72'
_cell_volume   931.81553079
_cell_formula_units_Z   2
loop_
 _symmetry_equiv_pos_site_id
 _symmetry_equiv_pos_as_xyz
  1  'x, y, z'
loop_
 _atom_site_type_symbol
 _atom_site_label
 _atom_site_symmetry_multiplicity
 _atom_site_fract_x
 _atom_site_fract_y
 _atom_site_fract_z
 _atom_site_occupancy
  C  C0  1  0.99915200  0.00008600  0.74934000  1
  C  C1  1  0.10032600  0.00000000  0.00000000  1
  C  C2  1  0.99915200  0.99991400  0.25066000  1
  C  C3  1  0.89763500  0.00000000  0.50000000  1
  C  C4  1  0.80579600  0.29321200  0.79870700  1
  C  C5  1  0.19780200  0.29081300  0.30038500  1
  C  C6  1  0.50196200  0.50706600  0.74921300  1
  C  C7  1  0.40294600  0.50000000  0.00000000  1
  C  C8  1  0.50196200  0.49293400  0.25078700  1
  C  C9  1  0.60100800  0.50000000  0.50000000  1
  C  C10  1  0.80579600  0.70678800  0.20129300  1
  C  C11  1  0.19780200  0.70918700  0.69961500  1
  Ni  Ni12  1  0.49939500  0.20903500  0.39757500  1
  Ni  Ni13  1  0.49939500  0.79096500  0.60242500  1
  Cu  Cu14  1  0.49953100  0.21246700  0.89396000  1
  Cu  Cu15  1  0.99662500  0.28353600  0.10814600  1
  Cu  Cu16  1  0.00303900  0.28471000  0.60893600  1
  Cu  Cu17  1  0.99662500  0.71646400  0.89185400  1
  Cu  Cu18  1  0.00303900  0.71529000  0.39106400  1
  Cu  Cu19  1  0.49953100  0.78753300  0.10604000  1
  C  C20  1  0.79601400  0.00000000  0.00000000  1
  C  C21  1  0.19820200  0.00000000  0.50000000  1
  C  C22  1  0.35423000  0.15680300  0.14395200  1
  C  C23  1  0.64591700  0.15598400  0.64683100  1
  C  C24  1  0.14728100  0.35029500  0.85369400  1
  C  C25  1  0.85374800  0.35148500  0.35320000  1
  C  C26  1  0.70698800  0.50000000  0.00000000  1
  C  C27  1  0.29326100  0.50000000  0.50000000  1
  C  C28  1  0.14728100  0.64970500  0.14630600  1
  C  C29  1  0.85374800  0.64851500  0.64680000  1
  C  C30  1  0.35423000  0.84319700  0.85604800  1
  C  C31  1  0.64591700  0.84401600  0.35316900  1
  C  C32  1  0.41240500  0.01186300  0.85448700  1
  C  C33  1  0.59015900  0.01437500  0.35441500  1
  C  C34  1  0.90548500  0.06734000  0.08591100  1
  C  C35  1  0.08731100  0.06936600  0.58507300  1
  C  C36  1  0.70176000  0.12709000  0.94014700  1
  C  C37  1  0.28940200  0.12602100  0.43748500  1
  C  C38  1  0.17740000  0.14187500  0.15631000  1
  C  C39  1  0.82280500  0.14506600  0.66214800  1
  C  C40  1  0.40257700  0.24578200  0.03887400  1
  C  C41  1  0.06317200  0.25220400  0.76843700  1
  C  C42  1  0.40560500  0.25871600  0.23794000  1
  C  C43  1  0.60069900  0.25442800  0.54655300  1
  C  C44  1  0.93909400  0.25317600  0.26840400  1
  C  C45  1  0.09508100  0.27489200  0.96258600  1
  C  C46  1  0.59147100  0.24910100  0.74557300  1
  C  C47  1  0.90501200  0.27669600  0.46261100  1
  C  C48  1  0.32206900  0.34599700  0.84056100  1
  C  C49  1  0.67983800  0.35317500  0.34034100  1
  C  C50  1  0.80481000  0.38228900  0.06373900  1
  C  C51  1  0.19617500  0.38190600  0.56397900  1
  C  C52  1  0.59946100  0.42773800  0.91483200  1
  C  C53  1  0.39941800  0.42495700  0.41434600  1
  C  C54  1  0.10768700  0.47312200  0.15829300  1
  C  C55  1  0.89843400  0.47225400  0.65947600  1
  C  C56  1  0.10768700  0.52687800  0.84170700  1
  C  C57  1  0.89843400  0.52774600  0.34052400  1
  C  C58  1  0.59946100  0.57226200  0.08516800  1
  C  C59  1  0.39941800  0.57504300  0.58565400  1
  C  C60  1  0.80481000  0.61771100  0.93626100  1
  C  C61  1  0.19617500  0.61809400  0.43602100  1
  C  C62  1  0.32206900  0.65400300  0.15943900  1
  C  C63  1  0.67983800  0.64682500  0.65965900  1
  C  C64  1  0.09508100  0.72510800  0.03741400  1
  C  C65  1  0.40560500  0.74128400  0.76206000  1
  C  C66  1  0.90501200  0.72330400  0.53738900  1
  C  C67  1  0.06317200  0.74779600  0.23156300  1
  C  C68  1  0.40257700  0.75421800  0.96112600  1
  C  C69  1  0.59147100  0.75089900  0.25442700  1
  C  C70  1  0.93909400  0.74682400  0.73159600  1
  C  C71  1  0.60069900  0.74557200  0.45344700  1
  C  C72  1  0.17740000  0.85812500  0.84369000  1
  C  C73  1  0.82280500  0.85493400  0.33785200  1
  C  C74  1  0.70176000  0.87291000  0.05985300  1
  C  C75  1  0.28940200  0.87397900  0.56251500  1
  C  C76  1  0.90548500  0.93266000  0.91408900  1
  C  C77  1  0.08731100  0.93063400  0.41492700  1
  C  C78  1  0.41240500  0.98813700  0.14551300  1
  C  C79  1  0.59015900  0.98562500  0.64558500  1
