# generated using pymatgen
data_Cu3Ni2C23
_symmetry_space_group_name_H-M   'P 1'
_cell_length_a   6.36100308
_cell_length_b   6.36100308
_cell_length_c   10.00359055
_cell_angle_alpha   88.66048598
_cell_angle_beta   88.66048598
_cell_angle_gamma   59.15687399
_symmetry_Int_Tables_number   1
_chemical_formula_structural   Cu3Ni2C23
_chemical_formula_sum   'Cu3 Ni2 C23'
_cell_volume   347.39856950
_cell_formula_units_Z   1
loop_
 _symmetry_equiv_pos_site_id
 _symmetry_equiv_pos_as_xyz
  1  'x, y, z'
loop_
 _atom_site_type_symbol
 _atom_site_label
 _atom_site_symmetry_multiplicity
 _atom_site_fract_x
 _atom_site_fract_y
 _atom_site_fract_z
 _atom_site_occupancy
  C  C0  1  0.65607400  0.65607400  0.11100100  1
  C  C1  1  0.99409000  0.99409000  0.01690900  1
  C  C2  1  0.99626400  0.99626400  0.49979000  1
  C  C3  1  0.31883900  0.31883900  0.59211800  1
  C  C4  1  0.83161200  0.83161200  0.78633300  1
  C  C5  1  0.17425700  0.66371600  0.28908500  1
  C  C6  1  0.66371600  0.17425700  0.28908500  1
  Ni  Ni7  1  0.67777600  0.67777600  0.49925400  1
  Ni  Ni8  1  0.34496700  0.34496700  0.02116900  1
  Cu  Cu9  1  0.33837600  0.83129200  0.78472200  1
  Cu  Cu10  1  0.83129200  0.33837600  0.78472200  1
  Cu  Cu11  1  0.17308100  0.17308100  0.28471300  1
  C  C12  1  0.33181500  0.85259600  0.40540700  1
  C  C13  1  0.51796100  0.51796100  0.66313700  1
  C  C14  1  0.65605500  0.65605500  0.89473900  1
  C  C15  1  0.00821200  0.00821200  0.68594000  1
  C  C16  1  0.01603800  0.01603800  0.19693700  1
  C  C17  1  0.85259600  0.33181500  0.40540700  1
  C  C18  1  0.50415900  0.95656000  0.65915800  1
  C  C19  1  0.95656000  0.50415900  0.65915800  1
  C  C20  1  0.16012200  0.16012200  0.89389700  1
  C  C21  1  0.84199300  0.84199300  0.41256900  1
  C  C22  1  0.03270100  0.46643000  0.15352900  1
  C  C23  1  0.46643000  0.03270100  0.15352900  1
  C  C24  1  0.31840700  0.31840700  0.39653400  1
  C  C25  1  0.17374100  0.68022800  0.90085100  1
  C  C26  1  0.48144400  0.48144400  0.15161600  1
  C  C27  1  0.68022800  0.17374100  0.90085100  1
