# generated using pymatgen
data_Cu3Ni2C15
_symmetry_space_group_name_H-M   'P 1'
_cell_length_a   5.27385778
_cell_length_b   7.88265350
_cell_length_c   10.34365436
_cell_angle_alpha   103.46535281
_cell_angle_beta   101.24063788
_cell_angle_gamma   106.15764647
_symmetry_Int_Tables_number   1
_chemical_formula_structural   Cu3Ni2C15
_chemical_formula_sum   'Cu6 Ni4 C30'
_cell_volume   385.82771117
_cell_formula_units_Z   2
loop_
 _symmetry_equiv_pos_site_id
 _symmetry_equiv_pos_as_xyz
  1  'x, y, z'
loop_
 _atom_site_type_symbol
 _atom_site_label
 _atom_site_symmetry_multiplicity
 _atom_site_fract_x
 _atom_site_fract_y
 _atom_site_fract_z
 _atom_site_occupancy
  C  C0  1  0.50036900  0.50027900  0.25016400  1
  C  C1  1  0.49962900  0.49972000  0.74983700  1
  C  C2  1  0.92842800  0.41991800  0.10425700  1
  C  C3  1  0.92973300  0.42104300  0.60459700  1
  C  C4  1  0.07025900  0.57895900  0.39539900  1
  C  C5  1  0.07154700  0.58007300  0.89574400  1
  C  C6  1  0.27975200  0.76417300  0.18850500  1
  C  C7  1  0.28033500  0.76461800  0.68914000  1
  C  C8  1  0.71966400  0.23539400  0.31085800  1
  C  C9  1  0.72024000  0.23581800  0.81148800  1
  Ni  Ni10  1  0.69696500  0.68840300  0.54747500  1
  Ni  Ni11  1  0.30303300  0.31160200  0.45252700  1
  Ni  Ni12  1  0.69683800  0.68856500  0.04749600  1
  Ni  Ni13  1  0.30315700  0.31142200  0.95250300  1
  Cu  Cu14  1  0.50005000  0.00000500  0.00001800  1
  Cu  Cu15  1  0.89927200  0.89300300  0.34541200  1
  Cu  Cu16  1  0.10072100  0.10700200  0.65458800  1
  Cu  Cu17  1  0.50000300  0.00000000  0.49999300  1
  Cu  Cu18  1  0.89794100  0.89326600  0.84482900  1
  Cu  Cu19  1  0.10208300  0.10673000  0.15517400  1
  C  C20  1  0.12740900  0.86867500  0.02526100  1
  C  C21  1  0.12868600  0.86883300  0.52543700  1
  C  C22  1  0.87129800  0.13117000  0.47455600  1
  C  C23  1  0.87261900  0.13133100  0.97474700  1
  C  C24  1  0.72294000  0.93999000  0.16290200  1
  C  C25  1  0.72285500  0.94003700  0.66284100  1
  C  C26  1  0.27713900  0.05996700  0.33715600  1
  C  C27  1  0.27706900  0.06000400  0.83710400  1
  C  C28  1  0.30097100  0.53646300  0.06748600  1
  C  C29  1  0.30098900  0.53659900  0.56745600  1
  C  C30  1  0.69900700  0.46340800  0.43254700  1
  C  C31  1  0.69901800  0.46352900  0.93250700  1
  C  C32  1  0.45810300  0.23308300  0.11704200  1
  C  C33  1  0.45881000  0.23348400  0.61707900  1
  C  C34  1  0.54117300  0.76651600  0.38292000  1
  C  C35  1  0.54192100  0.76692400  0.88296300  1
  C  C36  1  0.90412000  0.66477200  0.22123600  1
  C  C37  1  0.90594000  0.66550700  0.72104000  1
  C  C38  1  0.09404900  0.33449500  0.27895600  1
  C  C39  1  0.09586500  0.33522400  0.77875900  1
