# generated using pymatgen
data_CuNi3C32
_symmetry_space_group_name_H-M   'P 1'
_cell_length_a   8.70457104
_cell_length_b   8.70457104
_cell_length_c   8.70457128
_cell_angle_alpha   60.13465480
_cell_angle_beta   60.13465480
_cell_angle_gamma   60.13465860
_symmetry_Int_Tables_number   1
_chemical_formula_structural   CuNi3C32
_chemical_formula_sum   'Cu1 Ni3 C32'
_cell_volume   467.78887216
_cell_formula_units_Z   1
loop_
 _symmetry_equiv_pos_site_id
 _symmetry_equiv_pos_as_xyz
  1  'x, y, z'
loop_
 _atom_site_type_symbol
 _atom_site_label
 _atom_site_symmetry_multiplicity
 _atom_site_fract_x
 _atom_site_fract_y
 _atom_site_fract_z
 _atom_site_occupancy
  Ni  Ni0  1  0.14241400  0.14241400  0.14241400  1
  Ni  Ni1  1  0.35832300  0.35832300  0.35832300  1
  Ni  Ni2  1  0.64246000  0.64246000  0.64246000  1
  Cu  Cu3  1  0.85879000  0.85879000  0.85879000  1
  C  C4  1  0.00235100  0.00235100  0.00235100  1
  C  C5  1  0.49995400  0.49995400  0.49995400  1
  C  C6  1  0.74855000  0.04201100  0.45528200  1
  C  C7  1  0.04201100  0.45528200  0.74855000  1
  C  C8  1  0.53504100  0.25549200  0.96057200  1
  C  C9  1  0.96057200  0.53504100  0.25549200  1
  C  C10  1  0.25549200  0.96057200  0.53504100  1
  C  C11  1  0.45528200  0.74855000  0.04201100  1
  C  C12  1  0.30422400  0.12540600  0.49936500  1
  C  C13  1  0.49936500  0.30422400  0.12540600  1
  C  C14  1  0.91598900  0.05888500  0.26999800  1
  C  C15  1  0.12540600  0.49936500  0.30422400  1
  C  C16  1  0.80195300  0.00382500  0.62033400  1
  C  C17  1  0.58379200  0.22892100  0.44036300  1
  C  C18  1  0.05888500  0.26999800  0.91598900  1
  C  C19  1  0.22892100  0.44036300  0.58379200  1
  C  C20  1  0.37497300  0.19757900  0.99928300  1
  C  C21  1  0.44036300  0.58379200  0.22892100  1
  C  C22  1  0.72533800  0.08854800  0.94258600  1
  C  C23  1  0.99928300  0.37497300  0.19757900  1
  C  C24  1  0.00382500  0.62033400  0.80195300  1
  C  C25  1  0.26999800  0.91598900  0.05888500  1
  C  C26  1  0.55727500  0.41713700  0.77176500  1
  C  C27  1  0.62033400  0.80195300  0.00382500  1
  C  C28  1  0.77176500  0.55727500  0.41713700  1
  C  C29  1  0.94258600  0.72533800  0.08854800  1
  C  C30  1  0.41713700  0.77176500  0.55727500  1
  C  C31  1  0.19757900  0.99928300  0.37497300  1
  C  C32  1  0.87562300  0.49835700  0.69724200  1
  C  C33  1  0.08854800  0.94258600  0.72533800  1
  C  C34  1  0.49835700  0.69724200  0.87562300  1
  C  C35  1  0.69724200  0.87562300  0.49835700  1
