# generated using pymatgen
data_Cu11NiC4
_symmetry_space_group_name_H-M   'P 1'
_cell_length_a   5.28264600
_cell_length_b   5.46504259
_cell_length_c   15.57370037
_cell_angle_alpha   99.64220932
_cell_angle_beta   90.17585689
_cell_angle_gamma   90.30727849
_symmetry_Int_Tables_number   1
_chemical_formula_structural   Cu11NiC4
_chemical_formula_sum   'Cu22 Ni2 C8'
_cell_volume   443.24928746
_cell_formula_units_Z   2
loop_
 _symmetry_equiv_pos_site_id
 _symmetry_equiv_pos_as_xyz
  1  'x, y, z'
loop_
 _atom_site_type_symbol
 _atom_site_label
 _atom_site_symmetry_multiplicity
 _atom_site_fract_x
 _atom_site_fract_y
 _atom_site_fract_z
 _atom_site_occupancy
  C  C0  1  0.81180700  0.63377500  0.82504700  1
  C  C1  1  0.45011600  0.14166000  0.10535900  1
  C  C2  1  0.51496400  0.54264500  0.00567800  1
  C  C3  1  0.49734100  0.83190700  0.66287800  1
  C  C4  1  0.00132200  0.66626400  0.33294800  1
  C  C5  1  0.00079800  0.32626800  0.65926500  1
  C  C6  1  0.50086100  0.16726900  0.33648100  1
  C  C7  1  0.99359500  0.00773500  0.99161900  1
  Ni  Ni8  1  0.68647700  0.80563600  0.02793600  1
  Ni  Ni9  1  0.91793700  0.94751700  0.88710500  1
  Cu  Cu10  1  0.79866300  0.97371700  0.35604500  1
  Cu  Cu11  1  0.30023000  0.86104800  0.31093800  1
  Cu  Cu12  1  0.59227700  0.78880500  0.55263300  1
  Cu  Cu13  1  0.91428600  0.62522400  0.22229100  1
  Cu  Cu14  1  0.43059200  0.85812300  0.77629400  1
  Cu  Cu15  1  0.08219900  0.70777700  0.44463100  1
  Cu  Cu16  1  0.40751000  0.51126200  0.11608900  1
  Cu  Cu17  1  0.79515400  0.63981100  0.69028500  1
  Cu  Cu18  1  0.70104400  0.47172100  0.35681800  1
  Cu  Cu19  1  0.78178100  0.30778000  0.03089900  1
  Cu  Cu20  1  0.20595900  0.68140200  0.97524200  1
  Cu  Cu21  1  0.30383300  0.52103400  0.63982200  1
  Cu  Cu22  1  0.20454000  0.36033500  0.31169300  1
  Cu  Cu23  1  0.91095300  0.29484700  0.54741600  1
  Cu  Cu24  1  0.58206000  0.12730600  0.22238200  1
  Cu  Cu25  1  0.59604800  0.46080700  0.88868800  1
  Cu  Cu26  1  0.06594500  0.39089000  0.77741400  1
  Cu  Cu27  1  0.41610300  0.20282700  0.44672000  1
  Cu  Cu28  1  0.11994000  0.02481900  0.10911800  1
  Cu  Cu29  1  0.69704200  0.13741000  0.68580100  1
  Cu  Cu30  1  0.30974200  0.19903600  0.97971100  1
  Cu  Cu31  1  0.19975100  0.01656200  0.64261200  1
