# generated using pymatgen
data_Cu(NiC8)3
_symmetry_space_group_name_H-M   'P 1'
_cell_length_a   6.10144800
_cell_length_b   4.76822800
_cell_length_c   10.43285751
_cell_angle_alpha   89.89808203
_cell_angle_beta   90.00000000
_cell_angle_gamma   90.00000000
_symmetry_Int_Tables_number   1
_chemical_formula_structural   Cu(NiC8)3
_chemical_formula_sum   'Cu1 Ni3 C24'
_cell_volume   303.52363636
_cell_formula_units_Z   1
loop_
 _symmetry_equiv_pos_site_id
 _symmetry_equiv_pos_as_xyz
  1  'x, y, z'
loop_
 _atom_site_type_symbol
 _atom_site_label
 _atom_site_symmetry_multiplicity
 _atom_site_fract_x
 _atom_site_fract_y
 _atom_site_fract_z
 _atom_site_occupancy
  C  C0  1  0.25003900  0.99967800  0.99865000  1
  C  C1  1  0.74996100  0.99967800  0.99865000  1
  C  C2  1  0.74954700  0.50094600  0.50182000  1
  C  C3  1  0.25045300  0.50094600  0.50182000  1
  Ni  Ni4  1  0.00000000  0.02790700  0.28250200  1
  Ni  Ni5  1  0.00000000  0.47251100  0.77905200  1
  Ni  Ni6  1  0.50000000  0.52631900  0.21998900  1
  Cu  Cu7  1  0.50000000  0.98053000  0.72196800  1
  C  C8  1  0.50000000  0.08728600  0.41189600  1
  C  C9  1  0.50000000  0.40790700  0.90313500  1
  C  C10  1  0.00000000  0.59068000  0.09154400  1
  C  C11  1  0.00000000  0.91323100  0.59352500  1
  C  C12  1  0.50000000  0.20471800  0.55096800  1
  C  C13  1  0.29860800  0.22395200  0.34171400  1
  C  C14  1  0.70139200  0.22395200  0.34171400  1
  C  C15  1  0.00000000  0.23556400  0.59481000  1
  C  C16  1  0.00000000  0.26835400  0.09557100  1
  C  C17  1  0.29904800  0.26762500  0.83410200  1
  C  C18  1  0.70095200  0.26762500  0.83410200  1
  C  C19  1  0.50000000  0.29165000  0.04251100  1
  C  C20  1  0.00000000  0.71233000  0.95336900  1
  C  C21  1  0.79765400  0.72457900  0.16114300  1
  C  C22  1  0.20234600  0.72457900  0.16114300  1
  C  C23  1  0.50000000  0.73030800  0.89709700  1
  C  C24  1  0.50000000  0.76557800  0.40469200  1
  C  C25  1  0.79499900  0.78250500  0.66321000  1
  C  C26  1  0.20500100  0.78250500  0.66321000  1
  C  C27  1  0.00000000  0.78655400  0.45609300  1
