# generated using pymatgen
data_Cu(Ni2C)2
_symmetry_space_group_name_H-M   'P 1'
_cell_length_a   7.02055552
_cell_length_b   7.66217179
_cell_length_c   7.33399387
_cell_angle_alpha   91.80859911
_cell_angle_beta   117.83522058
_cell_angle_gamma   88.00892205
_symmetry_Int_Tables_number   1
_chemical_formula_structural   Cu(Ni2C)2
_chemical_formula_sum   'Cu4 Ni16 C8'
_cell_volume   348.60446054
_cell_formula_units_Z   4
loop_
 _symmetry_equiv_pos_site_id
 _symmetry_equiv_pos_as_xyz
  1  'x, y, z'
loop_
 _atom_site_type_symbol
 _atom_site_label
 _atom_site_symmetry_multiplicity
 _atom_site_fract_x
 _atom_site_fract_y
 _atom_site_fract_z
 _atom_site_occupancy
  C  C0  1  0.49993500  0.50005000  0.99999400  1
  C  C1  1  0.00001200  0.99999100  0.99997200  1
  C  C2  1  0.99986200  0.49987900  0.50001900  1
  C  C3  1  0.49995300  0.00009800  0.49989200  1
  C  C4  1  0.26745000  0.84814600  0.75031100  1
  C  C5  1  0.76750400  0.34815700  0.75044900  1
  C  C6  1  0.73249400  0.15181200  0.24955200  1
  C  C7  1  0.23248500  0.65187300  0.24966100  1
  Ni  Ni8  1  0.19424500  0.93670500  0.90512100  1
  Ni  Ni9  1  0.69424900  0.43676000  0.90514600  1
  Ni  Ni10  1  0.80584500  0.06326200  0.09485000  1
  Ni  Ni11  1  0.30578900  0.56328100  0.09495100  1
  Ni  Ni12  1  0.58082100  0.24516600  0.58829200  1
  Ni  Ni13  1  0.08081300  0.74512000  0.58828700  1
  Ni  Ni14  1  0.41920200  0.75480800  0.41174100  1
  Ni  Ni15  1  0.91920000  0.25481500  0.41170300  1
  Ni  Ni16  1  0.34763900  0.99293400  0.66938500  1
  Ni  Ni17  1  0.84760100  0.49296700  0.66946400  1
  Ni  Ni18  1  0.65238300  0.00704100  0.33056800  1
  Ni  Ni19  1  0.15233900  0.50706600  0.33059700  1
  Ni  Ni20  1  0.53957400  0.28113700  0.11833200  1
  Ni  Ni21  1  0.03951600  0.78116800  0.11830300  1
  Ni  Ni22  1  0.46047500  0.71888700  0.88163700  1
  Ni  Ni23  1  0.96057400  0.21887900  0.88173600  1
  Cu  Cu24  1  0.22988100  0.08359100  0.25333600  1
  Cu  Cu25  1  0.72989200  0.58361900  0.25332300  1
  Cu  Cu26  1  0.77015600  0.91637700  0.74671000  1
  Cu  Cu27  1  0.27011100  0.41640800  0.74666900  1
