# generated using pymatgen
data_Cu5Ni7C60
_symmetry_space_group_name_H-M   'P 1'
_cell_length_a   5.05627100
_cell_length_b   9.79860805
_cell_length_c   13.45654808
_cell_angle_alpha   97.38080382
_cell_angle_beta   100.79342156
_cell_angle_gamma   94.54178102
_symmetry_Int_Tables_number   1
_chemical_formula_structural   Cu5Ni7C60
_chemical_formula_sum   'Cu5 Ni7 C60'
_cell_volume   645.81806725
_cell_formula_units_Z   1
loop_
 _symmetry_equiv_pos_site_id
 _symmetry_equiv_pos_as_xyz
  1  'x, y, z'
loop_
 _atom_site_type_symbol
 _atom_site_label
 _atom_site_symmetry_multiplicity
 _atom_site_fract_x
 _atom_site_fract_y
 _atom_site_fract_z
 _atom_site_occupancy
  C  C0  1  0.15832900  0.00153100  0.83394900  1
  C  C1  1  0.04516700  0.00114000  0.61205200  1
  C  C2  1  0.99942500  0.75014500  0.25125600  1
  C  C3  1  0.33397100  0.74965400  0.91554900  1
  C  C4  1  0.04741200  0.49891800  0.11189300  1
  C  C5  1  0.38601100  0.50199000  0.78055200  1
  C  C6  1  0.16101000  0.50233000  0.33363500  1
  C  C7  1  0.49301500  0.49895300  0.00082700  1
  C  C8  1  0.28512000  0.50129500  0.55375200  1
  C  C9  1  0.33324400  0.24987100  0.41645500  1
  C  C10  1  0.49756800  0.99869800  0.50175600  1
  C  C11  1  0.28639600  0.00089800  0.05255800  1
  C  C12  1  0.62479600  0.99878700  0.72040900  1
  C  C13  1  0.38186400  0.00071100  0.27902200  1
  C  C14  1  0.71808100  0.00039000  0.94588700  1
  C  C15  1  0.66712900  0.75015000  0.58463400  1
  C  C16  1  0.71690900  0.49896300  0.44606500  1
  C  C17  1  0.83132000  0.49862600  0.66738200  1
  C  C18  1  0.62437100  0.49905900  0.22048000  1
  C  C19  1  0.95246100  0.49952700  0.88670900  1
  C  C20  1  0.66732800  0.25031300  0.08467800  1
  C  C21  1  0.83060200  0.00037200  0.16758300  1
  C  C22  1  0.99689000  0.24957900  0.74963800  1
  C  C23  1  0.95473000  0.00022200  0.38767000  1
  Ni  Ni24  1  0.23010900  0.75679300  0.69377900  1
  Ni  Ni25  1  0.23265300  0.25647300  0.19464700  1
  Ni  Ni26  1  0.43992100  0.24801200  0.63869000  1
  Ni  Ni27  1  0.55410700  0.24706100  0.86019300  1
  Ni  Ni28  1  0.43987900  0.75303400  0.13961900  1
  Ni  Ni29  1  0.55477400  0.74643800  0.36075500  1
  Ni  Ni30  1  0.88197500  0.74494800  0.02575700  1
  Cu  Cu31  1  0.10598900  0.24985700  0.97352900  1
  Cu  Cu32  1  0.10639900  0.75027300  0.47357000  1
  Cu  Cu33  1  0.78428700  0.74869800  0.80592100  1
  Cu  Cu34  1  0.78770300  0.25009000  0.30729200  1
  Cu  Cu35  1  0.88126800  0.24875000  0.52557200  1
  C  C36  1  0.99815400  0.86080900  0.92449600  1
  C  C37  1  0.06191100  0.63489100  0.78487900  1
  C  C38  1  0.99992800  0.36083600  0.42435400  1
  C  C39  1  0.13851200  0.36236100  0.64068000  1
  C  C40  1  0.26009900  0.36331500  0.88293100  1
  C  C41  1  0.33895300  0.86487800  0.59670200  1
  C  C42  1  0.06363700  0.13462400  0.28530400  1
  C  C43  1  0.18612300  0.13861300  0.52168900  1
  C  C44  1  0.40165300  0.13615600  0.95301400  1
  C  C45  1  0.14302700  0.86450000  0.14291700  1
  C  C46  1  0.26117800  0.86391900  0.38339500  1
  C  C47  1  0.48072500  0.86145500  0.81066200  1
  C  C48  1  0.33160000  0.13505700  0.73727800  1
  C  C49  1  0.19099800  0.63701400  0.02267300  1
  C  C50  1  0.40155700  0.63612000  0.45321700  1
  C  C51  1  0.52694700  0.63742000  0.69099400  1
  C  C52  1  0.33206400  0.63628800  0.23772200  1
  C  C53  1  0.66057200  0.63572100  0.90517600  1
  C  C54  1  0.33991900  0.36460400  0.09706300  1
  C  C55  1  0.66342500  0.36338000  0.76232200  1
  C  C56  1  0.48101300  0.36208500  0.31150100  1
  C  C57  1  0.60277100  0.36523800  0.54706500  1
  C  C58  1  0.81866300  0.36228800  0.97794400  1
  C  C59  1  0.66699900  0.86373000  0.26339800  1
  C  C60  1  0.52807000  0.13780400  0.19250000  1
  C  C61  1  0.73359200  0.13385900  0.61845800  1
  C  C62  1  0.85369700  0.13595200  0.85552600  1
  C  C63  1  0.59609600  0.86653500  0.04829800  1
  C  C64  1  0.81868100  0.86222500  0.47816600  1
  C  C65  1  0.93121900  0.86560600  0.71359000  1
  C  C66  1  0.66750500  0.13839500  0.40853300  1
  C  C67  1  0.73794400  0.63442800  0.11785800  1
  C  C68  1  0.85431300  0.63574800  0.35573600  1
  C  C69  1  0.00159300  0.63772600  0.56786700  1
  C  C70  1  0.93285100  0.36611900  0.21437700  1
  C  C71  1  0.00179700  0.13775600  0.06799400  1
