# generated using pymatgen
data_Cu(NiC4)2
_symmetry_space_group_name_H-M   'P 1'
_cell_length_a   4.97074597
_cell_length_b   4.97074597
_cell_length_c   9.96890000
_cell_angle_alpha   90.00000000
_cell_angle_beta   90.00000000
_cell_angle_gamma   118.61064760
_symmetry_Int_Tables_number   1
_chemical_formula_structural   Cu(NiC4)2
_chemical_formula_sum   'Cu2 Ni4 C16'
_cell_volume   216.23822093
_cell_formula_units_Z   2
loop_
 _symmetry_equiv_pos_site_id
 _symmetry_equiv_pos_as_xyz
  1  'x, y, z'
loop_
 _atom_site_type_symbol
 _atom_site_label
 _atom_site_symmetry_multiplicity
 _atom_site_fract_x
 _atom_site_fract_y
 _atom_site_fract_z
 _atom_site_occupancy
  C  C0  1  0.62203600  0.12203600  0.75000000  1
  C  C1  1  0.87796400  0.37796400  0.25000000  1
  C  C2  1  0.12203600  0.62203600  0.75000000  1
  C  C3  1  0.37796400  0.87796400  0.25000000  1
  Ni  Ni4  1  0.33600900  0.66399100  0.00000000  1
  Ni  Ni5  1  0.83600900  0.16399100  0.50000000  1
  Ni  Ni6  1  0.66399100  0.33600900  0.00000000  1
  Ni  Ni7  1  0.16399100  0.83600900  0.50000000  1
  Cu  Cu8  1  0.50000000  0.50000000  0.50000000  1
  Cu  Cu9  1  0.00000000  0.00000000  0.00000000  1
  C  C10  1  0.20547500  0.51887200  0.39389900  1
  C  C11  1  0.98112800  0.29452500  0.89389900  1
  C  C12  1  0.48112800  0.79452500  0.60610100  1
  C  C13  1  0.70547500  0.01887200  0.10610100  1
  C  C14  1  0.01887200  0.70547500  0.10610100  1
  C  C15  1  0.79452500  0.48112800  0.60610100  1
  C  C16  1  0.29452500  0.98112800  0.89389900  1
  C  C17  1  0.51887200  0.20547500  0.39389900  1
  C  C18  1  0.30057300  0.30057300  0.09199300  1
  C  C19  1  0.19942700  0.19942700  0.59199300  1
  C  C20  1  0.69942700  0.69942700  0.90800700  1
  C  C21  1  0.80057300  0.80057300  0.40800700  1
