# generated using pymatgen
data_CuNi3C2
_symmetry_space_group_name_H-M   'P 1'
_cell_length_a   5.57295973
_cell_length_b   5.57295973
_cell_length_c   10.18150148
_cell_angle_alpha   70.47944529
_cell_angle_beta   70.47944529
_cell_angle_gamma   65.35232081
_symmetry_Int_Tables_number   1
_chemical_formula_structural   CuNi3C2
_chemical_formula_sum   'Cu4 Ni12 C8'
_cell_volume   263.78941137
_cell_formula_units_Z   4
loop_
 _symmetry_equiv_pos_site_id
 _symmetry_equiv_pos_as_xyz
  1  'x, y, z'
loop_
 _atom_site_type_symbol
 _atom_site_label
 _atom_site_symmetry_multiplicity
 _atom_site_fract_x
 _atom_site_fract_y
 _atom_site_fract_z
 _atom_site_occupancy
  C  C0  1  0.00000000  0.00000000  0.00000000  1
  C  C1  1  0.72140700  0.72140700  0.51814200  1
  C  C2  1  0.37087600  0.88065200  0.25070300  1
  C  C3  1  0.88065200  0.37087600  0.25070300  1
  C  C4  1  0.11934800  0.62912400  0.74929700  1
  C  C5  1  0.27859300  0.27859300  0.48185800  1
  C  C6  1  0.50000000  0.50000000  0.00000000  1
  C  C7  1  0.62912400  0.11934800  0.74929700  1
  Ni  Ni8  1  0.70212000  0.20005400  0.90326400  1
  Ni  Ni9  1  0.04611300  0.54814400  0.59668700  1
  Ni  Ni10  1  0.29788000  0.79994600  0.09673600  1
  Ni  Ni11  1  0.79994600  0.29788000  0.09673600  1
  Ni  Ni12  1  0.73805200  0.73805200  0.84009400  1
  Ni  Ni13  1  0.50529700  0.50529700  0.65991100  1
  Ni  Ni14  1  0.26194800  0.26194800  0.15990600  1
  Ni  Ni15  1  0.95388700  0.45185600  0.40331300  1
  Ni  Ni16  1  0.45185600  0.95388700  0.40331300  1
  Ni  Ni17  1  0.20005400  0.70212000  0.90326400  1
  Ni  Ni18  1  0.54814400  0.04611300  0.59668700  1
  Ni  Ni19  1  0.49470300  0.49470300  0.34008900  1
  Cu  Cu20  1  0.77613500  0.77613500  0.14979600  1
  Cu  Cu21  1  0.97228900  0.97228900  0.35145000  1
  Cu  Cu22  1  0.22386500  0.22386500  0.85020400  1
  Cu  Cu23  1  0.02771100  0.02771100  0.64855000  1
