# generated using pymatgen
data_Cu(NiC3)3
_symmetry_space_group_name_H-M   'P 1'
_cell_length_a   6.88654900
_cell_length_b   5.33289600
_cell_length_c   9.19613409
_cell_angle_alpha   89.59911903
_cell_angle_beta   90.00000000
_cell_angle_gamma   90.00000000
_symmetry_Int_Tables_number   1
_chemical_formula_structural   Cu(NiC3)3
_chemical_formula_sum   'Cu2 Ni6 C18'
_cell_volume   337.72205347
_cell_formula_units_Z   2
loop_
 _symmetry_equiv_pos_site_id
 _symmetry_equiv_pos_as_xyz
  1  'x, y, z'
loop_
 _atom_site_type_symbol
 _atom_site_label
 _atom_site_symmetry_multiplicity
 _atom_site_fract_x
 _atom_site_fract_y
 _atom_site_fract_z
 _atom_site_occupancy
  Ni  Ni0  1  0.48248100  0.98761700  0.01579500  1
  Ni  Ni1  1  0.19872800  0.50401500  0.17046300  1
  Ni  Ni2  1  0.47364100  0.53224600  0.48066500  1
  Ni  Ni3  1  0.97364100  0.46775400  0.51933500  1
  Ni  Ni4  1  0.69872800  0.49598500  0.82953700  1
  Ni  Ni5  1  0.98248100  0.01238300  0.98420500  1
  Cu  Cu6  1  0.76224800  0.97504100  0.30905900  1
  Cu  Cu7  1  0.26224800  0.02495900  0.69094100  1
  C  C8  1  0.23537200  0.99692100  0.33674500  1
  C  C9  1  0.73537200  0.00307900  0.66325500  1
  C  C10  1  0.74616500  0.48556100  0.14728900  1
  C  C11  1  0.24616500  0.51443900  0.85271100  1
  C  C12  1  0.72598000  0.28749400  0.06689000  1
  C  C13  1  0.76778000  0.70608000  0.08652600  1
  C  C14  1  0.08502500  0.08332100  0.22008700  1
  C  C15  1  0.43378200  0.93883800  0.26345800  1
  C  C16  1  0.74639200  0.46568900  0.28840300  1
  C  C17  1  0.16271300  0.75410300  0.41186500  1
  C  C18  1  0.25429200  0.20621300  0.45264100  1
  C  C19  1  0.75429200  0.79378700  0.54735900  1
  C  C20  1  0.66271300  0.24589700  0.58813500  1
  C  C21  1  0.24639200  0.53431100  0.71159700  1
  C  C22  1  0.93378200  0.06116200  0.73654200  1
  C  C23  1  0.58502500  0.91667900  0.77991300  1
  C  C24  1  0.26778000  0.29392000  0.91347400  1
  C  C25  1  0.22598000  0.71250600  0.93311000  1
