# generated using pymatgen
data_Cu2(NiC5)3
_symmetry_space_group_name_H-M   'P 1'
_cell_length_a   5.16873781
_cell_length_b   5.09475180
_cell_length_c   7.82961565
_cell_angle_alpha   110.08357656
_cell_angle_beta   102.97698570
_cell_angle_gamma   98.50346752
_symmetry_Int_Tables_number   1
_chemical_formula_structural   Cu2(NiC5)3
_chemical_formula_sum   'Cu2 Ni3 C15'
_cell_volume   182.90745365
_cell_formula_units_Z   1
loop_
 _symmetry_equiv_pos_site_id
 _symmetry_equiv_pos_as_xyz
  1  'x, y, z'
loop_
 _atom_site_type_symbol
 _atom_site_label
 _atom_site_symmetry_multiplicity
 _atom_site_fract_x
 _atom_site_fract_y
 _atom_site_fract_z
 _atom_site_occupancy
  C  C0  1  0.22103600  0.89866300  0.41305900  1
  C  C1  1  0.38557400  0.28805000  0.77497800  1
  C  C2  1  0.50000000  0.50000000  0.50000000  1
  C  C3  1  0.61442600  0.71195000  0.22502200  1
  C  C4  1  0.77896400  0.10133700  0.58694100  1
  Ni  Ni5  1  0.00000000  0.50000000  0.00000000  1
  Ni  Ni6  1  0.68681500  0.88920100  0.88257100  1
  Ni  Ni7  1  0.31318500  0.11079900  0.11742900  1
  Cu  Cu8  1  0.09934100  0.70082600  0.69228900  1
  Cu  Cu9  1  0.90065900  0.29917400  0.30771100  1
  C  C10  1  0.04870100  0.09543300  0.85713200  1
  C  C11  1  0.32558100  0.70804200  0.93376600  1
  C  C12  1  0.12599100  0.32041600  0.54114800  1
  C  C13  1  0.24297000  0.49184100  0.23125300  1
  C  C14  1  0.45610500  0.90239100  0.66109100  1
  C  C15  1  0.54389500  0.09760900  0.33890900  1
  C  C16  1  0.75703000  0.50815900  0.76874700  1
  C  C17  1  0.87400900  0.67958400  0.45885200  1
  C  C18  1  0.67441900  0.29195800  0.06623400  1
  C  C19  1  0.95129900  0.90456700  0.14286800  1
