# generated using pymatgen
data_Cu12Ni2C9
_symmetry_space_group_name_H-M   'P 1'
_cell_length_a   5.69437400
_cell_length_b   9.70292754
_cell_length_c   14.53559387
_cell_angle_alpha   107.46202774
_cell_angle_beta   97.07663257
_cell_angle_gamma   100.46946863
_symmetry_Int_Tables_number   1
_chemical_formula_structural   Cu12Ni2C9
_chemical_formula_sum   'Cu24 Ni4 C18'
_cell_volume   739.71169518
_cell_formula_units_Z   2
loop_
 _symmetry_equiv_pos_site_id
 _symmetry_equiv_pos_as_xyz
  1  'x, y, z'
loop_
 _atom_site_type_symbol
 _atom_site_label
 _atom_site_symmetry_multiplicity
 _atom_site_fract_x
 _atom_site_fract_y
 _atom_site_fract_z
 _atom_site_occupancy
  C  C0  1  0.25887900  0.94437200  0.18916300  1
  C  C1  1  0.74112100  0.05562800  0.81083700  1
  C  C2  1  0.45614200  0.76297400  0.79979000  1
  C  C3  1  0.54385800  0.23702600  0.20021000  1
  C  C4  1  0.27422600  0.60095000  0.15477500  1
  C  C5  1  0.72577400  0.39905000  0.84522500  1
  C  C6  1  0.93350400  0.53481900  0.26804700  1
  C  C7  1  0.06649600  0.46518100  0.73195300  1
  C  C8  1  0.65578500  0.26775600  0.54983900  1
  C  C9  1  0.34421500  0.73224400  0.45016100  1
  C  C10  1  0.15862200  0.57537500  0.40166900  1
  C  C11  1  0.84137800  0.42462500  0.59833100  1
  C  C12  1  0.58709400  0.27310200  0.95462600  1
  C  C13  1  0.41290600  0.72689800  0.04537400  1
  C  C14  1  0.66660700  0.44424900  0.75343500  1
  C  C15  1  0.33339300  0.55575100  0.24656500  1
  C  C16  1  0.65864300  0.79599700  0.11975700  1
  C  C17  1  0.34135700  0.20400300  0.88024300  1
  Ni  Ni18  1  0.77098000  0.82690100  0.96770000  1
  Ni  Ni19  1  0.22902000  0.17309900  0.03230000  1
  Ni  Ni20  1  0.36682900  0.44511300  0.62296000  1
  Ni  Ni21  1  0.63317100  0.55488700  0.37704000  1
  Cu  Cu22  1  0.38446200  0.91159600  0.34361200  1
  Cu  Cu23  1  0.61553800  0.08840400  0.65638800  1
  Cu  Cu24  1  0.31117800  0.06123800  0.53482500  1
  Cu  Cu25  1  0.68882200  0.93876200  0.46517500  1
  Cu  Cu26  1  0.04058500  0.11354300  0.32053800  1
  Cu  Cu27  1  0.95941500  0.88645700  0.67946200  1
  Cu  Cu28  1  0.53419500  0.23385600  0.88297100  1
  Cu  Cu29  1  0.46580500  0.76614400  0.11702900  1
  Cu  Cu30  1  0.89405100  0.82798400  0.09657200  1
  Cu  Cu31  1  0.10594900  0.17201600  0.90342800  1
  Cu  Cu32  1  0.80395100  0.43527500  0.79770700  1
  Cu  Cu33  1  0.19604900  0.56472500  0.20229300  1
  Cu  Cu34  1  0.08672900  0.48001600  0.98266000  1
  Cu  Cu35  1  0.91327100  0.51998400  0.01734000  1
  Cu  Cu36  1  0.60552100  0.83985800  0.82600900  1
  Cu  Cu37  1  0.39447900  0.16014200  0.17399100  1
  Cu  Cu38  1  0.68361000  0.37059800  0.55025100  1
  Cu  Cu39  1  0.31639000  0.62940200  0.44974900  1
  Cu  Cu40  1  0.37583400  0.03292400  0.61449900  1
  Cu  Cu41  1  0.62416600  0.96707600  0.38550100  1
  Cu  Cu42  1  0.07514000  0.23749800  0.38315600  1
  Cu  Cu43  1  0.92486000  0.76250200  0.61684400  1
  Cu  Cu44  1  0.09981900  0.50973100  0.68065300  1
  Cu  Cu45  1  0.90018100  0.49026900  0.31934700  1
