# generated using pymatgen
data_CuNi3C32
_symmetry_space_group_name_H-M   'P 1'
_cell_length_a   8.68386400
_cell_length_b   8.68386400
_cell_length_c   8.68386412
_cell_angle_alpha   59.87411972
_cell_angle_beta   59.87411972
_cell_angle_gamma   59.87411856
_symmetry_Int_Tables_number   1
_chemical_formula_structural   CuNi3C32
_chemical_formula_sum   'Cu1 Ni3 C32'
_cell_volume   461.72331597
_cell_formula_units_Z   1
loop_
 _symmetry_equiv_pos_site_id
 _symmetry_equiv_pos_as_xyz
  1  'x, y, z'
loop_
 _atom_site_type_symbol
 _atom_site_label
 _atom_site_symmetry_multiplicity
 _atom_site_fract_x
 _atom_site_fract_y
 _atom_site_fract_z
 _atom_site_occupancy
  Ni  Ni0  1  0.64578500  0.64578500  0.64578500  1
  Ni  Ni1  1  0.85495100  0.85495100  0.85495100  1
  Ni  Ni2  1  0.35346300  0.35346300  0.35346300  1
  C  C3  1  0.00043100  0.00043100  0.00043100  1
  C  C4  1  0.50070700  0.50070700  0.50070700  1
  Cu  Cu5  1  0.14296700  0.14296700  0.14296700  1
  C  C6  1  0.95617400  0.24958500  0.54226600  1
  C  C7  1  0.54226600  0.95617400  0.24958500  1
  C  C8  1  0.24958500  0.54226600  0.95617400  1
  C  C9  1  0.74926600  0.45674500  0.04384600  1
  C  C10  1  0.45674500  0.04384600  0.74926600  1
  C  C11  1  0.04384600  0.74926600  0.45674500  1
  C  C12  1  0.50003500  0.11942400  0.30957000  1
  C  C13  1  0.30957000  0.50003500  0.11942400  1
  C  C14  1  0.11942400  0.30957000  0.50003500  1
  C  C15  1  0.94119500  0.08635900  0.73733600  1
  C  C16  1  0.99051300  0.19409600  0.38745700  1
  C  C17  1  0.76296000  0.41559100  0.56437800  1
  C  C18  1  0.73733600  0.94119500  0.08635900  1
  C  C19  1  0.56437800  0.76296000  0.41559100  1
  C  C20  1  0.80867800  0.61904500  0.00050600  1
  C  C21  1  0.41559100  0.56437800  0.76296000  1
  C  C22  1  0.90851100  0.26546300  0.05658200  1
  C  C23  1  0.61904500  0.00050600  0.80867800  1
  C  C24  1  0.38745700  0.99051300  0.19409600  1
  C  C25  1  0.08635900  0.73733600  0.94119500  1
  C  C26  1  0.58341400  0.44424300  0.23575800  1
  C  C27  1  0.19409600  0.38745700  0.99051300  1
  C  C28  1  0.44424300  0.23575800  0.58341400  1
  C  C29  1  0.26546300  0.05658200  0.90851100  1
  C  C30  1  0.23575800  0.58341400  0.44424300  1
  C  C31  1  0.00050600  0.80867800  0.61904500  1
  C  C32  1  0.05658200  0.90851100  0.26546300  1
  C  C33  1  0.88251200  0.68646700  0.50372100  1
  C  C34  1  0.68646700  0.50372100  0.88251200  1
  C  C35  1  0.50372100  0.88251200  0.68646700  1
