# generated using pymatgen
data_Cu3Ni3C8
_symmetry_space_group_name_H-M   'P 1'
_cell_length_a   6.76771100
_cell_length_b   7.24436064
_cell_length_c   8.52842485
_cell_angle_alpha   109.67299728
_cell_angle_beta   92.19943831
_cell_angle_gamma   102.52968701
_symmetry_Int_Tables_number   1
_chemical_formula_structural   Cu3Ni3C8
_chemical_formula_sum   'Cu6 Ni6 C16'
_cell_volume   381.51223558
_cell_formula_units_Z   2
loop_
 _symmetry_equiv_pos_site_id
 _symmetry_equiv_pos_as_xyz
  1  'x, y, z'
loop_
 _atom_site_type_symbol
 _atom_site_label
 _atom_site_symmetry_multiplicity
 _atom_site_fract_x
 _atom_site_fract_y
 _atom_site_fract_z
 _atom_site_occupancy
  C  C0  1  0.61896000  0.72041000  0.68869000  1
  C  C1  1  0.38104000  0.27959000  0.31131000  1
  Ni  Ni2  1  0.85793800  0.26615500  0.53299900  1
  Ni  Ni3  1  0.14206200  0.73384500  0.46700100  1
  Ni  Ni4  1  0.05099200  0.73951700  0.95147500  1
  Ni  Ni5  1  0.94900800  0.26048300  0.04852500  1
  Ni  Ni6  1  0.42924600  0.23621100  0.81937000  1
  Ni  Ni7  1  0.57075400  0.76378900  0.18063000  1
  Cu  Cu8  1  0.83921000  0.20317900  0.63447600  1
  Cu  Cu9  1  0.16079000  0.79682100  0.36552400  1
  Cu  Cu10  1  0.15717600  0.64054700  0.94886800  1
  Cu  Cu11  1  0.84282400  0.35945300  0.05113200  1
  Cu  Cu12  1  0.26889400  0.22292600  0.77371300  1
  Cu  Cu13  1  0.73110600  0.77707400  0.22628700  1
  C  C14  1  0.53926200  0.38809300  0.57010500  1
  C  C15  1  0.46073800  0.61190700  0.42989500  1
  C  C16  1  0.82662300  0.84552600  0.54785900  1
  C  C17  1  0.17337700  0.15447400  0.45214100  1
  C  C18  1  0.89367000  0.61806400  0.70469200  1
  C  C19  1  0.10633000  0.38193600  0.29530800  1
  C  C20  1  0.31837100  0.63826500  0.71554300  1
  C  C21  1  0.68162900  0.36173500  0.28445700  1
  C  C22  1  0.48651100  0.96262600  0.66975900  1
  C  C23  1  0.51348900  0.03737400  0.33024100  1
  C  C24  1  0.61286200  0.62640300  0.90237400  1
  C  C25  1  0.38713800  0.37359700  0.09762600  1
  C  C26  1  0.77823800  0.98178400  0.89020600  1
  C  C27  1  0.22176200  0.01821600  0.10979400  1
