# generated using pymatgen
data_CuNi5C38
_symmetry_space_group_name_H-M   'P 1'
_cell_length_a   9.22689736
_cell_length_b   10.10776981
_cell_length_c   10.10776981
_cell_angle_alpha   78.74565471
_cell_angle_beta   59.15230611
_cell_angle_gamma   59.15230611
_symmetry_Int_Tables_number   1
_chemical_formula_structural   CuNi5C38
_chemical_formula_sum   'Cu1 Ni5 C38'
_cell_volume   691.89152854
_cell_formula_units_Z   1
loop_
 _symmetry_equiv_pos_site_id
 _symmetry_equiv_pos_as_xyz
  1  'x, y, z'
loop_
 _atom_site_type_symbol
 _atom_site_label
 _atom_site_symmetry_multiplicity
 _atom_site_fract_x
 _atom_site_fract_y
 _atom_site_fract_z
 _atom_site_occupancy
  Ni  Ni0  1  0.00000000  0.50000000  0.50000000  1
  Ni  Ni1  1  0.65572800  0.99741500  0.60565600  1
  Ni  Ni2  1  0.65572800  0.60565600  0.99741500  1
  Ni  Ni3  1  0.34427200  0.00258500  0.39434400  1
  Ni  Ni4  1  0.34427200  0.39434400  0.00258500  1
  Cu  Cu5  1  0.50000000  0.00000000  0.00000000  1
  C  C6  1  0.74911000  0.11959100  0.11959100  1
  C  C7  1  0.25089000  0.88040900  0.88040900  1
  C  C8  1  0.09141000  0.89234000  0.23922000  1
  C  C9  1  0.09141000  0.23922000  0.89234000  1
  C  C10  1  0.90859000  0.10766000  0.76078000  1
  C  C11  1  0.90859000  0.76078000  0.10766000  1
  C  C12  1  0.90018400  0.27569800  0.27569800  1
  C  C13  1  0.09981600  0.72430200  0.72430200  1
  C  C14  1  0.03868900  0.77229600  0.38478800  1
  C  C15  1  0.03868900  0.38478800  0.77229600  1
  C  C16  1  0.96131100  0.22770400  0.61521200  1
  C  C17  1  0.96131100  0.61521200  0.22770400  1
  C  C18  1  0.31286500  0.87031600  0.19712800  1
  C  C19  1  0.31286500  0.19712800  0.87031600  1
  C  C20  1  0.68713500  0.12968400  0.80287200  1
  C  C21  1  0.68713500  0.80287200  0.12968400  1
  C  C22  1  0.91345700  0.08508700  0.37143700  1
  C  C23  1  0.91345700  0.37143700  0.08508700  1
  C  C24  1  0.08654300  0.91491300  0.62856300  1
  C  C25  1  0.08654300  0.62856300  0.91491300  1
  C  C26  1  0.81209300  0.94341900  0.23675900  1
  C  C27  1  0.81209300  0.23675900  0.94341900  1
  C  C28  1  0.18790700  0.05658100  0.76324100  1
  C  C29  1  0.18790700  0.76324100  0.05658100  1
  C  C30  1  0.06054100  0.05916800  0.05916800  1
  C  C31  1  0.93945900  0.94083200  0.94083200  1
  C  C32  1  0.73924700  0.42263900  0.42263900  1
  C  C33  1  0.26075300  0.57736100  0.57736100  1
  C  C34  1  0.13280100  0.23191700  0.23191700  1
  C  C35  1  0.86719900  0.76808300  0.76808300  1
  C  C36  1  0.67713700  0.25791500  0.25791500  1
  C  C37  1  0.32286300  0.74208500  0.74208500  1
  C  C38  1  0.54433100  0.14444300  0.14444300  1
  C  C39  1  0.45566900  0.85555700  0.85555700  1
  C  C40  1  0.42971800  0.23542500  0.46998800  1
  C  C41  1  0.42971800  0.46998800  0.23542500  1
  C  C42  1  0.57028200  0.76457500  0.53001200  1
  C  C43  1  0.57028200  0.53001200  0.76457500  1
