# generated using pymatgen
data_Cu2NiC12
_symmetry_space_group_name_H-M   'P 1'
_cell_length_a   5.41669500
_cell_length_b   8.45356733
_cell_length_c   8.60066151
_cell_angle_alpha   87.38846686
_cell_angle_beta   80.51740294
_cell_angle_gamma   86.71324095
_symmetry_Int_Tables_number   1
_chemical_formula_structural   Cu2NiC12
_chemical_formula_sum   'Cu4 Ni2 C24'
_cell_volume   387.54639361
_cell_formula_units_Z   2
loop_
 _symmetry_equiv_pos_site_id
 _symmetry_equiv_pos_as_xyz
  1  'x, y, z'
loop_
 _atom_site_type_symbol
 _atom_site_label
 _atom_site_symmetry_multiplicity
 _atom_site_fract_x
 _atom_site_fract_y
 _atom_site_fract_z
 _atom_site_occupancy
  C  C0  1  0.27816400  0.16963600  0.38264400  1
  C  C1  1  0.72183600  0.83036400  0.61735600  1
  C  C2  1  0.27493900  0.68897100  0.30006500  1
  C  C3  1  0.72506100  0.31102900  0.69993500  1
  Ni  Ni4  1  0.10889100  0.77135200  0.94116400  1
  Ni  Ni5  1  0.89110900  0.22864800  0.05883600  1
  Cu  Cu6  1  0.19280400  0.08120300  0.80899800  1
  Cu  Cu7  1  0.21807800  0.56865100  0.69211900  1
  Cu  Cu8  1  0.78192200  0.43134900  0.30788100  1
  Cu  Cu9  1  0.80719600  0.91879700  0.19100200  1
  C  C10  1  0.41224800  0.62938200  0.98323200  1
  C  C11  1  0.58775200  0.37061800  0.01676800  1
  C  C12  1  0.02596600  0.90303100  0.28551700  1
  C  C13  1  0.07819400  0.42822100  0.65270100  1
  C  C14  1  0.04512600  0.65853900  0.83031200  1
  C  C15  1  0.27460300  0.69049900  0.04465400  1
  C  C16  1  0.12812500  0.17259400  0.96612000  1
  C  C17  1  0.26556700  0.69110500  0.55139800  1
  C  C18  1  0.24902300  0.90230200  0.85167500  1
  C  C19  1  0.52965700  0.48189800  0.25078600  1
  C  C20  1  0.43757700  0.13739800  0.71322800  1
  C  C21  1  0.56242300  0.86260200  0.28677200  1
  C  C22  1  0.47034300  0.51810200  0.74921400  1
  C  C23  1  0.75097700  0.09769800  0.14832500  1
  C  C24  1  0.73443300  0.30889500  0.44860200  1
  C  C25  1  0.87187500  0.82740600  0.03388000  1
  C  C26  1  0.72539700  0.30950100  0.95534600  1
  C  C27  1  0.95487400  0.34146100  0.16968800  1
  C  C28  1  0.92180600  0.57177900  0.34729900  1
  C  C29  1  0.97403400  0.09696900  0.71448300  1
