# generated using pymatgen
data_CuNiC6
_symmetry_space_group_name_H-M   'P 1'
_cell_length_a   5.84814813
_cell_length_b   5.84814813
_cell_length_c   5.84814813
_cell_angle_alpha   120.21645757
_cell_angle_beta   119.99762575
_cell_angle_gamma   89.81480300
_symmetry_Int_Tables_number   1
_chemical_formula_structural   CuNiC6
_chemical_formula_sum   'Cu2 Ni2 C12'
_cell_volume   141.19926007
_cell_formula_units_Z   2
loop_
 _symmetry_equiv_pos_site_id
 _symmetry_equiv_pos_as_xyz
  1  'x, y, z'
loop_
 _atom_site_type_symbol
 _atom_site_label
 _atom_site_symmetry_multiplicity
 _atom_site_fract_x
 _atom_site_fract_y
 _atom_site_fract_z
 _atom_site_occupancy
  C  C0  1  0.00000000  0.50000000  0.00000000  1
  C  C1  1  0.00000000  0.50000000  0.50000000  1
  C  C2  1  0.00000000  0.00000000  0.50000000  1
  C  C3  1  0.50000000  0.50000000  0.00000000  1
  Ni  Ni4  1  0.50000000  0.00000000  0.50000000  1
  Ni  Ni5  1  0.00000000  0.00000000  0.00000000  1
  Cu  Cu6  1  0.50000000  0.50000000  0.50000000  1
  Cu  Cu7  1  0.50000000  0.00000000  0.00000000  1
  C  C8  1  0.74663500  0.76247100  0.98416400  1
  C  C9  1  0.75086300  0.23201400  0.98115100  1
  C  C10  1  0.27830600  0.76247100  0.51583600  1
  C  C11  1  0.75086300  0.76971200  0.51884900  1
  C  C12  1  0.24913700  0.23028800  0.48115100  1
  C  C13  1  0.72169400  0.23752900  0.48416400  1
  C  C14  1  0.24913700  0.76798600  0.01884900  1
  C  C15  1  0.25336500  0.23752900  0.01583600  1
