# generated using pymatgen
data_Cu2NiC9
_symmetry_space_group_name_H-M   'P 1'
_cell_length_a   4.79678179
_cell_length_b   9.86528223
_cell_length_c   13.07383814
_cell_angle_alpha   90.08408307
_cell_angle_beta   89.82928200
_cell_angle_gamma   95.89078653
_symmetry_Int_Tables_number   1
_chemical_formula_structural   Cu2NiC9
_chemical_formula_sum   'Cu8 Ni4 C36'
_cell_volume   615.40485157
_cell_formula_units_Z   4
loop_
 _symmetry_equiv_pos_site_id
 _symmetry_equiv_pos_as_xyz
  1  'x, y, z'
loop_
 _atom_site_type_symbol
 _atom_site_label
 _atom_site_symmetry_multiplicity
 _atom_site_fract_x
 _atom_site_fract_y
 _atom_site_fract_z
 _atom_site_occupancy
  C  C0  1  0.93052600  0.26621500  0.62543700  1
  C  C1  1  0.06982200  0.73372800  0.87364900  1
  C  C2  1  0.93084700  0.26607400  0.12491800  1
  C  C3  1  0.06948900  0.73388900  0.37431800  1
  Ni  Ni4  1  0.42689800  0.20148500  0.37528400  1
  Ni  Ni5  1  0.42723400  0.20122700  0.87532300  1
  Ni  Ni6  1  0.57314100  0.79850900  0.12441900  1
  Ni  Ni7  1  0.57265400  0.79881600  0.62436300  1
  Cu  Cu8  1  0.34394500  0.09036400  0.12484100  1
  Cu  Cu9  1  0.34340600  0.09047800  0.62479900  1
  Cu  Cu10  1  0.65614200  0.90964400  0.37521600  1
  Cu  Cu11  1  0.65654100  0.90951800  0.87523800  1
  Cu  Cu12  1  0.89291900  0.40237500  0.37503400  1
  Cu  Cu13  1  0.89349600  0.40219300  0.87490900  1
  Cu  Cu14  1  0.10707100  0.59762300  0.12521600  1
  Cu  Cu15  1  0.10637700  0.59782000  0.62527700  1
  C  C16  1  0.76093000  0.06421000  0.37556500  1
  C  C17  1  0.76126300  0.06411400  0.87577700  1
  C  C18  1  0.23912400  0.93579700  0.12433700  1
  C  C19  1  0.23862900  0.93588400  0.62412100  1
  C  C20  1  0.66415200  0.10112400  0.12484600  1
  C  C21  1  0.66363100  0.10123800  0.62487300  1
  C  C22  1  0.33592200  0.89890500  0.37511100  1
  C  C23  1  0.33630100  0.89879900  0.87502600  1
  C  C24  1  0.20465200  0.37527200  0.37525500  1
  C  C25  1  0.20525100  0.37518700  0.87524500  1
  C  C26  1  0.79532900  0.62469600  0.12457700  1
  C  C27  1  0.79464700  0.62482300  0.62454200  1
  C  C28  1  0.13633800  0.44786300  0.12490500  1
  C  C29  1  0.13596900  0.44805500  0.62501900  1
  C  C30  1  0.86370600  0.55215000  0.37531600  1
  C  C31  1  0.86407200  0.55197700  0.87514500  1
  C  C32  1  0.21986500  0.16634400  0.03267000  1
  C  C33  1  0.21918600  0.16654400  0.53276800  1
  C  C34  1  0.21782100  0.16625500  0.21670100  1
  C  C35  1  0.21732600  0.16606900  0.71682800  1
  C  C36  1  0.78266300  0.83366400  0.28357200  1
  C  C37  1  0.78297600  0.83382500  0.78340700  1
  C  C38  1  0.77971300  0.83376700  0.46761200  1
  C  C39  1  0.78025300  0.83350600  0.96747000  1
  C  C40  1  0.72270900  0.32299100  0.46652600  1
  C  C41  1  0.72333200  0.32285300  0.96643200  1
  C  C42  1  0.72441000  0.32304500  0.28344900  1
  C  C43  1  0.72505200  0.32277700  0.78335600  1
  C  C44  1  0.27791800  0.67696600  0.03377000  1
  C  C45  1  0.27719000  0.67712100  0.53380000  1
  C  C46  1  0.27494500  0.67697700  0.21685100  1
  C  C47  1  0.27421800  0.67724400  0.71688800  1
