# generated using pymatgen
data_Cu3NiC20
_symmetry_space_group_name_H-M   'P 1'
_cell_length_a   5.90717300
_cell_length_b   4.83882700
_cell_length_c   9.82476135
_cell_angle_alpha   89.56026832
_cell_angle_beta   90.00000000
_cell_angle_gamma   90.00000000
_symmetry_Int_Tables_number   1
_chemical_formula_structural   Cu3NiC20
_chemical_formula_sum   'Cu3 Ni1 C20'
_cell_volume   280.82062688
_cell_formula_units_Z   1
loop_
 _symmetry_equiv_pos_site_id
 _symmetry_equiv_pos_as_xyz
  1  'x, y, z'
loop_
 _atom_site_type_symbol
 _atom_site_label
 _atom_site_symmetry_multiplicity
 _atom_site_fract_x
 _atom_site_fract_y
 _atom_site_fract_z
 _atom_site_occupancy
  Ni  Ni0  1  0.00000000  0.04344800  0.72310400  1
  Cu  Cu1  1  0.50000000  0.96974900  0.27017200  1
  Cu  Cu2  1  0.50000000  0.57073900  0.78540600  1
  Cu  Cu3  1  0.00000000  0.46809700  0.22980400  1
  C  C4  1  0.00000000  0.90433500  0.40024900  1
  C  C5  1  0.00000000  0.58053000  0.90647200  1
  C  C6  1  0.50000000  0.41077400  0.09602700  1
  C  C7  1  0.50000000  0.09066400  0.59981000  1
  C  C8  1  0.00000000  0.84738500  0.55303800  1
  C  C9  1  0.20418700  0.75937700  0.32845900  1
  C  C10  1  0.79581300  0.75937700  0.32845900  1
  C  C11  1  0.50000000  0.77377800  0.62015800  1
  C  C12  1  0.50000000  0.72572600  0.11885200  1
  C  C13  1  0.20234200  0.73325700  0.83020300  1
  C  C14  1  0.79765800  0.73325700  0.83020300  1
  C  C15  1  0.00000000  0.65449100  0.05785700  1
  C  C16  1  0.50000000  0.34697400  0.94262300  1
  C  C17  1  0.70387400  0.26043700  0.16718400  1
  C  C18  1  0.29612600  0.26043700  0.16718400  1
  C  C19  1  0.00000000  0.27117000  0.88484900  1
  C  C20  1  0.00000000  0.22144100  0.37621000  1
  C  C21  1  0.70547400  0.23627700  0.66976800  1
  C  C22  1  0.29452600  0.23627700  0.66976800  1
  C  C23  1  0.50000000  0.14200200  0.44414200  1
