# generated using pymatgen
data_Cu12Ni4C3
_symmetry_space_group_name_H-M   'P 1'
_cell_length_a   9.67565500
_cell_length_b   7.35465800
_cell_length_c   8.50575588
_cell_angle_alpha   71.29770176
_cell_angle_beta   90.00000000
_cell_angle_gamma   90.00000000
_symmetry_Int_Tables_number   1
_chemical_formula_structural   Cu12Ni4C3
_chemical_formula_sum   'Cu24 Ni8 C6'
_cell_volume   573.31892260
_cell_formula_units_Z   2
loop_
 _symmetry_equiv_pos_site_id
 _symmetry_equiv_pos_as_xyz
  1  'x, y, z'
loop_
 _atom_site_type_symbol
 _atom_site_label
 _atom_site_symmetry_multiplicity
 _atom_site_fract_x
 _atom_site_fract_y
 _atom_site_fract_z
 _atom_site_occupancy
  C  C0  1  0.91385700  0.25582700  0.10605300  1
  C  C1  1  0.41385700  0.74417300  0.89394700  1
  C  C2  1  0.34573500  0.28986800  0.18424700  1
  C  C3  1  0.84573500  0.71013200  0.81575300  1
  C  C4  1  0.14974100  0.81951100  0.67046800  1
  C  C5  1  0.64974100  0.18048900  0.32953200  1
  Ni  Ni6  1  0.11501900  0.51611800  0.99983100  1
  Ni  Ni7  1  0.61501900  0.48388200  0.00016900  1
  Ni  Ni8  1  0.48540400  0.50512600  0.38328900  1
  Ni  Ni9  1  0.98540400  0.49487400  0.61671100  1
  Ni  Ni10  1  0.99681100  0.01320300  0.89073900  1
  Ni  Ni11  1  0.49681100  0.98679700  0.10926100  1
  Ni  Ni12  1  0.40180800  0.00019500  0.52070100  1
  Ni  Ni13  1  0.90180800  0.99980500  0.47929900  1
  Cu  Cu14  1  0.15848400  0.37240800  0.12322600  1
  Cu  Cu15  1  0.48207200  0.46601500  0.01694900  1
  Cu  Cu16  1  0.70133400  0.36942700  0.09867600  1
  Cu  Cu17  1  0.20133400  0.63057300  0.90132400  1
  Cu  Cu18  1  0.98207200  0.53398500  0.98305100  1
  Cu  Cu19  1  0.97666800  0.36573300  0.54881800  1
  Cu  Cu20  1  0.65848400  0.62759200  0.87677400  1
  Cu  Cu21  1  0.60093800  0.41460200  0.38607600  1
  Cu  Cu22  1  0.37477100  0.46856600  0.31211100  1
  Cu  Cu23  1  0.87477100  0.53143400  0.68788900  1
  Cu  Cu24  1  0.10093800  0.58539800  0.61392400  1
  Cu  Cu25  1  0.50814800  0.86293200  0.03827400  1
  Cu  Cu26  1  0.47666800  0.63426700  0.45118200  1
  Cu  Cu27  1  0.88553400  0.90500900  0.91429000  1
  Cu  Cu28  1  0.09443400  0.98888300  0.79240200  1
  Cu  Cu29  1  0.59443400  0.01111700  0.20759800  1
  Cu  Cu30  1  0.38553400  0.09499100  0.08571000  1
  Cu  Cu31  1  0.34828700  0.87506100  0.65325200  1
  Cu  Cu32  1  0.00814800  0.13706800  0.96172600  1
  Cu  Cu33  1  0.03115200  0.96468300  0.47991700  1
  Cu  Cu34  1  0.81908700  0.91863500  0.60002700  1
  Cu  Cu35  1  0.31908700  0.08136500  0.39997300  1
  Cu  Cu36  1  0.53115200  0.03531700  0.52008300  1
  Cu  Cu37  1  0.84828700  0.12493900  0.34674800  1
