# generated using pymatgen
data_Cu5Ni2C
_symmetry_space_group_name_H-M   'P 1'
_cell_length_a   7.49038400
_cell_length_b   17.64956100
_cell_length_c   18.65231800
_cell_angle_alpha   90.00000000
_cell_angle_beta   90.00000000
_cell_angle_gamma   90.00000000
_symmetry_Int_Tables_number   1
_chemical_formula_structural   Cu5Ni2C
_chemical_formula_sum   'Cu80 Ni32 C16'
_cell_volume   2465.87354506
_cell_formula_units_Z   16
loop_
 _symmetry_equiv_pos_site_id
 _symmetry_equiv_pos_as_xyz
  1  'x, y, z'
loop_
 _atom_site_type_symbol
 _atom_site_label
 _atom_site_symmetry_multiplicity
 _atom_site_fract_x
 _atom_site_fract_y
 _atom_site_fract_z
 _atom_site_occupancy
  C  C0  1  0.79702000  0.94365500  0.04125500  1
  C  C1  1  0.70298000  0.44365500  0.95874500  1
  C  C2  1  0.29702000  0.05634500  0.45874500  1
  C  C3  1  0.20298000  0.55634500  0.54125500  1
  C  C4  1  0.20298000  0.05634500  0.95874500  1
  C  C5  1  0.29702000  0.55634500  0.04125500  1
  C  C6  1  0.70298000  0.94365500  0.54125500  1
  C  C7  1  0.79702000  0.44365500  0.45874500  1
  C  C8  1  0.64014400  0.79582400  0.16741700  1
  C  C9  1  0.85985600  0.29582400  0.83258300  1
  C  C10  1  0.14014400  0.20417600  0.33258300  1
  C  C11  1  0.35985600  0.70417600  0.66741700  1
  C  C12  1  0.35985600  0.20417600  0.83258300  1
  C  C13  1  0.14014400  0.70417600  0.16741700  1
  C  C14  1  0.85985600  0.79582400  0.66741700  1
  C  C15  1  0.64014400  0.29582400  0.33258300  1
  Ni  Ni16  1  0.51177300  0.83124200  0.95121100  1
  Ni  Ni17  1  0.98822700  0.33124200  0.04878900  1
  Ni  Ni18  1  0.01177300  0.16875800  0.54878900  1
  Ni  Ni19  1  0.48822700  0.66875800  0.45121100  1
  Ni  Ni20  1  0.48822700  0.16875800  0.04878900  1
  Ni  Ni21  1  0.01177300  0.66875800  0.95121100  1
  Ni  Ni22  1  0.98822700  0.83124200  0.45121100  1
  Ni  Ni23  1  0.51177300  0.33124200  0.54878900  1
  Ni  Ni24  1  0.27201900  0.91589400  0.10913100  1
  Ni  Ni25  1  0.22798100  0.41589400  0.89086900  1
  Ni  Ni26  1  0.77201900  0.08410600  0.39086900  1
  Ni  Ni27  1  0.72798100  0.58410600  0.60913100  1
  Ni  Ni28  1  0.72798100  0.08410600  0.89086900  1
  Ni  Ni29  1  0.77201900  0.58410600  0.10913100  1
  Ni  Ni30  1  0.22798100  0.91589400  0.60913100  1
  Ni  Ni31  1  0.27201900  0.41589400  0.39086900  1
  Ni  Ni32  1  0.34416500  0.71533600  0.24058600  1
  Ni  Ni33  1  0.15583500  0.21533600  0.75941400  1
  Ni  Ni34  1  0.84416500  0.28466400  0.25941400  1
  Ni  Ni35  1  0.65583500  0.78466400  0.74058600  1
  Ni  Ni36  1  0.65583500  0.28466400  0.75941400  1
  Ni  Ni37  1  0.84416500  0.78466400  0.24058600  1
  Ni  Ni38  1  0.15583500  0.71533600  0.74058600  1
  Ni  Ni39  1  0.34416500  0.21533600  0.25941400  1
  Ni  Ni40  1  0.88829700  0.03409900  0.20069500  1
  Ni  Ni41  1  0.61170300  0.53409900  0.79930500  1
  Ni  Ni42  1  0.38829700  0.96590100  0.29930500  1
  Ni  Ni43  1  0.11170300  0.46590100  0.70069500  1
  Ni  Ni44  1  0.11170300  0.96590100  0.79930500  1
  Ni  Ni45  1  0.38829700  0.46590100  0.20069500  1
  Ni  Ni46  1  0.61170300  0.03409900  0.70069500  1
  Ni  Ni47  1  0.88829700  0.53409900  0.29930500  1
  Cu  Cu48  1  0.50354300  0.89809300  0.95784400  1
  Cu  Cu49  1  0.99645700  0.39809300  0.04215600  1
  Cu  Cu50  1  0.00354300  0.10190700  0.54215600  1
  Cu  Cu51  1  0.49645700  0.60190700  0.45784400  1
  Cu  Cu52  1  0.49645700  0.10190700  0.04215600  1
  Cu  Cu53  1  0.00354300  0.60190700  0.95784400  1
  Cu  Cu54  1  0.99645700  0.89809300  0.45784400  1
  Cu  Cu55  1  0.50354300  0.39809300  0.54215600  1
  Cu  Cu56  1  0.51911200  0.76579900  0.94459500  1
  Cu  Cu57  1  0.98088800  0.26579900  0.05540500  1
  Cu  Cu58  1  0.01911200  0.23420100  0.55540500  1
  Cu  Cu59  1  0.48088800  0.73420100  0.44459500  1
  Cu  Cu60  1  0.48088800  0.23420100  0.05540500  1
  Cu  Cu61  1  0.01911200  0.73420100  0.94459500  1
  Cu  Cu62  1  0.98088800  0.76579900  0.44459500  1
  Cu  Cu63  1  0.51911200  0.26579900  0.55540500  1
  Cu  Cu64  1  0.41674500  0.94109500  0.11423400  1
  Cu  Cu65  1  0.08325500  0.44109500  0.88576600  1
  Cu  Cu66  1  0.91674500  0.05890500  0.38576600  1
  Cu  Cu67  1  0.58325500  0.55890500  0.61423400  1
  Cu  Cu68  1  0.58325500  0.05890500  0.88576600  1
  Cu  Cu69  1  0.91674500  0.55890500  0.11423400  1
  Cu  Cu70  1  0.08325500  0.94109500  0.61423400  1
  Cu  Cu71  1  0.41674500  0.44109500  0.38576600  1
  Cu  Cu72  1  0.12829100  0.88972600  0.10430100  1
  Cu  Cu73  1  0.37170900  0.38972600  0.89569900  1
  Cu  Cu74  1  0.62829100  0.11027400  0.39569900  1
  Cu  Cu75  1  0.87170900  0.61027400  0.60430100  1
  Cu  Cu76  1  0.87170900  0.11027400  0.89569900  1
  Cu  Cu77  1  0.62829100  0.61027400  0.10430100  1
  Cu  Cu78  1  0.37170900  0.88972600  0.60430100  1
  Cu  Cu79  1  0.12829100  0.38972600  0.39569900  1
  Cu  Cu80  1  0.43605300  0.77029100  0.22084900  1
  Cu  Cu81  1  0.06394700  0.27029100  0.77915100  1
  Cu  Cu82  1  0.93605300  0.22970900  0.27915100  1
  Cu  Cu83  1  0.56394700  0.72970900  0.72084900  1
  Cu  Cu84  1  0.56394700  0.22970900  0.77915100  1
  Cu  Cu85  1  0.93605300  0.72970900  0.22084900  1
  Cu  Cu86  1  0.06394700  0.77029100  0.72084900  1
  Cu  Cu87  1  0.43605300  0.27029100  0.27915100  1
  Cu  Cu88  1  0.32958100  0.67287000  0.29087900  1
  Cu  Cu89  1  0.17041900  0.17287000  0.70912100  1
  Cu  Cu90  1  0.82958100  0.32713000  0.20912100  1
  Cu  Cu91  1  0.67041900  0.82713000  0.79087900  1
  Cu  Cu92  1  0.67041900  0.32713000  0.70912100  1
  Cu  Cu93  1  0.82958100  0.82713000  0.29087900  1
  Cu  Cu94  1  0.17041900  0.67287000  0.79087900  1
  Cu  Cu95  1  0.32958100  0.17287000  0.20912100  1
  Cu  Cu96  1  0.78099300  0.98947100  0.18154000  1
  Cu  Cu97  1  0.71900700  0.48947100  0.81846000  1
  Cu  Cu98  1  0.28099300  0.01052900  0.31846000  1
  Cu  Cu99  1  0.21900700  0.51052900  0.68154000  1
  Cu  Cu100  1  0.21900700  0.01052900  0.81846000  1
  Cu  Cu101  1  0.28099300  0.51052900  0.18154000  1
  Cu  Cu102  1  0.71900700  0.98947100  0.68154000  1
  Cu  Cu103  1  0.78099300  0.48947100  0.31846000  1
  Cu  Cu104  1  0.99094100  0.07762700  0.22374100  1
  Cu  Cu105  1  0.50905900  0.57762700  0.77625900  1
  Cu  Cu106  1  0.49094100  0.92237300  0.27625900  1
  Cu  Cu107  1  0.00905900  0.42237300  0.72374100  1
  Cu  Cu108  1  0.00905900  0.92237300  0.77625900  1
  Cu  Cu109  1  0.49094100  0.42237300  0.22374100  1
  Cu  Cu110  1  0.50905900  0.07762700  0.72374100  1
  Cu  Cu111  1  0.99094100  0.57762700  0.27625900  1
  Cu  Cu112  1  0.00576600  0.95276900  0.94833800  1
  Cu  Cu113  1  0.49423400  0.45276900  0.05166200  1
  Cu  Cu114  1  0.50576600  0.04723100  0.55166200  1
  Cu  Cu115  1  0.99423400  0.54723100  0.44833800  1
  Cu  Cu116  1  0.99423400  0.04723100  0.05166200  1
  Cu  Cu117  1  0.50576600  0.54723100  0.94833800  1
  Cu  Cu118  1  0.49423400  0.95276900  0.44833800  1
  Cu  Cu119  1  0.00576600  0.45276900  0.55166200  1
  Cu  Cu120  1  0.76553100  0.82581800  0.09553300  1
  Cu  Cu121  1  0.73446900  0.32581800  0.90446700  1
  Cu  Cu122  1  0.26553100  0.17418200  0.40446700  1
  Cu  Cu123  1  0.23446900  0.67418200  0.59553300  1
  Cu  Cu124  1  0.23446900  0.17418200  0.90446700  1
  Cu  Cu125  1  0.26553100  0.67418200  0.09553300  1
  Cu  Cu126  1  0.73446900  0.82581800  0.59553300  1
  Cu  Cu127  1  0.76553100  0.32581800  0.40446700  1
