# generated using pymatgen
data_Cu(NiC3)2
_symmetry_space_group_name_H-M   'P 1'
_cell_length_a   5.85650471
_cell_length_b   6.78009824
_cell_length_c   6.78004157
_cell_angle_alpha   95.92859065
_cell_angle_beta   74.57076818
_cell_angle_gamma   105.42902828
_symmetry_Int_Tables_number   1
_chemical_formula_structural   Cu(NiC3)2
_chemical_formula_sum   'Cu2 Ni4 C12'
_cell_volume   250.01103262
_cell_formula_units_Z   2
loop_
 _symmetry_equiv_pos_site_id
 _symmetry_equiv_pos_as_xyz
  1  'x, y, z'
loop_
 _atom_site_type_symbol
 _atom_site_label
 _atom_site_symmetry_multiplicity
 _atom_site_fract_x
 _atom_site_fract_y
 _atom_site_fract_z
 _atom_site_occupancy
  Ni  Ni0  1  0.75592200  0.20460300  0.61220300  1
  Ni  Ni1  1  0.74407200  0.61220900  0.20460500  1
  Ni  Ni2  1  0.25592100  0.38775300  0.79538300  1
  Ni  Ni3  1  0.24407900  0.79538500  0.38776100  1
  Cu  Cu4  1  0.75002800  0.08422900  0.08422100  1
  Cu  Cu5  1  0.24998200  0.91581900  0.91580200  1
  C  C6  1  0.63682800  0.03454500  0.80734900  1
  C  C7  1  0.13686800  0.19270000  0.96548600  1
  C  C8  1  0.86317000  0.80734300  0.03454300  1
  C  C9  1  0.36313100  0.96547500  0.19270300  1
  C  C10  1  0.77456200  0.08757600  0.38033600  1
  C  C11  1  0.72543800  0.38033900  0.08758200  1
  C  C12  1  0.27461400  0.61972900  0.91237700  1
  C  C13  1  0.22538500  0.91238500  0.61973500  1
  C  C14  1  0.55465500  0.37101800  0.64841400  1
  C  C15  1  0.05454500  0.35150600  0.62896500  1
  C  C16  1  0.94534700  0.64841900  0.37102400  1
  C  C17  1  0.44545300  0.62896800  0.35151200  1
