# generated using pymatgen
data_Cu3(NiC6)2
_symmetry_space_group_name_H-M   'P 1'
_cell_length_a   9.68710211
_cell_length_b   9.68710211
_cell_length_c   9.68710171
_cell_angle_alpha   56.30012213
_cell_angle_beta   56.30012213
_cell_angle_gamma   56.30012622
_symmetry_Int_Tables_number   1
_chemical_formula_structural   Cu3(NiC6)2
_chemical_formula_sum   'Cu6 Ni4 C24'
_cell_volume   587.76539597
_cell_formula_units_Z   2
loop_
 _symmetry_equiv_pos_site_id
 _symmetry_equiv_pos_as_xyz
  1  'x, y, z'
loop_
 _atom_site_type_symbol
 _atom_site_label
 _atom_site_symmetry_multiplicity
 _atom_site_fract_x
 _atom_site_fract_y
 _atom_site_fract_z
 _atom_site_occupancy
  Ni  Ni0  1  0.14051200  0.14051200  0.14051200  1
  Ni  Ni1  1  0.35322000  0.35322000  0.35322000  1
  Ni  Ni2  1  0.64678000  0.64678000  0.64678000  1
  Ni  Ni3  1  0.85948800  0.85948800  0.85948800  1
  Cu  Cu4  1  0.96867500  0.25028200  0.53451200  1
  Cu  Cu5  1  0.46548800  0.03132500  0.74971800  1
  Cu  Cu6  1  0.74971800  0.46548800  0.03132500  1
  Cu  Cu7  1  0.25028200  0.53451200  0.96867500  1
  Cu  Cu8  1  0.53451200  0.96867500  0.25028200  1
  Cu  Cu9  1  0.03132500  0.74971800  0.46548800  1
  C  C10  1  0.00628000  0.19687400  0.36221600  1
  C  C11  1  0.88438900  0.09344900  0.74678300  1
  C  C12  1  0.90655100  0.25321700  0.11561100  1
  C  C13  1  0.63778400  0.99372000  0.80312600  1
  C  C14  1  0.80990100  0.47443400  0.51877000  1
  C  C15  1  0.51058400  0.18154000  0.22303900  1
  C  C16  1  0.48123000  0.19009900  0.52556600  1
  C  C17  1  0.77696100  0.48941600  0.81846000  1
  C  C18  1  0.80312600  0.63778400  0.99372000  1
  C  C19  1  0.25321700  0.11561100  0.90655100  1
  C  C20  1  0.81846000  0.77696100  0.48941600  1
  C  C21  1  0.52556600  0.48123000  0.19009900  1
  C  C22  1  0.47443400  0.51877000  0.80990100  1
  C  C23  1  0.18154000  0.22303900  0.51058400  1
  C  C24  1  0.74678300  0.88438900  0.09344900  1
  C  C25  1  0.19687400  0.36221600  0.00628000  1
  C  C26  1  0.22303900  0.51058400  0.18154000  1
  C  C27  1  0.51877000  0.80990100  0.47443400  1
  C  C28  1  0.48941600  0.81846000  0.77696100  1
  C  C29  1  0.19009900  0.52556600  0.48123000  1
  C  C30  1  0.36221600  0.00628000  0.19687400  1
  C  C31  1  0.09344900  0.74678300  0.88438900  1
  C  C32  1  0.11561100  0.90655100  0.25321700  1
  C  C33  1  0.99372000  0.80312600  0.63778400  1
