# generated using pymatgen
data_Cu8Ni3C38
_symmetry_space_group_name_H-M   'P 1'
_cell_length_a   10.20409296
_cell_length_b   10.20409296
_cell_length_c   14.14358900
_cell_angle_alpha   90.00000000
_cell_angle_beta   90.00000000
_cell_angle_gamma   120.00000621
_symmetry_Int_Tables_number   1
_chemical_formula_structural   Cu8Ni3C38
_chemical_formula_sum   'Cu16 Ni6 C76'
_cell_volume   1275.37836280
_cell_formula_units_Z   2
loop_
 _symmetry_equiv_pos_site_id
 _symmetry_equiv_pos_as_xyz
  1  'x, y, z'
loop_
 _atom_site_type_symbol
 _atom_site_label
 _atom_site_symmetry_multiplicity
 _atom_site_fract_x
 _atom_site_fract_y
 _atom_site_fract_z
 _atom_site_occupancy
  C  C0  1  0.00000000  0.00000000  0.00000000  1
  C  C1  1  0.00000000  0.00000000  0.50000000  1
  C  C2  1  0.32917600  0.22652500  0.06192900  1
  C  C3  1  0.32917600  0.10265100  0.56192900  1
  C  C4  1  0.77347500  0.67082400  0.56192900  1
  C  C5  1  0.66666700  0.33333300  0.87988300  1
  C  C6  1  0.66666700  0.33333300  0.37988300  1
  C  C7  1  0.89734900  0.67082400  0.06192900  1
  C  C8  1  0.77347500  0.10265100  0.06192900  1
  C  C9  1  0.10265100  0.77347500  0.43807100  1
  C  C10  1  0.89734900  0.22652500  0.56192900  1
  C  C11  1  0.22652500  0.89734900  0.93807100  1
  C  C12  1  0.10265100  0.32917600  0.93807100  1
  C  C13  1  0.33333300  0.66666700  0.12011700  1
  C  C14  1  0.33333300  0.66666700  0.62011700  1
  C  C15  1  0.22652500  0.32917600  0.43807100  1
  C  C16  1  0.67082400  0.89734900  0.43807100  1
  C  C17  1  0.67082400  0.77347500  0.93807100  1
  Ni  Ni18  1  0.43127200  0.43127200  0.25000000  1
  Ni  Ni19  1  0.56872800  0.56872800  0.75000000  1
  Ni  Ni20  1  0.43127200  0.00000000  0.75000000  1
  Ni  Ni21  1  0.56872800  0.00000000  0.25000000  1
  Ni  Ni22  1  0.00000000  0.56872800  0.25000000  1
  Ni  Ni23  1  0.00000000  0.43127200  0.75000000  1
  Cu  Cu24  1  0.30761100  0.22036300  0.84684300  1
  Cu  Cu25  1  0.30761100  0.08724800  0.34684300  1
  Cu  Cu26  1  0.77963700  0.69238900  0.34684300  1
  Cu  Cu27  1  0.66666700  0.33333300  0.61293400  1
  Cu  Cu28  1  0.66666700  0.33333300  0.11293400  1
  Cu  Cu29  1  0.91275200  0.69238900  0.84684300  1
  Cu  Cu30  1  0.08724800  0.77963700  0.65315700  1
  Cu  Cu31  1  0.77963700  0.08724800  0.84684300  1
  Cu  Cu32  1  0.22036300  0.91275200  0.15315700  1
  Cu  Cu33  1  0.91275200  0.22036300  0.34684300  1
  Cu  Cu34  1  0.08724800  0.30761100  0.15315700  1
  Cu  Cu35  1  0.33333300  0.66666700  0.38706600  1
  Cu  Cu36  1  0.33333300  0.66666700  0.88706600  1
  Cu  Cu37  1  0.22036300  0.30761100  0.65315700  1
  Cu  Cu38  1  0.69238900  0.91275200  0.65315700  1
  Cu  Cu39  1  0.69238900  0.77963700  0.15315700  1
  C  C40  1  0.22269000  0.22269000  0.75000000  1
  C  C41  1  0.22526300  0.21756800  0.56849800  1
  C  C42  1  0.30161900  0.23599000  0.34677800  1
  C  C43  1  0.22269000  0.00000000  0.25000000  1
  C  C44  1  0.22526300  0.00769600  0.06849800  1
  C  C45  1  0.30161900  0.06562900  0.84677800  1
  C  C46  1  0.47318500  0.34834800  0.84400800  1
  C  C47  1  0.50972500  0.30598000  0.15079200  1
  C  C48  1  0.65165200  0.52681500  0.34400800  1
  C  C49  1  0.78243200  0.77473700  0.06849800  1
  C  C50  1  0.77731000  0.77731000  0.25000000  1
  C  C51  1  0.76401000  0.69838100  0.84677800  1
  C  C52  1  0.50972500  0.20374500  0.65079200  1
  C  C53  1  0.47318500  0.12483700  0.34400800  1
  C  C54  1  0.69402000  0.49027500  0.65079200  1
  C  C55  1  0.66666700  0.33333300  0.50638100  1
  C  C56  1  0.66666700  0.33333300  0.00638100  1
  C  C57  1  0.79625500  0.49027500  0.15079200  1
  C  C58  1  0.65165200  0.12483700  0.84400800  1
  C  C59  1  0.69402000  0.20374500  0.15079200  1
  C  C60  1  0.93437100  0.69838100  0.34677800  1
  C  C61  1  0.00000000  0.77731000  0.75000000  1
  C  C62  1  0.99230400  0.77473700  0.56849800  1
  C  C63  1  0.00769600  0.78243200  0.93150200  1
  C  C64  1  0.87516300  0.52681500  0.84400800  1
  C  C65  1  0.79625500  0.30598000  0.65079200  1
  C  C66  1  0.06562900  0.76401000  0.15322200  1
  C  C67  1  0.87516300  0.34834800  0.34400800  1
  C  C68  1  0.76401000  0.06562900  0.34677800  1
  C  C69  1  0.21756800  0.99230400  0.43150200  1
  C  C70  1  0.78243200  0.00769600  0.56849800  1
  C  C71  1  0.77731000  0.00000000  0.75000000  1
  C  C72  1  0.23599000  0.93437100  0.65322200  1
  C  C73  1  0.12483700  0.65165200  0.65599200  1
  C  C74  1  0.93437100  0.23599000  0.84677800  1
  C  C75  1  0.20374500  0.69402000  0.34920800  1
  C  C76  1  0.12483700  0.47318500  0.15599200  1
  C  C77  1  0.99230400  0.21756800  0.06849800  1
  C  C78  1  0.00769600  0.22526300  0.43150200  1
  C  C79  1  0.00000000  0.22269000  0.25000000  1
  C  C80  1  0.06562900  0.30161900  0.65322200  1
  C  C81  1  0.30598000  0.79625500  0.84920800  1
  C  C82  1  0.34834800  0.87516300  0.15599200  1
  C  C83  1  0.20374500  0.50972500  0.84920800  1
  C  C84  1  0.33333300  0.66666700  0.49361900  1
  C  C85  1  0.33333300  0.66666700  0.99361900  1
  C  C86  1  0.30598000  0.50972500  0.34920800  1
  C  C87  1  0.52681500  0.87516300  0.65599200  1
  C  C88  1  0.49027500  0.79625500  0.34920800  1
  C  C89  1  0.23599000  0.30161900  0.15322200  1
  C  C90  1  0.21756800  0.22526300  0.93150200  1
  C  C91  1  0.34834800  0.47318500  0.65599200  1
  C  C92  1  0.49027500  0.69402000  0.84920800  1
  C  C93  1  0.52681500  0.65165200  0.15599200  1
  C  C94  1  0.69838100  0.93437100  0.15322200  1
  C  C95  1  0.77473700  0.99230400  0.93150200  1
  C  C96  1  0.69838100  0.76401000  0.65322200  1
  C  C97  1  0.77473700  0.78243200  0.43150200  1
