# generated using pymatgen
data_Cu(NiC)16
_symmetry_space_group_name_H-M   'P 1'
_cell_length_a   12.21589800
_cell_length_b   12.79248200
_cell_length_c   16.70774800
_cell_angle_alpha   90.00000000
_cell_angle_beta   90.00000000
_cell_angle_gamma   90.00000000
_symmetry_Int_Tables_number   1
_chemical_formula_structural   Cu(NiC)16
_chemical_formula_sum   'Cu4 Ni64 C64'
_cell_volume   2610.94743594
_cell_formula_units_Z   4
loop_
 _symmetry_equiv_pos_site_id
 _symmetry_equiv_pos_as_xyz
  1  'x, y, z'
loop_
 _atom_site_type_symbol
 _atom_site_label
 _atom_site_symmetry_multiplicity
 _atom_site_fract_x
 _atom_site_fract_y
 _atom_site_fract_z
 _atom_site_occupancy
  C  C0  1  0.35706000  0.20907800  0.43156900  1
  C  C1  1  0.14294000  0.29092200  0.43156900  1
  C  C2  1  0.64294000  0.70907800  0.06843100  1
  C  C3  1  0.85706000  0.79092200  0.06843100  1
  C  C4  1  0.64294000  0.79092200  0.56843100  1
  C  C5  1  0.85706000  0.70907800  0.56843100  1
  C  C6  1  0.35706000  0.29092200  0.93156900  1
  C  C7  1  0.14294000  0.20907800  0.93156900  1
  C  C8  1  0.26874700  0.37817600  0.53656200  1
  C  C9  1  0.23125300  0.12182400  0.53656200  1
  C  C10  1  0.73125300  0.87817600  0.96343800  1
  C  C11  1  0.76874700  0.62182400  0.96343800  1
  C  C12  1  0.73125300  0.62182400  0.46343800  1
  C  C13  1  0.76874700  0.87817600  0.46343800  1
  C  C14  1  0.26874700  0.12182400  0.03656200  1
  C  C15  1  0.23125300  0.37817600  0.03656200  1
  Ni  Ni16  1  0.41118500  0.33249400  0.37948900  1
  Ni  Ni17  1  0.08881500  0.16750600  0.37948900  1
  Ni  Ni18  1  0.58881500  0.83249400  0.12051100  1
  Ni  Ni19  1  0.91118500  0.66750600  0.12051100  1
  Ni  Ni20  1  0.58881500  0.66750600  0.62051100  1
  Ni  Ni21  1  0.91118500  0.83249400  0.62051100  1
  Ni  Ni22  1  0.41118500  0.16750600  0.87948900  1
  Ni  Ni23  1  0.08881500  0.33249400  0.87948900  1
  Ni  Ni24  1  0.37785000  0.11843000  0.34282800  1
  Ni  Ni25  1  0.12215000  0.38157000  0.34282800  1
  Ni  Ni26  1  0.62215000  0.61843000  0.15717200  1
  Ni  Ni27  1  0.87785000  0.88157000  0.15717200  1
  Ni  Ni28  1  0.62215000  0.88157000  0.65717200  1
  Ni  Ni29  1  0.87785000  0.61843000  0.65717200  1
  Ni  Ni30  1  0.37785000  0.38157000  0.84282800  1
  Ni  Ni31  1  0.12215000  0.11843000  0.84282800  1
  Ni  Ni32  1  0.48802000  0.15921200  0.47794000  1
  Ni  Ni33  1  0.01198000  0.34078800  0.47794000  1
  Ni  Ni34  1  0.51198000  0.65921200  0.02206000  1
  Ni  Ni35  1  0.98802000  0.84078800  0.02206000  1
  Ni  Ni36  1  0.51198000  0.84078800  0.52206000  1
  Ni  Ni37  1  0.98802000  0.65921200  0.52206000  1
  Ni  Ni38  1  0.48802000  0.34078800  0.97794000  1
  Ni  Ni39  1  0.01198000  0.15921200  0.97794000  1
  Ni  Ni40  1  0.33981300  0.50682600  0.51662700  1
  Ni  Ni41  1  0.16018700  0.99317400  0.51662700  1
  Ni  Ni42  1  0.66018700  0.00682600  0.98337300  1
  Ni  Ni43  1  0.83981300  0.49317400  0.98337300  1
  Ni  Ni44  1  0.66018700  0.49317400  0.48337300  1
  Ni  Ni45  1  0.83981300  0.00682600  0.48337300  1
  Ni  Ni46  1  0.33981300  0.99317400  0.01662700  1
  Ni  Ni47  1  0.16018700  0.50682600  0.01662700  1
  Ni  Ni48  1  0.18502400  0.44416800  0.61814800  1
  Ni  Ni49  1  0.31497600  0.05583200  0.61814800  1
  Ni  Ni50  1  0.81497600  0.94416800  0.88185200  1
  Ni  Ni51  1  0.68502400  0.55583200  0.88185200  1
  Ni  Ni52  1  0.81497600  0.55583200  0.38185200  1
  Ni  Ni53  1  0.68502400  0.94416800  0.38185200  1
  Ni  Ni54  1  0.18502400  0.05583200  0.11814800  1
  Ni  Ni55  1  0.31497600  0.44416800  0.11814800  1
  Ni  Ni56  1  0.38169900  0.32491500  0.60361100  1
  Ni  Ni57  1  0.11830100  0.17508500  0.60361100  1
  Ni  Ni58  1  0.61830100  0.82491500  0.89638900  1
  Ni  Ni59  1  0.88169900  0.67508500  0.89638900  1
  Ni  Ni60  1  0.61830100  0.67508500  0.39638900  1
  Ni  Ni61  1  0.88169900  0.82491500  0.39638900  1
  Ni  Ni62  1  0.38169900  0.17508500  0.10361100  1
  Ni  Ni63  1  0.11830100  0.32491500  0.10361100  1
  Ni  Ni64  1  0.73691000  0.14599800  0.70104200  1
  Ni  Ni65  1  0.76309000  0.35400200  0.70104200  1
  Ni  Ni66  1  0.26309000  0.64599800  0.79895800  1
  Ni  Ni67  1  0.23691000  0.85400200  0.79895800  1
  Ni  Ni68  1  0.26309000  0.85400200  0.29895800  1
  Ni  Ni69  1  0.23691000  0.64599800  0.29895800  1
  Ni  Ni70  1  0.73691000  0.35400200  0.20104200  1
  Ni  Ni71  1  0.76309000  0.14599800  0.20104200  1
  Ni  Ni72  1  0.71713000  0.20498800  0.77460400  1
  Ni  Ni73  1  0.78287000  0.29501200  0.77460400  1
  Ni  Ni74  1  0.28287000  0.70498800  0.72539600  1
  Ni  Ni75  1  0.21713000  0.79501200  0.72539600  1
  Ni  Ni76  1  0.28287000  0.79501200  0.22539600  1
  Ni  Ni77  1  0.21713000  0.70498800  0.22539600  1
  Ni  Ni78  1  0.71713000  0.29501200  0.27460400  1
  Ni  Ni79  1  0.78287000  0.20498800  0.27460400  1
  Cu  Cu80  1  0.75000000  0.25000000  0.68143300  1
  Cu  Cu81  1  0.25000000  0.75000000  0.81856700  1
  Cu  Cu82  1  0.25000000  0.75000000  0.31856700  1
  Cu  Cu83  1  0.75000000  0.25000000  0.18143300  1
  C  C84  1  0.45045000  0.40733300  0.35224000  1
  C  C85  1  0.04955000  0.09266700  0.35224000  1
  C  C86  1  0.54955000  0.90733300  0.14776000  1
  C  C87  1  0.95045000  0.59266700  0.14776000  1
  C  C88  1  0.54955000  0.59266700  0.64776000  1
  C  C89  1  0.95045000  0.90733300  0.64776000  1
  C  C90  1  0.45045000  0.09266700  0.85224000  1
  C  C91  1  0.04955000  0.40733300  0.85224000  1
  C  C92  1  0.39205400  0.06270800  0.28885500  1
  C  C93  1  0.10794600  0.43729200  0.28885500  1
  C  C94  1  0.60794600  0.56270800  0.21114500  1
  C  C95  1  0.89205400  0.93729200  0.21114500  1
  C  C96  1  0.60794600  0.93729200  0.71114500  1
  C  C97  1  0.89205400  0.56270800  0.71114500  1
  C  C98  1  0.39205400  0.43729200  0.78885500  1
  C  C99  1  0.10794600  0.06270800  0.78885500  1
  C  C100  1  0.57049000  0.12892600  0.50454600  1
  C  C101  1  0.92951000  0.37107400  0.50454600  1
  C  C102  1  0.42951000  0.62892600  0.99545400  1
  C  C103  1  0.07049000  0.87107400  0.99545400  1
  C  C104  1  0.42951000  0.87107400  0.49545400  1
  C  C105  1  0.07049000  0.62892600  0.49545400  1
  C  C106  1  0.57049000  0.37107400  0.00454600  1
  C  C107  1  0.92951000  0.12892600  0.00454600  1
  C  C108  1  0.38189600  0.58603400  0.50159700  1
  C  C109  1  0.11810400  0.91396600  0.50159700  1
  C  C110  1  0.61810400  0.08603400  0.99840300  1
  C  C111  1  0.88189600  0.41396600  0.99840300  1
  C  C112  1  0.61810400  0.41396600  0.49840300  1
  C  C113  1  0.88189600  0.08603400  0.49840300  1
  C  C114  1  0.38189600  0.91396600  0.00159700  1
  C  C115  1  0.11810400  0.58603400  0.00159700  1
  C  C116  1  0.13882500  0.48373800  0.67089500  1
  C  C117  1  0.36117500  0.01626200  0.67089500  1
  C  C118  1  0.86117500  0.98373800  0.82910500  1
  C  C119  1  0.63882500  0.51626200  0.82910500  1
  C  C120  1  0.86117500  0.51626200  0.32910500  1
  C  C121  1  0.63882500  0.98373800  0.32910500  1
  C  C122  1  0.13882500  0.01626200  0.17089500  1
  C  C123  1  0.36117500  0.48373800  0.17089500  1
  C  C124  1  0.44470300  0.29127300  0.64885300  1
  C  C125  1  0.05529700  0.20872700  0.64885300  1
  C  C126  1  0.55529700  0.79127300  0.85114700  1
  C  C127  1  0.94470300  0.70872700  0.85114700  1
  C  C128  1  0.55529700  0.70872700  0.35114700  1
  C  C129  1  0.94470300  0.79127300  0.35114700  1
  C  C130  1  0.44470300  0.20872700  0.14885300  1
  C  C131  1  0.05529700  0.29127300  0.14885300  1
