# generated using pymatgen
data_Cu3Ni2C23
_symmetry_space_group_name_H-M   'P 1'
_cell_length_a   6.11979700
_cell_length_b   6.14625492
_cell_length_c   9.71154996
_cell_angle_alpha   91.35200666
_cell_angle_beta   90.45409721
_cell_angle_gamma   119.33916026
_symmetry_Int_Tables_number   1
_chemical_formula_structural   Cu3Ni2C23
_chemical_formula_sum   'Cu3 Ni2 C23'
_cell_volume   318.26647783
_cell_formula_units_Z   1
loop_
 _symmetry_equiv_pos_site_id
 _symmetry_equiv_pos_as_xyz
  1  'x, y, z'
loop_
 _atom_site_type_symbol
 _atom_site_label
 _atom_site_symmetry_multiplicity
 _atom_site_fract_x
 _atom_site_fract_y
 _atom_site_fract_z
 _atom_site_occupancy
  C  C0  1  0.34241700  0.67581700  0.11874000  1
  C  C1  1  0.01454900  0.02863800  0.01414400  1
  C  C2  1  0.01293500  0.02012400  0.49638200  1
  C  C3  1  0.67571800  0.35046100  0.59722400  1
  Ni  Ni4  1  0.32104300  0.65330500  0.50571700  1
  Ni  Ni5  1  0.65574100  0.30758600  0.02439500  1
  Cu  Cu6  1  0.16788800  0.33561700  0.78511800  1
  Cu  Cu7  1  0.33491400  0.16562900  0.28819800  1
  Cu  Cu8  1  0.82700000  0.16510000  0.28787000  1
  C  C9  1  0.16878600  0.83059500  0.78574800  1
  C  C10  1  0.66154200  0.82986800  0.78496000  1
  C  C11  1  0.82591600  0.65387300  0.28655100  1
  C  C12  1  0.14999000  0.81859600  0.40228800  1
  C  C13  1  0.48001700  0.96722500  0.66192000  1
  C  C14  1  0.34480700  0.68537500  0.89941900  1
  C  C15  1  0.98899800  0.98149500  0.68183500  1
  C  C16  1  0.97898700  0.97861500  0.19356400  1
  C  C17  1  0.66510500  0.82637200  0.40075100  1
  C  C18  1  0.04116300  0.53428000  0.65902000  1
  C  C19  1  0.49371600  0.53446500  0.65826400  1
  C  C20  1  0.84359000  0.68130200  0.89607700  1
  C  C21  1  0.15619400  0.32997300  0.40366000  1
  C  C22  1  0.53332500  0.48959100  0.15039300  1
  C  C23  1  0.95847500  0.47583800  0.15514100  1
  C  C24  1  0.68398700  0.34814400  0.39833300  1
  C  C25  1  0.31878900  0.14515000  0.90097500  1
  C  C26  1  0.52882100  0.04188800  0.15648500  1
  C  C27  1  0.82528700  0.14507600  0.89898800  1
