# generated using pymatgen
data_Cu2Ni5C14
_symmetry_space_group_name_H-M   'P 1'
_cell_length_a   9.09637400
_cell_length_b   5.09515000
_cell_length_c   9.86779442
_cell_angle_alpha   77.35997766
_cell_angle_beta   90.00000000
_cell_angle_gamma   90.00000000
_symmetry_Int_Tables_number   1
_chemical_formula_structural   Cu2Ni5C14
_chemical_formula_sum   'Cu4 Ni10 C28'
_cell_volume   446.26233312
_cell_formula_units_Z   2
loop_
 _symmetry_equiv_pos_site_id
 _symmetry_equiv_pos_as_xyz
  1  'x, y, z'
loop_
 _atom_site_type_symbol
 _atom_site_label
 _atom_site_symmetry_multiplicity
 _atom_site_fract_x
 _atom_site_fract_y
 _atom_site_fract_z
 _atom_site_occupancy
  C  C0  1  0.92065500  0.49621500  0.25835700  1
  C  C1  1  0.58053700  0.74399600  0.49361300  1
  C  C2  1  0.42065500  0.50378500  0.74164300  1
  C  C3  1  0.08053700  0.25600400  0.50638700  1
  Ni  Ni4  1  0.91736000  0.24672600  0.99844800  1
  Ni  Ni5  1  0.93373900  0.75421000  0.50463500  1
  Ni  Ni6  1  0.73811200  0.98723500  0.25961100  1
  Ni  Ni7  1  0.74587500  0.51423500  0.74017500  1
  Ni  Ni8  1  0.57249000  0.25037000  0.00746500  1
  Ni  Ni9  1  0.43373900  0.24579000  0.49536500  1
  Ni  Ni10  1  0.23811200  0.01276500  0.74038900  1
  Ni  Ni11  1  0.41736000  0.75327400  0.00155200  1
  Ni  Ni12  1  0.24587500  0.48576500  0.25982500  1
  Ni  Ni13  1  0.07249000  0.74963000  0.99253500  1
  Cu  Cu14  1  0.75232900  0.24638500  0.50485600  1
  Cu  Cu15  1  0.74269100  0.75404600  0.99566400  1
  Cu  Cu16  1  0.24269100  0.24595400  0.00433600  1
  Cu  Cu17  1  0.25232900  0.75361500  0.49514400  1
  C  C18  1  0.89599100  0.10680000  0.38092000  1
  C  C19  1  0.89746000  0.86913500  0.11115000  1
  C  C20  1  0.77192400  0.86019500  0.61571600  1
  C  C21  1  0.90582000  0.40616900  0.61075300  1
  C  C22  1  0.73882100  0.14975100  0.89054700  1
  C  C23  1  0.90044600  0.62079400  0.88632700  1
  C  C24  1  0.77303500  0.63355400  0.38121100  1
  C  C25  1  0.59573200  0.12493100  0.39594300  1
  C  C26  1  0.58906200  0.87464100  0.11472700  1
  C  C27  1  0.75427100  0.35757300  0.11615300  1
  C  C28  1  0.59641800  0.38003300  0.61643900  1
  C  C29  1  0.58649600  0.61666600  0.88424600  1
  C  C30  1  0.39599100  0.89320000  0.61908000  1
  C  C31  1  0.39746000  0.13086500  0.88885000  1
  C  C32  1  0.27192400  0.13980500  0.38428400  1
  C  C33  1  0.40582000  0.59383100  0.38924700  1
  C  C34  1  0.23882100  0.85024900  0.10945300  1
  C  C35  1  0.40044600  0.37920600  0.11367300  1
  C  C36  1  0.27303500  0.36644600  0.61878900  1
  C  C37  1  0.09573200  0.87506900  0.60405700  1
  C  C38  1  0.08906200  0.12535900  0.88527300  1
  C  C39  1  0.25427100  0.64242700  0.88384700  1
  C  C40  1  0.09641800  0.61996700  0.38356100  1
  C  C41  1  0.08649600  0.38333400  0.11575400  1
