# generated using pymatgen
data_CuNiC6
_symmetry_space_group_name_H-M   'P 1'
_cell_length_a   5.93076800
_cell_length_b   5.97421554
_cell_length_c   9.27570519
_cell_angle_alpha   91.80316990
_cell_angle_beta   89.16206376
_cell_angle_gamma   119.75355316
_symmetry_Int_Tables_number   1
_chemical_formula_structural   CuNiC6
_chemical_formula_sum   'Cu3 Ni3 C18'
_cell_volume   285.18531832
_cell_formula_units_Z   3
loop_
 _symmetry_equiv_pos_site_id
 _symmetry_equiv_pos_as_xyz
  1  'x, y, z'
loop_
 _atom_site_type_symbol
 _atom_site_label
 _atom_site_symmetry_multiplicity
 _atom_site_fract_x
 _atom_site_fract_y
 _atom_site_fract_z
 _atom_site_occupancy
  Ni  Ni0  1  0.16974600  0.82693500  0.79202100  1
  Ni  Ni1  1  0.82871500  0.65809900  0.28912100  1
  Ni  Ni2  1  0.33261400  0.16662600  0.29549700  1
  Cu  Cu3  1  0.66314600  0.82920300  0.78642800  1
  Cu  Cu4  1  0.17084900  0.33767600  0.78428100  1
  Cu  Cu5  1  0.82633300  0.16505600  0.28066300  1
  C  C6  1  0.33008200  0.66164700  0.51161900  1
  C  C7  1  0.67068900  0.33500000  0.01067700  1
  C  C8  1  0.65294900  0.82345400  0.40297600  1
  C  C9  1  0.47820500  0.52185100  0.64923400  1
  C  C10  1  0.33434700  0.67001600  0.88990300  1
  C  C11  1  0.00179700  0.99464400  0.70406300  1
  C  C12  1  0.99621000  0.99232700  0.20335900  1
  C  C13  1  0.16657500  0.33916300  0.40576100  1
  C  C14  1  0.46544200  0.95685000  0.65737300  1
  C  C15  1  0.03949400  0.53044700  0.65854000  1
  C  C16  1  0.83630800  0.17299500  0.90974000  1
  C  C17  1  0.16197400  0.80947700  0.40193500  1
  C  C18  1  0.96172000  0.48967400  0.15726400  1
  C  C19  1  0.51899800  0.04987300  0.15083800  1
  C  C20  1  0.66741600  0.34077400  0.38872000  1
  C  C21  1  0.83743700  0.65386500  0.90104400  1
  C  C22  1  0.54255600  0.50509600  0.15092700  1
  C  C23  1  0.34660000  0.16945000  0.90229200  1
