# generated using pymatgen
data_Cu(NiC)2
_symmetry_space_group_name_H-M   'P 1'
_cell_length_a   8.19294300
_cell_length_b   8.22062821
_cell_length_c   8.23533175
_cell_angle_alpha   109.53958594
_cell_angle_beta   109.40120883
_cell_angle_gamma   109.29562870
_symmetry_Int_Tables_number   1
_chemical_formula_structural   Cu(NiC)2
_chemical_formula_sum   'Cu8 Ni16 C16'
_cell_volume   427.90661183
_cell_formula_units_Z   8
loop_
 _symmetry_equiv_pos_site_id
 _symmetry_equiv_pos_as_xyz
  1  'x, y, z'
loop_
 _atom_site_type_symbol
 _atom_site_label
 _atom_site_symmetry_multiplicity
 _atom_site_fract_x
 _atom_site_fract_y
 _atom_site_fract_z
 _atom_site_occupancy
  C  C0  1  0.51292500  0.49943200  0.50096900  1
  C  C1  1  0.21407100  0.75989100  0.45572100  1
  C  C2  1  0.95912200  0.20840800  0.25840200  1
  C  C3  1  0.46209500  0.71208100  0.24617800  1
  C  C4  1  0.29120000  0.23876100  0.03553600  1
  C  C5  1  0.00156100  0.00990500  0.49857000  1
  C  C6  1  0.75949900  0.96442100  0.70403200  1
  C  C7  1  0.98758000  0.49937900  0.99179300  1
  C  C8  1  0.24390700  0.54413900  0.79370700  1
  C  C9  1  0.50343600  0.00880300  0.01227000  1
  C  C10  1  0.73484400  0.45113000  0.20111500  1
  C  C11  1  0.25105400  0.03571100  0.29559300  1
  C  C12  1  0.71029000  0.75093500  0.96179900  1
  C  C13  1  0.03886300  0.79702000  0.75528800  1
  C  C14  1  0.54614300  0.28881900  0.74937100  1
  C  C15  1  0.79114900  0.25081900  0.54361700  1
  Ni  Ni16  1  0.77194700  0.72316900  0.73095000  1
  Ni  Ni17  1  0.54981400  0.50991000  0.27715100  1
  Ni  Ni18  1  0.50726000  0.77106800  0.04545100  1
  Ni  Ni19  1  0.72401500  0.23175300  0.27130800  1
  Ni  Ni20  1  0.23572800  0.77165600  0.22604300  1
  Ni  Ni21  1  0.04035200  0.05162800  0.77620900  1
  Ni  Ni22  1  0.05543100  0.27864700  0.54164200  1
  Ni  Ni23  1  0.76521300  0.22372400  0.77745400  1
  Ni  Ni24  1  0.77460500  0.55001300  0.00870200  1
  Ni  Ni25  1  0.95824400  0.95321500  0.22605000  1
  Ni  Ni26  1  0.72469000  0.95748200  0.45022400  1
  Ni  Ni27  1  0.99395000  0.54143600  0.77026500  1
  Ni  Ni28  1  0.26452900  0.98874000  0.03887000  1
  Ni  Ni29  1  0.48737300  0.22289500  0.94910500  1
  Ni  Ni30  1  0.27697600  0.03451800  0.55112700  1
  Ni  Ni31  1  0.53857900  0.26824000  0.49040200  1
  Cu  Cu32  1  0.27214600  0.76127700  0.72162100  1
  Cu  Cu33  1  0.22245200  0.27661800  0.26556300  1
  Cu  Cu34  1  0.45426400  0.73272000  0.51058300  1
  Cu  Cu35  1  0.00818900  0.45820100  0.23553500  1
  Cu  Cu36  1  0.22603300  0.44853900  0.98734800  1
  Cu  Cu37  1  0.95609600  0.72373300  0.46120900  1
  Cu  Cu38  1  0.73500900  0.00901700  0.95907600  1
  Cu  Cu39  1  0.44936800  0.49214400  0.72414700  1
