# generated using pymatgen
data_Cu(Ni2C11)2
_symmetry_space_group_name_H-M   'P 1'
_cell_length_a   9.96065667
_cell_length_b   9.93187761
_cell_length_c   9.73036057
_cell_angle_alpha   60.86342236
_cell_angle_beta   60.56781309
_cell_angle_gamma   58.56876456
_symmetry_Int_Tables_number   1
_chemical_formula_structural   Cu(Ni2C11)2
_chemical_formula_sum   'Cu2 Ni8 C44'
_cell_volume   680.02720761
_cell_formula_units_Z   2
loop_
 _symmetry_equiv_pos_site_id
 _symmetry_equiv_pos_as_xyz
  1  'x, y, z'
loop_
 _atom_site_type_symbol
 _atom_site_label
 _atom_site_symmetry_multiplicity
 _atom_site_fract_x
 _atom_site_fract_y
 _atom_site_fract_z
 _atom_site_occupancy
  C  C0  1  0.95863400  0.54136600  0.95863400  1
  C  C1  1  0.54101400  0.95898600  0.95898600  1
  C  C2  1  0.29101400  0.70898600  0.70898600  1
  C  C3  1  0.70863400  0.29136600  0.70863400  1
  C  C4  1  0.54136600  0.95863400  0.54136600  1
  C  C5  1  0.95898600  0.54101400  0.54101400  1
  C  C6  1  0.70898600  0.29101400  0.29101400  1
  C  C7  1  0.29136600  0.70863400  0.29136600  1
  C  C8  1  0.12500000  0.12500000  0.12500000  1
  C  C9  1  0.12500000  0.12500000  0.62500000  1
  C  C10  1  0.12500000  0.62500000  0.12500000  1
  C  C11  1  0.62500000  0.12500000  0.12500000  1
  Ni  Ni12  1  0.91604500  0.91312100  0.90287000  1
  Ni  Ni13  1  0.33687900  0.33395500  0.98203600  1
  Ni  Ni14  1  0.90287000  0.26796400  0.91604500  1
  Ni  Ni15  1  0.26796400  0.90287000  0.91312100  1
  Ni  Ni16  1  0.98203600  0.34713000  0.33687900  1
  Ni  Ni17  1  0.34713000  0.98203600  0.33395500  1
  Ni  Ni18  1  0.91312100  0.91604500  0.26796400  1
  Ni  Ni19  1  0.33395500  0.33687900  0.34713000  1
  Cu  Cu20  1  0.50000000  0.50000000  0.50000000  1
  Cu  Cu21  1  0.75000000  0.75000000  0.75000000  1
  C  C22  1  0.94404200  0.76861600  0.01487900  1
  C  C23  1  0.31404900  0.56836200  0.55902300  1
  C  C24  1  0.03279200  0.94087100  0.76428600  1
  C  C25  1  0.30912900  0.21720800  0.98794900  1
  C  C26  1  0.76428600  0.26205100  0.03279200  1
  C  C27  1  0.22098500  0.48097300  0.97672800  1
  C  C28  1  0.55902300  0.55856500  0.31404900  1
  C  C29  1  0.56836200  0.31404900  0.55856500  1
  C  C30  1  0.32131400  0.97672800  0.48097300  1
  C  C31  1  0.26205100  0.76428600  0.94087100  1
  C  C32  1  0.48138400  0.30595800  0.97753700  1
  C  C33  1  0.55856500  0.55902300  0.56836200  1
  C  C34  1  0.01487900  0.27246300  0.94404200  1
  C  C35  1  0.27246300  0.01487900  0.76861600  1
  C  C36  1  0.76902700  0.02901500  0.92868600  1
  C  C37  1  0.97672800  0.32131400  0.22098500  1
  C  C38  1  0.27327200  0.92868600  0.02901500  1
  C  C39  1  0.48097300  0.22098500  0.32131400  1
  C  C40  1  0.97753700  0.23512100  0.48138400  1
  C  C41  1  0.23512100  0.97753700  0.30595800  1
  C  C42  1  0.69143500  0.69097700  0.68163800  1
  C  C43  1  0.76861600  0.94404200  0.27246300  1
  C  C44  1  0.98794900  0.48571400  0.30912900  1
  C  C45  1  0.92868600  0.27327200  0.76902700  1
  C  C46  1  0.68163800  0.93595100  0.69143500  1
  C  C47  1  0.69097700  0.69143500  0.93595100  1
  C  C48  1  0.02901500  0.76902700  0.27327200  1
  C  C49  1  0.48571400  0.98794900  0.21720800  1
  C  C50  1  0.94087100  0.03279200  0.26205100  1
  C  C51  1  0.21720800  0.30912900  0.48571400  1
  C  C52  1  0.93595100  0.68163800  0.69097700  1
  C  C53  1  0.30595800  0.48138400  0.23512100  1
