# generated using pymatgen
data_Cu14Ni2C13
_symmetry_space_group_name_H-M   'P 1'
_cell_length_a   10.49844400
_cell_length_b   8.79770800
_cell_length_c   12.15342154
_cell_angle_alpha   81.92439946
_cell_angle_beta   90.00000000
_cell_angle_gamma   90.00000000
_symmetry_Int_Tables_number   1
_chemical_formula_structural   Cu14Ni2C13
_chemical_formula_sum   'Cu56 Ni8 C52'
_cell_volume   1111.38593214
_cell_formula_units_Z   4
loop_
 _symmetry_equiv_pos_site_id
 _symmetry_equiv_pos_as_xyz
  1  'x, y, z'
loop_
 _atom_site_type_symbol
 _atom_site_label
 _atom_site_symmetry_multiplicity
 _atom_site_fract_x
 _atom_site_fract_y
 _atom_site_fract_z
 _atom_site_occupancy
  C  C0  1  0.38099200  0.88303400  0.34684300  1
  C  C1  1  0.88099200  0.11696600  0.15315700  1
  C  C2  1  0.61900800  0.11696600  0.65315700  1
  C  C3  1  0.11900800  0.88303400  0.84684300  1
  Ni  Ni4  1  0.65015100  0.70614800  0.41802900  1
  Ni  Ni5  1  0.15015100  0.29385200  0.08197100  1
  Ni  Ni6  1  0.34984900  0.29385200  0.58197100  1
  Ni  Ni7  1  0.84984900  0.70614800  0.91802900  1
  Ni  Ni8  1  0.48748800  0.80071100  0.60088900  1
  Ni  Ni9  1  0.98748800  0.19928900  0.89911100  1
  Ni  Ni10  1  0.51251200  0.19928900  0.39911100  1
  Ni  Ni11  1  0.01251200  0.80071100  0.10088900  1
  Cu  Cu12  1  0.39592100  0.56349600  0.62521200  1
  Cu  Cu13  1  0.89592100  0.43650400  0.87478800  1
  Cu  Cu14  1  0.60407900  0.43650400  0.37478800  1
  Cu  Cu15  1  0.10407900  0.56349600  0.12521200  1
  Cu  Cu16  1  0.22311500  0.09289500  0.39581700  1
  Cu  Cu17  1  0.72311500  0.90710500  0.10418300  1
  Cu  Cu18  1  0.77688500  0.90710500  0.60418300  1
  Cu  Cu19  1  0.27688500  0.09289500  0.89581700  1
  Cu  Cu20  1  0.13981100  0.93124900  0.39726600  1
  Cu  Cu21  1  0.63981100  0.06875100  0.10273400  1
  Cu  Cu22  1  0.86018900  0.06875100  0.60273400  1
  Cu  Cu23  1  0.36018900  0.93124900  0.89726600  1
  Cu  Cu24  1  0.17284300  0.04237100  0.27782400  1
  Cu  Cu25  1  0.67284300  0.95762900  0.22217600  1
  Cu  Cu26  1  0.82715700  0.95762900  0.72217600  1
  Cu  Cu27  1  0.32715700  0.04237100  0.77782400  1
  Cu  Cu28  1  0.33980500  0.02297200  0.14789400  1
  Cu  Cu29  1  0.83980500  0.97702800  0.35210600  1
  Cu  Cu30  1  0.66019500  0.97702800  0.85210600  1
  Cu  Cu31  1  0.16019500  0.02297200  0.64789400  1
  Cu  Cu32  1  0.28074900  0.84881000  0.15148700  1
  Cu  Cu33  1  0.78074900  0.15119000  0.34851300  1
  Cu  Cu34  1  0.71925100  0.15119000  0.84851300  1
  Cu  Cu35  1  0.21925100  0.84881000  0.65148700  1
  Cu  Cu36  1  0.43373900  0.87138500  0.13377300  1
  Cu  Cu37  1  0.93373900  0.12861500  0.36622700  1
  Cu  Cu38  1  0.56626100  0.12861500  0.86622700  1
  Cu  Cu39  1  0.06626100  0.87138500  0.63377300  1
  Cu  Cu40  1  0.31757900  0.61855300  0.29447300  1
  Cu  Cu41  1  0.81757900  0.38144700  0.20552700  1
  Cu  Cu42  1  0.68242100  0.38144700  0.70552700  1
  Cu  Cu43  1  0.18242100  0.61855300  0.79447300  1
  Cu  Cu44  1  0.29359700  0.61062200  0.43094100  1
  Cu  Cu45  1  0.79359700  0.38937800  0.06905900  1
  Cu  Cu46  1  0.70640300  0.38937800  0.56905900  1
  Cu  Cu47  1  0.20640300  0.61062200  0.93094100  1
  Cu  Cu48  1  0.18522900  0.69166500  0.34129800  1
  Cu  Cu49  1  0.68522900  0.30833500  0.15870200  1
  Cu  Cu50  1  0.81477100  0.30833500  0.65870200  1
  Cu  Cu51  1  0.31477100  0.69166500  0.84129800  1
  Cu  Cu52  1  0.03083500  0.46084800  0.70693700  1
  Cu  Cu53  1  0.53083500  0.53915200  0.79306300  1
  Cu  Cu54  1  0.96916500  0.53915200  0.29306300  1
  Cu  Cu55  1  0.46916500  0.46084800  0.20693700  1
  Cu  Cu56  1  0.15669100  0.46247900  0.63799400  1
  Cu  Cu57  1  0.65669100  0.53752100  0.86200600  1
  Cu  Cu58  1  0.84330900  0.53752100  0.36200600  1
  Cu  Cu59  1  0.34330900  0.46247900  0.13799400  1
  Cu  Cu60  1  0.92950800  0.75626000  0.45841800  1
  Cu  Cu61  1  0.42950800  0.24374000  0.04158200  1
  Cu  Cu62  1  0.07049200  0.24374000  0.54158200  1
  Cu  Cu63  1  0.57049200  0.75626000  0.95841800  1
  Cu  Cu64  1  0.03083800  0.66827000  0.54177800  1
  Cu  Cu65  1  0.53083800  0.33173000  0.95822200  1
  Cu  Cu66  1  0.96916200  0.33173000  0.45822200  1
  Cu  Cu67  1  0.46916200  0.66827000  0.04177800  1
  C  C68  1  0.20783200  0.00057400  0.35483900  1
  C  C69  1  0.70783200  0.99942600  0.14516100  1
  C  C70  1  0.79216800  0.99942600  0.64516100  1
  C  C71  1  0.29216800  0.00057400  0.85483900  1
  C  C72  1  0.35724400  0.90815100  0.17564100  1
  C  C73  1  0.85724400  0.09184900  0.32435900  1
  C  C74  1  0.64275600  0.09184900  0.82435900  1
  C  C75  1  0.14275600  0.90815100  0.67564100  1
  C  C76  1  0.28098400  0.67716600  0.35487600  1
  C  C77  1  0.78098400  0.32283400  0.14512400  1
  C  C78  1  0.71901600  0.32283400  0.64512400  1
  C  C79  1  0.21901600  0.67716600  0.85487600  1
  C  C80  1  0.54278300  0.76696600  0.33848200  1
  C  C81  1  0.04278300  0.23303400  0.16151800  1
  C  C82  1  0.45721700  0.23303400  0.66151800  1
  C  C83  1  0.95721700  0.76696600  0.83848200  1
  C  C84  1  0.77875200  0.77783000  0.38904500  1
  C  C85  1  0.27875200  0.22217000  0.11095500  1
  C  C86  1  0.22124800  0.22217000  0.61095500  1
  C  C87  1  0.72124800  0.77783000  0.88904500  1
  C  C88  1  0.65659100  0.52936300  0.43500400  1
  C  C89  1  0.15659100  0.47063700  0.06499600  1
  C  C90  1  0.34340900  0.47063700  0.56499600  1
  C  C91  1  0.84340900  0.52936300  0.93500400  1
  C  C92  1  0.61605200  0.75264600  0.54207100  1
  C  C93  1  0.11605200  0.24735400  0.95792900  1
  C  C94  1  0.38394800  0.24735400  0.45792900  1
  C  C95  1  0.88394800  0.75264600  0.04207100  1
  C  C96  1  0.38925300  0.86057800  0.51275100  1
  C  C97  1  0.88925300  0.13942200  0.98724900  1
  C  C98  1  0.61074700  0.13942200  0.48724900  1
  C  C99  1  0.11074700  0.86057800  0.01275100  1
  C  C100  1  0.52426500  0.91502700  0.67751800  1
  C  C101  1  0.02426500  0.08497300  0.82248200  1
  C  C102  1  0.47573500  0.08497300  0.32248200  1
  C  C103  1  0.97573500  0.91502700  0.17751800  1
  C  C104  1  0.43572000  0.65372400  0.67452500  1
  C  C105  1  0.93572000  0.34627600  0.82547500  1
  C  C106  1  0.56428000  0.34627600  0.32547500  1
  C  C107  1  0.06428000  0.65372400  0.17452500  1
  C  C108  1  0.09085000  0.52979700  0.66166200  1
  C  C109  1  0.59085000  0.47020300  0.83833800  1
  C  C110  1  0.90915000  0.47020300  0.33833800  1
  C  C111  1  0.40915000  0.52979700  0.16166200  1
  C  C112  1  0.01572400  0.76418600  0.49048600  1
  C  C113  1  0.51572400  0.23581400  0.00951400  1
  C  C114  1  0.98427600  0.23581400  0.50951400  1
  C  C115  1  0.48427600  0.76418600  0.99048600  1
