# generated using pymatgen
data_CuNiC10
_symmetry_space_group_name_H-M   'P 1'
_cell_length_a   5.01757094
_cell_length_b   11.77721438
_cell_length_c   11.77769144
_cell_angle_alpha   118.20817442
_cell_angle_beta   90.63324516
_cell_angle_gamma   89.36720272
_symmetry_Int_Tables_number   1
_chemical_formula_structural   CuNiC10
_chemical_formula_sum   'Cu4 Ni4 C40'
_cell_volume   613.27112616
_cell_formula_units_Z   4
loop_
 _symmetry_equiv_pos_site_id
 _symmetry_equiv_pos_as_xyz
  1  'x, y, z'
loop_
 _atom_site_type_symbol
 _atom_site_label
 _atom_site_symmetry_multiplicity
 _atom_site_fract_x
 _atom_site_fract_y
 _atom_site_fract_z
 _atom_site_occupancy
  Ni  Ni0  1  0.46957700  0.48539900  0.26456400  1
  Ni  Ni1  1  0.46958000  0.98540400  0.76457400  1
  Ni  Ni2  1  0.53042000  0.51460000  0.73543300  1
  Ni  Ni3  1  0.53042300  0.01459400  0.23542600  1
  Cu  Cu4  1  0.96861100  0.76107200  0.48893400  1
  Cu  Cu5  1  0.03132500  0.23893200  0.51106500  1
  Cu  Cu6  1  0.96873500  0.26110100  0.98895700  1
  Cu  Cu7  1  0.03134700  0.73891100  0.01106800  1
  C  C8  1  0.44662400  0.17249900  0.07741600  1
  C  C9  1  0.44657400  0.67250000  0.57742500  1
  C  C10  1  0.55341200  0.82750000  0.92257900  1
  C  C11  1  0.55340100  0.32749800  0.42257600  1
  C  C12  1  0.88907000  0.57167700  0.17836200  1
  C  C13  1  0.88907300  0.07168200  0.67837800  1
  C  C14  1  0.11092700  0.42832500  0.82163000  1
  C  C15  1  0.11091400  0.92831700  0.32162900  1
  C  C16  1  0.64220800  0.40152400  0.34851900  1
  C  C17  1  0.64222300  0.90152700  0.84852600  1
  C  C18  1  0.35777500  0.59847300  0.65148100  1
  C  C19  1  0.35782300  0.09847400  0.15147200  1
  C  C20  1  0.74580700  0.17603700  0.07385200  1
  C  C21  1  0.74576400  0.67602700  0.57387100  1
  C  C22  1  0.25422600  0.82397700  0.92613200  1
  C  C23  1  0.25421400  0.32396900  0.42613100  1
  C  C24  1  0.18562500  0.54870900  0.20124200  1
  C  C25  1  0.18563000  0.04871900  0.70126000  1
  C  C26  1  0.81436600  0.45128600  0.79875400  1
  C  C27  1  0.81435200  0.95127700  0.29874700  1
  C  C28  1  0.13590600  0.35433100  0.89555500  1
  C  C29  1  0.13586900  0.85431400  0.39554900  1
  C  C30  1  0.86411600  0.64567400  0.10443700  1
  C  C31  1  0.86412300  0.14568400  0.60445500  1
  C  C32  1  0.31086800  0.10692800  0.93970200  1
  C  C33  1  0.31084400  0.60692500  0.43970000  1
  C  C34  1  0.31090900  0.31023400  0.14299400  1
  C  C35  1  0.31087800  0.81023400  0.64300000  1
  C  C36  1  0.68910600  0.68976200  0.85700600  1
  C  C37  1  0.68910200  0.18976300  0.35700400  1
  C  C38  1  0.68914700  0.89306800  0.06030300  1
  C  C39  1  0.68913700  0.39307000  0.56029700  1
  C  C40  1  0.73531600  0.63336900  0.31071400  1
  C  C41  1  0.73532000  0.13337800  0.81072900  1
  C  C42  1  0.73534200  0.43930100  0.11664900  1
  C  C43  1  0.73534600  0.93930400  0.61666300  1
  C  C44  1  0.26467500  0.36663100  0.68927700  1
  C  C45  1  0.26467400  0.86662300  0.18927700  1
  C  C46  1  0.26466100  0.56070200  0.88334500  1
  C  C47  1  0.26463200  0.06069500  0.38333900  1
