# generated using pymatgen
data_Cu3(NiC5)2
_symmetry_space_group_name_H-M   'P 1'
_cell_length_a   6.66931158
_cell_length_b   6.66931158
_cell_length_c   8.58521434
_cell_angle_alpha   49.91178034
_cell_angle_beta   49.91178034
_cell_angle_gamma   48.19425791
_symmetry_Int_Tables_number   1
_chemical_formula_structural   Cu3(NiC5)2
_chemical_formula_sum   'Cu3 Ni2 C10'
_cell_volume   201.74908000
_cell_formula_units_Z   1
loop_
 _symmetry_equiv_pos_site_id
 _symmetry_equiv_pos_as_xyz
  1  'x, y, z'
loop_
 _atom_site_type_symbol
 _atom_site_label
 _atom_site_symmetry_multiplicity
 _atom_site_fract_x
 _atom_site_fract_y
 _atom_site_fract_z
 _atom_site_occupancy
  Ni  Ni0  1  0.30075300  0.30075300  0.09914100  1
  Ni  Ni1  1  0.69924700  0.69924700  0.90085900  1
  Cu  Cu2  1  0.09982900  0.09982900  0.69993100  1
  Cu  Cu3  1  0.50000000  0.50000000  0.50000000  1
  Cu  Cu4  1  0.90017100  0.90017100  0.30006900  1
  C  C5  1  0.65967900  0.15671500  0.78716400  1
  C  C6  1  0.15671500  0.65967900  0.78716400  1
  C  C7  1  0.45327100  0.94556300  0.40553400  1
  C  C8  1  0.94556300  0.45327100  0.40553400  1
  C  C9  1  0.84328500  0.34032100  0.21283600  1
  C  C10  1  0.24118000  0.75882000  0.00000000  1
  C  C11  1  0.34032100  0.84328500  0.21283600  1
  C  C12  1  0.75882000  0.24118000  0.00000000  1
  C  C13  1  0.05443700  0.54672900  0.59446600  1
  C  C14  1  0.54672900  0.05443700  0.59446600  1
