# generated using pymatgen
data_Cu3Ni3C20
_symmetry_space_group_name_H-M   'P 1'
_cell_length_a   8.31181755
_cell_length_b   10.06546607
_cell_length_c   8.38521373
_cell_angle_alpha   108.74171660
_cell_angle_beta   103.08491664
_cell_angle_gamma   106.88875076
_symmetry_Int_Tables_number   1
_chemical_formula_structural   Cu3Ni3C20
_chemical_formula_sum   'Cu6 Ni6 C40'
_cell_volume   594.78795317
_cell_formula_units_Z   2
loop_
 _symmetry_equiv_pos_site_id
 _symmetry_equiv_pos_as_xyz
  1  'x, y, z'
loop_
 _atom_site_type_symbol
 _atom_site_label
 _atom_site_symmetry_multiplicity
 _atom_site_fract_x
 _atom_site_fract_y
 _atom_site_fract_z
 _atom_site_occupancy
  Ni  Ni0  1  0.28707100  0.08404600  0.55759700  1
  Ni  Ni1  1  0.78730500  0.08402900  0.05742400  1
  Ni  Ni2  1  0.25534900  0.25547300  0.25350700  1
  Ni  Ni3  1  0.75511300  0.25546400  0.75350200  1
  Ni  Ni4  1  0.20634800  0.91413000  0.94901200  1
  Ni  Ni5  1  0.70619300  0.91410000  0.44915300  1
  Cu  Cu6  1  0.02157900  0.28582200  0.48812000  1
  Cu  Cu7  1  0.52138100  0.28535200  0.98862800  1
  Cu  Cu8  1  0.48725500  0.72162200  0.01274400  1
  Cu  Cu9  1  0.98698500  0.72149300  0.51281000  1
  Cu  Cu10  1  0.25580800  0.72391000  0.23557200  1
  Cu  Cu11  1  0.75581000  0.72402100  0.73584900  1
  C  C12  1  0.69492300  0.34990700  0.44023500  1
  C  C13  1  0.80966000  0.65445300  0.05845200  1
  C  C14  1  0.19507400  0.35004300  0.94018100  1
  C  C15  1  0.30962500  0.65461300  0.55816500  1
  C  C16  1  0.43570300  0.42407100  0.68825600  1
  C  C17  1  0.93579500  0.42403400  0.18836100  1
  C  C18  1  0.06381300  0.58195600  0.80733100  1
  C  C19  1  0.56373100  0.58189000  0.30732800  1
  C  C20  1  0.01051500  0.04341800  0.76179500  1
  C  C21  1  0.51077000  0.04357800  0.26154700  1
  C  C22  1  0.48663700  0.95199600  0.74617400  1
  C  C23  1  0.98661200  0.95201500  0.24608300  1
  C  C24  1  0.05977800  0.09950000  0.33719500  1
  C  C25  1  0.55989100  0.09944600  0.83736700  1
  C  C26  1  0.15341300  0.11220400  0.90700600  1
  C  C27  1  0.65338000  0.11219300  0.40699600  1
  C  C28  1  0.94921800  0.12631500  0.69543300  1
  C  C29  1  0.44988100  0.12661300  0.19502000  1
  C  C30  1  0.52514300  0.32947400  0.58182000  1
  C  C31  1  0.02550100  0.32968900  0.08208200  1
  C  C32  1  0.35649600  0.32987700  0.78862100  1
  C  C33  1  0.85670400  0.32994600  0.28894300  1
  C  C34  1  0.28078700  0.43331800  0.55264200  1
  C  C35  1  0.78076500  0.43312300  0.05275500  1
  C  C36  1  0.93853000  0.41742100  0.66835400  1
  C  C37  1  0.43838500  0.41738300  0.16823300  1
  C  C38  1  0.57151600  0.58757900  0.82188100  1
  C  C39  1  0.07128500  0.58764100  0.32180400  1
  C  C40  1  0.21079900  0.57687400  0.95718400  1
  C  C41  1  0.71063500  0.57683700  0.45733600  1
  C  C42  1  0.15264300  0.67885900  0.71478500  1
  C  C43  1  0.65285500  0.67883300  0.21501100  1
  C  C44  1  0.95658600  0.66919500  0.89331000  1
  C  C45  1  0.45657600  0.66933500  0.39311400  1
  C  C46  1  0.55274500  0.86384100  0.79714100  1
  C  C47  1  0.05291000  0.86403100  0.29724700  1
  C  C48  1  0.34467600  0.88975400  0.60115200  1
  C  C49  1  0.84462600  0.88964600  0.10106300  1
  C  C50  1  0.43264300  0.89488500  0.18410800  1
  C  C51  1  0.93257100  0.89475000  0.68456600  1
