# generated using pymatgen
data_CuNiC10
_symmetry_space_group_name_H-M   'P 1'
_cell_length_a   5.17724000
_cell_length_b   8.92107815
_cell_length_c   13.42919602
_cell_angle_alpha   90.55834154
_cell_angle_beta   90.25527458
_cell_angle_gamma   91.34232616
_symmetry_Int_Tables_number   1
_chemical_formula_structural   CuNiC10
_chemical_formula_sum   'Cu4 Ni4 C40'
_cell_volume   620.04194528
_cell_formula_units_Z   4
loop_
 _symmetry_equiv_pos_site_id
 _symmetry_equiv_pos_as_xyz
  1  'x, y, z'
loop_
 _atom_site_type_symbol
 _atom_site_label
 _atom_site_symmetry_multiplicity
 _atom_site_fract_x
 _atom_site_fract_y
 _atom_site_fract_z
 _atom_site_occupancy
  C  C0  1  0.24313300  0.74950700  0.99434900  1
  C  C1  1  0.24553000  0.75969100  0.75465700  1
  C  C2  1  0.24635400  0.75527000  0.49447900  1
  C  C3  1  0.24804900  0.74484100  0.25829200  1
  C  C4  1  0.75524300  0.24181500  0.74578500  1
  C  C5  1  0.75535300  0.23858500  0.49882800  1
  C  C6  1  0.75510800  0.25524100  0.00576200  1
  C  C7  1  0.23023800  0.08580400  0.13875100  1
  C  C8  1  0.78369500  0.64819000  0.62426500  1
  C  C9  1  0.77716000  0.64546900  0.12568800  1
  C  C10  1  0.22331400  0.35424500  0.87424600  1
  C  C11  1  0.20820000  0.34398000  0.36942100  1
  Ni  Ni12  1  0.70659600  0.57991400  0.87781000  1
  Ni  Ni13  1  0.70907100  0.57539900  0.37244600  1
  Ni  Ni14  1  0.28937400  0.42107900  0.62577300  1
  Ni  Ni15  1  0.30193500  0.42113700  0.12272800  1
  Cu  Cu16  1  0.73033900  0.92497100  0.62481100  1
  Cu  Cu17  1  0.72145400  0.93268100  0.12359300  1
  Cu  Cu18  1  0.26614400  0.07115800  0.37681300  1
  Cu  Cu19  1  0.27632500  0.07260600  0.87518100  1
  C  C20  1  0.27069700  0.93218200  0.87862800  1
  C  C21  1  0.28650100  0.93140700  0.37492800  1
  C  C22  1  0.95099500  0.85281700  0.62516600  1
  C  C23  1  0.93741900  0.85417400  0.12726500  1
  C  C24  1  0.50745900  0.85405600  0.12633600  1
  C  C25  1  0.53035500  0.83215300  0.62557100  1
  C  C26  1  0.77818800  0.67026200  0.97415400  1
  C  C27  1  0.78218700  0.67329500  0.78668100  1
  C  C28  1  0.77777900  0.67532500  0.46350800  1
  C  C29  1  0.77794400  0.66471300  0.27635100  1
  C  C30  1  0.40214600  0.55206600  0.87736800  1
  C  C31  1  0.40858000  0.54199500  0.37199400  1
  C  C32  1  0.15593900  0.57657600  0.62613800  1
  C  C33  1  0.16853200  0.57406600  0.12377500  1
  C  C34  1  0.83422900  0.42491200  0.87680600  1
  C  C35  1  0.85228700  0.42565800  0.37657700  1
  C  C36  1  0.59195500  0.45432400  0.62579400  1
  C  C37  1  0.60244700  0.45358400  0.11732200  1
  C  C38  1  0.22132800  0.33315500  0.72121900  1
  C  C39  1  0.21410500  0.32729900  0.53417800  1
  C  C40  1  0.23663900  0.32352400  0.21240300  1
  C  C41  1  0.22867600  0.32424000  0.02880200  1
  C  C42  1  0.48293100  0.15747200  0.87431600  1
  C  C43  1  0.46053100  0.16725600  0.37732600  1
  C  C44  1  0.05875000  0.14969500  0.87392900  1
  C  C45  1  0.04191100  0.13776100  0.37402900  1
  C  C46  1  0.71983900  0.06434300  0.62383800  1
  C  C47  1  0.73418300  0.07338100  0.11797000  1
