# generated using pymatgen
data_Cu(NiC4)3
_symmetry_space_group_name_H-M   'P 1'
_cell_length_a   5.11581375
_cell_length_b   5.16349561
_cell_length_c   11.84178665
_cell_angle_alpha   89.99961441
_cell_angle_beta   90.00033405
_cell_angle_gamma   70.69563731
_symmetry_Int_Tables_number   1
_chemical_formula_structural   Cu(NiC4)3
_chemical_formula_sum   'Cu2 Ni6 C24'
_cell_volume   295.21919950
_cell_formula_units_Z   2
loop_
 _symmetry_equiv_pos_site_id
 _symmetry_equiv_pos_as_xyz
  1  'x, y, z'
loop_
 _atom_site_type_symbol
 _atom_site_label
 _atom_site_symmetry_multiplicity
 _atom_site_fract_x
 _atom_site_fract_y
 _atom_site_fract_z
 _atom_site_occupancy
  C  C0  1  0.00000200  0.99999100  0.49999900  1
  C  C1  1  0.99999900  0.00001600  0.00000000  1
  C  C2  1  0.00000800  0.00000200  0.25000200  1
  C  C3  1  0.00000500  0.99999600  0.74999900  1
  C  C4  1  0.49998300  0.00001000  0.12499900  1
  C  C5  1  0.49999600  0.99999500  0.62499700  1
  C  C6  1  0.49999300  0.99999500  0.37499900  1
  C  C7  1  0.49999200  0.00000200  0.87500400  1
  Ni  Ni8  1  0.50000300  0.49997000  0.24999200  1
  Ni  Ni9  1  0.00001000  0.49997800  0.62468900  1
  Ni  Ni10  1  0.00000500  0.50002700  0.87530600  1
  Ni  Ni11  1  0.50002500  0.49997500  0.75000200  1
  Ni  Ni12  1  0.99999100  0.50005900  0.12470000  1
  Ni  Ni13  1  0.00000500  0.49999000  0.37530800  1
  Cu  Cu14  1  0.49997500  0.50002600  0.49999500  1
  Cu  Cu15  1  0.50000200  0.49998700  0.00000000  1
  C  C16  1  0.24402500  0.27361200  0.00001100  1
  C  C17  1  0.24404200  0.27355800  0.49999600  1
  C  C18  1  0.75595900  0.72641200  0.49999700  1
  C  C19  1  0.75594600  0.72644300  0.00000400  1
  C  C20  1  0.24088400  0.27361700  0.24999800  1
  C  C21  1  0.24090500  0.27360100  0.75000200  1
  C  C22  1  0.75909200  0.72640400  0.25000700  1
  C  C23  1  0.75909900  0.72639000  0.74999600  1
  C  C24  1  0.25872600  0.72643700  0.12441400  1
  C  C25  1  0.25872900  0.72639700  0.62441700  1
  C  C26  1  0.74129200  0.27358500  0.12441100  1
  C  C27  1  0.74127200  0.27356900  0.62441300  1
  C  C28  1  0.25872700  0.72638800  0.37558100  1
  C  C29  1  0.25874000  0.72641800  0.87558800  1
  C  C30  1  0.74128200  0.27356900  0.37558400  1
  C  C31  1  0.74129200  0.27358200  0.87559100  1
