# generated using pymatgen
data_Cu7Ni6C17
_symmetry_space_group_name_H-M   'P 1'
_cell_length_a   11.58973578
_cell_length_b   11.58973578
_cell_length_c   7.93989600
_cell_angle_alpha   90.00000000
_cell_angle_beta   90.00000000
_cell_angle_gamma   127.85676906
_symmetry_Int_Tables_number   1
_chemical_formula_structural   Cu7Ni6C17
_chemical_formula_sum   'Cu14 Ni12 C34'
_cell_volume   842.05423678
_cell_formula_units_Z   2
loop_
 _symmetry_equiv_pos_site_id
 _symmetry_equiv_pos_as_xyz
  1  'x, y, z'
loop_
 _atom_site_type_symbol
 _atom_site_label
 _atom_site_symmetry_multiplicity
 _atom_site_fract_x
 _atom_site_fract_y
 _atom_site_fract_z
 _atom_site_occupancy
  C  C0  1  0.00000000  0.00000000  0.00000000  1
  C  C1  1  0.00000000  0.00000000  0.50000000  1
  C  C2  1  0.83948200  0.16051800  0.75000000  1
  C  C3  1  0.16051800  0.83948200  0.25000000  1
  C  C4  1  0.28832000  0.05043200  0.75000000  1
  C  C5  1  0.39971700  0.02774600  0.85529700  1
  C  C6  1  0.39971700  0.02774600  0.64470300  1
  C  C7  1  0.46856500  0.18979500  0.75000000  1
  C  C8  1  0.50777000  0.32467700  0.25000000  1
  C  C9  1  0.92193400  0.07806600  0.25000000  1
  C  C10  1  0.87323600  0.12676400  0.03094700  1
  C  C11  1  0.87323600  0.12676400  0.46905300  1
  C  C12  1  0.53363100  0.46636900  0.14658200  1
  C  C13  1  0.53363100  0.46636900  0.35341800  1
  C  C14  1  0.67532300  0.49223000  0.25000000  1
  C  C15  1  0.05043200  0.28832000  0.25000000  1
  C  C16  1  0.81020500  0.53143500  0.75000000  1
  C  C17  1  0.02774600  0.39971700  0.14470300  1
  C  C18  1  0.02774600  0.39971700  0.35529700  1
  C  C19  1  0.97225400  0.60028300  0.85529700  1
  C  C20  1  0.97225400  0.60028300  0.64470300  1
  C  C21  1  0.18979500  0.46856500  0.25000000  1
  C  C22  1  0.94956800  0.71168000  0.75000000  1
  C  C23  1  0.32467700  0.50777000  0.75000000  1
  C  C24  1  0.46636900  0.53363100  0.85341800  1
  C  C25  1  0.46636900  0.53363100  0.64658200  1
  C  C26  1  0.12676400  0.87323600  0.96905300  1
  C  C27  1  0.07806600  0.92193400  0.75000000  1
  C  C28  1  0.12676400  0.87323600  0.53094700  1
  C  C29  1  0.49223000  0.67532300  0.75000000  1
  C  C30  1  0.53143500  0.81020500  0.25000000  1
  C  C31  1  0.60028300  0.97225400  0.14470300  1
  C  C32  1  0.60028300  0.97225400  0.35529700  1
  C  C33  1  0.71168000  0.94956800  0.25000000  1
  Ni  Ni34  1  0.38904500  0.07236700  0.75000000  1
  Ni  Ni35  1  0.97125800  0.02874200  0.25000000  1
  Ni  Ni36  1  0.90369900  0.09630100  0.57112600  1
  Ni  Ni37  1  0.90369900  0.09630100  0.92887400  1
  Ni  Ni38  1  0.56353800  0.43646200  0.25000000  1
  Ni  Ni39  1  0.07236700  0.38904500  0.25000000  1
  Ni  Ni40  1  0.92763300  0.61095500  0.75000000  1
  Ni  Ni41  1  0.09630100  0.90369900  0.07112600  1
  Ni  Ni42  1  0.43646200  0.56353800  0.75000000  1
  Ni  Ni43  1  0.09630100  0.90369900  0.42887400  1
  Ni  Ni44  1  0.02874200  0.97125800  0.75000000  1
  Ni  Ni45  1  0.61095500  0.92763300  0.25000000  1
  Cu  Cu46  1  0.41233700  0.06476900  0.25000000  1
  Cu  Cu47  1  0.59304400  0.40695600  0.75000000  1
  Cu  Cu48  1  0.75488100  0.24511900  0.52326700  1
  Cu  Cu49  1  0.75488100  0.24511900  0.97673300  1
  Cu  Cu50  1  0.23840100  0.23840100  0.00000000  1
  Cu  Cu51  1  0.23840100  0.23840100  0.50000000  1
  Cu  Cu52  1  0.06476900  0.41233700  0.75000000  1
  Cu  Cu53  1  0.93523100  0.58766300  0.25000000  1
  Cu  Cu54  1  0.40695600  0.59304400  0.25000000  1
  Cu  Cu55  1  0.24511900  0.75488100  0.02326700  1
  Cu  Cu56  1  0.24511900  0.75488100  0.47673300  1
  Cu  Cu57  1  0.58766300  0.93523100  0.75000000  1
  Cu  Cu58  1  0.76159900  0.76159900  0.00000000  1
  Cu  Cu59  1  0.76159900  0.76159900  0.50000000  1
