# generated using pymatgen
data_CuNiC20
_symmetry_space_group_name_H-M   'P 1'
_cell_length_a   8.25641000
_cell_length_b   7.15309800
_cell_length_c   9.76682966
_cell_angle_alpha   68.63121948
_cell_angle_beta   90.00000000
_cell_angle_gamma   90.00000000
_symmetry_Int_Tables_number   1
_chemical_formula_structural   CuNiC20
_chemical_formula_sum   'Cu2 Ni2 C40'
_cell_volume   537.16464496
_cell_formula_units_Z   2
loop_
 _symmetry_equiv_pos_site_id
 _symmetry_equiv_pos_as_xyz
  1  'x, y, z'
loop_
 _atom_site_type_symbol
 _atom_site_label
 _atom_site_symmetry_multiplicity
 _atom_site_fract_x
 _atom_site_fract_y
 _atom_site_fract_z
 _atom_site_occupancy
  C  C0  1  0.63711400  0.67633400  0.50000600  1
  C  C1  1  0.13711400  0.32366600  0.49999400  1
  C  C2  1  0.63729200  0.67506800  0.00058000  1
  C  C3  1  0.13729200  0.32493200  0.99942000  1
  Ni  Ni4  1  0.99969400  0.72827100  0.49392200  1
  Ni  Ni5  1  0.49969400  0.27172900  0.50607800  1
  Cu  Cu6  1  0.00093400  0.73267100  0.99204300  1
  Cu  Cu7  1  0.50093400  0.26732900  0.00795700  1
  C  C8  1  0.21649000  0.91331900  0.68682100  1
  C  C9  1  0.31949400  0.52155900  0.68957300  1
  C  C10  1  0.81949400  0.47844100  0.31042700  1
  C  C11  1  0.21606600  0.91469300  0.18641100  1
  C  C12  1  0.71649000  0.08668100  0.31317900  1
  C  C13  1  0.31988600  0.52265100  0.18860100  1
  C  C14  1  0.81988600  0.47734900  0.81139900  1
  C  C15  1  0.71606600  0.08530700  0.81358900  1
  C  C16  1  0.34738400  0.75302100  0.67055400  1
  C  C17  1  0.06687900  0.91694700  0.59275400  1
  C  C18  1  0.82190000  0.60479200  0.64628000  1
  C  C19  1  0.15637300  0.50635000  0.61985600  1
  C  C20  1  0.46154300  0.48201200  0.60231000  1
  C  C21  1  0.67667800  0.14731600  0.65132000  1
  C  C22  1  0.30395100  0.11423100  0.62621500  1
  C  C23  1  0.80395100  0.88576900  0.37378500  1
  C  C24  1  0.17667800  0.85268400  0.34868000  1
  C  C25  1  0.96154300  0.51798800  0.39769000  1
  C  C26  1  0.65637300  0.49365000  0.38014400  1
  C  C27  1  0.32190000  0.39520800  0.35372000  1
  C  C28  1  0.56687900  0.08305300  0.40724600  1
  C  C29  1  0.84738400  0.24697900  0.32944600  1
  C  C30  1  0.34632800  0.75335200  0.17159500  1
  C  C31  1  0.06683200  0.91665000  0.09218500  1
  C  C32  1  0.82166900  0.60610000  0.14598700  1
  C  C33  1  0.15483500  0.50782000  0.12045900  1
  C  C34  1  0.46227800  0.48256100  0.10245000  1
  C  C35  1  0.67474000  0.14696100  0.15111900  1
  C  C36  1  0.30606000  0.11589300  0.12666900  1
  C  C37  1  0.80606000  0.88410700  0.87333100  1
  C  C38  1  0.17474000  0.85303900  0.84888100  1
  C  C39  1  0.96227800  0.51743900  0.89755000  1
  C  C40  1  0.65483500  0.49218000  0.87954100  1
  C  C41  1  0.32166900  0.39390000  0.85401300  1
  C  C42  1  0.56683200  0.08335000  0.90781500  1
  C  C43  1  0.84632800  0.24664800  0.82840500  1
