# generated using pymatgen
data_Cu3NiC36
_symmetry_space_group_name_H-M   'P 1'
_cell_length_a   17.95311800
_cell_length_b   5.34867000
_cell_length_c   9.80940569
_cell_angle_alpha   74.66747203
_cell_angle_beta   90.00000000
_cell_angle_gamma   90.00000000
_symmetry_Int_Tables_number   1
_chemical_formula_structural   Cu3NiC36
_chemical_formula_sum   'Cu6 Ni2 C72'
_cell_volume   908.42472324
_cell_formula_units_Z   2
loop_
 _symmetry_equiv_pos_site_id
 _symmetry_equiv_pos_as_xyz
  1  'x, y, z'
loop_
 _atom_site_type_symbol
 _atom_site_label
 _atom_site_symmetry_multiplicity
 _atom_site_fract_x
 _atom_site_fract_y
 _atom_site_fract_z
 _atom_site_occupancy
  Ni  Ni0  1  0.52719600  0.50000000  0.75000000  1
  Ni  Ni1  1  0.47280400  0.50000000  0.25000000  1
  Cu  Cu2  1  0.27913900  0.00000000  0.25000000  1
  Cu  Cu3  1  0.02340200  0.50000000  0.75000000  1
  Cu  Cu4  1  0.76979500  0.00000000  0.25000000  1
  Cu  Cu5  1  0.23020500  0.00000000  0.75000000  1
  Cu  Cu6  1  0.97659800  0.50000000  0.25000000  1
  Cu  Cu7  1  0.72086100  0.00000000  0.75000000  1
  C  C8  1  0.57201000  0.00000000  0.25000000  1
  C  C9  1  0.42799000  0.00000000  0.75000000  1
  C  C10  1  0.33575000  0.50000000  0.75000000  1
  C  C11  1  0.08004000  0.00000000  0.25000000  1
  C  C12  1  0.17631500  0.50000000  0.25000000  1
  C  C13  1  0.82368500  0.50000000  0.75000000  1
  C  C14  1  0.91996000  0.00000000  0.75000000  1
  C  C15  1  0.66425000  0.50000000  0.25000000  1
  C  C16  1  0.17412000  0.69493400  0.54015400  1
  C  C17  1  0.17412000  0.30506600  0.95984600  1
  C  C18  1  0.91968200  0.19679500  0.03908200  1
  C  C19  1  0.33609900  0.70107000  0.03447600  1
  C  C20  1  0.91968200  0.80320500  0.46091800  1
  C  C21  1  0.66390100  0.70107000  0.53447600  1
  C  C22  1  0.33609900  0.29893000  0.46552400  1
  C  C23  1  0.08031800  0.19679500  0.53908200  1
  C  C24  1  0.66390100  0.29893000  0.96552400  1
  C  C25  1  0.42670600  0.19122500  0.03717900  1
  C  C26  1  0.08031800  0.80320500  0.96091800  1
  C  C27  1  0.82588000  0.69493400  0.04015400  1
  C  C28  1  0.42670600  0.80877500  0.46282100  1
  C  C29  1  0.82588000  0.30506600  0.45984600  1
  C  C30  1  0.57329400  0.19122500  0.53717900  1
  C  C31  1  0.57329400  0.80877500  0.96282100  1
  C  C32  1  0.37148700  0.40259000  0.08995200  1
  C  C33  1  0.11913100  0.90152700  0.60170700  1
  C  C34  1  0.25318100  0.70822200  0.61526700  1
  C  C35  1  0.86501800  0.40061700  0.10298700  1
  C  C36  1  0.17365600  0.78132600  0.36971300  1
  C  C37  1  0.17365600  0.21867400  0.13028700  1
  C  C38  1  0.99921000  0.21068700  0.11183400  1
  C  C39  1  0.61361500  0.90219700  0.60467600  1
  C  C40  1  0.37148700  0.59741000  0.41004800  1
  C  C41  1  0.25318100  0.29177800  0.88473300  1
  C  C42  1  0.91808200  0.28575900  0.86860000  1
  C  C43  1  0.25533700  0.71088900  0.10333700  1
  C  C44  1  0.13498200  0.40061700  0.60298700  1
  C  C45  1  0.34243600  0.80073500  0.86190700  1
  C  C46  1  0.91808200  0.71424100  0.63140000  1
  C  C47  1  0.74466300  0.71088900  0.60333700  1
  C  C48  1  0.11913100  0.09847300  0.89829300  1
  C  C49  1  0.99921000  0.78931300  0.38816600  1
  C  C50  1  0.34243600  0.19926500  0.63809300  1
  C  C51  1  0.65756400  0.80073500  0.36190700  1
  C  C52  1  0.00079000  0.21068700  0.61183400  1
  C  C53  1  0.88086900  0.90152700  0.10170700  1
  C  C54  1  0.25533700  0.28911100  0.39666300  1
  C  C55  1  0.08191800  0.28575900  0.36860000  1
  C  C56  1  0.65756400  0.19926500  0.13809300  1
  C  C57  1  0.50478200  0.19749800  0.11719400  1
  C  C58  1  0.86501800  0.59938300  0.39701300  1
  C  C59  1  0.74466300  0.28911100  0.89666300  1
  C  C60  1  0.08191800  0.71424100  0.13140000  1
  C  C61  1  0.42351100  0.25111500  0.86475000  1
  C  C62  1  0.74681900  0.70822200  0.11526700  1
  C  C63  1  0.62851300  0.40259000  0.58995200  1
  C  C64  1  0.00079000  0.78931300  0.88816600  1
  C  C65  1  0.82634400  0.78132600  0.86971300  1
  C  C66  1  0.42351100  0.74888500  0.63525000  1
  C  C67  1  0.61361500  0.09780300  0.89532400  1
  C  C68  1  0.50478200  0.80250200  0.38280600  1
  C  C69  1  0.82634400  0.21867400  0.63028700  1
  C  C70  1  0.49521800  0.19749800  0.61719400  1
  C  C71  1  0.38638500  0.90219700  0.10467600  1
  C  C72  1  0.13498200  0.59938300  0.89701300  1
  C  C73  1  0.74681900  0.29177800  0.38473300  1
  C  C74  1  0.57648900  0.25111500  0.36475000  1
  C  C75  1  0.57648900  0.74888500  0.13525000  1
  C  C76  1  0.88086900  0.09847300  0.39829300  1
  C  C77  1  0.49521800  0.80250200  0.88280600  1
  C  C78  1  0.62851300  0.59741000  0.91004800  1
  C  C79  1  0.38638500  0.09780300  0.39532400  1
