# generated using pymatgen
data_Cu21Ni8C15
_symmetry_space_group_name_H-M   'P 1'
_cell_length_a   11.08178547
_cell_length_b   12.63443768
_cell_length_c   16.53605499
_cell_angle_alpha   90.00000000
_cell_angle_beta   96.55791583
_cell_angle_gamma   90.00000000
_symmetry_Int_Tables_number   1
_chemical_formula_structural   Cu21Ni8C15
_chemical_formula_sum   'Cu84 Ni32 C60'
_cell_volume   2300.09939049
_cell_formula_units_Z   4
loop_
 _symmetry_equiv_pos_site_id
 _symmetry_equiv_pos_as_xyz
  1  'x, y, z'
loop_
 _atom_site_type_symbol
 _atom_site_label
 _atom_site_symmetry_multiplicity
 _atom_site_fract_x
 _atom_site_fract_y
 _atom_site_fract_z
 _atom_site_occupancy
  C  C0  1  0.50514910  0.57674945  0.81659446  1
  C  C1  1  0.49485090  0.07674945  0.68340554  1
  C  C2  1  0.49485090  0.42325055  0.18340554  1
  C  C3  1  0.50514910  0.92325055  0.31659446  1
  C  C4  1  0.86630922  0.34667568  0.76084240  1
  C  C5  1  0.13369078  0.84667568  0.73915760  1
  C  C6  1  0.13369078  0.65332432  0.23915760  1
  C  C7  1  0.86630922  0.15332332  0.26084240  1
  C  C8  1  0.59723232  0.15999207  0.09282674  1
  C  C9  1  0.40276768  0.65999207  0.40717326  1
  C  C10  1  0.40276768  0.84000793  0.90717326  1
  C  C11  1  0.59723232  0.34000793  0.59282674  1
  C  C12  1  0.01627103  0.73767343  0.00579230  1
  C  C13  1  0.98372897  0.23767343  0.49420770  1
  C  C14  1  0.98372897  0.26232657  0.99420770  1
  C  C15  1  0.01627103  0.76232657  0.50579230  1
  C  C16  1  0.25065653  0.34404909  0.82758185  1
  C  C17  1  0.74934347  0.84404909  0.67241815  1
  C  C18  1  0.74934347  0.65595091  0.17241815  1
  C  C19  1  0.25065653  0.15595091  0.32758185  1
  C  C20  1  0.89508680  0.38813241  0.34140154  1
  C  C21  1  0.10491320  0.88813241  0.15859846  1
  C  C22  1  0.10491320  0.61186759  0.65859846  1
  C  C23  1  0.89508680  0.11186759  0.84140154  1
  C  C24  1  0.78923673  0.37021475  0.39714182  1
  C  C25  1  0.21076327  0.87021475  0.10285818  1
  C  C26  1  0.21076327  0.62978525  0.60285818  1
  C  C27  1  0.78923673  0.12978525  0.89714182  1
  C  C28  1  0.68020003  0.20489841  0.77636513  1
  C  C29  1  0.31979997  0.70489841  0.72363487  1
  C  C30  1  0.31979997  0.79510159  0.22363487  1
  C  C31  1  0.68020003  0.29510159  0.27636513  1
  C  C32  1  0.63063024  0.32393543  0.77642492  1
  C  C33  1  0.36936976  0.82393543  0.72357508  1
  C  C34  1  0.36936976  0.67606457  0.22357508  1
  C  C35  1  0.63063024  0.17606457  0.27642492  1
  C  C36  1  0.17518711  0.50403027  0.50358817  1
  C  C37  1  0.82481289  0.00403027  0.99641183  1
  C  C38  1  0.82481289  0.49596973  0.49641183  1
  C  C39  1  0.17518711  0.99596973  0.00358817  1
  C  C40  1  0.09542192  0.55521339  0.43157220  1
  C  C41  1  0.90457808  0.05521339  0.06842780  1
  C  C42  1  0.90457808  0.44478661  0.56842780  1
  C  C43  1  0.09542192  0.94478661  0.93157220  1
  C  C44  1  0.55939789  0.05326473  0.91581938  1
  C  C45  1  0.44060211  0.55326473  0.58418062  1
  C  C46  1  0.44060211  0.94673527  0.08418062  1
  C  C47  1  0.55939789  0.44673527  0.41581938  1
  C  C48  1  0.48615269  0.15458637  0.88528163  1
  C  C49  1  0.51384731  0.65458637  0.61471837  1
  C  C50  1  0.51384731  0.84541363  0.11471837  1
  C  C51  1  0.48615269  0.34541363  0.38528163  1
  C  C52  1  0.26974957  0.63129836  0.01352336  1
  C  C53  1  0.73025043  0.13129836  0.48647664  1
  C  C54  1  0.73025043  0.36870164  0.98647664  1
  C  C55  1  0.26974957  0.86870164  0.51352336  1
  C  C56  1  0.25459109  0.58529178  0.10095125  1
  C  C57  1  0.74540891  0.08529178  0.39904875  1
  C  C58  1  0.74540891  0.41470822  0.89904875  1
  C  C59  1  0.25459109  0.91470822  0.60095125  1
  Ni  Ni60  1  0.17052811  0.38795933  0.64678173  1
  Ni  Ni61  1  0.82947189  0.88795933  0.85321827  1
  Ni  Ni62  1  0.82947189  0.61204067  0.35321827  1
  Ni  Ni63  1  0.17052811  0.11204067  0.14678173  1
  Ni  Ni64  1  0.31015478  0.40556520  0.65750439  1
  Ni  Ni65  1  0.68984522  0.90556520  0.84249561  1
  Ni  Ni66  1  0.68984522  0.59443480  0.34249561  1
  Ni  Ni67  1  0.31015478  0.09443480  0.15750439  1
  Ni  Ni68  1  0.44009329  0.35687958  0.97568647  1
  Ni  Ni69  1  0.55990671  0.85687958  0.52431353  1
  Ni  Ni70  1  0.55990671  0.64312042  0.02431353  1
  Ni  Ni71  1  0.44009329  0.14312042  0.47568647  1
  Ni  Ni72  1  0.31782084  0.33498392  0.01131447  1
  Ni  Ni73  1  0.68217916  0.83498392  0.48868553  1
  Ni  Ni74  1  0.68217916  0.66501608  0.98868553  1
  Ni  Ni75  1  0.31782084  0.16501608  0.51131447  1
  Ni  Ni76  1  0.17347048  0.58117728  0.86015797  1
  Ni  Ni77  1  0.82652952  0.08117728  0.63984203  1
  Ni  Ni78  1  0.82652952  0.41882272  0.13984203  1
  Ni  Ni79  1  0.17347048  0.91882272  0.36015797  1
  Ni  Ni80  1  0.05271460  0.51675949  0.87425057  1
  Ni  Ni81  1  0.94728540  0.01675949  0.62574943  1
  Ni  Ni82  1  0.94728540  0.48324051  0.12574943  1
  Ni  Ni83  1  0.05271460  0.98324051  0.37425057  1
  Ni  Ni84  1  0.11286950  0.13292288  0.82297126  1
  Ni  Ni85  1  0.88713050  0.63292288  0.67702874  1
  Ni  Ni86  1  0.88713050  0.86707712  0.17702874  1
  Ni  Ni87  1  0.11286950  0.36707712  0.32297126  1
  Ni  Ni88  1  0.24758182  0.10292915  0.81692989  1
  Ni  Ni89  1  0.75241818  0.60292915  0.68307011  1
  Ni  Ni90  1  0.75241818  0.89707085  0.18307011  1
  Ni  Ni91  1  0.24758182  0.39707085  0.31692989  1
  Cu  Cu92  1  0.12737046  0.36448964  0.71440120  1
  Cu  Cu93  1  0.87262954  0.86448964  0.78559880  1
  Cu  Cu94  1  0.87262954  0.63551036  0.28559880  1
  Cu  Cu95  1  0.12737046  0.13551036  0.21440120  1
  Cu  Cu96  1  0.10990302  0.39715835  0.57920157  1
  Cu  Cu97  1  0.89009698  0.89715835  0.92079843  1
  Cu  Cu98  1  0.89009698  0.60284165  0.42079843  1
  Cu  Cu99  1  0.10990302  0.10284165  0.07920157  1
  Cu  Cu100  1  0.36134143  0.38686823  0.73046498  1
  Cu  Cu101  1  0.63865857  0.88686823  0.76953502  1
  Cu  Cu102  1  0.63865857  0.61313177  0.26953502  1
  Cu  Cu103  1  0.36134143  0.11313177  0.23046498  1
  Cu  Cu104  1  0.36216757  0.43645129  0.59916830  1
  Cu  Cu105  1  0.63783243  0.93645129  0.90083170  1
  Cu  Cu106  1  0.63783243  0.56354871  0.40083170  1
  Cu  Cu107  1  0.36216757  0.06354871  0.09916830  1
  Cu  Cu108  1  0.42728762  0.36730290  0.89699988  1
  Cu  Cu109  1  0.57271238  0.86730290  0.60300012  1
  Cu  Cu110  1  0.57271238  0.63269710  0.10300012  1
  Cu  Cu111  1  0.42728762  0.13269710  0.39699988  1
  Cu  Cu112  1  0.53682509  0.36091400  0.02135152  1
  Cu  Cu113  1  0.46317491  0.86091400  0.47864848  1
  Cu  Cu114  1  0.46317491  0.63908600  0.97864848  1
  Cu  Cu115  1  0.53682509  0.13908600  0.52135152  1
  Cu  Cu116  1  0.22387387  0.33542295  0.95497514  1
  Cu  Cu117  1  0.77612613  0.83542295  0.54502486  1
  Cu  Cu118  1  0.77612613  0.66457705  0.04502486  1
  Cu  Cu119  1  0.22387387  0.16457705  0.45497514  1
  Cu  Cu120  1  0.31483972  0.31624423  0.08402568  1
  Cu  Cu121  1  0.68516028  0.81624423  0.41597432  1
  Cu  Cu122  1  0.68516028  0.68375577  0.91597432  1
  Cu  Cu123  1  0.31483972  0.18375577  0.58402568  1
  Cu  Cu124  1  0.25486041  0.52072714  0.83677387  1
  Cu  Cu125  1  0.74513959  0.02072714  0.66322613  1
  Cu  Cu126  1  0.74513959  0.47927286  0.16322613  1
  Cu  Cu127  1  0.25486041  0.97927286  0.33677387  1
  Cu  Cu128  1  0.17373185  0.67784181  0.87054229  1
  Cu  Cu129  1  0.82626815  0.17784181  0.62945771  1
  Cu  Cu130  1  0.82626815  0.32215819  0.12945771  1
  Cu  Cu131  1  0.17373185  0.82215819  0.37054229  1
  Cu  Cu132  1  0.66330562  0.42500703  0.82135979  1
  Cu  Cu133  1  0.33669438  0.92500703  0.67864021  1
  Cu  Cu134  1  0.33669438  0.57499297  0.17864021  1
  Cu  Cu135  1  0.66330562  0.07499297  0.32135979  1
  Cu  Cu136  1  0.96126514  0.55379192  0.89245047  1
  Cu  Cu137  1  0.03873486  0.05379192  0.60754953  1
  Cu  Cu138  1  0.03873486  0.44620808  0.10754953  1
  Cu  Cu139  1  0.96126514  0.94620808  0.39245047  1
  Cu  Cu140  1  0.09511033  0.23323179  0.83278176  1
  Cu  Cu141  1  0.90488967  0.73323179  0.66721824  1
  Cu  Cu142  1  0.90488967  0.76676821  0.16721824  1
  Cu  Cu143  1  0.09511033  0.26676821  0.33278176  1
  Cu  Cu144  1  0.03364538  0.06265007  0.81960118  1
  Cu  Cu145  1  0.96635462  0.56265007  0.68039882  1
  Cu  Cu146  1  0.96635462  0.93734993  0.18039882  1
  Cu  Cu147  1  0.03364538  0.43734993  0.31960118  1
  Cu  Cu148  1  0.31862771  0.18556983  0.81519243  1
  Cu  Cu149  1  0.68137229  0.68556983  0.68480757  1
  Cu  Cu150  1  0.68137229  0.81443017  0.18480757  1
  Cu  Cu151  1  0.31862771  0.31443017  0.31519243  1
  Cu  Cu152  1  0.27988282  0.00985587  0.81536537  1
  Cu  Cu153  1  0.72011718  0.50985587  0.68463463  1
  Cu  Cu154  1  0.72011718  0.99014413  0.18463463  1
  Cu  Cu155  1  0.27988282  0.49014413  0.31536537  1
  Cu  Cu156  1  0.17591990  0.65729983  0.65018997  1
  Cu  Cu157  1  0.82408010  0.15729983  0.84981003  1
  Cu  Cu158  1  0.82408010  0.34270017  0.34981003  1
  Cu  Cu159  1  0.17591990  0.84270017  0.15018997  1
  Cu  Cu160  1  0.37834243  0.75138836  0.75520886  1
  Cu  Cu161  1  0.62165757  0.25138836  0.74479114  1
  Cu  Cu162  1  0.62165757  0.24861164  0.24479114  1
  Cu  Cu163  1  0.37834243  0.74861164  0.25520886  1
  Cu  Cu164  1  0.16561353  0.93014800  0.97158673  1
  Cu  Cu165  1  0.83438647  0.43014800  0.52841327  1
  Cu  Cu166  1  0.83438647  0.06985200  0.02841327  1
  Cu  Cu167  1  0.16561353  0.56985200  0.47158673  1
  Cu  Cu168  1  0.46697652  0.62341686  0.56701600  1
  Cu  Cu169  1  0.53302348  0.12341686  0.93298400  1
  Cu  Cu170  1  0.53302348  0.37658314  0.43298400  1
  Cu  Cu171  1  0.46697652  0.87658314  0.06701600  1
  Cu  Cu172  1  0.20607797  0.60851470  0.04578424  1
  Cu  Cu173  1  0.79392203  0.10851470  0.45421576  1
  Cu  Cu174  1  0.79392203  0.39148530  0.95421576  1
  Cu  Cu175  1  0.20607797  0.89148530  0.54578424  1
