# generated using pymatgen
data_Cu2Ni3C10
_symmetry_space_group_name_H-M   'P 1'
_cell_length_a   7.01398100
_cell_length_b   9.99167942
_cell_length_c   15.21548362
_cell_angle_alpha   94.45579420
_cell_angle_beta   94.84731373
_cell_angle_gamma   99.26644133
_symmetry_Int_Tables_number   1
_chemical_formula_structural   Cu2Ni3C10
_chemical_formula_sum   'Cu4 Ni6 C20'
_cell_volume   1044.11517447
_cell_formula_units_Z   2
loop_
 _symmetry_equiv_pos_site_id
 _symmetry_equiv_pos_as_xyz
  1  'x, y, z'
loop_
 _atom_site_type_symbol
 _atom_site_label
 _atom_site_symmetry_multiplicity
 _atom_site_fract_x
 _atom_site_fract_y
 _atom_site_fract_z
 _atom_site_occupancy
  Ni  Ni0  1  0.08713800  0.70467800  0.96464800  1
  Ni  Ni1  1  0.45345100  0.53653400  0.73141700  1
  Ni  Ni2  1  0.57922700  0.00980900  0.84089700  1
  Ni  Ni3  1  0.42077300  0.99019100  0.15910300  1
  Ni  Ni4  1  0.54654900  0.46346600  0.26858300  1
  Ni  Ni5  1  0.91286200  0.29532200  0.03535200  1
  Cu  Cu6  1  0.06717400  0.17261400  0.45388800  1
  Cu  Cu7  1  0.17185200  0.92449800  0.42226900  1
  Cu  Cu8  1  0.82814800  0.07550200  0.57773100  1
  Cu  Cu9  1  0.93282600  0.82738600  0.54611200  1
  C  C10  1  0.09630200  0.44880100  0.90009800  1
  C  C11  1  0.23276800  0.74821700  0.81165700  1
  C  C12  1  0.18311100  0.51672200  0.60966100  1
  C  C13  1  0.23996200  0.98348600  0.98067900  1
  C  C14  1  0.07746400  0.91877800  0.19826800  1
  C  C15  1  0.27049200  0.30681100  0.09956500  1
  C  C16  1  0.37078100  0.23986000  0.31513600  1
  C  C17  1  0.34813400  0.59906400  0.35751300  1
  C  C18  1  0.43280400  0.05979900  0.68731700  1
  C  C19  1  0.57081100  0.26208200  0.89600600  1
  C  C20  1  0.42918900  0.73791800  0.10399400  1
  C  C21  1  0.56719600  0.94020200  0.31268300  1
  C  C22  1  0.65186600  0.40093600  0.64248700  1
  C  C23  1  0.62921900  0.76014000  0.68486400  1
  C  C24  1  0.72950800  0.69318900  0.90043500  1
  C  C25  1  0.92253600  0.08122200  0.80173200  1
  C  C26  1  0.76003800  0.01651400  0.01932100  1
  C  C27  1  0.81688900  0.48327800  0.39033900  1
  C  C28  1  0.76723200  0.25178300  0.18834300  1
  C  C29  1  0.90369800  0.55119900  0.09990200  1
