# generated using pymatgen
data_Cu(NiC)2
_symmetry_space_group_name_H-M   'P 1'
_cell_length_a   8.72904100
_cell_length_b   8.73031544
_cell_length_c   8.73374745
_cell_angle_alpha   109.39131722
_cell_angle_beta   109.58788843
_cell_angle_gamma   109.40362193
_symmetry_Int_Tables_number   1
_chemical_formula_structural   Cu(NiC)2
_chemical_formula_sum   'Cu8 Ni16 C16'
_cell_volume   512.55344719
_cell_formula_units_Z   8
loop_
 _symmetry_equiv_pos_site_id
 _symmetry_equiv_pos_as_xyz
  1  'x, y, z'
loop_
 _atom_site_type_symbol
 _atom_site_label
 _atom_site_symmetry_multiplicity
 _atom_site_fract_x
 _atom_site_fract_y
 _atom_site_fract_z
 _atom_site_occupancy
  C  C0  1  0.46897700  0.22356300  0.25565900  1
  C  C1  1  0.00066100  0.01078100  0.00693300  1
  C  C2  1  0.50277300  0.50850500  0.01167600  1
  C  C3  1  0.99457200  0.50860200  0.49823000  1
  C  C4  1  0.75019500  0.46452500  0.70884900  1
  C  C5  1  0.24960500  0.03711500  0.78770800  1
  C  C6  1  0.71079300  0.24790100  0.96961700  1
  C  C7  1  0.21817500  0.24229300  0.45331500  1
  C  C8  1  0.97073300  0.71604500  0.25679000  1
  C  C9  1  0.03773100  0.28603300  0.75483100  1
  C  C10  1  0.78536100  0.75298400  0.53137600  1
  C  C11  1  0.27907700  0.73678000  0.02693000  1
  C  C12  1  0.48740000  0.98796700  0.49704300  1
  C  C13  1  0.75006800  0.95868000  0.20867000  1
  C  C14  1  0.24973600  0.53645500  0.28203600  1
  C  C15  1  0.53518900  0.79387800  0.75289500  1
  Ni  Ni16  1  0.46716800  0.23791700  0.51539700  1
  Ni  Ni17  1  0.03212500  0.54385000  0.77199700  1
  Ni  Ni18  1  0.51017500  0.27226800  0.04355600  1
  Ni  Ni19  1  0.01153900  0.96736300  0.23881200  1
  Ni  Ni20  1  0.98876400  0.03561200  0.76321700  1
  Ni  Ni21  1  0.22983100  0.77575100  0.25890700  1
  Ni  Ni22  1  0.72769200  0.46749500  0.45606800  1
  Ni  Ni23  1  0.48781200  0.72549200  0.95261200  1
  Ni  Ni24  1  0.77254100  0.04292700  0.00688500  1
  Ni  Ni25  1  0.96467700  0.45360100  0.22753800  1
  Ni  Ni26  1  0.26109500  0.48377300  0.03168500  1
  Ni  Ni27  1  0.05091500  0.77381400  0.53706900  1
  Ni  Ni28  1  0.23954900  0.27164500  0.22651200  1
  Ni  Ni29  1  0.45310800  0.98879300  0.72477800  1
  Ni  Ni30  1  0.72691900  0.73622800  0.27025600  1
  Ni  Ni31  1  0.53382400  0.76010400  0.49223300  1
  Cu  Cu32  1  0.26815900  0.26067600  0.72388700  1
  Cu  Cu33  1  0.76432900  0.72457300  0.77785800  1
  Cu  Cu34  1  0.55136400  0.01714300  0.27428400  1
  Cu  Cu35  1  0.95498300  0.22565100  0.46823200  1
  Cu  Cu36  1  0.73663700  0.50920100  0.96033800  1
  Cu  Cu37  1  0.23005100  0.95362600  0.98875100  1
  Cu  Cu38  1  0.77502400  0.23126300  0.74030300  1
  Cu  Cu39  1  0.27067100  0.52912800  0.54626700  1
