# generated using pymatgen
data_Cu4Ni2C3
_symmetry_space_group_name_H-M   'P 1'
_cell_length_a   5.80901395
_cell_length_b   5.80901395
_cell_length_c   7.14321147
_cell_angle_alpha   74.43463806
_cell_angle_beta   74.43463806
_cell_angle_gamma   76.71310696
_symmetry_Int_Tables_number   1
_chemical_formula_structural   Cu4Ni2C3
_chemical_formula_sum   'Cu8 Ni4 C6'
_cell_volume   220.43004839
_cell_formula_units_Z   2
loop_
 _symmetry_equiv_pos_site_id
 _symmetry_equiv_pos_as_xyz
  1  'x, y, z'
loop_
 _atom_site_type_symbol
 _atom_site_label
 _atom_site_symmetry_multiplicity
 _atom_site_fract_x
 _atom_site_fract_y
 _atom_site_fract_z
 _atom_site_occupancy
  C  C0  1  0.66718800  0.66718800  0.83608700  1
  C  C1  1  0.34941200  0.34941200  0.67049100  1
  C  C2  1  0.65058800  0.65058800  0.32950900  1
  C  C3  1  0.33281200  0.33281200  0.16391300  1
  C  C4  1  0.00000000  0.00000000  0.50000000  1
  C  C5  1  0.00000000  0.00000000  0.00000000  1
  Ni  Ni6  1  0.57065900  0.57065900  0.62725900  1
  Ni  Ni7  1  0.24105800  0.24105800  0.96073100  1
  Ni  Ni8  1  0.75894200  0.75894200  0.03926900  1
  Ni  Ni9  1  0.42934100  0.42934100  0.37274100  1
  Cu  Cu10  1  0.63982400  0.02176200  0.67307100  1
  Cu  Cu11  1  0.97823800  0.36017600  0.32692900  1
  Cu  Cu12  1  0.87884300  0.87884300  0.30524300  1
  Cu  Cu13  1  0.12115700  0.12115700  0.69475700  1
  Cu  Cu14  1  0.36017600  0.97823800  0.32692900  1
  Cu  Cu15  1  0.02176200  0.63982400  0.67307100  1
  Cu  Cu16  1  0.69257300  0.30742700  0.00000000  1
  Cu  Cu17  1  0.30742700  0.69257300  0.00000000  1
