# generated using pymatgen
data_Cu7Ni5C6
_symmetry_space_group_name_H-M   'P 1'
_cell_length_a   4.62199000
_cell_length_b   5.62938897
_cell_length_c   7.67263177
_cell_angle_alpha   87.07150345
_cell_angle_beta   88.11459564
_cell_angle_gamma   89.73116816
_symmetry_Int_Tables_number   1
_chemical_formula_structural   Cu7Ni5C6
_chemical_formula_sum   'Cu7 Ni5 C6'
_cell_volume   199.26449935
_cell_formula_units_Z   1
loop_
 _symmetry_equiv_pos_site_id
 _symmetry_equiv_pos_as_xyz
  1  'x, y, z'
loop_
 _atom_site_type_symbol
 _atom_site_label
 _atom_site_symmetry_multiplicity
 _atom_site_fract_x
 _atom_site_fract_y
 _atom_site_fract_z
 _atom_site_occupancy
  C  C0  1  0.50771300  0.51481300  0.00670400  1
  C  C1  1  0.48493500  0.16901600  0.33636000  1
  C  C2  1  0.55059000  0.82871500  0.64834800  1
  C  C3  1  0.97146500  0.34131200  0.68678300  1
  C  C4  1  0.00611600  0.65505700  0.31749300  1
  C  C5  1  0.96107400  0.97575800  0.98653000  1
  Ni  Ni6  1  0.80799100  0.03667900  0.76884100  1
  Ni  Ni7  1  0.79075600  0.70228000  0.09868900  1
  Ni  Ni8  1  0.70035700  0.53633300  0.78020600  1
  Ni  Ni9  1  0.70082400  0.85411300  0.43209600  1
  Ni  Ni10  1  0.30631800  0.48006600  0.22618900  1
  Cu  Cu11  1  0.80972600  0.35855100  0.44045100  1
  Cu  Cu12  1  0.71145400  0.20577700  0.10237700  1
  Cu  Cu13  1  0.29420300  0.13421900  0.57930600  1
  Cu  Cu14  1  0.30013400  0.81038500  0.89122900  1
  Cu  Cu15  1  0.18609600  0.96861500  0.22326300  1
  Cu  Cu16  1  0.21128600  0.30572000  0.90760800  1
  Cu  Cu17  1  0.19896000  0.62259100  0.56752800  1
