# generated using pymatgen
data_Cu3NiC20
_symmetry_space_group_name_H-M   'P 1'
_cell_length_a   5.83449500
_cell_length_b   4.78290300
_cell_length_c   9.88283822
_cell_angle_alpha   89.11114344
_cell_angle_beta   90.00000000
_cell_angle_gamma   90.00000000
_symmetry_Int_Tables_number   1
_chemical_formula_structural   Cu3NiC20
_chemical_formula_sum   'Cu3 Ni1 C20'
_cell_volume   275.75555426
_cell_formula_units_Z   1
loop_
 _symmetry_equiv_pos_site_id
 _symmetry_equiv_pos_as_xyz
  1  'x, y, z'
loop_
 _atom_site_type_symbol
 _atom_site_label
 _atom_site_symmetry_multiplicity
 _atom_site_fract_x
 _atom_site_fract_y
 _atom_site_fract_z
 _atom_site_occupancy
  Ni  Ni0  1  0.00000000  0.03294700  0.72900700  1
  Cu  Cu1  1  0.50000000  0.94667900  0.27919900  1
  Cu  Cu2  1  0.50000000  0.52885600  0.77074800  1
  Cu  Cu3  1  0.00000000  0.44749400  0.22011000  1
  C  C4  1  0.00000000  0.90982300  0.40642800  1
  C  C5  1  0.00000000  0.59029800  0.90502700  1
  C  C6  1  0.50000000  0.41829900  0.09428200  1
  C  C7  1  0.50000000  0.09027200  0.59511600  1
  C  C8  1  0.00000000  0.82711300  0.55545200  1
  C  C9  1  0.20701600  0.76616600  0.33006600  1
  C  C10  1  0.79298400  0.76616600  0.33006600  1
  C  C11  1  0.50000000  0.77104300  0.61877400  1
  C  C12  1  0.50000000  0.73369800  0.11264800  1
  C  C13  1  0.20440500  0.74364400  0.82972600  1
  C  C14  1  0.79559500  0.74364400  0.82972600  1
  C  C15  1  0.00000000  0.66412100  0.05547300  1
  C  C16  1  0.50000000  0.34794400  0.94238800  1
  C  C17  1  0.70548200  0.26731200  0.16934500  1
  C  C18  1  0.29451800  0.26731200  0.16934500  1
  C  C19  1  0.00000000  0.27568500  0.88726400  1
  C  C20  1  0.00000000  0.22762000  0.38612600  1
  C  C21  1  0.70629600  0.23493900  0.66959100  1
  C  C22  1  0.29370400  0.23493900  0.66959100  1
  C  C23  1  0.50000000  0.16398500  0.44450200  1
