# generated using pymatgen
data_Cu(NiC)4
_symmetry_space_group_name_H-M   'P 1'
_cell_length_a   6.42273800
_cell_length_b   10.58536800
_cell_length_c   10.96840100
_cell_angle_alpha   90.00000000
_cell_angle_beta   90.00000000
_cell_angle_gamma   90.00000000
_symmetry_Int_Tables_number   1
_chemical_formula_structural   Cu(NiC)4
_chemical_formula_sum   'Cu8 Ni32 C32'
_cell_volume   745.70917563
_cell_formula_units_Z   8
loop_
 _symmetry_equiv_pos_site_id
 _symmetry_equiv_pos_as_xyz
  1  'x, y, z'
loop_
 _atom_site_type_symbol
 _atom_site_label
 _atom_site_symmetry_multiplicity
 _atom_site_fract_x
 _atom_site_fract_y
 _atom_site_fract_z
 _atom_site_occupancy
  C  C0  1  0.75000000  0.02655600  0.27376600  1
  C  C1  1  0.25000000  0.22895700  0.08227100  1
  C  C2  1  0.51037400  0.24015900  0.33473000  1
  C  C3  1  0.98962600  0.24015900  0.33473000  1
  C  C4  1  0.01037400  0.25984100  0.83473000  1
  C  C5  1  0.48962600  0.25984100  0.83473000  1
  C  C6  1  0.75000000  0.27104300  0.58227100  1
  C  C7  1  0.25000000  0.47344400  0.77376600  1
  C  C8  1  0.75000000  0.52655600  0.22623400  1
  C  C9  1  0.25000000  0.72895700  0.41772900  1
  C  C10  1  0.51037400  0.74015900  0.16527000  1
  C  C11  1  0.98962600  0.74015900  0.16527000  1
  C  C12  1  0.01037400  0.75984100  0.66527000  1
  C  C13  1  0.48962600  0.75984100  0.66527000  1
  C  C14  1  0.75000000  0.77104300  0.91772900  1
  C  C15  1  0.25000000  0.97344400  0.72623400  1
  C  C16  1  0.00000000  0.00000000  0.00000000  1
  C  C17  1  0.50000000  0.00000000  0.00000000  1
  C  C18  1  0.00000000  0.00000000  0.50000000  1
  C  C19  1  0.50000000  0.00000000  0.50000000  1
  C  C20  1  0.00000000  0.50000000  0.50000000  1
  C  C21  1  0.50000000  0.50000000  0.50000000  1
  C  C22  1  0.00000000  0.50000000  0.00000000  1
  C  C23  1  0.50000000  0.50000000  0.00000000  1
  C  C24  1  0.75000000  0.02342000  0.74419100  1
  C  C25  1  0.75000000  0.24364700  0.07814800  1
  C  C26  1  0.25000000  0.25635300  0.57814800  1
  C  C27  1  0.25000000  0.47658000  0.24419100  1
  C  C28  1  0.75000000  0.52342000  0.75580900  1
  C  C29  1  0.75000000  0.74364700  0.42185200  1
  C  C30  1  0.25000000  0.75635300  0.92185200  1
  C  C31  1  0.25000000  0.97658000  0.25580900  1
  Ni  Ni32  1  0.25000000  0.02731600  0.12147100  1
  Ni  Ni33  1  0.05412500  0.03304500  0.31948700  1
  Ni  Ni34  1  0.44587500  0.03304500  0.31948700  1
  Ni  Ni35  1  0.25000000  0.11072500  0.55395500  1
  Ni  Ni36  1  0.75000000  0.16969500  0.74422100  1
  Ni  Ni37  1  0.55123700  0.18997100  0.01531300  1
  Ni  Ni38  1  0.94876300  0.18997100  0.01531300  1
  Ni  Ni39  1  0.75000000  0.21767900  0.21655900  1
  Ni  Ni40  1  0.25000000  0.28232100  0.71655900  1
  Ni  Ni41  1  0.05123700  0.31002900  0.51531300  1
  Ni  Ni42  1  0.44876300  0.31002900  0.51531300  1
  Ni  Ni43  1  0.25000000  0.33030500  0.24422100  1
  Ni  Ni44  1  0.75000000  0.38927500  0.05395500  1
  Ni  Ni45  1  0.55412500  0.46695500  0.81948700  1
  Ni  Ni46  1  0.94587500  0.46695500  0.81948700  1
  Ni  Ni47  1  0.75000000  0.47268400  0.62147100  1
  Ni  Ni48  1  0.25000000  0.52731600  0.37852900  1
  Ni  Ni49  1  0.05412500  0.53304500  0.18051300  1
  Ni  Ni50  1  0.44587500  0.53304500  0.18051300  1
  Ni  Ni51  1  0.25000000  0.61072500  0.94604500  1
  Ni  Ni52  1  0.75000000  0.66969500  0.75577900  1
  Ni  Ni53  1  0.55123700  0.68997100  0.48468700  1
  Ni  Ni54  1  0.94876300  0.68997100  0.48468700  1
  Ni  Ni55  1  0.75000000  0.71767900  0.28344100  1
  Ni  Ni56  1  0.25000000  0.78232100  0.78344100  1
  Ni  Ni57  1  0.05123700  0.81002900  0.98468700  1
  Ni  Ni58  1  0.44876300  0.81002900  0.98468700  1
  Ni  Ni59  1  0.25000000  0.83030500  0.25577900  1
  Ni  Ni60  1  0.75000000  0.88927500  0.44604500  1
  Ni  Ni61  1  0.55412500  0.96695500  0.68051300  1
  Ni  Ni62  1  0.94587500  0.96695500  0.68051300  1
  Ni  Ni63  1  0.75000000  0.97268400  0.87852900  1
  Cu  Cu64  1  0.25000000  0.05210200  0.88034900  1
  Cu  Cu65  1  0.75000000  0.13271700  0.46860200  1
  Cu  Cu66  1  0.25000000  0.36728300  0.96860200  1
  Cu  Cu67  1  0.75000000  0.44789800  0.38034900  1
  Cu  Cu68  1  0.25000000  0.55210200  0.61965100  1
  Cu  Cu69  1  0.75000000  0.63271700  0.03139800  1
  Cu  Cu70  1  0.25000000  0.86728300  0.53139800  1
  Cu  Cu71  1  0.75000000  0.94789800  0.11965100  1
