# generated using pymatgen
data_Cu(NiC6)5
_symmetry_space_group_name_H-M   'P 1'
_cell_length_a   3.18330700
_cell_length_b   8.27969200
_cell_length_c   14.31593498
_cell_angle_alpha   89.96303132
_cell_angle_beta   90.00000000
_cell_angle_gamma   90.00000000
_symmetry_Int_Tables_number   1
_chemical_formula_structural   Cu(NiC6)5
_chemical_formula_sum   'Cu1 Ni5 C30'
_cell_volume   377.32217803
_cell_formula_units_Z   1
loop_
 _symmetry_equiv_pos_site_id
 _symmetry_equiv_pos_as_xyz
  1  'x, y, z'
loop_
 _atom_site_type_symbol
 _atom_site_label
 _atom_site_symmetry_multiplicity
 _atom_site_fract_x
 _atom_site_fract_y
 _atom_site_fract_z
 _atom_site_occupancy
  C  C0  1  0.50000000  0.70748300  0.00880400  1
  C  C1  1  0.50000000  0.66072100  0.64150500  1
  C  C2  1  0.50000000  0.63469700  0.34976400  1
  C  C3  1  0.50000000  0.20716500  0.50873100  1
  C  C4  1  0.50000000  0.15895600  0.14227700  1
  C  C5  1  0.50000000  0.13294700  0.84906900  1
  Ni  Ni6  1  0.00000000  0.82632900  0.18602800  1
  Ni  Ni7  1  0.00000000  0.80862500  0.82013600  1
  Ni  Ni8  1  0.00000000  0.36528200  0.99417900  1
  Ni  Ni9  1  0.00000000  0.32573800  0.68590700  1
  Ni  Ni10  1  0.00000000  0.30791300  0.32011800  1
  Cu  Cu11  1  0.00000000  0.86214700  0.49596300  1
  C  C12  1  0.50000000  0.99931700  0.33482600  1
  C  C13  1  0.00000000  0.99999300  0.00002900  1
  C  C14  1  0.50000000  0.99890000  0.66547700  1
  C  C15  1  0.50000000  0.50019200  0.83313900  1
  C  C16  1  0.00000000  0.50102100  0.49930800  1
  C  C17  1  0.50000000  0.50010900  0.16668800  1
  C  C18  1  0.50000000  0.98694600  0.56859800  1
  C  C19  1  0.50000000  0.98475800  0.23765500  1
  C  C20  1  0.50000000  0.86274500  0.39130300  1
  C  C21  1  0.50000000  0.86013100  0.72001600  1
  C  C22  1  0.00000000  0.84567500  0.03912800  1
  C  C23  1  0.50000000  0.65223900  0.87457300  1
  C  C24  1  0.50000000  0.65025800  0.20985500  1
  C  C25  1  0.00000000  0.63896000  0.55598800  1
  C  C26  1  0.00000000  0.51847600  0.40272900  1
  C  C27  1  0.50000000  0.48969800  0.06979800  1
  C  C28  1  0.50000000  0.48609000  0.73611600  1
  C  C29  1  0.50000000  0.36182900  0.88850100  1
  C  C30  1  0.50000000  0.36016300  0.22016700  1
  C  C31  1  0.00000000  0.34775500  0.53948000  1
  C  C32  1  0.50000000  0.15276600  0.37499900  1
  C  C33  1  0.50000000  0.14963300  0.70829800  1
  C  C34  1  0.00000000  0.13572300  0.05773200  1
  C  C35  1  0.00000000  0.01862500  0.90311500  1
