# generated using pymatgen
data_CuNiC5
_symmetry_space_group_name_H-M   'P 1'
_cell_length_a   5.21636800
_cell_length_b   7.91448200
_cell_length_c   18.91125700
_cell_angle_alpha   90.00000000
_cell_angle_beta   90.00000000
_cell_angle_gamma   90.00000000
_symmetry_Int_Tables_number   1
_chemical_formula_structural   CuNiC5
_chemical_formula_sum   'Cu8 Ni8 C40'
_cell_volume   780.74842069
_cell_formula_units_Z   8
loop_
 _symmetry_equiv_pos_site_id
 _symmetry_equiv_pos_as_xyz
  1  'x, y, z'
loop_
 _atom_site_type_symbol
 _atom_site_label
 _atom_site_symmetry_multiplicity
 _atom_site_fract_x
 _atom_site_fract_y
 _atom_site_fract_z
 _atom_site_occupancy
  C  C0  1  0.45119900  0.45003800  0.54413300  1
  C  C1  1  0.45119900  0.95003800  0.95586700  1
  C  C2  1  0.29759300  0.91414500  0.76991800  1
  C  C3  1  0.29759300  0.41414500  0.73008200  1
  C  C4  1  0.95119900  0.04996200  0.04413300  1
  C  C5  1  0.95119900  0.54996200  0.45586700  1
  C  C6  1  0.79759300  0.08585500  0.23008200  1
  C  C7  1  0.79759300  0.58585500  0.26991800  1
  Ni  Ni8  1  0.29338700  0.52291800  0.07018900  1
  Ni  Ni9  1  0.29338700  0.02291800  0.42981100  1
  Ni  Ni10  1  0.24664500  0.34475900  0.33352400  1
  Ni  Ni11  1  0.24664500  0.84475900  0.16647600  1
  Ni  Ni12  1  0.79338700  0.97708200  0.57018900  1
  Ni  Ni13  1  0.79338700  0.47708200  0.92981100  1
  Ni  Ni14  1  0.74664500  0.15524100  0.83352400  1
  Ni  Ni15  1  0.74664500  0.65524100  0.66647600  1
  Cu  Cu16  1  0.23899700  0.18141600  0.17847700  1
  Cu  Cu17  1  0.23899700  0.68141600  0.32152300  1
  Cu  Cu18  1  0.23042200  0.27355400  0.93354500  1
  Cu  Cu19  1  0.23042200  0.77355400  0.56645500  1
  Cu  Cu20  1  0.73899700  0.81858400  0.82152300  1
  Cu  Cu21  1  0.73899700  0.31858400  0.67847700  1
  Cu  Cu22  1  0.73042200  0.22644600  0.43354500  1
  Cu  Cu23  1  0.73042200  0.72644600  0.06645500  1
  C  C24  1  0.96589800  0.45584400  0.69719900  1
  C  C25  1  0.96589800  0.95584400  0.80280100  1
  C  C26  1  0.03193700  0.69589800  0.09358600  1
  C  C27  1  0.03193700  0.19589800  0.40641400  1
  C  C28  1  0.13342300  0.94185400  0.51852900  1
  C  C29  1  0.13342300  0.44185400  0.98147100  1
  C  C30  1  0.02281800  0.30245000  0.86699400  1
  C  C31  1  0.02281800  0.80245000  0.63300600  1
  C  C32  1  0.02826300  0.04659500  0.14403900  1
  C  C33  1  0.02826300  0.54659500  0.35596100  1
  C  C34  1  0.09337400  0.75401000  0.24981800  1
  C  C35  1  0.09337400  0.25401000  0.25018200  1
  C  C36  1  0.31818000  0.33588300  0.12692400  1
  C  C37  1  0.31818000  0.83588300  0.37307600  1
  C  C38  1  0.18995100  0.60201600  0.52509000  1
  C  C39  1  0.18995100  0.10201600  0.97491000  1
  C  C40  1  0.46589800  0.04415600  0.19719900  1
  C  C41  1  0.46589800  0.54415600  0.30280100  1
  C  C42  1  0.53193700  0.30410200  0.90641400  1
  C  C43  1  0.53193700  0.80410200  0.59358600  1
  C  C44  1  0.63342300  0.05814600  0.48147100  1
  C  C45  1  0.63342300  0.55814600  0.01852900  1
  C  C46  1  0.52281800  0.19755000  0.36699400  1
  C  C47  1  0.52281800  0.69755000  0.13300600  1
  C  C48  1  0.52826300  0.95340500  0.85596100  1
  C  C49  1  0.52826300  0.45340500  0.64403900  1
  C  C50  1  0.59337400  0.74599000  0.74981800  1
  C  C51  1  0.59337400  0.24599000  0.75018200  1
  C  C52  1  0.81818000  0.66411700  0.87307600  1
  C  C53  1  0.81818000  0.16411700  0.62692400  1
  C  C54  1  0.68995100  0.39798400  0.47491000  1
  C  C55  1  0.68995100  0.89798400  0.02509000  1
