# generated using pymatgen
data_CuNiC18
_symmetry_space_group_name_H-M   'P 1'
_cell_length_a   9.87538100
_cell_length_b   9.88595402
_cell_length_c   9.91613985
_cell_angle_alpha   87.06682919
_cell_angle_beta   86.51305867
_cell_angle_gamma   88.32602299
_symmetry_Int_Tables_number   1
_chemical_formula_structural   CuNiC18
_chemical_formula_sum   'Cu4 Ni4 C72'
_cell_volume   964.69954529
_cell_formula_units_Z   4
loop_
 _symmetry_equiv_pos_site_id
 _symmetry_equiv_pos_as_xyz
  1  'x, y, z'
loop_
 _atom_site_type_symbol
 _atom_site_label
 _atom_site_symmetry_multiplicity
 _atom_site_fract_x
 _atom_site_fract_y
 _atom_site_fract_z
 _atom_site_occupancy
  C  C0  1  0.04907300  0.97495200  0.01086200  1
  C  C1  1  0.73990600  0.14060100  0.06482900  1
  C  C2  1  0.07115400  0.72426900  0.13730600  1
  C  C3  1  0.56262300  0.64252100  0.23399500  1
  C  C4  1  0.85560600  0.94287100  0.27202500  1
  C  C5  1  0.77107500  0.41718200  0.36416800  1
  C  C6  1  0.36055900  0.76518200  0.43654900  1
  C  C7  1  0.52572200  0.45025600  0.49312900  1
  C  C8  1  0.23169500  0.55994100  0.64085800  1
  C  C9  1  0.45678300  0.36576300  0.76474400  1
  C  C10  1  0.13096700  0.05168500  0.73807300  1
  C  C11  1  0.93581900  0.27272900  0.84632000  1
  Ni  Ni12  1  0.01926900  0.24105000  0.47594400  1
  Ni  Ni13  1  0.96665400  0.74003500  0.52719000  1
  Ni  Ni14  1  0.74508200  0.75251300  0.75307400  1
  Ni  Ni15  1  0.76130700  0.53168100  0.97283200  1
  Cu  Cu16  1  0.25634900  0.47267300  0.03130400  1
  Cu  Cu17  1  0.24667000  0.25026900  0.25238300  1
  Cu  Cu18  1  0.46472700  0.03614000  0.25058700  1
  Cu  Cu19  1  0.52944300  0.97000700  0.74881300  1
  C  C20  1  0.66959200  0.85746100  0.05206500  1
  C  C21  1  0.95300600  0.33290900  0.14126000  1
  C  C22  1  0.55120000  0.35668700  0.17280200  1
  C  C23  1  0.14498600  0.94653400  0.32604900  1
  C  C24  1  0.17021400  0.54629200  0.35254500  1
  C  C25  1  0.64252000  0.83295000  0.44843900  1
  C  C26  1  0.35229900  0.17676700  0.54943900  1
  C  C27  1  0.82426000  0.45369400  0.64621700  1
  C  C28  1  0.84326200  0.04182200  0.67072200  1
  C  C29  1  0.45362300  0.65477300  0.82749200  1
  C  C30  1  0.05030400  0.67404400  0.85719400  1
  C  C31  1  0.32073600  0.15185700  0.95325200  1
  C  C32  1  0.61931800  0.41012400  0.03562900  1
  C  C33  1  0.90610800  0.23125700  0.04305100  1
  C  C34  1  0.32902100  0.12254000  0.11230300  1
  C  C35  1  0.11502100  0.33381100  0.12057000  1
  C  C36  1  0.69062900  0.70497500  0.08944500  1
  C  C37  1  0.89554700  0.47823200  0.10622000  1
  C  C38  1  0.78358500  0.94695300  0.09299800  1
  C  C39  1  0.53120000  0.90432300  0.11772300  1
  C  C40  1  0.39206000  0.37979400  0.16779900  1
  C  C41  1  0.58727100  0.20295200  0.18595300  1
  C  C42  1  0.20232400  0.58222400  0.19825600  1
  C  C43  1  0.06052600  0.89989100  0.21199800  1
  C  C44  1  0.12140800  0.10399500  0.32714800  1
  C  C45  1  0.59407000  0.44019000  0.28921800  1
  C  C46  1  0.91106200  0.29867900  0.29042000  1
  C  C47  1  0.29956000  0.91065600  0.31220500  1
  C  C48  1  0.17098100  0.38789500  0.37796800  1
  C  C49  1  0.37929600  0.17152700  0.38834600  1
  C  C50  1  0.02669900  0.60904900  0.38643900  1
  C  C51  1  0.60058500  0.97009200  0.37759900  1
  C  C52  1  0.55297400  0.71924200  0.40723700  1
  C  C53  1  0.27432100  0.59857400  0.44421100  1
  C  C54  1  0.79567000  0.80937800  0.41240400  1
  C  C55  1  0.09222000  0.87951500  0.46484200  1
  C  C56  1  0.87347200  0.09649500  0.52699400  1
  C  C57  1  0.19990700  0.16780900  0.58777400  1
  C  C58  1  0.41743800  0.30441300  0.59201400  1
  C  C59  1  0.71241900  0.41652200  0.55604600  1
  C  C60  1  0.42160400  0.04454900  0.61002600  1
  C  C61  1  0.96462100  0.39191400  0.60792600  1
  C  C62  1  0.61847100  0.84192500  0.60749500  1
  C  C63  1  0.83399000  0.61705900  0.62388700  1
  C  C64  1  0.08746400  0.69194600  0.70358200  1
  C  C65  1  0.68743200  0.07053200  0.71116500  1
  C  C66  1  0.40489500  0.56680100  0.71855800  1
  C  C67  1  0.87242400  0.88162400  0.67684300  1
  C  C68  1  0.93303000  0.09699700  0.77445800  1
  C  C69  1  0.42644400  0.81106300  0.79657900  1
  C  C70  1  0.79392400  0.41561300  0.79894100  1
  C  C71  1  0.61349300  0.62785000  0.82899700  1
  C  C72  1  0.45161700  0.08931900  0.88358700  1
  C  C73  1  0.19194100  0.08984900  0.91123700  1
  C  C74  1  0.11945600  0.53842000  0.90672400  1
  C  C75  1  0.32753100  0.30846100  0.92122100  1
  C  C76  1  0.88929700  0.65721500  0.88075300  1
  C  C77  1  0.08384900  0.79106600  0.94245700  1
  C  C78  1  0.66211100  0.87771000  0.89179500  1
  C  C79  1  0.39196900  0.61413000  0.96850000  1
