# generated using pymatgen
data_CuNi3C10
_symmetry_space_group_name_H-M   'P 1'
_cell_length_a   6.00493497
_cell_length_b   6.00494625
_cell_length_c   10.74412625
_cell_angle_alpha   73.95572518
_cell_angle_beta   73.95564943
_cell_angle_gamma   60.18447925
_symmetry_Int_Tables_number   1
_chemical_formula_structural   CuNi3C10
_chemical_formula_sum   'Cu2 Ni6 C20'
_cell_volume   318.53151845
_cell_formula_units_Z   2
loop_
 _symmetry_equiv_pos_site_id
 _symmetry_equiv_pos_as_xyz
  1  'x, y, z'
loop_
 _atom_site_type_symbol
 _atom_site_label
 _atom_site_symmetry_multiplicity
 _atom_site_fract_x
 _atom_site_fract_y
 _atom_site_fract_z
 _atom_site_occupancy
  C  C0  1  0.43809600  0.43809600  0.68630700  1
  C  C1  1  0.93808400  0.93808400  0.18633800  1
  C  C2  1  0.06191600  0.06191600  0.81366200  1
  C  C3  1  0.56190400  0.56190400  0.31369300  1
  Ni  Ni4  1  0.49999900  0.49999600  0.00000000  1
  Ni  Ni5  1  0.00000200  0.49999700  0.00000000  1
  Ni  Ni6  1  0.49999600  0.00000500  0.00000000  1
  Ni  Ni7  1  0.00000100  0.00000100  0.50000000  1
  Ni  Ni8  1  0.49999800  0.00000100  0.49999900  1
  Ni  Ni9  1  0.00000400  0.49999600  0.50000000  1
  Cu  Cu10  1  0.25002000  0.25002100  0.24998400  1
  Cu  Cu11  1  0.74998000  0.74997800  0.75001700  1
  C  C12  1  0.36832400  0.36832300  0.89703100  1
  C  C13  1  0.86832400  0.86832500  0.39703800  1
  C  C14  1  0.13167600  0.13167600  0.60296100  1
  C  C15  1  0.63167600  0.63167700  0.10297000  1
  C  C16  1  0.14132300  0.60140700  0.11615700  1
  C  C17  1  0.64131300  0.10142700  0.61616500  1
  C  C18  1  0.60140800  0.14132400  0.11615700  1
  C  C19  1  0.10142600  0.64131300  0.61616500  1
  C  C20  1  0.14112500  0.14112500  0.11665100  1
  C  C21  1  0.64112700  0.64112800  0.61665700  1
  C  C22  1  0.35887300  0.35887200  0.38334300  1
  C  C23  1  0.85887500  0.85887500  0.88334900  1
  C  C24  1  0.89857400  0.35868700  0.38383500  1
  C  C25  1  0.39859300  0.85867700  0.88384300  1
  C  C26  1  0.35868700  0.89857400  0.38383500  1
  C  C27  1  0.85867700  0.39859400  0.88384300  1
