# generated using pymatgen
data_Cu6NiC29
_symmetry_space_group_name_H-M   'P 1'
_cell_length_a   8.61523292
_cell_length_b   8.61523292
_cell_length_c   8.61523223
_cell_angle_alpha   61.17794404
_cell_angle_beta   61.17794404
_cell_angle_gamma   61.17794424
_symmetry_Int_Tables_number   1
_chemical_formula_structural   Cu6NiC29
_chemical_formula_sum   'Cu6 Ni1 C29'
_cell_volume   464.13612813
_cell_formula_units_Z   1
loop_
 _symmetry_equiv_pos_site_id
 _symmetry_equiv_pos_as_xyz
  1  'x, y, z'
loop_
 _atom_site_type_symbol
 _atom_site_label
 _atom_site_symmetry_multiplicity
 _atom_site_fract_x
 _atom_site_fract_y
 _atom_site_fract_z
 _atom_site_occupancy
  C  C0  1  0.00049900  0.00049900  0.00049900  1
  C  C1  1  0.35455000  0.35455000  0.35455000  1
  C  C2  1  0.49871300  0.49871300  0.49871300  1
  C  C3  1  0.14364300  0.14364300  0.14364300  1
  C  C4  1  0.64264800  0.64264800  0.64264800  1
  Ni  Ni5  1  0.84986600  0.84986600  0.84986600  1
  Cu  Cu6  1  0.44054700  0.74770800  0.05348900  1
  Cu  Cu7  1  0.74770800  0.05348900  0.44054700  1
  Cu  Cu8  1  0.05348900  0.44054700  0.74770800  1
  Cu  Cu9  1  0.95678100  0.53913800  0.25818100  1
  Cu  Cu10  1  0.25818100  0.95678100  0.53913800  1
  Cu  Cu11  1  0.53913800  0.25818100  0.95678100  1
  C  C12  1  0.68645000  0.88961700  0.49972700  1
  C  C13  1  0.88961700  0.49972700  0.68645000  1
  C  C14  1  0.49972700  0.68645000  0.88961700  1
  C  C15  1  0.24333100  0.90321200  0.06720200  1
  C  C16  1  0.57988400  0.81946600  0.03988100  1
  C  C17  1  0.42145100  0.58774700  0.24924000  1
  C  C18  1  0.90321200  0.06720200  0.24333100  1
  C  C19  1  0.58774700  0.24924000  0.42145100  1
  C  C20  1  0.99790300  0.38964500  0.18396500  1
  C  C21  1  0.24924000  0.42145100  0.58774700  1
  C  C22  1  0.95215700  0.73821600  0.10731800  1
  C  C23  1  0.18396500  0.99790300  0.38964500  1
  C  C24  1  0.81946600  0.03988100  0.57988400  1
  C  C25  1  0.06720200  0.24333100  0.90321200  1
  C  C26  1  0.75871800  0.55756900  0.41039400  1
  C  C27  1  0.03988100  0.57988400  0.81946600  1
  C  C28  1  0.41039400  0.75871800  0.55756900  1
  C  C29  1  0.10731800  0.95215700  0.73821600  1
  C  C30  1  0.55756900  0.41039400  0.75871800  1
  C  C31  1  0.38964500  0.18396500  0.99790300  1
  C  C32  1  0.73821600  0.10731800  0.95215700  1
  C  C33  1  0.48504300  0.33602100  0.11005900  1
  C  C34  1  0.11005900  0.48504300  0.33602100  1
  C  C35  1  0.33602100  0.11005900  0.48504300  1
