# generated using pymatgen
data_Cu3Ni3C7
_symmetry_space_group_name_H-M   'P 1'
_cell_length_a   11.05809300
_cell_length_b   10.98554200
_cell_length_c   19.11899918
_cell_angle_alpha   86.98815565
_cell_angle_beta   90.00000000
_cell_angle_gamma   90.00000000
_symmetry_Int_Tables_number   1
_chemical_formula_structural   Cu3Ni3C7
_chemical_formula_sum   'Cu12 Ni12 C28'
_cell_volume   2319.35151078
_cell_formula_units_Z   4
loop_
 _symmetry_equiv_pos_site_id
 _symmetry_equiv_pos_as_xyz
  1  'x, y, z'
loop_
 _atom_site_type_symbol
 _atom_site_label
 _atom_site_symmetry_multiplicity
 _atom_site_fract_x
 _atom_site_fract_y
 _atom_site_fract_z
 _atom_site_occupancy
  C  C0  1  0.42825400  0.59947100  0.92601900  1
  C  C1  1  0.07174600  0.09947100  0.42601900  1
  C  C2  1  0.57174600  0.40052900  0.07398100  1
  C  C3  1  0.92825400  0.90052900  0.57398100  1
  C  C4  1  0.62647900  0.61841000  0.00855800  1
  C  C5  1  0.87352100  0.11841000  0.50855800  1
  C  C6  1  0.37352100  0.38159000  0.99144200  1
  C  C7  1  0.12647900  0.88159000  0.49144200  1
  C  C8  1  0.40469700  0.58197000  0.06731200  1
  C  C9  1  0.09530300  0.08197000  0.56731200  1
  C  C10  1  0.59530300  0.41803000  0.93268800  1
  C  C11  1  0.90469700  0.91803000  0.43268800  1
  C  C12  1  0.20528500  0.56265700  0.98530900  1
  C  C13  1  0.29471500  0.06265700  0.48530900  1
  C  C14  1  0.79471500  0.43734300  0.01469100  1
  C  C15  1  0.70528500  0.93734300  0.51469100  1
  C  C16  1  0.64966700  0.63716900  0.86646300  1
  C  C17  1  0.85033300  0.13716900  0.36646300  1
  C  C18  1  0.35033300  0.36283100  0.13353700  1
  C  C19  1  0.14966700  0.86283100  0.63353700  1
  C  C20  1  0.39762900  0.39976700  0.84935000  1
  C  C21  1  0.10237100  0.89976700  0.34935000  1
  C  C22  1  0.60237100  0.60023300  0.15065000  1
  C  C23  1  0.89762900  0.10023300  0.65065000  1
  C  C24  1  0.46026600  0.80098800  0.00089400  1
  C  C25  1  0.03973400  0.30098800  0.50089400  1
  C  C26  1  0.53973400  0.19901200  0.99910600  1
  C  C27  1  0.96026600  0.69901200  0.49910600  1
  Ni  Ni28  1  0.34860100  0.70936500  0.84651200  1
  Ni  Ni29  1  0.15139900  0.20936500  0.34651200  1
  Ni  Ni30  1  0.65139900  0.29063500  0.15348800  1
  Ni  Ni31  1  0.84860100  0.79063500  0.65348800  1
  Ni  Ni32  1  0.76490800  0.74443500  0.01763400  1
  Ni  Ni33  1  0.73509200  0.24443500  0.51763400  1
  Ni  Ni34  1  0.23509200  0.25556500  0.98236600  1
  Ni  Ni35  1  0.26490800  0.75556500  0.48236600  1
  Ni  Ni36  1  0.30466400  0.67576200  0.13955800  1
  Ni  Ni37  1  0.19533600  0.17576200  0.63955800  1
  Ni  Ni38  1  0.69533600  0.32423800  0.86044200  1
  Ni  Ni39  1  0.80466400  0.82423800  0.36044200  1
  Cu  Cu40  1  0.30201200  0.77098700  0.80198300  1
  Cu  Cu41  1  0.19798800  0.27098700  0.30198300  1
  Cu  Cu42  1  0.69798800  0.22901300  0.19801700  1
  Cu  Cu43  1  0.80201200  0.72901300  0.69801700  1
  Cu  Cu44  1  0.84457000  0.81464100  0.02296600  1
  Cu  Cu45  1  0.65543000  0.31464100  0.52296600  1
  Cu  Cu46  1  0.15543000  0.18535900  0.97703400  1
  Cu  Cu47  1  0.34457000  0.68535900  0.47703400  1
  Cu  Cu48  1  0.24969700  0.72886200  0.18109100  1
  Cu  Cu49  1  0.25030300  0.22886200  0.68109100  1
  Cu  Cu50  1  0.75030300  0.27113800  0.81890900  1
  Cu  Cu51  1  0.74969700  0.77113800  0.31890900  1
