# generated using pymatgen
data_CuNi
_symmetry_space_group_name_H-M   'P 1'
_cell_length_a   4.35154654
_cell_length_b   4.35154654
_cell_length_c   24.49222800
_cell_angle_alpha   90.00000000
_cell_angle_beta   90.00000000
_cell_angle_gamma   120.00000814
_symmetry_Int_Tables_number   1
_chemical_formula_structural   CuNi
_chemical_formula_sum   'Cu6 Ni6'
_cell_volume   401.64850445
_cell_formula_units_Z   6
loop_
 _symmetry_equiv_pos_site_id
 _symmetry_equiv_pos_as_xyz
  1  'x, y, z'
loop_
 _atom_site_type_symbol
 _atom_site_label
 _atom_site_symmetry_multiplicity
 _atom_site_fract_x
 _atom_site_fract_y
 _atom_site_fract_z
 _atom_site_occupancy
  Ni  Ni0  1  0.00000000  0.00000000  0.86868400  1
  Ni  Ni1  1  0.00000000  0.00000000  0.13131600  1
  Ni  Ni2  1  0.33333300  0.66666700  0.70723300  1
  Ni  Ni3  1  0.66666700  0.33333300  0.29276700  1
  Ni  Ni4  1  0.33333300  0.66666700  0.46824500  1
  Ni  Ni5  1  0.66666700  0.33333300  0.53175500  1
  Cu  Cu6  1  0.33333300  0.66666700  0.93784700  1
  Cu  Cu7  1  0.66666700  0.33333300  0.06215300  1
  Cu  Cu8  1  0.33333300  0.66666700  0.21233300  1
  Cu  Cu9  1  0.66666700  0.33333300  0.78766700  1
  Cu  Cu10  1  0.00000000  0.00000000  0.63729200  1
  Cu  Cu11  1  0.00000000  0.00000000  0.36270800  1
