# generated using pymatgen
data_Cu6Ni2C
_symmetry_space_group_name_H-M   'P 1'
_cell_length_a   7.87760400
_cell_length_b   7.85839900
_cell_length_c   9.05438934
_cell_angle_alpha   80.86888300
_cell_angle_beta   90.00000000
_cell_angle_gamma   90.00000000
_symmetry_Int_Tables_number   1
_chemical_formula_structural   Cu6Ni2C
_chemical_formula_sum   'Cu24 Ni8 C4'
_cell_volume   553.41221037
_cell_formula_units_Z   4
loop_
 _symmetry_equiv_pos_site_id
 _symmetry_equiv_pos_as_xyz
  1  'x, y, z'
loop_
 _atom_site_type_symbol
 _atom_site_label
 _atom_site_symmetry_multiplicity
 _atom_site_fract_x
 _atom_site_fract_y
 _atom_site_fract_z
 _atom_site_occupancy
  C  C0  1  0.50000000  0.00000000  0.50000000  1
  C  C1  1  0.00000000  0.00000000  0.00000000  1
  C  C2  1  0.00000000  0.50000000  0.50000000  1
  C  C3  1  0.50000000  0.50000000  0.00000000  1
  Ni  Ni4  1  0.67760100  0.83196300  0.82104500  1
  Ni  Ni5  1  0.17760100  0.16803700  0.67895500  1
  Ni  Ni6  1  0.32239900  0.16803700  0.17895500  1
  Ni  Ni7  1  0.82239900  0.83196300  0.32104500  1
  Ni  Ni8  1  0.23517600  0.69061700  0.98514400  1
  Ni  Ni9  1  0.73517600  0.30938300  0.51485600  1
  Ni  Ni10  1  0.76482400  0.30938300  0.01485600  1
  Ni  Ni11  1  0.26482400  0.69061700  0.48514400  1
  Cu  Cu12  1  0.61020500  0.92041400  0.70619000  1
  Cu  Cu13  1  0.11020500  0.07958600  0.79381000  1
  Cu  Cu14  1  0.38979500  0.07958600  0.29381000  1
  Cu  Cu15  1  0.88979500  0.92041400  0.20619000  1
  Cu  Cu16  1  0.77837700  0.90468700  0.90194700  1
  Cu  Cu17  1  0.27837700  0.09531300  0.59805300  1
  Cu  Cu18  1  0.22162300  0.09531300  0.09805300  1
  Cu  Cu19  1  0.72162300  0.90468700  0.40194700  1
  Cu  Cu20  1  0.26128400  0.58529200  0.89212100  1
  Cu  Cu21  1  0.76128400  0.41470800  0.60787900  1
  Cu  Cu22  1  0.73871600  0.41470800  0.10787900  1
  Cu  Cu23  1  0.23871600  0.58529200  0.39212100  1
  Cu  Cu24  1  0.09308000  0.75856900  0.00381100  1
  Cu  Cu25  1  0.59308000  0.24143100  0.49618900  1
  Cu  Cu26  1  0.90692000  0.24143100  0.99618900  1
  Cu  Cu27  1  0.40692000  0.75856900  0.50381100  1
  Cu  Cu28  1  0.13007000  0.71728700  0.55966800  1
  Cu  Cu29  1  0.63007000  0.28271300  0.94033200  1
  Cu  Cu30  1  0.86993000  0.28271300  0.44033200  1
  Cu  Cu31  1  0.36993000  0.71728700  0.05966800  1
  Cu  Cu32  1  0.64454400  0.67081900  0.85577400  1
  Cu  Cu33  1  0.14454400  0.32918100  0.64422600  1
  Cu  Cu34  1  0.35545600  0.32918100  0.14422600  1
  Cu  Cu35  1  0.85545600  0.67081900  0.35577400  1
