# generated using pymatgen
data_Cu3NiC20
_symmetry_space_group_name_H-M   'P 1'
_cell_length_a   8.54662100
_cell_length_b   4.94898100
_cell_length_c   5.00874218
_cell_angle_alpha   89.53749849
_cell_angle_beta   90.00000000
_cell_angle_gamma   90.00000000
_symmetry_Int_Tables_number   1
_chemical_formula_structural   Cu3NiC20
_chemical_formula_sum   'Cu3 Ni1 C20'
_cell_volume   211.84819124
_cell_formula_units_Z   1
loop_
 _symmetry_equiv_pos_site_id
 _symmetry_equiv_pos_as_xyz
  1  'x, y, z'
loop_
 _atom_site_type_symbol
 _atom_site_label
 _atom_site_symmetry_multiplicity
 _atom_site_fract_x
 _atom_site_fract_y
 _atom_site_fract_z
 _atom_site_occupancy
  C  C0  1  0.58252500  0.00000000  0.00000000  1
  C  C1  1  0.26824900  0.00000000  0.00000000  1
  C  C2  1  0.93332100  0.00000000  0.50000000  1
  C  C3  1  0.24446000  0.00000000  0.50000000  1
  C  C4  1  0.74420300  0.50000000  0.00000000  1
  C  C5  1  0.43022800  0.50000000  0.00000000  1
  C  C6  1  0.08296600  0.50000000  0.50000000  1
  C  C7  1  0.76799500  0.50000000  0.50000000  1
  Ni  Ni8  1  0.09675100  0.50000000  0.00000000  1
  Cu  Cu9  1  0.91791500  0.00000000  0.00000000  1
  Cu  Cu10  1  0.59899000  0.00000000  0.50000000  1
  Cu  Cu11  1  0.41332600  0.50000000  0.50000000  1
  C  C12  1  0.25293700  0.35227400  0.24327700  1
  C  C13  1  0.93206700  0.32498100  0.21358500  1
  C  C14  1  0.58539600  0.31833900  0.28014700  1
  C  C15  1  0.43103200  0.17728500  0.71800400  1
  C  C16  1  0.08298900  0.18107000  0.78081500  1
  C  C17  1  0.75840000  0.14443200  0.74765200  1
  C  C18  1  0.75840000  0.85556800  0.25234800  1
  C  C19  1  0.08298900  0.81893000  0.21918500  1
  C  C20  1  0.43103200  0.82271500  0.28199600  1
  C  C21  1  0.58539600  0.68166100  0.71985300  1
  C  C22  1  0.93206700  0.67501900  0.78641500  1
  C  C23  1  0.25293700  0.64772600  0.75672300  1
