# generated using pymatgen
data_CuNi5C12
_symmetry_space_group_name_H-M   'P 1'
_cell_length_a   5.02989933
_cell_length_b   5.02989933
_cell_length_c   9.71011407
_cell_angle_alpha   89.99660470
_cell_angle_beta   89.99660470
_cell_angle_gamma   120.06735070
_symmetry_Int_Tables_number   1
_chemical_formula_structural   CuNi5C12
_chemical_formula_sum   'Cu1 Ni5 C12'
_cell_volume   212.60741351
_cell_formula_units_Z   1
loop_
 _symmetry_equiv_pos_site_id
 _symmetry_equiv_pos_as_xyz
  1  'x, y, z'
loop_
 _atom_site_type_symbol
 _atom_site_label
 _atom_site_symmetry_multiplicity
 _atom_site_fract_x
 _atom_site_fract_y
 _atom_site_fract_z
 _atom_site_occupancy
  Ni  Ni0  1  0.16662100  0.83337900  0.50000000  1
  Ni  Ni1  1  0.33334700  0.66665300  0.00000000  1
  Ni  Ni2  1  0.50000000  0.50000000  0.50000000  1
  Ni  Ni3  1  0.66665300  0.33334700  0.00000000  1
  Ni  Ni4  1  0.83337900  0.16662100  0.50000000  1
  Cu  Cu5  1  0.00000000  0.00000000  0.00000000  1
  C  C6  1  0.00016100  0.67247000  0.90254800  1
  C  C7  1  0.32753000  0.99983900  0.09745200  1
  C  C8  1  0.16677100  0.50016300  0.59910000  1
  C  C9  1  0.49983700  0.83322900  0.40090000  1
  C  C10  1  0.32776900  0.32776900  0.90257800  1
  C  C11  1  0.16669700  0.16669700  0.40102400  1
  C  C12  1  0.67223100  0.67223100  0.09742200  1
  C  C13  1  0.83330300  0.83330300  0.59897600  1
  C  C14  1  0.50016300  0.16677100  0.59910000  1
  C  C15  1  0.83322900  0.49983700  0.40090000  1
  C  C16  1  0.99983900  0.32753000  0.09745200  1
  C  C17  1  0.67247000  0.00016100  0.90254800  1
