# generated using pymatgen
data_CuNiC4
_symmetry_space_group_name_H-M   'P 1'
_cell_length_a   3.12522900
_cell_length_b   14.08339178
_cell_length_c   14.08597910
_cell_angle_alpha   60.07107447
_cell_angle_beta   89.49982426
_cell_angle_gamma   89.30175687
_symmetry_Int_Tables_number   1
_chemical_formula_structural   CuNiC4
_chemical_formula_sum   'Cu9 Ni9 C36'
_cell_volume   537.25824753
_cell_formula_units_Z   9
loop_
 _symmetry_equiv_pos_site_id
 _symmetry_equiv_pos_as_xyz
  1  'x, y, z'
loop_
 _atom_site_type_symbol
 _atom_site_label
 _atom_site_symmetry_multiplicity
 _atom_site_fract_x
 _atom_site_fract_y
 _atom_site_fract_z
 _atom_site_occupancy
  C  C0  1  0.49399300  0.09825400  0.12626100  1
  C  C1  1  0.51252200  0.10779800  0.43550200  1
  C  C2  1  0.44683900  0.45570800  0.10829000  1
  C  C3  1  0.47956400  0.12821200  0.77236000  1
  C  C4  1  0.54631500  0.43574100  0.45580600  1
  C  C5  1  0.49440700  0.44144200  0.75360400  1
  C  C6  1  0.52100900  0.77361600  0.09833300  1
  C  C7  1  0.52376900  0.80461700  0.44231600  1
  C  C8  1  0.48926700  0.75260300  0.80558800  1
  Ni  Ni9  1  0.93962900  0.25017100  0.20161500  1
  Ni  Ni10  1  0.99945600  0.20022600  0.54826000  1
  Ni  Ni11  1  0.00380200  0.21292200  0.90438300  1
  Ni  Ni12  1  0.04917700  0.54787500  0.25035100  1
  Ni  Ni13  1  0.04609700  0.58118000  0.53731600  1
  Ni  Ni14  1  0.95156800  0.53599300  0.88259200  1
  Ni  Ni15  1  0.03236300  0.88146200  0.21331700  1
  Ni  Ni16  1  0.00370400  0.88227500  0.58054800  1
  Ni  Ni17  1  0.96820800  0.90461300  0.88223700  1
  Cu  Cu18  1  0.98826900  0.00457800  0.33564300  1
  Cu  Cu19  1  0.00080500  0.33305400  0.33317500  1
  Cu  Cu20  1  0.99821600  0.33558600  0.65895000  1
  Cu  Cu21  1  0.00460800  0.65860200  0.00533600  1
  Cu  Cu22  1  0.46509200  0.33091500  0.99244700  1
  Cu  Cu23  1  0.54596500  0.67556600  0.33186900  1
  Cu  Cu24  1  0.01240100  0.66580200  0.66751600  1
  Cu  Cu25  1  0.99383900  0.99970700  0.00004400  1
  Cu  Cu26  1  0.48526900  0.99151800  0.67649300  1
  C  C27  1  0.99161300  0.02938500  0.08022000  1
  C  C28  1  0.02161000  0.00827700  0.43206700  1
  C  C29  1  0.89540800  0.09937200  0.23710900  1
  C  C30  1  0.43811000  0.31601700  0.09664200  1
  C  C31  1  0.50082300  0.09543900  0.58675600  1
  C  C32  1  0.00360800  0.22058600  0.39691100  1
  C  C33  1  0.93738400  0.38155700  0.22190300  1
  C  C34  1  0.95503200  0.07933900  0.89072100  1
  C  C35  1  0.96326400  0.55882700  0.00885700  1
  C  C36  1  0.92214600  0.23613700  0.66293400  1
  C  C37  1  0.06151000  0.39655400  0.38098600  1
  C  C38  1  0.10992200  0.66207500  0.09968500  1
  C  C39  1  0.03158600  0.33747500  0.75612000  1
  C  C40  1  0.03640200  0.43197000  0.55925500  1
  C  C41  1  0.50295400  0.24139200  0.97728200  1
  C  C42  1  0.54774600  0.58591500  0.31720700  1
  C  C43  1  0.54859800  0.66071600  0.43664200  1
  C  C44  1  0.45476600  0.43569400  0.90272200  1
  C  C45  1  0.03564200  0.89036900  0.02928400  1
  C  C46  1  0.53755500  0.78011600  0.24185800  1
  C  C47  1  0.94623100  0.56146200  0.68412800  1
  C  C48  1  0.04453500  0.68224100  0.75613200  1
  C  C49  1  0.04536200  0.75355300  0.56165500  1
  C  C50  1  0.03956600  0.90541200  0.33804900  1
  C  C51  1  0.94740200  0.75570500  0.90723300  1
  C  C52  1  0.49406700  0.90145000  0.66173700  1
  C  C53  1  0.46518700  0.97740000  0.78083600  1
