# generated using pymatgen
data_CuNi9C13
_symmetry_space_group_name_H-M   'P 1'
_cell_length_a   12.28655000
_cell_length_b   14.20096619
_cell_length_c   9.25673111
_cell_angle_alpha   103.23249735
_cell_angle_beta   98.32533708
_cell_angle_gamma   90.23474405
_symmetry_Int_Tables_number   1
_chemical_formula_structural   CuNi9C13
_chemical_formula_sum   'Cu4 Ni36 C52'
_cell_volume   1554.50813657
_cell_formula_units_Z   4
loop_
 _symmetry_equiv_pos_site_id
 _symmetry_equiv_pos_as_xyz
  1  'x, y, z'
loop_
 _atom_site_type_symbol
 _atom_site_label
 _atom_site_symmetry_multiplicity
 _atom_site_fract_x
 _atom_site_fract_y
 _atom_site_fract_z
 _atom_site_occupancy
  C  C0  1  0.07871300  0.52469400  0.57986600  1
  C  C1  1  0.92128700  0.47530600  0.42013400  1
  C  C2  1  0.16403100  0.80542600  0.54455200  1
  C  C3  1  0.83596900  0.19457400  0.45544800  1
  C  C4  1  0.23248100  0.06128800  0.99667500  1
  C  C5  1  0.76751900  0.93871200  0.00332500  1
  C  C6  1  0.39155400  0.05683200  0.82537000  1
  C  C7  1  0.60844600  0.94316800  0.17463000  1
  C  C8  1  0.29486500  0.61130400  0.46480900  1
  C  C9  1  0.70513500  0.38869600  0.53519100  1
  C  C10  1  0.24520800  0.58951500  0.69358300  1
  C  C11  1  0.75479200  0.41048500  0.30641700  1
  C  C12  1  0.18311800  0.76089200  0.88597300  1
  C  C13  1  0.81688200  0.23910800  0.11402700  1
  Ni  Ni14  1  0.09024400  0.72621200  0.41169900  1
  Ni  Ni15  1  0.90975600  0.27378800  0.58830100  1
  Ni  Ni16  1  0.23572100  0.96570000  0.47704700  1
  Ni  Ni17  1  0.76427900  0.03430000  0.52295300  1
  Ni  Ni18  1  0.07203500  0.91713400  0.60435500  1
  Ni  Ni19  1  0.92796500  0.08286600  0.39564500  1
  Ni  Ni20  1  0.11731100  0.10904500  0.94663700  1
  Ni  Ni21  1  0.88268900  0.89095500  0.05336300  1
  Ni  Ni22  1  0.29279400  0.25966300  0.06687100  1
  Ni  Ni23  1  0.70720600  0.74033700  0.93312900  1
  Ni  Ni24  1  0.18067800  0.01294500  0.13065000  1
  Ni  Ni25  1  0.81932200  0.98705500  0.86935000  1
  Ni  Ni26  1  0.49936100  0.97259100  0.78783200  1
  Ni  Ni27  1  0.50063900  0.02740900  0.21216800  1
  Ni  Ni28  1  0.46800600  0.22304800  0.92066100  1
  Ni  Ni29  1  0.53199400  0.77695200  0.07933900  1
  Ni  Ni30  1  0.40605600  0.17819300  0.71037200  1
  Ni  Ni31  1  0.59394400  0.82180700  0.28962800  1
  Ni  Ni32  1  0.30628200  0.67474800  0.32337300  1
  Ni  Ni33  1  0.69371800  0.32525200  0.67662700  1
  Ni  Ni34  1  0.39808600  0.78057000  0.52740800  1
  Ni  Ni35  1  0.60191400  0.21943000  0.47259200  1
  Ni  Ni36  1  0.37406700  0.46715400  0.44384300  1
  Ni  Ni37  1  0.62593300  0.53284600  0.55615700  1
  Ni  Ni38  1  0.17681100  0.45720500  0.42805800  1
  Ni  Ni39  1  0.82318900  0.54279500  0.57194200  1
  Ni  Ni40  1  0.21509900  0.38054400  0.65007300  1
  Ni  Ni41  1  0.78490100  0.61945600  0.34992700  1
  Ni  Ni42  1  0.36996900  0.58449100  0.74117700  1
  Ni  Ni43  1  0.63003100  0.41550900  0.25882300  1
  Ni  Ni44  1  0.05219200  0.74552100  0.84396900  1
  Ni  Ni45  1  0.94780800  0.25447900  0.15603100  1
  Ni  Ni46  1  0.13960100  0.69576600  0.01997800  1
  Ni  Ni47  1  0.86039900  0.30423400  0.98002200  1
  Ni  Ni48  1  0.19046200  0.53778600  0.84885900  1
  Ni  Ni49  1  0.80953800  0.46221400  0.15114100  1
  Cu  Cu50  1  0.25962300  0.86246000  0.72450800  1
  Cu  Cu51  1  0.74037700  0.13754000  0.27549200  1
  Cu  Cu52  1  0.34172500  0.90279900  0.96919000  1
  Cu  Cu53  1  0.65827500  0.09720100  0.03081000  1
  C  C54  1  0.04180500  0.67700300  0.33247600  1
  C  C55  1  0.95819500  0.32299700  0.66752400  1
  C  C56  1  0.28126600  0.06072800  0.43442500  1
  C  C57  1  0.71873400  0.93927200  0.56557500  1
  C  C58  1  0.01621600  0.98677700  0.63335900  1
  C  C59  1  0.98378400  0.01322300  0.36664100  1
  C  C60  1  0.04454200  0.12757900  0.91466900  1
  C  C61  1  0.95545800  0.87242100  0.08533100  1
  C  C62  1  0.32293900  0.37735700  0.11854500  1
  C  C63  1  0.67706100  0.62264300  0.88145500  1
  C  C64  1  0.15526200  0.98387100  0.21650400  1
  C  C65  1  0.84473800  0.01612900  0.78349600  1
  C  C66  1  0.56616600  0.92143300  0.77099600  1
  C  C67  1  0.43383400  0.07856700  0.22900400  1
  C  C68  1  0.51589900  0.32754300  0.97441300  1
  C  C69  1  0.48410100  0.67245700  0.02558700  1
  C  C70  1  0.41817500  0.25041800  0.63975600  1
  C  C71  1  0.58182500  0.74958200  0.36024400  1
  C  C72  1  0.31616100  0.71607000  0.23845700  1
  C  C73  1  0.68383900  0.28393000  0.76154300  1
  C  C74  1  0.46087700  0.88192900  0.55976900  1
  C  C75  1  0.53912300  0.11807100  0.44023100  1
  C  C76  1  0.41986100  0.37855700  0.42527400  1
  C  C77  1  0.58013900  0.62144300  0.57472600  1
  C  C78  1  0.10524900  0.36562400  0.41011700  1
  C  C79  1  0.89475100  0.63437600  0.58988300  1
  C  C80  1  0.19335100  0.25030900  0.62689400  1
  C  C81  1  0.80664900  0.74969100  0.37310600  1
  C  C82  1  0.44727100  0.58087500  0.77101400  1
  C  C83  1  0.55272900  0.41912500  0.22898600  1
  C  C84  1  0.97176700  0.74603300  0.82592200  1
  C  C85  1  0.02823300  0.25396700  0.17407800  1
  C  C86  1  0.11160000  0.64590900  0.09849500  1
  C  C87  1  0.88840000  0.35409100  0.90150500  1
  C  C88  1  0.17658200  0.42839300  0.89175400  1
  C  C89  1  0.82341800  0.57160700  0.10824600  1
  C  C90  1  0.10775600  0.61637600  0.62982800  1
  C  C91  1  0.89224400  0.38362400  0.37017200  1
