# generated using pymatgen
data_Cu4NiC
_symmetry_space_group_name_H-M   'P 1'
_cell_length_a   8.67978655
_cell_length_b   8.67978655
_cell_length_c   8.67978628
_cell_angle_alpha   59.43378097
_cell_angle_beta   59.43378097
_cell_angle_gamma   59.43378230
_symmetry_Int_Tables_number   1
_chemical_formula_structural   Cu4NiC
_chemical_formula_sum   'Cu24 Ni6 C6'
_cell_volume   456.43714436
_cell_formula_units_Z   6
loop_
 _symmetry_equiv_pos_site_id
 _symmetry_equiv_pos_as_xyz
  1  'x, y, z'
loop_
 _atom_site_type_symbol
 _atom_site_label
 _atom_site_symmetry_multiplicity
 _atom_site_fract_x
 _atom_site_fract_y
 _atom_site_fract_z
 _atom_site_occupancy
  C  C0  1  0.00000000  0.00000000  0.00000000  1
  C  C1  1  0.50000000  0.50000000  0.50000000  1
  C  C2  1  0.35558100  0.35558100  0.35558100  1
  C  C3  1  0.14441900  0.14441900  0.14441900  1
  C  C4  1  0.64441900  0.64441900  0.64441900  1
  C  C5  1  0.85558100  0.85558100  0.85558100  1
  Ni  Ni6  1  0.75000000  0.04442000  0.45558000  1
  Ni  Ni7  1  0.95558000  0.54442000  0.25000000  1
  Ni  Ni8  1  0.54442000  0.25000000  0.95558000  1
  Ni  Ni9  1  0.45558000  0.75000000  0.04442000  1
  Ni  Ni10  1  0.04442000  0.45558000  0.75000000  1
  Ni  Ni11  1  0.25000000  0.95558000  0.54442000  1
  Cu  Cu12  1  0.90754000  0.06316000  0.26649800  1
  Cu  Cu13  1  0.73350200  0.09246000  0.93684000  1
  Cu  Cu14  1  0.89589600  0.49126100  0.69048500  1
  Cu  Cu15  1  0.00873900  0.60410400  0.80951500  1
  Cu  Cu16  1  0.59246000  0.23350200  0.43684000  1
  Cu  Cu17  1  0.76649800  0.56316000  0.40754000  1
  Cu  Cu18  1  0.93684000  0.73350200  0.09246000  1
  Cu  Cu19  1  0.19048500  0.99126100  0.39589600  1
  Cu  Cu20  1  0.50873900  0.30951500  0.10410400  1
  Cu  Cu21  1  0.30951500  0.10410400  0.50873900  1
  Cu  Cu22  1  0.39589600  0.19048500  0.99126100  1
  Cu  Cu23  1  0.56316000  0.40754000  0.76649800  1
  Cu  Cu24  1  0.43684000  0.59246000  0.23350200  1
  Cu  Cu25  1  0.69048500  0.89589600  0.49126100  1
  Cu  Cu26  1  0.60410400  0.80951500  0.00873900  1
  Cu  Cu27  1  0.80951500  0.00873900  0.60410400  1
  Cu  Cu28  1  0.49126100  0.69048500  0.89589600  1
  Cu  Cu29  1  0.06316000  0.26649800  0.90754000  1
  Cu  Cu30  1  0.23350200  0.43684000  0.59246000  1
  Cu  Cu31  1  0.40754000  0.76649800  0.56316000  1
  Cu  Cu32  1  0.10410400  0.50873900  0.30951500  1
  Cu  Cu33  1  0.99126100  0.39589600  0.19048500  1
  Cu  Cu34  1  0.26649800  0.90754000  0.06316000  1
  Cu  Cu35  1  0.09246000  0.93684000  0.73350200  1
