# generated using pymatgen
data_CuNiC8
_symmetry_space_group_name_H-M   'P 1'
_cell_length_a   5.28622500
_cell_length_b   5.51991100
_cell_length_c   16.59562300
_cell_angle_alpha   90.00000000
_cell_angle_beta   90.00000000
_cell_angle_gamma   90.00000000
_symmetry_Int_Tables_number   1
_chemical_formula_structural   CuNiC8
_chemical_formula_sum   'Cu4 Ni4 C32'
_cell_volume   484.25184070
_cell_formula_units_Z   4
loop_
 _symmetry_equiv_pos_site_id
 _symmetry_equiv_pos_as_xyz
  1  'x, y, z'
loop_
 _atom_site_type_symbol
 _atom_site_label
 _atom_site_symmetry_multiplicity
 _atom_site_fract_x
 _atom_site_fract_y
 _atom_site_fract_z
 _atom_site_occupancy
  C  C0  1  0.99751900  0.66256200  0.57806400  1
  C  C1  1  0.99751900  0.16256200  0.92193600  1
  C  C2  1  0.51539800  0.32532300  0.98429200  1
  C  C3  1  0.51539800  0.82532300  0.51570800  1
  C  C4  1  0.48232700  0.29775500  0.80653900  1
  C  C5  1  0.48232700  0.79775500  0.69346100  1
  C  C6  1  0.49751900  0.33743800  0.42193600  1
  C  C7  1  0.49751900  0.83743800  0.07806400  1
  C  C8  1  0.01539800  0.67467700  0.01570800  1
  C  C9  1  0.01539800  0.17467700  0.48429200  1
  C  C10  1  0.98232700  0.20224500  0.30653900  1
  C  C11  1  0.98232700  0.70224500  0.19346100  1
  Ni  Ni12  1  0.00541300  0.16761400  0.09401000  1
  Ni  Ni13  1  0.00541300  0.66761400  0.40599000  1
  Ni  Ni14  1  0.50541300  0.33238600  0.59401000  1
  Ni  Ni15  1  0.50541300  0.83238600  0.90599000  1
  Cu  Cu16  1  0.03459500  0.18140300  0.68276300  1
  Cu  Cu17  1  0.03459500  0.68140300  0.81723700  1
  Cu  Cu18  1  0.53459500  0.31859700  0.18276300  1
  Cu  Cu19  1  0.53459500  0.81859700  0.31723700  1
  C  C20  1  0.10339800  0.29519600  0.81124000  1
  C  C21  1  0.10339800  0.79519600  0.68876000  1
  C  C22  1  0.13062400  0.40070600  0.39208100  1
  C  C23  1  0.13062400  0.90070600  0.10791900  1
  C  C24  1  0.15149400  0.33576500  0.02747800  1
  C  C25  1  0.15149400  0.83576500  0.47252200  1
  C  C26  1  0.97518200  0.31606300  0.18435200  1
  C  C27  1  0.97518200  0.81606300  0.31564800  1
  C  C28  1  0.19905200  0.35487800  0.56970300  1
  C  C29  1  0.19905200  0.85487800  0.93029700  1
  C  C30  1  0.60339800  0.20480400  0.31124000  1
  C  C31  1  0.60339800  0.70480400  0.18876000  1
  C  C32  1  0.63062400  0.09929400  0.89208100  1
  C  C33  1  0.63062400  0.59929400  0.60791900  1
  C  C34  1  0.65149400  0.16423500  0.52747800  1
  C  C35  1  0.65149400  0.66423500  0.97252200  1
  C  C36  1  0.47518200  0.18393700  0.68435200  1
  C  C37  1  0.47518200  0.68393700  0.81564800  1
  C  C38  1  0.69905200  0.14512200  0.06970300  1
  C  C39  1  0.69905200  0.64512200  0.43029700  1
