# generated using pymatgen
data_CuNiC
_symmetry_space_group_name_H-M   'P 1'
_cell_length_a   3.09526100
_cell_length_b   9.49412900
_cell_length_c   14.29420869
_cell_angle_alpha   89.58514716
_cell_angle_beta   90.00000000
_cell_angle_gamma   90.00000000
_symmetry_Int_Tables_number   1
_chemical_formula_structural   CuNiC
_chemical_formula_sum   'Cu12 Ni12 C12'
_cell_volume   420.05014423
_cell_formula_units_Z   12
loop_
 _symmetry_equiv_pos_site_id
 _symmetry_equiv_pos_as_xyz
  1  'x, y, z'
loop_
 _atom_site_type_symbol
 _atom_site_label
 _atom_site_symmetry_multiplicity
 _atom_site_fract_x
 _atom_site_fract_y
 _atom_site_fract_z
 _atom_site_occupancy
  C  C0  1  0.00000000  0.98025500  0.99877100  1
  C  C1  1  0.00000000  0.99373700  0.33636000  1
  C  C2  1  0.00000000  0.98657100  0.66108600  1
  C  C3  1  0.50000000  0.74442300  0.14734600  1
  C  C4  1  0.50000000  0.76813200  0.49658100  1
  C  C5  1  0.50000000  0.74206600  0.85199400  1
  C  C6  1  0.00000000  0.48204100  0.32805700  1
  C  C7  1  0.00000000  0.49736000  0.00045900  1
  C  C8  1  0.00000000  0.48183100  0.66927200  1
  C  C9  1  0.50000000  0.27208200  0.16071600  1
  C  C10  1  0.50000000  0.27970300  0.50008000  1
  C  C11  1  0.50000000  0.27520400  0.83848000  1
  Ni  Ni12  1  0.50000000  0.90155000  0.60185700  1
  Ni  Ni13  1  0.50000000  0.90645600  0.93356600  1
  Ni  Ni14  1  0.00000000  0.85089000  0.10554500  1
  Ni  Ni15  1  0.00000000  0.85032500  0.43228600  1
  Ni  Ni16  1  0.00000000  0.64766000  0.89656500  1
  Ni  Ni17  1  0.50000000  0.59207900  0.06548800  1
  Ni  Ni18  1  0.50000000  0.40215500  0.26835700  1
  Ni  Ni19  1  0.50000000  0.40095200  0.93879500  1
  Ni  Ni20  1  0.50000000  0.40679900  0.60322400  1
  Ni  Ni21  1  0.00000000  0.34205500  0.10106400  1
  Ni  Ni22  1  0.00000000  0.34861000  0.43464300  1
  Ni  Ni23  1  0.00000000  0.34581700  0.76908100  1
  Cu  Cu24  1  0.50000000  0.90302100  0.26872500  1
  Cu  Cu25  1  0.00000000  0.84797700  0.76768000  1
  Cu  Cu26  1  0.00000000  0.65676300  0.23742500  1
  Cu  Cu27  1  0.00000000  0.65555300  0.56311000  1
  Cu  Cu28  1  0.50000000  0.59976100  0.39990700  1
  Cu  Cu29  1  0.50000000  0.60468600  0.72755000  1
  Cu  Cu30  1  0.00000000  0.14352400  0.23592500  1
  Cu  Cu31  1  0.00000000  0.15071400  0.89879200  1
  Cu  Cu32  1  0.00000000  0.15232900  0.56516400  1
  Cu  Cu33  1  0.50000000  0.09616200  0.06672700  1
  Cu  Cu34  1  0.50000000  0.09949600  0.39923800  1
  Cu  Cu35  1  0.50000000  0.09125800  0.73008700  1
