# generated using pymatgen
data_Cu8Ni4C13
_symmetry_space_group_name_H-M   'P 1'
_cell_length_a   6.95675200
_cell_length_b   11.78642200
_cell_length_c   13.06382900
_cell_angle_alpha   90.00000000
_cell_angle_beta   90.00000000
_cell_angle_gamma   90.00000000
_symmetry_Int_Tables_number   1
_chemical_formula_structural   Cu8Ni4C13
_chemical_formula_sum   'Cu32 Ni16 C52'
_cell_volume   1071.17146524
_cell_formula_units_Z   4
loop_
 _symmetry_equiv_pos_site_id
 _symmetry_equiv_pos_as_xyz
  1  'x, y, z'
loop_
 _atom_site_type_symbol
 _atom_site_label
 _atom_site_symmetry_multiplicity
 _atom_site_fract_x
 _atom_site_fract_y
 _atom_site_fract_z
 _atom_site_occupancy
  C  C0  1  0.03100000  0.07734600  0.61591800  1
  C  C1  1  0.28500700  0.65327900  0.53882300  1
  C  C2  1  0.78500700  0.84672100  0.46117700  1
  C  C3  1  0.53100000  0.42265400  0.38408200  1
  C  C4  1  0.46900000  0.92265400  0.11591800  1
  C  C5  1  0.21499300  0.34672100  0.03882300  1
  C  C6  1  0.71499300  0.15327900  0.96117700  1
  C  C7  1  0.96900000  0.57734600  0.88408200  1
  Ni  Ni8  1  0.63657800  0.83552300  0.70795100  1
  Ni  Ni9  1  0.59998700  0.04335600  0.70048000  1
  Ni  Ni10  1  0.53694500  0.43240200  0.65522500  1
  Ni  Ni11  1  0.21809900  0.34811500  0.61832200  1
  Ni  Ni12  1  0.71809900  0.15188500  0.38167800  1
  Ni  Ni13  1  0.03694500  0.06759800  0.34477500  1
  Ni  Ni14  1  0.09998700  0.45664400  0.29952000  1
  Ni  Ni15  1  0.13657800  0.66447700  0.29204900  1
  Ni  Ni16  1  0.86342200  0.16447700  0.20795100  1
  Ni  Ni17  1  0.90001300  0.95664400  0.20048000  1
  Ni  Ni18  1  0.96305500  0.56759800  0.15522500  1
  Ni  Ni19  1  0.28190100  0.65188500  0.11832200  1
  Ni  Ni20  1  0.78190100  0.84811500  0.88167800  1
  Ni  Ni21  1  0.46305500  0.93240200  0.84477500  1
  Ni  Ni22  1  0.40001300  0.54335600  0.79952000  1
  Ni  Ni23  1  0.36342200  0.33552300  0.79204900  1
  Cu  Cu24  1  0.02270300  0.83158700  0.70296400  1
  Cu  Cu25  1  0.59542700  0.21727100  0.68424700  1
  Cu  Cu26  1  0.24716300  0.84604400  0.69504400  1
  Cu  Cu27  1  0.59932800  0.67437500  0.66003300  1
  Cu  Cu28  1  0.89347100  0.53018300  0.64420400  1
  Cu  Cu29  1  0.91558700  0.65916700  0.66058900  1
  Cu  Cu30  1  0.78580900  0.37545700  0.58433700  1
  Cu  Cu31  1  0.59980600  0.16356700  0.52078500  1
  Cu  Cu32  1  0.09980600  0.33643300  0.47921500  1
  Cu  Cu33  1  0.28580900  0.12454300  0.41566300  1
  Cu  Cu34  1  0.41558700  0.84083300  0.33941100  1
  Cu  Cu35  1  0.39347100  0.96981700  0.35579600  1
  Cu  Cu36  1  0.09932800  0.82562500  0.33996700  1
  Cu  Cu37  1  0.74716300  0.65395600  0.30495600  1
  Cu  Cu38  1  0.09542700  0.28272900  0.31575300  1
  Cu  Cu39  1  0.52270300  0.66841300  0.29703600  1
  Cu  Cu40  1  0.47729700  0.16841300  0.20296400  1
  Cu  Cu41  1  0.25283700  0.15395600  0.19504400  1
  Cu  Cu42  1  0.90457300  0.78272900  0.18424700  1
  Cu  Cu43  1  0.90067200  0.32562500  0.16003300  1
  Cu  Cu44  1  0.60652900  0.46981700  0.14420400  1
  Cu  Cu45  1  0.58441300  0.34083300  0.16058900  1
  Cu  Cu46  1  0.71419100  0.62454300  0.08433700  1
  Cu  Cu47  1  0.90019400  0.83643300  0.02078500  1
  Cu  Cu48  1  0.40019400  0.66356700  0.97921500  1
  Cu  Cu49  1  0.21419100  0.87545700  0.91566300  1
  Cu  Cu50  1  0.08441300  0.15916700  0.83941100  1
  Cu  Cu51  1  0.10652900  0.03018300  0.85579600  1
  Cu  Cu52  1  0.40067200  0.17437500  0.83996700  1
  Cu  Cu53  1  0.40457300  0.71727100  0.81575300  1
  Cu  Cu54  1  0.75283700  0.34604400  0.80495600  1
  Cu  Cu55  1  0.97729700  0.33158700  0.79703600  1
  C  C56  1  0.54566500  0.34049200  0.73189500  1
  C  C57  1  0.20099400  0.31187200  0.71837600  1
  C  C58  1  0.50227900  0.54383000  0.70903200  1
  C  C59  1  0.98830500  0.58834000  0.66778200  1
  C  C60  1  0.67158600  0.94647300  0.65659700  1
  C  C61  1  0.63575000  0.14431400  0.64878500  1
  C  C62  1  0.12692500  0.84462300  0.65296500  1
  C  C63  1  0.63128100  0.74859600  0.62904800  1
  C  C64  1  0.71393500  0.44561100  0.59603100  1
  C  C65  1  0.37117500  0.41173200  0.58408400  1
  C  C66  1  0.07441200  0.31356500  0.55157500  1
  C  C67  1  0.57441200  0.18643500  0.44842500  1
  C  C68  1  0.87117500  0.08826800  0.41591600  1
  C  C69  1  0.21393500  0.05438900  0.40396900  1
  C  C70  1  0.13128100  0.75140400  0.37095200  1
  C  C71  1  0.62692500  0.65537700  0.34703500  1
  C  C72  1  0.13575000  0.35568600  0.35121500  1
  C  C73  1  0.17158600  0.55352700  0.34340300  1
  C  C74  1  0.48830500  0.91166000  0.33221800  1
  C  C75  1  0.00227900  0.95617000  0.29096800  1
  C  C76  1  0.70099400  0.18812800  0.28162400  1
  C  C77  1  0.04566500  0.15950800  0.26810500  1
  C  C78  1  0.95433500  0.65950800  0.23189500  1
  C  C79  1  0.29900600  0.68812800  0.21837600  1
  C  C80  1  0.99772100  0.45617000  0.20903200  1
  C  C81  1  0.51169500  0.41166000  0.16778200  1
  C  C82  1  0.82841400  0.05352700  0.15659700  1
  C  C83  1  0.86425000  0.85568600  0.14878500  1
  C  C84  1  0.37307500  0.15537700  0.15296500  1
  C  C85  1  0.86871900  0.25140400  0.12904800  1
  C  C86  1  0.78606500  0.55438900  0.09603100  1
  C  C87  1  0.12882500  0.58826800  0.08408400  1
  C  C88  1  0.42558800  0.68643500  0.05157500  1
  C  C89  1  0.92558800  0.81356500  0.94842500  1
  C  C90  1  0.62882500  0.91173200  0.91591600  1
  C  C91  1  0.28606500  0.94561100  0.90396900  1
  C  C92  1  0.36871900  0.24859600  0.87095200  1
  C  C93  1  0.87307500  0.34462300  0.84703500  1
  C  C94  1  0.36425000  0.64431400  0.85121500  1
  C  C95  1  0.32841400  0.44647300  0.84340300  1
  C  C96  1  0.01169500  0.08834000  0.83221800  1
  C  C97  1  0.49772100  0.04383000  0.79096800  1
  C  C98  1  0.79900600  0.81187200  0.78162400  1
  C  C99  1  0.45433500  0.84049200  0.76810500  1
