# generated using pymatgen
data_CuNiC
_symmetry_space_group_name_H-M   'P 1'
_cell_length_a   9.68493949
_cell_length_b   9.71935818
_cell_length_c   3.15956800
_cell_angle_alpha   90.00000000
_cell_angle_beta   90.00000000
_cell_angle_gamma   91.02765150
_symmetry_Int_Tables_number   1
_chemical_formula_structural   CuNiC
_chemical_formula_sum   'Cu8 Ni8 C8'
_cell_volume   297.36670881
_cell_formula_units_Z   8
loop_
 _symmetry_equiv_pos_site_id
 _symmetry_equiv_pos_as_xyz
  1  'x, y, z'
loop_
 _atom_site_type_symbol
 _atom_site_label
 _atom_site_symmetry_multiplicity
 _atom_site_fract_x
 _atom_site_fract_y
 _atom_site_fract_z
 _atom_site_occupancy
  C  C0  1  0.02085900  0.99840300  0.00000000  1
  C  C1  1  0.00105200  0.50141200  0.00000000  1
  C  C2  1  0.21659900  0.26038500  0.50000000  1
  C  C3  1  0.21873100  0.74061500  0.50000000  1
  C  C4  1  0.51945300  0.49777600  0.00000000  1
  C  C5  1  0.50153400  0.99925600  0.00000000  1
  C  C6  1  0.75865900  0.27967300  0.50000000  1
  C  C7  1  0.75901600  0.71877400  0.50000000  1
  Ni  Ni8  1  0.09406100  0.40768500  0.50000000  1
  Ni  Ni9  1  0.09996700  0.90256000  0.50000000  1
  Ni  Ni10  1  0.15375200  0.15258000  0.00000000  1
  Ni  Ni11  1  0.15319500  0.64960400  0.00000000  1
  Ni  Ni12  1  0.59473900  0.39829100  0.50000000  1
  Ni  Ni13  1  0.64863000  0.65812800  0.00000000  1
  Ni  Ni14  1  0.84962100  0.34587800  0.00000000  1
  Ni  Ni15  1  0.90704200  0.59552800  0.50000000  1
  Cu  Cu16  1  0.34839100  0.34726600  0.00000000  1
  Cu  Cu17  1  0.35687600  0.85366800  0.00000000  1
  Cu  Cu18  1  0.40929200  0.09483600  0.50000000  1
  Cu  Cu19  1  0.40193800  0.59950000  0.50000000  1
  Cu  Cu20  1  0.59687300  0.90813200  0.50000000  1
  Cu  Cu21  1  0.64752200  0.14353200  0.00000000  1
  Cu  Cu22  1  0.84430200  0.85266300  0.00000000  1
  Cu  Cu23  1  0.89789800  0.09385400  0.50000000  1
