# generated using pymatgen
data_CuNiC3
_symmetry_space_group_name_H-M   'P 1'
_cell_length_a   5.49646519
_cell_length_b   5.49646519
_cell_length_c   8.83802963
_cell_angle_alpha   74.52920463
_cell_angle_beta   74.52920463
_cell_angle_gamma   55.66953971
_symmetry_Int_Tables_number   1
_chemical_formula_structural   CuNiC3
_chemical_formula_sum   'Cu4 Ni4 C12'
_cell_volume   210.22310181
_cell_formula_units_Z   4
loop_
 _symmetry_equiv_pos_site_id
 _symmetry_equiv_pos_as_xyz
  1  'x, y, z'
loop_
 _atom_site_type_symbol
 _atom_site_label
 _atom_site_symmetry_multiplicity
 _atom_site_fract_x
 _atom_site_fract_y
 _atom_site_fract_z
 _atom_site_occupancy
  Ni  Ni0  1  0.77834100  0.02677400  0.69989200  1
  Ni  Ni1  1  0.97322600  0.22165900  0.30010800  1
  Ni  Ni2  1  0.02140600  0.28244400  0.94985600  1
  Ni  Ni3  1  0.71755600  0.97859400  0.05014400  1
  Cu  Cu4  1  0.27034700  0.52504400  0.19954900  1
  Cu  Cu5  1  0.47495600  0.72965300  0.80045100  1
  Cu  Cu6  1  0.52610300  0.77164800  0.45042800  1
  Cu  Cu7  1  0.22835200  0.47389700  0.54957200  1
  C  C8  1  0.52395100  0.47311500  0.34868300  1
  C  C9  1  0.02866400  0.97734500  0.84784900  1
  C  C10  1  0.56488700  0.43511300  0.00000000  1
  C  C11  1  0.92985000  0.57207900  0.75017400  1
  C  C12  1  0.47599300  0.02510700  0.59780200  1
  C  C13  1  0.97283700  0.52569300  0.09920100  1
  C  C14  1  0.02265500  0.97133600  0.15215100  1
  C  C15  1  0.52688500  0.47604900  0.65131700  1
  C  C16  1  0.07757600  0.92242400  0.50000000  1
  C  C17  1  0.42792100  0.07015000  0.24982600  1
  C  C18  1  0.97489300  0.52400700  0.40219800  1
  C  C19  1  0.47430700  0.02716300  0.90079900  1
