# generated using pymatgen
data_Cu3(NiC8)2
_symmetry_space_group_name_H-M   'P 1'
_cell_length_a   5.39425794
_cell_length_b   5.39425794
_cell_length_c   21.26689464
_cell_angle_alpha   85.66605922
_cell_angle_beta   85.66605922
_cell_angle_gamma   62.98153835
_symmetry_Int_Tables_number   1
_chemical_formula_structural   Cu3(NiC8)2
_chemical_formula_sum   'Cu6 Ni4 C32'
_cell_volume   549.11702512
_cell_formula_units_Z   2
loop_
 _symmetry_equiv_pos_site_id
 _symmetry_equiv_pos_as_xyz
  1  'x, y, z'
loop_
 _atom_site_type_symbol
 _atom_site_label
 _atom_site_symmetry_multiplicity
 _atom_site_fract_x
 _atom_site_fract_y
 _atom_site_fract_z
 _atom_site_occupancy
  C  C0  1  0.93271000  0.42882000  0.79883400  1
  C  C1  1  0.57118000  0.06729000  0.70116600  1
  C  C2  1  0.06729000  0.57118000  0.20116600  1
  C  C3  1  0.42882000  0.93271000  0.29883400  1
  Ni  Ni4  1  0.67833400  0.23275300  0.92819500  1
  Ni  Ni5  1  0.76724700  0.32166600  0.57180500  1
  Ni  Ni6  1  0.32166600  0.76724700  0.07180500  1
  Ni  Ni7  1  0.23275300  0.67833400  0.42819500  1
  Cu  Cu8  1  0.88748000  0.06343500  0.85464400  1
  Cu  Cu9  1  0.93656500  0.11252000  0.64535600  1
  Cu  Cu10  1  0.11252000  0.93656500  0.14535600  1
  Cu  Cu11  1  0.06343500  0.88748000  0.35464400  1
  Cu  Cu12  1  0.55726400  0.44273600  0.75000000  1
  Cu  Cu13  1  0.44273600  0.55726400  0.25000000  1
  C  C14  1  0.80416100  0.33341200  0.80286500  1
  C  C15  1  0.66658800  0.19583900  0.69713500  1
  C  C16  1  0.19583900  0.66658800  0.19713500  1
  C  C17  1  0.33341200  0.80416100  0.30286500  1
  C  C18  1  0.17290700  0.96684700  0.86854100  1
  C  C19  1  0.03315300  0.82709300  0.63145900  1
  C  C20  1  0.82709300  0.03315300  0.13145900  1
  C  C21  1  0.96684700  0.17290700  0.36854100  1
  C  C22  1  0.77588800  0.88713300  0.83492600  1
  C  C23  1  0.11286700  0.22411200  0.66507400  1
  C  C24  1  0.22411200  0.11286700  0.16507400  1
  C  C25  1  0.88713300  0.77588800  0.33492600  1
  C  C26  1  0.31170100  0.43880800  0.77942100  1
  C  C27  1  0.56119200  0.68829900  0.72057900  1
  C  C28  1  0.68829900  0.56119200  0.22057900  1
  C  C29  1  0.43880800  0.31170100  0.27942100  1
  C  C30  1  0.75084500  0.42711800  0.94458700  1
  C  C31  1  0.57288200  0.24915500  0.55541300  1
  C  C32  1  0.24915500  0.57288200  0.05541300  1
  C  C33  1  0.42711800  0.75084500  0.44458700  1
  C  C34  1  0.74048300  0.03196900  0.97465800  1
  C  C35  1  0.96803100  0.25951700  0.52534200  1
  C  C36  1  0.25951700  0.96803100  0.02534200  1
  C  C37  1  0.03196900  0.74048300  0.47465800  1
  C  C38  1  0.40424500  0.35177500  0.91897000  1
  C  C39  1  0.64822500  0.59575500  0.58103000  1
  C  C40  1  0.59575500  0.64822500  0.08103000  1
  C  C41  1  0.35177500  0.40424500  0.41897000  1
