# generated using pymatgen
data_Cu2NiC8
_symmetry_space_group_name_H-M   'P 1'
_cell_length_a   5.13491892
_cell_length_b   10.21358800
_cell_length_c   5.13529872
_cell_angle_alpha   89.99885737
_cell_angle_beta   119.99740560
_cell_angle_gamma   90.00069591
_symmetry_Int_Tables_number   1
_chemical_formula_structural   Cu2NiC8
_chemical_formula_sum   'Cu4 Ni2 C16'
_cell_volume   233.24890944
_cell_formula_units_Z   2
loop_
 _symmetry_equiv_pos_site_id
 _symmetry_equiv_pos_as_xyz
  1  'x, y, z'
loop_
 _atom_site_type_symbol
 _atom_site_label
 _atom_site_symmetry_multiplicity
 _atom_site_fract_x
 _atom_site_fract_y
 _atom_site_fract_z
 _atom_site_occupancy
  C  C0  1  0.14790000  0.74999900  0.50000200  1
  C  C1  1  0.35207800  0.25000000  0.49999500  1
  C  C2  1  0.64794100  0.75000100  0.49999600  1
  C  C3  1  0.85204300  0.25000100  0.49999200  1
  Ni  Ni4  1  0.00002700  0.99999800  0.00003600  1
  Ni  Ni5  1  0.49999100  0.49999700  0.99995900  1
  Cu  Cu6  1  0.66385500  0.00000200  0.32779300  1
  Cu  Cu7  1  0.83606800  0.49998800  0.67222000  1
  Cu  Cu8  1  0.16391400  0.49997600  0.32777100  1
  Cu  Cu9  1  0.33614000  0.00002000  0.67224600  1
  C  C10  1  0.17794400  0.59891100  0.99994700  1
  C  C11  1  0.32206300  0.09892200  0.00004000  1
  C  C12  1  0.67799400  0.90109200  0.00005400  1
  C  C13  1  0.82201400  0.40108300  0.99995300  1
  C  C14  1  0.00657800  0.10646900  0.33649600  1
  C  C15  1  0.99346900  0.89353600  0.66358100  1
  C  C16  1  0.17007800  0.39353400  0.66350500  1
  C  C17  1  0.49344300  0.60645800  0.66349800  1
  C  C18  1  0.32994300  0.89354200  0.33650000  1
  C  C19  1  0.50652000  0.39353700  0.33641600  1
  C  C20  1  0.82989000  0.60646500  0.33641700  1
  C  C21  1  0.67010500  0.10646800  0.66358300  1
