# generated using pymatgen
data_Cu4NiC
_symmetry_space_group_name_H-M   'P 1'
_cell_length_a   8.81743000
_cell_length_b   8.52956900
_cell_length_c   14.69161559
_cell_angle_alpha   55.57225103
_cell_angle_beta   90.00000000
_cell_angle_gamma   90.00000000
_symmetry_Int_Tables_number   1
_chemical_formula_structural   Cu4NiC
_chemical_formula_sum   'Cu48 Ni12 C12'
_cell_volume   911.39840144
_cell_formula_units_Z   12
loop_
 _symmetry_equiv_pos_site_id
 _symmetry_equiv_pos_as_xyz
  1  'x, y, z'
loop_
 _atom_site_type_symbol
 _atom_site_label
 _atom_site_symmetry_multiplicity
 _atom_site_fract_x
 _atom_site_fract_y
 _atom_site_fract_z
 _atom_site_occupancy
  C  C0  1  0.77908700  0.98670000  0.31987600  1
  C  C1  1  0.27908700  0.01330000  0.18012400  1
  C  C2  1  0.72091300  0.98670000  0.81987600  1
  C  C3  1  0.22091300  0.01330000  0.68012400  1
  C  C4  1  0.53429100  0.37000400  0.88389500  1
  C  C5  1  0.96315200  0.14578500  0.10752500  1
  C  C6  1  0.03429100  0.62999600  0.61610500  1
  C  C7  1  0.46315200  0.85421500  0.39247500  1
  C  C8  1  0.53684800  0.14578500  0.60752500  1
  C  C9  1  0.96570900  0.37000400  0.38389500  1
  C  C10  1  0.03684800  0.85421500  0.89247500  1
  C  C11  1  0.46570900  0.62999600  0.11610500  1
  Ni  Ni12  1  0.25398300  0.45406600  0.00733600  1
  Ni  Ni13  1  0.37945800  0.74254300  0.65310200  1
  Ni  Ni14  1  0.10757400  0.03700200  0.35514600  1
  Ni  Ni15  1  0.60757400  0.96299800  0.14485400  1
  Ni  Ni16  1  0.87945800  0.25745700  0.84689800  1
  Ni  Ni17  1  0.75398300  0.54593400  0.49266400  1
  Ni  Ni18  1  0.24601700  0.45406600  0.50733600  1
  Ni  Ni19  1  0.12054200  0.74254300  0.15310200  1
  Ni  Ni20  1  0.39242600  0.03700200  0.85514600  1
  Ni  Ni21  1  0.89242600  0.96299800  0.64485400  1
  Ni  Ni22  1  0.62054200  0.25745700  0.34689800  1
  Ni  Ni23  1  0.74601700  0.54593400  0.99266400  1
  Cu  Cu24  1  0.86193000  0.40383700  0.05864900  1
  Cu  Cu25  1  0.88472200  0.81316100  0.62277700  1
  Cu  Cu26  1  0.59136300  0.11548900  0.32066200  1
  Cu  Cu27  1  0.68507100  0.52730300  0.90419500  1
  Cu  Cu28  1  0.37836900  0.47527900  0.93284900  1
  Cu  Cu29  1  0.21236900  0.70044800  0.67302700  1
  Cu  Cu30  1  0.41696500  0.82116500  0.53788400  1
  Cu  Cu31  1  0.98580300  0.08445400  0.27189500  1
  Cu  Cu32  1  0.19073000  0.25779700  0.06375600  1
  Cu  Cu33  1  0.25525200  0.02156900  0.31284400  1
  Cu  Cu34  1  0.06759300  0.85149900  0.45704200  1
  Cu  Cu35  1  0.47240900  0.56960400  0.72573600  1
  Cu  Cu36  1  0.97240900  0.43039600  0.77426400  1
  Cu  Cu37  1  0.56759300  0.14850100  0.04295800  1
  Cu  Cu38  1  0.75525200  0.97843100  0.18715600  1
  Cu  Cu39  1  0.69073000  0.74220300  0.43624400  1
  Cu  Cu40  1  0.91696500  0.17883500  0.96211600  1
  Cu  Cu41  1  0.48580300  0.91554600  0.22810500  1
  Cu  Cu42  1  0.71236900  0.29955200  0.82697300  1
  Cu  Cu43  1  0.87836900  0.52472100  0.56715100  1
  Cu  Cu44  1  0.18507100  0.47269700  0.59580500  1
  Cu  Cu45  1  0.38472200  0.18683900  0.87722300  1
  Cu  Cu46  1  0.09136300  0.88451100  0.17933800  1
  Cu  Cu47  1  0.36193000  0.59616300  0.44135100  1
  Cu  Cu48  1  0.63807000  0.40383700  0.55864900  1
  Cu  Cu49  1  0.90863700  0.11548900  0.82066200  1
  Cu  Cu50  1  0.61527800  0.81316100  0.12277700  1
  Cu  Cu51  1  0.81492900  0.52730300  0.40419500  1
  Cu  Cu52  1  0.12163100  0.47527900  0.43284900  1
  Cu  Cu53  1  0.28763100  0.70044800  0.17302700  1
  Cu  Cu54  1  0.51419700  0.08445400  0.77189500  1
  Cu  Cu55  1  0.08303500  0.82116500  0.03788400  1
  Cu  Cu56  1  0.30927000  0.25779700  0.56375600  1
  Cu  Cu57  1  0.24474800  0.02156900  0.81284400  1
  Cu  Cu58  1  0.43240700  0.85149900  0.95704200  1
  Cu  Cu59  1  0.02759100  0.56960400  0.22573600  1
  Cu  Cu60  1  0.52759100  0.43039600  0.27426400  1
  Cu  Cu61  1  0.93240700  0.14850100  0.54295800  1
  Cu  Cu62  1  0.74474800  0.97843100  0.68715600  1
  Cu  Cu63  1  0.80927000  0.74220300  0.93624400  1
  Cu  Cu64  1  0.01419700  0.91554600  0.72810500  1
  Cu  Cu65  1  0.58303500  0.17883500  0.46211600  1
  Cu  Cu66  1  0.78763100  0.29955200  0.32697300  1
  Cu  Cu67  1  0.62163100  0.52472100  0.06715100  1
  Cu  Cu68  1  0.31492900  0.47269700  0.09580500  1
  Cu  Cu69  1  0.40863700  0.88451100  0.67933800  1
  Cu  Cu70  1  0.11527800  0.18683900  0.37722300  1
  Cu  Cu71  1  0.13807000  0.59616300  0.94135100  1
