# generated using pymatgen
data_Cu6Ni3C2
_symmetry_space_group_name_H-M   'P 1'
_cell_length_a   6.37175924
_cell_length_b   6.37175924
_cell_length_c   6.37175934
_cell_angle_alpha   74.72237549
_cell_angle_beta   74.72237549
_cell_angle_gamma   74.72237896
_symmetry_Int_Tables_number   1
_chemical_formula_structural   Cu6Ni3C2
_chemical_formula_sum   'Cu12 Ni6 C4'
_cell_volume   235.43524082
_cell_formula_units_Z   2
loop_
 _symmetry_equiv_pos_site_id
 _symmetry_equiv_pos_as_xyz
  1  'x, y, z'
loop_
 _atom_site_type_symbol
 _atom_site_label
 _atom_site_symmetry_multiplicity
 _atom_site_fract_x
 _atom_site_fract_y
 _atom_site_fract_z
 _atom_site_occupancy
  C  C0  1  0.25508500  0.25508500  0.25508500  1
  C  C1  1  0.50000000  0.50000000  0.50000000  1
  C  C2  1  0.74491500  0.74491500  0.74491500  1
  C  C3  1  0.00000000  0.00000000  0.00000000  1
  Ni  Ni4  1  0.20349800  0.20349800  0.82776000  1
  Ni  Ni5  1  0.82776000  0.20349800  0.20349800  1
  Ni  Ni6  1  0.79650200  0.17224000  0.79650200  1
  Ni  Ni7  1  0.20349800  0.82776000  0.20349800  1
  Ni  Ni8  1  0.17224000  0.79650200  0.79650200  1
  Ni  Ni9  1  0.79650200  0.79650200  0.17224000  1
  Cu  Cu10  1  0.24592900  0.24592900  0.62017300  1
  Cu  Cu11  1  0.62017300  0.24592900  0.24592900  1
  Cu  Cu12  1  0.70828900  0.07494900  0.70828900  1
  Cu  Cu13  1  0.92505100  0.29171100  0.29171100  1
  Cu  Cu14  1  0.29171100  0.29171100  0.92505100  1
  Cu  Cu15  1  0.24592900  0.62017300  0.24592900  1
  Cu  Cu16  1  0.75407100  0.37982700  0.75407100  1
  Cu  Cu17  1  0.70828900  0.70828900  0.07494900  1
  Cu  Cu18  1  0.07494900  0.70828900  0.70828900  1
  Cu  Cu19  1  0.29171100  0.92505100  0.29171100  1
  Cu  Cu20  1  0.75407100  0.75407100  0.37982700  1
  Cu  Cu21  1  0.37982700  0.75407100  0.75407100  1
