# generated using pymatgen
data_Cu2Ni4C
_symmetry_space_group_name_H-M   'P 1'
_cell_length_a   7.25914500
_cell_length_b   9.90751200
_cell_length_c   12.66410900
_cell_angle_alpha   90.00000000
_cell_angle_beta   90.00000000
_cell_angle_gamma   90.00000000
_symmetry_Int_Tables_number   1
_chemical_formula_structural   Cu2Ni4C
_chemical_formula_sum   'Cu8 Ni16 C4'
_cell_volume   910.80355761
_cell_formula_units_Z   4
loop_
 _symmetry_equiv_pos_site_id
 _symmetry_equiv_pos_as_xyz
  1  'x, y, z'
loop_
 _atom_site_type_symbol
 _atom_site_label
 _atom_site_symmetry_multiplicity
 _atom_site_fract_x
 _atom_site_fract_y
 _atom_site_fract_z
 _atom_site_occupancy
  C  C0  1  0.25000000  0.25183300  0.92636300  1
  C  C1  1  0.25000000  0.75183300  0.57363700  1
  C  C2  1  0.75000000  0.74816700  0.07363700  1
  C  C3  1  0.75000000  0.24816700  0.42636300  1
  Ni  Ni4  1  0.00511100  0.34640100  0.85851900  1
  Ni  Ni5  1  0.49488900  0.84640100  0.64148100  1
  Ni  Ni6  1  0.50511100  0.65359900  0.14148100  1
  Ni  Ni7  1  0.99488900  0.15359900  0.35851900  1
  Ni  Ni8  1  0.99488900  0.65359900  0.14148100  1
  Ni  Ni9  1  0.50511100  0.15359900  0.35851900  1
  Ni  Ni10  1  0.49488900  0.34640100  0.85851900  1
  Ni  Ni11  1  0.00511100  0.84640100  0.64148100  1
  Ni  Ni12  1  0.25000000  0.28420300  0.09775500  1
  Ni  Ni13  1  0.25000000  0.78420300  0.40224500  1
  Ni  Ni14  1  0.75000000  0.71579700  0.90224500  1
  Ni  Ni15  1  0.75000000  0.21579700  0.59775500  1
  Ni  Ni16  1  0.25000000  0.03622400  0.89130100  1
  Ni  Ni17  1  0.25000000  0.53622400  0.60869900  1
  Ni  Ni18  1  0.75000000  0.96377600  0.10869900  1
  Ni  Ni19  1  0.75000000  0.46377600  0.39130100  1
  Cu  Cu20  1  0.25000000  0.66183800  0.89216800  1
  Cu  Cu21  1  0.25000000  0.16183800  0.60783200  1
  Cu  Cu22  1  0.75000000  0.33816200  0.10783200  1
  Cu  Cu23  1  0.75000000  0.83816200  0.39216800  1
  Cu  Cu24  1  0.25000000  0.45596900  0.33598700  1
  Cu  Cu25  1  0.25000000  0.95596900  0.16401300  1
  Cu  Cu26  1  0.75000000  0.54403100  0.66401300  1
  Cu  Cu27  1  0.75000000  0.04403100  0.83598700  1
