# generated using pymatgen
data_CuNiC6
_symmetry_space_group_name_H-M   'P 1'
_cell_length_a   5.11966100
_cell_length_b   6.36158300
_cell_length_c   10.77138500
_cell_angle_alpha   90.00021978
_cell_angle_beta   90.00008732
_cell_angle_gamma   90.00024019
_symmetry_Int_Tables_number   1
_chemical_formula_structural   CuNiC6
_chemical_formula_sum   'Cu4 Ni4 C24'
_cell_volume   350.81483636
_cell_formula_units_Z   4
loop_
 _symmetry_equiv_pos_site_id
 _symmetry_equiv_pos_as_xyz
  1  'x, y, z'
loop_
 _atom_site_type_symbol
 _atom_site_label
 _atom_site_symmetry_multiplicity
 _atom_site_fract_x
 _atom_site_fract_y
 _atom_site_fract_z
 _atom_site_occupancy
  C  C0  1  0.20750700  0.99430200  0.33117100  1
  C  C1  1  0.29249400  0.99430700  0.83117300  1
  C  C2  1  0.20750400  0.50569500  0.33117100  1
  C  C3  1  0.29249700  0.50569100  0.83117400  1
  C  C4  1  0.70750600  0.49430300  0.16883000  1
  C  C5  1  0.79249600  0.49430800  0.66882800  1
  C  C6  1  0.79249600  0.00569200  0.66882700  1
  C  C7  1  0.70750600  0.00569600  0.16882900  1
  Ni  Ni8  1  0.70065100  0.25000400  0.91940700  1
  Ni  Ni9  1  0.20065700  0.74998700  0.58060700  1
  Ni  Ni10  1  0.79939300  0.24997700  0.41942300  1
  Ni  Ni11  1  0.29942400  0.74999200  0.08056000  1
  Cu  Cu12  1  0.19558700  0.24999600  0.08449200  1
  Cu  Cu13  1  0.30442300  0.24999700  0.58450000  1
  Cu  Cu14  1  0.69558700  0.74999400  0.41550900  1
  Cu  Cu15  1  0.80442300  0.74999800  0.91550100  1
  C  C16  1  0.87237300  0.25000500  0.09090500  1
  C  C17  1  0.62760300  0.25000500  0.59091200  1
  C  C18  1  0.37237200  0.75000000  0.40909400  1
  C  C19  1  0.12760400  0.75000000  0.90908800  1
  C  C20  1  0.21427100  0.25000000  0.43740800  1
  C  C21  1  0.28569900  0.24999700  0.93740200  1
  C  C22  1  0.71427300  0.75000200  0.06259300  1
  C  C23  1  0.78569800  0.75000100  0.56259800  1
  C  C24  1  0.30724900  0.03882600  0.15695700  1
  C  C25  1  0.19274200  0.03882600  0.65695700  1
  C  C26  1  0.30724000  0.46118400  0.15695700  1
  C  C27  1  0.19274800  0.46117900  0.65695700  1
  C  C28  1  0.69275100  0.53882800  0.84304300  1
  C  C29  1  0.80724400  0.53883400  0.34304400  1
  C  C30  1  0.80724600  0.96119300  0.34304200  1
  C  C31  1  0.69273800  0.96118000  0.84304400  1
