# generated using pymatgen
data_Cu4NiC19
_symmetry_space_group_name_H-M   'P 1'
_cell_length_a   5.87642400
_cell_length_b   4.85610000
_cell_length_c   9.96260679
_cell_angle_alpha   89.85987472
_cell_angle_beta   90.00000000
_cell_angle_gamma   90.00000000
_symmetry_Int_Tables_number   1
_chemical_formula_structural   Cu4NiC19
_chemical_formula_sum   'Cu4 Ni1 C19'
_cell_volume   284.29710433
_cell_formula_units_Z   1
loop_
 _symmetry_equiv_pos_site_id
 _symmetry_equiv_pos_as_xyz
  1  'x, y, z'
loop_
 _atom_site_type_symbol
 _atom_site_label
 _atom_site_symmetry_multiplicity
 _atom_site_fract_x
 _atom_site_fract_y
 _atom_site_fract_z
 _atom_site_occupancy
  C  C0  1  0.00000000  0.03521400  0.27036400  1
  C  C1  1  0.00000000  0.45494200  0.77564100  1
  C  C2  1  0.50000000  0.54533100  0.23480700  1
  Ni  Ni3  1  0.50000000  0.96674400  0.71973000  1
  Cu  Cu4  1  0.50000000  0.08998800  0.39901800  1
  Cu  Cu5  1  0.50000000  0.39950800  0.90990400  1
  Cu  Cu6  1  0.00000000  0.59585100  0.09861000  1
  Cu  Cu7  1  0.00000000  0.92137400  0.58678100  1
  C  C8  1  0.50000000  0.18704300  0.55611600  1
  C  C9  1  0.29307600  0.23408400  0.33305400  1
  C  C10  1  0.70692400  0.23408400  0.33305400  1
  C  C11  1  0.00000000  0.22520600  0.61311600  1
  C  C12  1  0.00000000  0.27987400  0.10984400  1
  C  C13  1  0.30095700  0.24812000  0.82770100  1
  C  C14  1  0.69904300  0.24812000  0.82770100  1
  C  C15  1  0.50000000  0.34035400  0.05531200  1
  C  C16  1  0.00000000  0.65786800  0.94707400  1
  C  C17  1  0.79416700  0.73677800  0.16915100  1
  C  C18  1  0.20583300  0.73677800  0.16915100  1
  C  C19  1  0.50000000  0.71538700  0.87937000  1
  C  C20  1  0.50000000  0.77978200  0.40010900  1
  C  C21  1  0.79350700  0.77085000  0.66988000  1
  C  C22  1  0.20649300  0.77085000  0.66988000  1
  C  C23  1  0.00000000  0.82587200  0.44463300  1
