# generated using pymatgen
data_CuNi7C4
_symmetry_space_group_name_H-M   'P 1'
_cell_length_a   7.56180406
_cell_length_b   7.56180406
_cell_length_c   6.65326975
_cell_angle_alpha   64.17513083
_cell_angle_beta   64.17513083
_cell_angle_gamma   50.31557855
_symmetry_Int_Tables_number   1
_chemical_formula_structural   CuNi7C4
_chemical_formula_sum   'Cu2 Ni14 C8'
_cell_volume   256.63875542
_cell_formula_units_Z   2
loop_
 _symmetry_equiv_pos_site_id
 _symmetry_equiv_pos_as_xyz
  1  'x, y, z'
loop_
 _atom_site_type_symbol
 _atom_site_label
 _atom_site_symmetry_multiplicity
 _atom_site_fract_x
 _atom_site_fract_y
 _atom_site_fract_z
 _atom_site_occupancy
  C  C0  1  0.24383100  0.24383100  0.76325900  1
  C  C1  1  0.75616900  0.75616900  0.23674100  1
  C  C2  1  0.00000000  0.00000000  0.00000000  1
  C  C3  1  0.87571100  0.87571100  0.62241600  1
  C  C4  1  0.37477300  0.37477300  0.10069300  1
  C  C5  1  0.12428900  0.12428900  0.37758400  1
  C  C6  1  0.62522700  0.62522700  0.89930700  1
  C  C7  1  0.50000000  0.50000000  0.50000000  1
  Ni  Ni8  1  0.55692800  0.94195200  0.75407500  1
  Ni  Ni9  1  0.44307200  0.05804800  0.24592500  1
  Ni  Ni10  1  0.94195200  0.55692800  0.75407500  1
  Ni  Ni11  1  0.87775300  0.87775300  0.31150100  1
  Ni  Ni12  1  0.88227000  0.88227000  0.92320300  1
  Ni  Ni13  1  0.12224700  0.12224700  0.68849900  1
  Ni  Ni14  1  0.80273400  0.19726600  0.50000000  1
  Ni  Ni15  1  0.31234100  0.68765900  0.00000000  1
  Ni  Ni16  1  0.05804800  0.44307200  0.24592500  1
  Ni  Ni17  1  0.19726600  0.80273400  0.50000000  1
  Ni  Ni18  1  0.68765900  0.31234100  0.00000000  1
  Ni  Ni19  1  0.11773000  0.11773000  0.07679700  1
  Ni  Ni20  1  0.37491400  0.37491400  0.80464300  1
  Ni  Ni21  1  0.62508600  0.62508600  0.19535700  1
  Cu  Cu22  1  0.37183300  0.37183300  0.42422900  1
  Cu  Cu23  1  0.62816700  0.62816700  0.57577100  1
