# generated using pymatgen
data_Cu(NiC4)2
_symmetry_space_group_name_H-M   'P 1'
_cell_length_a   5.08886999
_cell_length_b   10.52613472
_cell_length_c   10.17780256
_cell_angle_alpha   103.90337413
_cell_angle_beta   89.61891878
_cell_angle_gamma   76.11412152
_symmetry_Int_Tables_number   1
_chemical_formula_structural   Cu(NiC4)2
_chemical_formula_sum   'Cu4 Ni8 C32'
_cell_volume   512.54892340
_cell_formula_units_Z   4
loop_
 _symmetry_equiv_pos_site_id
 _symmetry_equiv_pos_as_xyz
  1  'x, y, z'
loop_
 _atom_site_type_symbol
 _atom_site_label
 _atom_site_symmetry_multiplicity
 _atom_site_fract_x
 _atom_site_fract_y
 _atom_site_fract_z
 _atom_site_occupancy
  C  C0  1  0.53898000  0.83736200  0.45190000  1
  C  C1  1  0.53843200  0.83663200  0.95208700  1
  C  C2  1  0.12504600  0.66513200  0.40896200  1
  C  C3  1  0.12416500  0.66457200  0.90895800  1
  C  C4  1  0.81803500  0.33654000  0.06258400  1
  C  C5  1  0.81745700  0.33742400  0.56197600  1
  C  C6  1  0.90419900  0.16493700  0.26940400  1
  C  C7  1  0.90419100  0.16455500  0.76929700  1
  Ni  Ni8  1  0.17480600  0.83563700  0.19665400  1
  Ni  Ni9  1  0.17581700  0.83588400  0.69693500  1
  Ni  Ni10  1  0.75991000  0.66530300  0.15398100  1
  Ni  Ni11  1  0.76060200  0.66636000  0.65458700  1
  Ni  Ni12  1  0.30834300  0.33621400  0.38020600  1
  Ni  Ni13  1  0.30871700  0.33561600  0.88073600  1
  Ni  Ni14  1  0.39382200  0.16567700  0.08810600  1
  Ni  Ni15  1  0.39335600  0.16646100  0.58780900  1
  Cu  Cu16  1  0.72741200  0.50010200  0.86361300  1
  Cu  Cu17  1  0.97752800  0.00090200  0.98900500  1
  Cu  Cu18  1  0.72768600  0.50141700  0.36399800  1
  Cu  Cu19  1  0.97801400  0.00112300  0.48886300  1
  C  C20  1  0.04605500  0.98395900  0.29449500  1
  C  C21  1  0.04481200  0.98396200  0.79467600  1
  C  C22  1  0.77959300  0.51704200  0.17777400  1
  C  C23  1  0.77733800  0.51830100  0.67818900  1
  C  C24  1  0.35613600  0.48420800  0.38885800  1
  C  C25  1  0.35519000  0.48404800  0.88994700  1
  C  C26  1  0.58913200  0.01736600  0.02315000  1
  C  C27  1  0.58910400  0.01842900  0.52232300  1
  C  C28  1  0.18206700  0.83057900  0.03486500  1
  C  C29  1  0.18351100  0.83094300  0.53518900  1
  C  C30  1  0.76173500  0.67012600  0.99463600  1
  C  C31  1  0.76350000  0.67164900  0.49542600  1
  C  C32  1  0.98960300  0.33129700  0.38131200  1
  C  C33  1  0.99066600  0.32995000  0.88194700  1
  C  C34  1  0.07020200  0.17098200  0.09191100  1
  C  C35  1  0.06969100  0.17137800  0.59141600  1
  C  C36  1  0.01284000  0.72419500  0.22880500  1
  C  C37  1  0.01537000  0.72383200  0.72897000  1
  C  C38  1  0.48662500  0.77674700  0.24205300  1
  C  C39  1  0.48800200  0.77838100  0.74249400  1
  C  C40  1  0.48460200  0.22383300  0.24419000  1
  C  C41  1  0.48447700  0.22416500  0.74392600  1
  C  C42  1  0.45664900  0.27872800  0.50768500  1
  C  C43  1  0.45840200  0.27737000  0.00749800  1
