# generated using pymatgen
data_Cu3Ni2C31
_symmetry_space_group_name_H-M   'P 1'
_cell_length_a   8.58342043
_cell_length_b   8.58342043
_cell_length_c   8.58342046
_cell_angle_alpha   61.29078245
_cell_angle_beta   61.29078245
_cell_angle_gamma   61.29077976
_symmetry_Int_Tables_number   1
_chemical_formula_structural   Cu3Ni2C31
_chemical_formula_sum   'Cu3 Ni2 C31'
_cell_volume   460.13862007
_cell_formula_units_Z   1
loop_
 _symmetry_equiv_pos_site_id
 _symmetry_equiv_pos_as_xyz
  1  'x, y, z'
loop_
 _atom_site_type_symbol
 _atom_site_label
 _atom_site_symmetry_multiplicity
 _atom_site_fract_x
 _atom_site_fract_y
 _atom_site_fract_z
 _atom_site_occupancy
  Ni  Ni0  1  0.99693600  0.99693600  0.99693600  1
  Ni  Ni1  1  0.50138500  0.50138500  0.50138500  1
  Cu  Cu2  1  0.85202800  0.85202800  0.85202800  1
  Cu  Cu3  1  0.64750400  0.64750400  0.64750400  1
  Cu  Cu4  1  0.35408700  0.35408700  0.35408700  1
  C  C5  1  0.14755500  0.14755500  0.14755500  1
  C  C6  1  0.94541900  0.25360300  0.55816100  1
  C  C7  1  0.55816100  0.94541900  0.25360300  1
  C  C8  1  0.74223500  0.45768000  0.04882400  1
  C  C9  1  0.45768000  0.04882400  0.74223500  1
  C  C10  1  0.04882400  0.74223500  0.45768000  1
  C  C11  1  0.25360300  0.55816100  0.94541900  1
  C  C12  1  0.89710700  0.66911800  0.50263700  1
  C  C13  1  0.66911800  0.50263700  0.89710700  1
  C  C14  1  0.93393500  0.09546300  0.75289800  1
  C  C15  1  0.50263700  0.89710700  0.66911800  1
  C  C16  1  0.97465800  0.17835100  0.41071500  1
  C  C17  1  0.74932900  0.40831800  0.57164300  1
  C  C18  1  0.75289800  0.93393500  0.09546300  1
  C  C19  1  0.57164300  0.74932900  0.40831800  1
  C  C20  1  0.82208600  0.60524000  0.00481700  1
  C  C21  1  0.40831800  0.57164300  0.74932900  1
  C  C22  1  0.89804400  0.25525800  0.05736100  1
  C  C23  1  0.60524000  0.00481700  0.82208600  1
  C  C24  1  0.41071500  0.97465800  0.17835100  1
  C  C25  1  0.09546300  0.75289800  0.93393500  1
  C  C26  1  0.59161700  0.44021200  0.24834500  1
  C  C27  1  0.17835100  0.41071500  0.97465800  1
  C  C28  1  0.44021200  0.24834500  0.59161700  1
  C  C29  1  0.25525800  0.05736100  0.89804400  1
  C  C30  1  0.24834500  0.59161700  0.44021200  1
  C  C31  1  0.00481700  0.82208600  0.60524000  1
  C  C32  1  0.50199200  0.10873900  0.31670100  1
  C  C33  1  0.05736100  0.89804400  0.25525800  1
  C  C34  1  0.31670100  0.50199200  0.10873900  1
  C  C35  1  0.10873900  0.31670100  0.50199200  1
