# generated using pymatgen
data_Cu2Ni3C23
_symmetry_space_group_name_H-M   'P 1'
_cell_length_a   6.19607481
_cell_length_b   6.19607481
_cell_length_c   10.02095710
_cell_angle_alpha   89.19619045
_cell_angle_beta   89.19619045
_cell_angle_gamma   59.33228456
_symmetry_Int_Tables_number   1
_chemical_formula_structural   Cu2Ni3C23
_chemical_formula_sum   'Cu2 Ni3 C23'
_cell_volume   330.86813996
_cell_formula_units_Z   1
loop_
 _symmetry_equiv_pos_site_id
 _symmetry_equiv_pos_as_xyz
  1  'x, y, z'
loop_
 _atom_site_type_symbol
 _atom_site_label
 _atom_site_symmetry_multiplicity
 _atom_site_fract_x
 _atom_site_fract_y
 _atom_site_fract_z
 _atom_site_occupancy
  C  C0  1  0.66969400  0.66969400  0.90438000  1
  C  C1  1  0.00287900  0.00287900  0.99722000  1
  C  C2  1  0.00712700  0.00712700  0.48225100  1
  C  C3  1  0.34021900  0.34021900  0.38904900  1
  C  C4  1  0.82480000  0.82480000  0.21774200  1
  C  C5  1  0.65125500  0.17366400  0.71406000  1
  C  C6  1  0.17366400  0.65125500  0.71406000  1
  Ni  Ni7  1  0.82928300  0.34254200  0.21127900  1
  Ni  Ni8  1  0.34254200  0.82928300  0.21127900  1
  Ni  Ni9  1  0.16806200  0.16806200  0.71386300  1
  Cu  Cu10  1  0.65877700  0.65877700  0.48296800  1
  Cu  Cu11  1  0.32567300  0.32567300  0.00270300  1
  C  C12  1  0.82368000  0.32411400  0.60106000  1
  C  C13  1  0.52155700  0.52155700  0.34321500  1
  C  C14  1  0.68426000  0.68426000  0.09499000  1
  C  C15  1  0.98875400  0.98875400  0.30244200  1
  C  C16  1  0.99129900  0.99129900  0.80933600  1
  C  C17  1  0.32411400  0.82368000  0.60106000  1
  C  C18  1  0.96930800  0.53183000  0.35044600  1
  C  C19  1  0.53183000  0.96930800  0.35044600  1
  C  C20  1  0.15788300  0.15788300  0.09360700  1
  C  C21  1  0.83014700  0.83014700  0.60722900  1
  C  C22  1  0.48929000  0.04612000  0.83953100  1
  C  C23  1  0.04612000  0.48929000  0.83953100  1
  C  C24  1  0.33980400  0.33980400  0.59358700  1
  C  C25  1  0.66462700  0.15307800  0.09854800  1
  C  C26  1  0.48397800  0.48397800  0.84294200  1
  C  C27  1  0.15307800  0.66462700  0.09854800  1
