# generated using pymatgen
data_Cu3NiC6
_symmetry_space_group_name_H-M   'P 1'
_cell_length_a   9.26616717
_cell_length_b   9.26616717
_cell_length_c   10.69817634
_cell_angle_alpha   54.74091644
_cell_angle_beta   54.74091644
_cell_angle_gamma   70.53447273
_symmetry_Int_Tables_number   1
_chemical_formula_structural   Cu3NiC6
_chemical_formula_sum   'Cu12 Ni4 C24'
_cell_volume   612.45703611
_cell_formula_units_Z   4
loop_
 _symmetry_equiv_pos_site_id
 _symmetry_equiv_pos_as_xyz
  1  'x, y, z'
loop_
 _atom_site_type_symbol
 _atom_site_label
 _atom_site_symmetry_multiplicity
 _atom_site_fract_x
 _atom_site_fract_y
 _atom_site_fract_z
 _atom_site_occupancy
  Ni  Ni0  1  0.53267200  0.46732800  0.50000000  1
  Ni  Ni1  1  0.28283900  0.78280300  0.71704100  1
  Ni  Ni2  1  0.21719700  0.71716100  0.28295900  1
  Ni  Ni3  1  0.03299300  0.96700700  0.50000000  1
  Cu  Cu4  1  0.96742100  0.03257900  0.00000000  1
  Cu  Cu5  1  0.00028700  0.50023600  0.74982500  1
  Cu  Cu6  1  0.71732700  0.21727800  0.78256800  1
  Cu  Cu7  1  0.78272200  0.28267300  0.21743200  1
  Cu  Cu8  1  0.25002000  0.24995500  0.03276200  1
  Cu  Cu9  1  0.25005200  0.24998700  0.53263600  1
  Cu  Cu10  1  0.49976400  0.99971300  0.25017500  1
  Cu  Cu11  1  0.00006200  0.49990700  0.25001500  1
  Cu  Cu12  1  0.46710700  0.53289300  0.00000000  1
  Cu  Cu13  1  0.50009300  0.99993800  0.74998500  1
  Cu  Cu14  1  0.75001300  0.74994800  0.46736400  1
  Cu  Cu15  1  0.75004500  0.74998000  0.96723800  1
  C  C16  1  0.45762500  0.23983200  0.78078700  1
  C  C17  1  0.04270600  0.26078400  0.97807700  1
  C  C18  1  0.03183900  0.72852500  0.76080200  1
  C  C19  1  0.72807900  0.03145700  0.26112600  1
  C  C20  1  0.22805000  0.53190700  0.97886200  1
  C  C21  1  0.53139300  0.22855200  0.47930200  1
  C  C22  1  0.73921600  0.95729400  0.02192300  1
  C  C23  1  0.76016800  0.54237500  0.21921300  1
  C  C24  1  0.98904400  0.22885700  0.29297500  1
  C  C25  1  0.51099800  0.27066300  0.01089100  1
  C  C26  1  0.22938700  0.98842000  0.79230700  1
  C  C27  1  0.27108800  0.51155000  0.51010300  1
  C  C28  1  0.48845000  0.72891200  0.48989700  1
  C  C29  1  0.01158000  0.77061300  0.20769300  1
  C  C30  1  0.77114300  0.01095600  0.70702500  1
  C  C31  1  0.72933700  0.48900200  0.98910900  1
  C  C32  1  0.23919000  0.45769600  0.28153100  1
  C  C33  1  0.26021300  0.04198600  0.47856600  1
  C  C34  1  0.77144800  0.46860700  0.52069800  1
  C  C35  1  0.46809300  0.77195000  0.02113800  1
  C  C36  1  0.27147500  0.96816100  0.23919800  1
  C  C37  1  0.96854300  0.27192100  0.73887400  1
  C  C38  1  0.54230400  0.76081000  0.71846900  1
  C  C39  1  0.95801400  0.73978700  0.52143400  1
