# generated using pymatgen
data_CuNiC5
_symmetry_space_group_name_H-M   'P 1'
_cell_length_a   8.02571300
_cell_length_b   8.65314900
_cell_length_c   17.33813640
_cell_angle_alpha   60.65723043
_cell_angle_beta   90.00000000
_cell_angle_gamma   90.00000000
_symmetry_Int_Tables_number   1
_chemical_formula_structural   CuNiC5
_chemical_formula_sum   'Cu12 Ni12 C60'
_cell_volume   1049.61280876
_cell_formula_units_Z   12
loop_
 _symmetry_equiv_pos_site_id
 _symmetry_equiv_pos_as_xyz
  1  'x, y, z'
loop_
 _atom_site_type_symbol
 _atom_site_label
 _atom_site_symmetry_multiplicity
 _atom_site_fract_x
 _atom_site_fract_y
 _atom_site_fract_z
 _atom_site_occupancy
  C  C0  1  0.99327500  0.26448600  0.94009600  1
  C  C1  1  0.00858800  0.63854100  0.58649300  1
  C  C2  1  0.84890400  0.00414000  0.24582200  1
  C  C3  1  0.34890400  0.99586000  0.25417800  1
  C  C4  1  0.50858800  0.36145900  0.91350700  1
  C  C5  1  0.49327500  0.73551400  0.55990400  1
  C  C6  1  0.50672500  0.26448600  0.44009600  1
  C  C7  1  0.49141200  0.63854100  0.08649300  1
  C  C8  1  0.65109600  0.00414000  0.74582200  1
  C  C9  1  0.15109600  0.99586000  0.75417800  1
  C  C10  1  0.99141200  0.36145900  0.41350700  1
  C  C11  1  0.00672500  0.73551400  0.05990400  1
  Ni  Ni12  1  0.66044200  0.64632900  0.40425300  1
  Ni  Ni13  1  0.83251200  0.31098300  0.76912400  1
  Ni  Ni14  1  0.66252400  0.02994500  0.07615400  1
  Ni  Ni15  1  0.16252400  0.97005500  0.42384600  1
  Ni  Ni16  1  0.33251200  0.68901700  0.73087600  1
  Ni  Ni17  1  0.16044200  0.35367100  0.09574700  1
  Ni  Ni18  1  0.83955800  0.64632900  0.90425300  1
  Ni  Ni19  1  0.66748800  0.31098300  0.26912400  1
  Ni  Ni20  1  0.83747600  0.02994500  0.57615400  1
  Ni  Ni21  1  0.33747600  0.97005500  0.92384600  1
  Ni  Ni22  1  0.16748800  0.68901700  0.23087600  1
  Ni  Ni23  1  0.33955800  0.35367100  0.59574700  1
  Cu  Cu24  1  0.26509000  0.63551800  0.40941100  1
  Cu  Cu25  1  0.21946500  0.30836300  0.77497600  1
  Cu  Cu26  1  0.27105100  0.04178600  0.07258000  1
  Cu  Cu27  1  0.77105100  0.95821400  0.42742000  1
  Cu  Cu28  1  0.71946500  0.69163700  0.72502400  1
  Cu  Cu29  1  0.76509000  0.36448200  0.09058900  1
  Cu  Cu30  1  0.23491000  0.63551800  0.90941100  1
  Cu  Cu31  1  0.28053500  0.30836300  0.27497600  1
  Cu  Cu32  1  0.22894900  0.04178600  0.57258000  1
  Cu  Cu33  1  0.72894900  0.95821400  0.92742000  1
  Cu  Cu34  1  0.78053500  0.69163700  0.22502400  1
  Cu  Cu35  1  0.73491000  0.36448200  0.59058900  1
  C  C36  1  0.55076900  0.43184900  0.60468000  1
  C  C37  1  0.86928100  0.41758300  0.64582200  1
  C  C38  1  0.78485200  0.07581000  0.97480600  1
  C  C39  1  0.03866300  0.25366000  0.82651100  1
  C  C40  1  0.35898400  0.21775100  0.85507900  1
  C  C41  1  0.75749200  0.77601400  0.29151200  1
  C  C42  1  0.21502300  0.54456300  0.51493700  1
  C  C43  1  0.27657400  0.90787200  0.18044200  1
  C  C44  1  0.45469000  0.13643200  0.03741600  1
  C  C45  1  0.22977400  0.52348700  0.71091800  1
  C  C46  1  0.26227500  0.85278000  0.36892400  1
  C  C47  1  0.13529300  0.20180500  0.04660700  1
  C  C48  1  0.63529300  0.79819500  0.45339300  1
  C  C49  1  0.76227500  0.14722000  0.13107600  1
  C  C50  1  0.72977400  0.47651300  0.78908200  1
  C  C51  1  0.95469000  0.86356800  0.46258400  1
  C  C52  1  0.77657400  0.09212800  0.31955800  1
  C  C53  1  0.71502300  0.45543700  0.98506300  1
  C  C54  1  0.85898400  0.78224900  0.64492100  1
  C  C55  1  0.25749200  0.22398600  0.20848800  1
  C  C56  1  0.53866300  0.74634000  0.67348900  1
  C  C57  1  0.28485200  0.92419000  0.52519400  1
  C  C58  1  0.36928100  0.58241700  0.85417800  1
  C  C59  1  0.05076900  0.56815100  0.89532000  1
  C  C60  1  0.94923100  0.43184900  0.10468000  1
  C  C61  1  0.63071900  0.41758300  0.14582200  1
  C  C62  1  0.71514800  0.07581000  0.47480600  1
  C  C63  1  0.46133700  0.25366000  0.32651100  1
  C  C64  1  0.74250800  0.77601400  0.79151200  1
  C  C65  1  0.14101600  0.21775100  0.35507900  1
  C  C66  1  0.28497700  0.54456300  0.01493700  1
  C  C67  1  0.22342600  0.90787200  0.68044200  1
  C  C68  1  0.04531000  0.13643200  0.53741600  1
  C  C69  1  0.27022600  0.52348700  0.21091800  1
  C  C70  1  0.23772500  0.85278000  0.86892400  1
  C  C71  1  0.36470700  0.20180500  0.54660700  1
  C  C72  1  0.86470700  0.79819500  0.95339300  1
  C  C73  1  0.73772500  0.14722000  0.63107600  1
  C  C74  1  0.77022600  0.47651300  0.28908200  1
  C  C75  1  0.54531000  0.86356800  0.96258400  1
  C  C76  1  0.72342600  0.09212800  0.81955800  1
  C  C77  1  0.78497700  0.45543700  0.48506300  1
  C  C78  1  0.24250800  0.22398600  0.70848800  1
  C  C79  1  0.64101600  0.78224900  0.14492100  1
  C  C80  1  0.96133700  0.74634000  0.17348900  1
  C  C81  1  0.21514800  0.92419000  0.02519400  1
  C  C82  1  0.13071900  0.58241700  0.35417800  1
  C  C83  1  0.44923100  0.56815100  0.39532000  1
