# generated using pymatgen
data_Cu4Ni2C7
_symmetry_space_group_name_H-M   'P 1'
_cell_length_a   12.45747400
_cell_length_b   7.02523300
_cell_length_c   11.40489517
_cell_angle_alpha   59.60262122
_cell_angle_beta   90.00000000
_cell_angle_gamma   90.00000000
_symmetry_Int_Tables_number   1
_chemical_formula_structural   Cu4Ni2C7
_chemical_formula_sum   'Cu32 Ni16 C56'
_cell_volume   860.91378662
_cell_formula_units_Z   8
loop_
 _symmetry_equiv_pos_site_id
 _symmetry_equiv_pos_as_xyz
  1  'x, y, z'
loop_
 _atom_site_type_symbol
 _atom_site_label
 _atom_site_symmetry_multiplicity
 _atom_site_fract_x
 _atom_site_fract_y
 _atom_site_fract_z
 _atom_site_occupancy
  C  C0  1  0.89929100  0.41543100  0.36450000  1
  C  C1  1  0.39929100  0.58456900  0.13550000  1
  C  C2  1  0.76097100  0.06330500  0.73843900  1
  C  C3  1  0.26097100  0.93669500  0.76156100  1
  C  C4  1  0.73902900  0.06330500  0.23843900  1
  C  C5  1  0.23902900  0.93669500  0.26156100  1
  C  C6  1  0.60070900  0.41543100  0.86450000  1
  C  C7  1  0.10070900  0.58456900  0.63550000  1
  Ni  Ni8  1  0.80270900  0.80639900  0.09509400  1
  Ni  Ni9  1  0.66462900  0.55078500  0.26519200  1
  Ni  Ni10  1  0.15140300  0.34547700  0.47989700  1
  Ni  Ni11  1  0.65140300  0.65452300  0.02010300  1
  Ni  Ni12  1  0.16462900  0.44921500  0.23480800  1
  Ni  Ni13  1  0.00899800  0.07978200  0.66328700  1
  Ni  Ni14  1  0.50899800  0.92021800  0.83671300  1
  Ni  Ni15  1  0.30270900  0.19360100  0.40490600  1
  Ni  Ni16  1  0.69729100  0.80639900  0.59509400  1
  Ni  Ni17  1  0.49100200  0.07978200  0.16328700  1
  Ni  Ni18  1  0.99100200  0.92021800  0.33671300  1
  Ni  Ni19  1  0.83537100  0.55078500  0.76519200  1
  Ni  Ni20  1  0.34859700  0.34547700  0.97989700  1
  Ni  Ni21  1  0.84859700  0.65452300  0.52010300  1
  Ni  Ni22  1  0.33537100  0.44921500  0.73480800  1
  Ni  Ni23  1  0.19729100  0.19360100  0.90490600  1
  Cu  Cu24  1  0.72501400  0.48932500  0.48965200  1
  Cu  Cu25  1  0.18966900  0.78196700  0.08628400  1
  Cu  Cu26  1  0.94718800  0.22988700  0.76230100  1
  Cu  Cu27  1  0.52344700  0.24316100  0.70785400  1
  Cu  Cu28  1  0.41482500  0.06680200  0.91876100  1
  Cu  Cu29  1  0.54958200  0.42950700  0.41012200  1
  Cu  Cu30  1  0.07998700  0.98882400  0.90828100  1
  Cu  Cu31  1  0.40334000  0.35134800  0.46699900  1
  Cu  Cu32  1  0.90334000  0.64865200  0.03300100  1
  Cu  Cu33  1  0.04958200  0.57049300  0.08987800  1
  Cu  Cu34  1  0.68966900  0.21803300  0.41371600  1
  Cu  Cu35  1  0.22501400  0.51067500  0.01034800  1
  Cu  Cu36  1  0.57998700  0.01117600  0.59171900  1
  Cu  Cu37  1  0.55281200  0.22988700  0.26230100  1
  Cu  Cu38  1  0.91482500  0.93319800  0.58123900  1
  Cu  Cu39  1  0.97655300  0.24316100  0.20785400  1
  Cu  Cu40  1  0.02344700  0.75683900  0.79214600  1
  Cu  Cu41  1  0.08517500  0.06680200  0.41876100  1
  Cu  Cu42  1  0.44718800  0.77011300  0.73769900  1
  Cu  Cu43  1  0.42001300  0.98882400  0.40828100  1
  Cu  Cu44  1  0.77498600  0.48932500  0.98965200  1
  Cu  Cu45  1  0.31033100  0.78196700  0.58628400  1
  Cu  Cu46  1  0.95041800  0.42950700  0.91012200  1
  Cu  Cu47  1  0.09666000  0.35134800  0.96699900  1
  Cu  Cu48  1  0.59666000  0.64865200  0.53300100  1
  Cu  Cu49  1  0.92001300  0.01117600  0.09171900  1
  Cu  Cu50  1  0.45041800  0.57049300  0.58987800  1
  Cu  Cu51  1  0.58517500  0.93319800  0.08123900  1
  Cu  Cu52  1  0.47655300  0.75683900  0.29214600  1
  Cu  Cu53  1  0.05281200  0.77011300  0.23769900  1
  Cu  Cu54  1  0.81033100  0.21803300  0.91371600  1
  Cu  Cu55  1  0.27498600  0.51067500  0.51034800  1
  C  C56  1  0.74773700  0.71775400  0.22695400  1
  C  C57  1  0.79477000  0.44662400  0.53699200  1
  C  C58  1  0.60046400  0.55209400  0.37691100  1
  C  C59  1  0.21834600  0.67167400  0.17876700  1
  C  C60  1  0.57113500  0.13240800  0.77871400  1
  C  C61  1  0.07442900  0.27614000  0.59236700  1
  C  C62  1  0.89850300  0.65976300  0.11500900  1
  C  C63  1  0.15578500  0.97152300  0.93679300  1
  C  C64  1  0.59445700  0.59705800  0.14880700  1
  C  C65  1  0.95645700  0.07755300  0.78280500  1
  C  C66  1  0.09445700  0.40294200  0.35119300  1
  C  C67  1  0.42073900  0.92221400  0.92551500  1
  C  C68  1  0.39850300  0.34023700  0.38499100  1
  C  C69  1  0.73362600  0.82656900  0.98623700  1
  C  C70  1  0.71834600  0.32832600  0.32123300  1
  C  C71  1  0.23362600  0.17343100  0.51376300  1
  C  C72  1  0.10046400  0.44790600  0.12308900  1
  C  C73  1  0.92073900  0.07778600  0.57448500  1
  C  C74  1  0.24773700  0.28224600  0.27304600  1
  C  C75  1  0.45645700  0.92244700  0.71719500  1
  C  C76  1  0.65578500  0.02847700  0.56320700  1
  C  C77  1  0.70523000  0.44662400  0.03699200  1
  C  C78  1  0.57442900  0.72386000  0.90763300  1
  C  C79  1  0.07113500  0.86759200  0.72128600  1
  C  C80  1  0.92886500  0.13240800  0.27871400  1
  C  C81  1  0.42557100  0.27614000  0.09236700  1
  C  C82  1  0.29477000  0.55337600  0.96300800  1
  C  C83  1  0.34421500  0.97152300  0.43679300  1
  C  C84  1  0.54354300  0.07755300  0.28280500  1
  C  C85  1  0.75226300  0.71775400  0.72695400  1
  C  C86  1  0.07926100  0.92221400  0.42551500  1
  C  C87  1  0.89953600  0.55209400  0.87691100  1
  C  C88  1  0.76637400  0.82656900  0.48623700  1
  C  C89  1  0.28165400  0.67167400  0.67876700  1
  C  C90  1  0.26637400  0.17343100  0.01376300  1
  C  C91  1  0.60149700  0.65976300  0.61500900  1
  C  C92  1  0.57926100  0.07778600  0.07448500  1
  C  C93  1  0.90554300  0.59705800  0.64880700  1
  C  C94  1  0.04354300  0.92244700  0.21719500  1
  C  C95  1  0.40554300  0.40294200  0.85119300  1
  C  C96  1  0.84421500  0.02847700  0.06320700  1
  C  C97  1  0.10149700  0.34023700  0.88499100  1
  C  C98  1  0.92557100  0.72386000  0.40763300  1
  C  C99  1  0.42886500  0.86759200  0.22128600  1
  C  C100  1  0.78165400  0.32832600  0.82123300  1
  C  C101  1  0.39953600  0.44790600  0.62308900  1
  C  C102  1  0.20523000  0.55337600  0.46300800  1
  C  C103  1  0.25226300  0.28224600  0.77304600  1
