# generated using pymatgen
data_Cu4NiC17
_symmetry_space_group_name_H-M   'P 1'
_cell_length_a   11.10546500
_cell_length_b   7.82340600
_cell_length_c   12.13520616
_cell_angle_alpha   64.23749596
_cell_angle_beta   90.00000000
_cell_angle_gamma   90.00000000
_symmetry_Int_Tables_number   1
_chemical_formula_structural   Cu4NiC17
_chemical_formula_sum   'Cu16 Ni4 C68'
_cell_volume   949.54020984
_cell_formula_units_Z   4
loop_
 _symmetry_equiv_pos_site_id
 _symmetry_equiv_pos_as_xyz
  1  'x, y, z'
loop_
 _atom_site_type_symbol
 _atom_site_label
 _atom_site_symmetry_multiplicity
 _atom_site_fract_x
 _atom_site_fract_y
 _atom_site_fract_z
 _atom_site_occupancy
  C  C0  1  0.22814200  0.71896400  0.04279200  1
  C  C1  1  0.27185800  0.71896400  0.54279200  1
  C  C2  1  0.77185800  0.28103600  0.95720800  1
  C  C3  1  0.72814200  0.28103600  0.45720800  1
  C  C4  1  0.85141300  0.81254500  0.88583900  1
  C  C5  1  0.64858700  0.81254500  0.38583900  1
  C  C6  1  0.14858700  0.18745500  0.11416100  1
  C  C7  1  0.35141300  0.18745500  0.61416100  1
  C  C8  1  0.41838700  0.07478400  0.37743000  1
  C  C9  1  0.08161300  0.07478400  0.87743000  1
  C  C10  1  0.58161300  0.92521600  0.62257000  1
  C  C11  1  0.91838700  0.92521600  0.12257000  1
  C  C12  1  0.09338600  0.09932200  0.93032000  1
  C  C13  1  0.40661400  0.09932200  0.43032000  1
  C  C14  1  0.90661400  0.90067800  0.06968000  1
  C  C15  1  0.59338600  0.90067800  0.56968000  1
  C  C16  1  0.96933300  0.57541700  0.05910500  1
  C  C17  1  0.53066700  0.57541700  0.55910500  1
  C  C18  1  0.03066700  0.42458300  0.94089500  1
  C  C19  1  0.46933300  0.42458300  0.44089500  1
  C  C20  1  0.04500700  0.70657500  0.17012900  1
  C  C21  1  0.45499300  0.70657500  0.67012900  1
  C  C22  1  0.95499300  0.29342500  0.82987100  1
  C  C23  1  0.54500700  0.29342500  0.32987100  1
  C  C24  1  0.13116300  0.51881200  0.24691300  1
  C  C25  1  0.36883700  0.51881200  0.74691300  1
  C  C26  1  0.86883700  0.48118800  0.75308700  1
  C  C27  1  0.63116300  0.48118800  0.25308700  1
  C  C28  1  0.32778100  0.01796700  0.88586800  1
  C  C29  1  0.17221900  0.01796700  0.38586800  1
  C  C30  1  0.67221900  0.98203300  0.11413200  1
  C  C31  1  0.82778100  0.98203300  0.61413200  1
  C  C32  1  0.27118100  0.91009700  0.80674600  1
  C  C33  1  0.22881900  0.91009700  0.30674600  1
  C  C34  1  0.72881900  0.08990300  0.19325400  1
  C  C35  1  0.77118100  0.08990300  0.69325400  1
  C  C36  1  0.39390400  0.82767100  0.88865800  1
  C  C37  1  0.10609600  0.82767100  0.38865800  1
  C  C38  1  0.60609600  0.17232900  0.11134200  1
  C  C39  1  0.89390400  0.17232900  0.61134200  1
  C  C40  1  0.38387400  0.49657000  0.18403600  1
  C  C41  1  0.11612600  0.49657000  0.68403600  1
  C  C42  1  0.61612600  0.50343000  0.81596400  1
  C  C43  1  0.88387400  0.50343000  0.31596400  1
  C  C44  1  0.33950700  0.61156700  0.26246000  1
  C  C45  1  0.16049300  0.61156700  0.76246000  1
  C  C46  1  0.66049300  0.38843300  0.73754000  1
  C  C47  1  0.83950700  0.38843300  0.23754000  1
  C  C48  1  0.43792900  0.70740300  0.15113400  1
  C  C49  1  0.06207100  0.70740300  0.65113400  1
  C  C50  1  0.56207100  0.29259700  0.84886600  1
  C  C51  1  0.93792900  0.29259700  0.34886600  1
  Ni  Ni52  1  0.33087700  0.28527700  0.02258100  1
  Ni  Ni53  1  0.16912300  0.28527700  0.52258100  1
  Ni  Ni54  1  0.66912300  0.71472300  0.97741900  1
  Ni  Ni55  1  0.83087700  0.71472300  0.47741900  1
  Cu  Cu56  1  0.03213200  0.48853100  0.12054100  1
  Cu  Cu57  1  0.46786800  0.48853100  0.62054100  1
  Cu  Cu58  1  0.96786800  0.51146900  0.87945900  1
  Cu  Cu59  1  0.53213200  0.51146900  0.37945900  1
  Cu  Cu60  1  0.09535600  0.60249800  0.16281900  1
  Cu  Cu61  1  0.40464400  0.60249800  0.66281900  1
  Cu  Cu62  1  0.90464400  0.39750200  0.83718100  1
  Cu  Cu63  1  0.59535600  0.39750200  0.33718100  1
  Cu  Cu64  1  0.31106300  0.88694800  0.88796500  1
  Cu  Cu65  1  0.18893700  0.88694800  0.38796500  1
  Cu  Cu66  1  0.68893700  0.11305200  0.11203500  1
  Cu  Cu67  1  0.81106300  0.11305200  0.61203500  1
  Cu  Cu68  1  0.36034900  0.62850700  0.17615100  1
  Cu  Cu69  1  0.13965100  0.62850700  0.67615100  1
  Cu  Cu70  1  0.63965100  0.37149300  0.82384900  1
  Cu  Cu71  1  0.86034900  0.37149300  0.32384900  1
  C  C72  1  0.21540600  0.10881300  0.10711900  1
  C  C73  1  0.28459400  0.10881300  0.60711900  1
  C  C74  1  0.78459400  0.89118700  0.89288100  1
  C  C75  1  0.71540600  0.89118700  0.39288100  1
  C  C76  1  0.25129600  0.48392200  0.95820400  1
  C  C77  1  0.24870400  0.48392200  0.45820400  1
  C  C78  1  0.74870400  0.51607800  0.04179600  1
  C  C79  1  0.75129600  0.51607800  0.54179600  1
  C  C80  1  0.42953600  0.27601700  0.12696200  1
  C  C81  1  0.07046400  0.27601700  0.62696200  1
  C  C82  1  0.57046400  0.72398300  0.87303800  1
  C  C83  1  0.92953600  0.72398300  0.37303800  1
  C  C84  1  0.38780000  0.21292700  0.92429700  1
  C  C85  1  0.11220000  0.21292700  0.42429700  1
  C  C86  1  0.61220000  0.78707300  0.07570300  1
  C  C87  1  0.88780000  0.78707300  0.57570300  1
