# generated using pymatgen
data_Cu(NiC3)2
_symmetry_space_group_name_H-M   'P 1'
_cell_length_a   8.49934672
_cell_length_b   8.49934672
_cell_length_c   5.37973500
_cell_angle_alpha   90.00000000
_cell_angle_beta   90.00000000
_cell_angle_gamma   143.17718854
_symmetry_Int_Tables_number   1
_chemical_formula_structural   Cu(NiC3)2
_chemical_formula_sum   'Cu2 Ni4 C12'
_cell_volume   232.92008634
_cell_formula_units_Z   2
loop_
 _symmetry_equiv_pos_site_id
 _symmetry_equiv_pos_as_xyz
  1  'x, y, z'
loop_
 _atom_site_type_symbol
 _atom_site_label
 _atom_site_symmetry_multiplicity
 _atom_site_fract_x
 _atom_site_fract_y
 _atom_site_fract_z
 _atom_site_occupancy
  Ni  Ni0  1  0.16837100  0.83162900  0.50197100  1
  Ni  Ni1  1  0.66837100  0.33162900  0.99802900  1
  Ni  Ni2  1  0.33162900  0.66837100  0.00197100  1
  Ni  Ni3  1  0.83162900  0.16837100  0.49802900  1
  Cu  Cu4  1  0.00000000  0.00000000  0.00000000  1
  Cu  Cu5  1  0.50000000  0.50000000  0.50000000  1
  C  C6  1  0.78259200  0.71740800  0.75000000  1
  C  C7  1  0.10577100  0.89422900  0.07015200  1
  C  C8  1  0.28259200  0.21740800  0.75000000  1
  C  C9  1  0.60577100  0.39422900  0.42984800  1
  C  C10  1  0.50000400  0.99999600  0.75000000  1
  C  C11  1  0.49999600  0.00000400  0.25000000  1
  C  C12  1  0.00000400  0.49999600  0.75000000  1
  C  C13  1  0.99999600  0.50000400  0.25000000  1
  C  C14  1  0.39422900  0.60577100  0.57015200  1
  C  C15  1  0.71740800  0.78259200  0.25000000  1
  C  C16  1  0.89422900  0.10577100  0.92984800  1
  C  C17  1  0.21740800  0.28259200  0.25000000  1
