# generated using pymatgen
data_Cu8Ni2C3
_symmetry_space_group_name_H-M   'P 1'
_cell_length_a   6.40854117
_cell_length_b   9.24858200
_cell_length_c   9.34535842
_cell_angle_alpha   90.00000000
_cell_angle_beta   88.22767666
_cell_angle_gamma   90.00000000
_symmetry_Int_Tables_number   1
_chemical_formula_structural   Cu8Ni2C3
_chemical_formula_sum   'Cu32 Ni8 C12'
_cell_volume   553.63365550
_cell_formula_units_Z   4
loop_
 _symmetry_equiv_pos_site_id
 _symmetry_equiv_pos_as_xyz
  1  'x, y, z'
loop_
 _atom_site_type_symbol
 _atom_site_label
 _atom_site_symmetry_multiplicity
 _atom_site_fract_x
 _atom_site_fract_y
 _atom_site_fract_z
 _atom_site_occupancy
  C  C0  1  0.12603200  0.31762200  0.89902300  1
  C  C1  1  0.37396800  0.81762200  0.60097700  1
  C  C2  1  0.62603200  0.18237800  0.39902300  1
  C  C3  1  0.87396800  0.68237800  0.10097700  1
  C  C4  1  0.12471900  0.94807100  0.87727200  1
  C  C5  1  0.12761100  0.57013800  0.38463600  1
  C  C6  1  0.37528100  0.44807100  0.62272800  1
  C  C7  1  0.37238900  0.07013800  0.11536400  1
  C  C8  1  0.62761100  0.92986200  0.88463600  1
  C  C9  1  0.62471900  0.55192900  0.37727200  1
  C  C10  1  0.87238900  0.42986200  0.61536400  1
  C  C11  1  0.87528100  0.05192900  0.12272800  1
  Ni  Ni12  1  0.13539700  0.64021900  0.83951300  1
  Ni  Ni13  1  0.12073000  0.86628600  0.33240600  1
  Ni  Ni14  1  0.36460300  0.14021900  0.66048700  1
  Ni  Ni15  1  0.37927000  0.36628600  0.16759400  1
  Ni  Ni16  1  0.62073000  0.63371400  0.83240600  1
  Ni  Ni17  1  0.63539700  0.85978100  0.33951300  1
  Ni  Ni18  1  0.87927000  0.13371400  0.66759400  1
  Ni  Ni19  1  0.86460300  0.35978100  0.16048700  1
  Cu  Cu20  1  0.15052000  0.51927400  0.75777500  1
  Cu  Cu21  1  0.14780700  0.76273100  0.76849500  1
  Cu  Cu22  1  0.10488300  0.62823900  0.96945900  1
  Cu  Cu23  1  0.10424200  0.11539900  0.99929800  1
  Cu  Cu24  1  0.11038000  0.98575200  0.24954100  1
  Cu  Cu25  1  0.09685000  0.74244000  0.26520200  1
  Cu  Cu26  1  0.15515500  0.87458600  0.46141600  1
  Cu  Cu27  1  0.14192400  0.40064600  0.50564800  1
  Cu  Cu28  1  0.39575800  0.61539900  0.50070200  1
  Cu  Cu29  1  0.39511700  0.12823900  0.53054100  1
  Cu  Cu30  1  0.35219300  0.26273100  0.73150500  1
  Cu  Cu31  1  0.34948100  0.01927400  0.74222500  1
  Cu  Cu32  1  0.35807600  0.90064600  0.99435200  1
  Cu  Cu33  1  0.34484500  0.37458600  0.03858400  1
  Cu  Cu34  1  0.40315000  0.24244000  0.23479800  1
  Cu  Cu35  1  0.38962000  0.48575200  0.25045900  1
  Cu  Cu36  1  0.61038000  0.51424800  0.74954100  1
  Cu  Cu37  1  0.59685000  0.75756000  0.76520200  1
  Cu  Cu38  1  0.65515500  0.62541400  0.96141600  1
  Cu  Cu39  1  0.64192400  0.09935400  0.00564800  1
  Cu  Cu40  1  0.65051900  0.98072600  0.25777500  1
  Cu  Cu41  1  0.64780700  0.73726900  0.26849500  1
  Cu  Cu42  1  0.60488300  0.87176100  0.46945900  1
  Cu  Cu43  1  0.60424200  0.38460100  0.49929800  1
  Cu  Cu44  1  0.85807600  0.59935400  0.49435200  1
  Cu  Cu45  1  0.84484500  0.12541400  0.53858400  1
  Cu  Cu46  1  0.90315000  0.25756000  0.73479800  1
  Cu  Cu47  1  0.88962000  0.01424800  0.75045900  1
  Cu  Cu48  1  0.89575800  0.88460100  0.00070200  1
  Cu  Cu49  1  0.89511700  0.37176100  0.03054100  1
  Cu  Cu50  1  0.85219300  0.23726900  0.23150500  1
  Cu  Cu51  1  0.84948100  0.48072600  0.24222500  1
