# generated using pymatgen
data_CuNi7C23
_symmetry_space_group_name_H-M   'P 1'
_cell_length_a   5.23585994
_cell_length_b   5.23585994
_cell_length_c   11.41016400
_cell_angle_alpha   90.00000000
_cell_angle_beta   90.00000000
_cell_angle_gamma   113.42889524
_symmetry_Int_Tables_number   1
_chemical_formula_structural   CuNi7C23
_chemical_formula_sum   'Cu1 Ni7 C23'
_cell_volume   287.01174250
_cell_formula_units_Z   1
loop_
 _symmetry_equiv_pos_site_id
 _symmetry_equiv_pos_as_xyz
  1  'x, y, z'
loop_
 _atom_site_type_symbol
 _atom_site_label
 _atom_site_symmetry_multiplicity
 _atom_site_fract_x
 _atom_site_fract_y
 _atom_site_fract_z
 _atom_site_occupancy
  C  C0  1  0.50000000  0.00000000  0.12191500  1
  C  C1  1  0.00000000  0.00000000  0.24851400  1
  C  C2  1  0.00000000  0.50000000  0.37333100  1
  C  C3  1  0.50000000  0.50000000  0.50000000  1
  C  C4  1  0.00000000  0.00000000  0.75148600  1
  C  C5  1  0.50000000  0.00000000  0.62666900  1
  C  C6  1  0.00000000  0.50000000  0.87808500  1
  Ni  Ni7  1  0.00000000  0.50000000  0.12099200  1
  Ni  Ni8  1  0.50000000  0.50000000  0.23779200  1
  Ni  Ni9  1  0.50000000  0.00000000  0.37340900  1
  Ni  Ni10  1  0.00000000  0.00000000  0.50000000  1
  Ni  Ni11  1  0.00000000  0.50000000  0.62659100  1
  Ni  Ni12  1  0.50000000  0.50000000  0.76220800  1
  Ni  Ni13  1  0.50000000  0.00000000  0.87900800  1
  Cu  Cu14  1  0.00000000  0.00000000  0.00000000  1
  C  C15  1  0.78819500  0.75580900  0.11705100  1
  C  C16  1  0.79777400  0.20222600  0.00000000  1
  C  C17  1  0.20222600  0.79777400  0.00000000  1
  C  C18  1  0.27137200  0.72714100  0.24531300  1
  C  C19  1  0.21180500  0.24419100  0.11705100  1
  C  C20  1  0.72862800  0.27285900  0.24531300  1
  C  C21  1  0.73165300  0.76808600  0.37187900  1
  C  C22  1  0.76808600  0.73165300  0.62812100  1
  C  C23  1  0.26834700  0.23191400  0.37187900  1
  C  C24  1  0.76764200  0.23235800  0.50000000  1
  C  C25  1  0.23235800  0.76764200  0.50000000  1
  C  C26  1  0.27285900  0.72862800  0.75468700  1
  C  C27  1  0.75580900  0.78819500  0.88294900  1
  C  C28  1  0.23191400  0.26834700  0.62812100  1
  C  C29  1  0.72714100  0.27137200  0.75468700  1
  C  C30  1  0.24419100  0.21180500  0.88294900  1
