# generated using pymatgen
data_Cu3NiC24
_symmetry_space_group_name_H-M   'P 1'
_cell_length_a   5.98206300
_cell_length_b   4.74214800
_cell_length_c   10.22191361
_cell_angle_alpha   89.85526821
_cell_angle_beta   90.00000000
_cell_angle_gamma   90.00000000
_symmetry_Int_Tables_number   1
_chemical_formula_structural   Cu3NiC24
_chemical_formula_sum   'Cu3 Ni1 C24'
_cell_volume   289.97256298
_cell_formula_units_Z   1
loop_
 _symmetry_equiv_pos_site_id
 _symmetry_equiv_pos_as_xyz
  1  'x, y, z'
loop_
 _atom_site_type_symbol
 _atom_site_label
 _atom_site_symmetry_multiplicity
 _atom_site_fract_x
 _atom_site_fract_y
 _atom_site_fract_z
 _atom_site_occupancy
  C  C0  1  0.25137600  0.99913900  0.00300300  1
  C  C1  1  0.74862400  0.99913900  0.00300300  1
  C  C2  1  0.74943600  0.50032300  0.49783100  1
  C  C3  1  0.25056400  0.50032300  0.49783100  1
  Ni  Ni4  1  0.00000000  0.01989200  0.72513100  1
  Cu  Cu5  1  0.50000000  0.98129000  0.27596000  1
  Cu  Cu6  1  0.50000000  0.51957900  0.77650200  1
  Cu  Cu7  1  0.00000000  0.48007500  0.22397100  1
  C  C8  1  0.00000000  0.91463700  0.40332600  1
  C  C9  1  0.00000000  0.58454500  0.90815800  1
  C  C10  1  0.50000000  0.41664100  0.09439800  1
  C  C11  1  0.50000000  0.08603000  0.59322800  1
  C  C12  1  0.00000000  0.79391400  0.54430000  1
  C  C13  1  0.20647000  0.77465800  0.33269600  1
  C  C14  1  0.79353000  0.77465800  0.33269600  1
  C  C15  1  0.50000000  0.76080200  0.60048900  1
  C  C16  1  0.50000000  0.74015000  0.10018200  1
  C  C17  1  0.20792500  0.72196800  0.83727600  1
  C  C18  1  0.79207500  0.72196800  0.83727600  1
  C  C19  1  0.00000000  0.70243300  0.04963600  1
  C  C20  1  0.50000000  0.29995300  0.95203100  1
  C  C21  1  0.70571000  0.27512700  0.16546100  1
  C  C22  1  0.29429000  0.27512700  0.16546100  1
  C  C23  1  0.00000000  0.26194800  0.90462400  1
  C  C24  1  0.00000000  0.23848900  0.39840700  1
  C  C25  1  0.70326800  0.22853100  0.66350800  1
  C  C26  1  0.29673200  0.22853100  0.66350800  1
  C  C27  1  0.50000000  0.20012900  0.45011200  1
