# generated using pymatgen
data_Cu2Ni2C19
_symmetry_space_group_name_H-M   'P 1'
_cell_length_a   8.35194900
_cell_length_b   8.46937166
_cell_length_c   8.97515115
_cell_angle_alpha   89.98469506
_cell_angle_beta   91.90163684
_cell_angle_gamma   103.63135124
_symmetry_Int_Tables_number   1
_chemical_formula_structural   Cu2Ni2C19
_chemical_formula_sum   'Cu4 Ni4 C38'
_cell_volume   616.62296832
_cell_formula_units_Z   2
loop_
 _symmetry_equiv_pos_site_id
 _symmetry_equiv_pos_as_xyz
  1  'x, y, z'
loop_
 _atom_site_type_symbol
 _atom_site_label
 _atom_site_symmetry_multiplicity
 _atom_site_fract_x
 _atom_site_fract_y
 _atom_site_fract_z
 _atom_site_occupancy
  C  C0  1  0.61815100  0.61706900  0.76335200  1
  C  C1  1  0.38623900  0.87489500  0.75921600  1
  C  C2  1  0.10746400  0.13992000  0.75418200  1
  C  C3  1  0.89253600  0.86008000  0.24581800  1
  C  C4  1  0.61376100  0.12510500  0.24078400  1
  C  C5  1  0.38184900  0.38293100  0.23664800  1
  C  C6  1  0.52828200  0.26719600  0.65811100  1
  C  C7  1  0.01817200  0.76147700  0.64766500  1
  C  C8  1  0.47171800  0.73280400  0.34188900  1
  C  C9  1  0.98182800  0.23852300  0.35233500  1
  Ni  Ni10  1  0.73370600  0.97099500  0.57422700  1
  Ni  Ni11  1  0.23051400  0.48867600  0.57353300  1
  Ni  Ni12  1  0.76948600  0.51132400  0.42646700  1
  Ni  Ni13  1  0.26629400  0.02900500  0.42577300  1
  Cu  Cu14  1  0.99468500  0.73990600  0.91939700  1
  Cu  Cu15  1  0.48807800  0.24166600  0.92532900  1
  Cu  Cu16  1  0.51192200  0.75833400  0.07467100  1
  Cu  Cu17  1  0.00531500  0.26009400  0.08060300  1
  C  C18  1  0.53077400  0.77138000  0.93751400  1
  C  C19  1  0.02303500  0.26913600  0.94552700  1
  C  C20  1  0.60354500  0.35067900  0.86307300  1
  C  C21  1  0.10889400  0.84893600  0.85150600  1
  C  C22  1  0.89989800  0.64275400  0.81936400  1
  C  C23  1  0.39317100  0.14501800  0.82494000  1
  C  C24  1  0.87134900  0.91116600  0.66516900  1
  C  C25  1  0.35167100  0.43391100  0.68103100  1
  C  C26  1  0.66832300  0.08465000  0.67344300  1
  C  C27  1  0.17145500  0.62449600  0.65944500  1
  C  C28  1  0.59059100  0.82030100  0.53203500  1
  C  C29  1  0.69404800  0.44632200  0.57545600  1
  C  C30  1  0.19456100  0.94863900  0.57358100  1
  C  C31  1  0.08451300  0.33758200  0.53546800  1
  C  C32  1  0.91548700  0.66241800  0.46453200  1
  C  C33  1  0.80543900  0.05136100  0.42641900  1
  C  C34  1  0.30595200  0.55367800  0.42454400  1
  C  C35  1  0.40940900  0.17969900  0.46796500  1
  C  C36  1  0.82854500  0.37550400  0.34055500  1
  C  C37  1  0.64832900  0.56608900  0.31896900  1
  C  C38  1  0.33167700  0.91535000  0.32655700  1
  C  C39  1  0.12865100  0.08883400  0.33483100  1
  C  C40  1  0.60682900  0.85498200  0.17506000  1
  C  C41  1  0.10010200  0.35724600  0.18063600  1
  C  C42  1  0.89110600  0.15106400  0.14849400  1
  C  C43  1  0.39645500  0.64932100  0.13692700  1
  C  C44  1  0.97696500  0.73086400  0.05447300  1
  C  C45  1  0.46922600  0.22862000  0.06248600  1
