# generated using pymatgen
data_Cu12NiC39
_symmetry_space_group_name_H-M   'P 1'
_cell_length_a   7.59645600
_cell_length_b   7.73107721
_cell_length_c   8.01934416
_cell_angle_alpha   104.61934248
_cell_angle_beta   104.17152198
_cell_angle_gamma   89.09087197
_symmetry_Int_Tables_number   1
_chemical_formula_structural   Cu12NiC39
_chemical_formula_sum   'Cu12 Ni1 C39'
_cell_volume   441.31982136
_cell_formula_units_Z   1
loop_
 _symmetry_equiv_pos_site_id
 _symmetry_equiv_pos_as_xyz
  1  'x, y, z'
loop_
 _atom_site_type_symbol
 _atom_site_label
 _atom_site_symmetry_multiplicity
 _atom_site_fract_x
 _atom_site_fract_y
 _atom_site_fract_z
 _atom_site_occupancy
  C  C0  1  0.08078200  0.38501800  0.11518100  1
  C  C1  1  0.15398200  0.77136200  0.72896500  1
  C  C2  1  0.38462600  0.92384500  0.57666800  1
  C  C3  1  0.22915200  0.15307400  0.34551700  1
  C  C4  1  0.30624800  0.54338100  0.96236700  1
  C  C5  1  0.54107300  0.69430400  0.80980000  1
  C  C6  1  0.45892700  0.30569600  0.19020000  1
  C  C7  1  0.69375200  0.45661900  0.03763300  1
  C  C8  1  0.61537400  0.07615500  0.42333200  1
  C  C9  1  0.77084800  0.84692600  0.65448300  1
  C  C10  1  0.00000000  0.00000000  0.50000000  1
  C  C11  1  0.84601800  0.22863800  0.27103500  1
  C  C12  1  0.91921800  0.61498200  0.88481900  1
  Ni  Ni13  1  0.00000000  0.00000000  0.00000000  1
  Cu  Cu14  1  0.15149700  0.77152400  0.23135000  1
  Cu  Cu15  1  0.07778200  0.38504100  0.61575600  1
  Cu  Cu16  1  0.38324300  0.92635700  0.07776400  1
  Cu  Cu17  1  0.23267100  0.15507100  0.84567200  1
  Cu  Cu18  1  0.30755100  0.53809700  0.46101200  1
  Cu  Cu19  1  0.53667200  0.69246600  0.30760800  1
  Cu  Cu20  1  0.46332800  0.30753400  0.69239200  1
  Cu  Cu21  1  0.69244900  0.46190300  0.53898800  1
  Cu  Cu22  1  0.76732900  0.84492900  0.15432800  1
  Cu  Cu23  1  0.61675700  0.07364300  0.92223600  1
  Cu  Cu24  1  0.84850300  0.22847600  0.76865000  1
  Cu  Cu25  1  0.92221800  0.61495900  0.38424400  1
  C  C26  1  0.01329900  0.01216900  0.75447500  1
  C  C27  1  0.14373200  0.75783600  0.46220000  1
  C  C28  1  0.08792400  0.39242800  0.38248700  1
  C  C29  1  0.06760000  0.37797900  0.84865700  1
  C  C30  1  0.16517200  0.77829700  0.99901100  1
  C  C31  1  0.31651900  0.54963000  0.22867300  1
  C  C32  1  0.23336600  0.15268500  0.08177800  1
  C  C33  1  0.37295600  0.91658400  0.31139900  1
  C  C34  1  0.29753400  0.53070400  0.69418600  1
  C  C35  1  0.24440200  0.16482100  0.61295700  1
  C  C36  1  0.39515800  0.93275300  0.84332800  1
  C  C37  1  0.52634200  0.68315800  0.54004900  1
  C  C38  1  0.45483300  0.29806300  0.92426900  1
  C  C39  1  0.54516700  0.70193700  0.07573100  1
  C  C40  1  0.47365800  0.31684200  0.45995100  1
  C  C41  1  0.76663400  0.84731500  0.91822200  1
  C  C42  1  0.60484200  0.06724700  0.15667200  1
  C  C43  1  0.75559800  0.83517900  0.38704300  1
  C  C44  1  0.68348100  0.45037000  0.77132700  1
  C  C45  1  0.70246600  0.46929600  0.30581400  1
  C  C46  1  0.62704400  0.08341600  0.68860100  1
  C  C47  1  0.91207600  0.60757200  0.61751300  1
  C  C48  1  0.85626800  0.24216400  0.53780000  1
  C  C49  1  0.93240000  0.62202100  0.15134300  1
  C  C50  1  0.83482800  0.22170300  0.00098900  1
  C  C51  1  0.98670100  0.98783100  0.24552500  1
