# generated using pymatgen
data_Cu6Ni2C3
_symmetry_space_group_name_H-M   'P 1'
_cell_length_a   6.56324703
_cell_length_b   6.56324703
_cell_length_c   7.63179269
_cell_angle_alpha   88.09424561
_cell_angle_beta   88.09424561
_cell_angle_gamma   118.27657512
_symmetry_Int_Tables_number   1
_chemical_formula_structural   Cu6Ni2C3
_chemical_formula_sum   'Cu12 Ni4 C6'
_cell_volume   288.91044565
_cell_formula_units_Z   2
loop_
 _symmetry_equiv_pos_site_id
 _symmetry_equiv_pos_as_xyz
  1  'x, y, z'
loop_
 _atom_site_type_symbol
 _atom_site_label
 _atom_site_symmetry_multiplicity
 _atom_site_fract_x
 _atom_site_fract_y
 _atom_site_fract_z
 _atom_site_occupancy
  C  C0  1  0.03353000  0.96647000  0.25000000  1
  C  C1  1  0.96647000  0.03353000  0.75000000  1
  C  C2  1  0.50000000  0.00000000  0.50000000  1
  C  C3  1  0.00000000  0.50000000  0.00000000  1
  C  C4  1  0.36793100  0.63206900  0.25000000  1
  C  C5  1  0.63206900  0.36793100  0.75000000  1
  Ni  Ni6  1  0.40767000  0.94560800  0.26125900  1
  Ni  Ni7  1  0.05439200  0.59233000  0.23874100  1
  Ni  Ni8  1  0.59233000  0.05439200  0.73874100  1
  Ni  Ni9  1  0.94560800  0.40767000  0.76125900  1
  Cu  Cu10  1  0.38420300  0.68460900  0.49409800  1
  Cu  Cu11  1  0.31539100  0.61579700  0.00590200  1
  Cu  Cu12  1  0.61579700  0.31539100  0.50590200  1
  Cu  Cu13  1  0.68460900  0.38420300  0.99409800  1
  Cu  Cu14  1  0.79793500  0.04600700  0.46302800  1
  Cu  Cu15  1  0.95399300  0.20206500  0.03697200  1
  Cu  Cu16  1  0.20206500  0.95399300  0.53697200  1
  Cu  Cu17  1  0.04600700  0.79793500  0.96302800  1
  Cu  Cu18  1  0.27207600  0.33797700  0.29228100  1
  Cu  Cu19  1  0.66202300  0.72792400  0.20771900  1
  Cu  Cu20  1  0.72792400  0.66202300  0.70771900  1
  Cu  Cu21  1  0.33797700  0.27207600  0.79228100  1
