# generated using pymatgen
data_Cu7Ni3C28
_symmetry_space_group_name_H-M   'P 1'
_cell_length_a   2.87956500
_cell_length_b   5.17260800
_cell_length_c   23.86792375
_cell_angle_alpha   86.45400979
_cell_angle_beta   90.00000000
_cell_angle_gamma   90.00000000
_symmetry_Int_Tables_number   1
_chemical_formula_structural   Cu7Ni3C28
_chemical_formula_sum   'Cu7 Ni3 C28'
_cell_volume   354.82877371
_cell_formula_units_Z   1
loop_
 _symmetry_equiv_pos_site_id
 _symmetry_equiv_pos_as_xyz
  1  'x, y, z'
loop_
 _atom_site_type_symbol
 _atom_site_label
 _atom_site_symmetry_multiplicity
 _atom_site_fract_x
 _atom_site_fract_y
 _atom_site_fract_z
 _atom_site_occupancy
  C  C0  1  0.50000000  0.00000000  0.50000000  1
  C  C1  1  0.00000000  0.00000000  0.00000000  1
  C  C2  1  0.00000000  0.80275500  0.60118000  1
  C  C3  1  0.50000000  0.60133400  0.70000500  1
  C  C4  1  0.00000000  0.61781400  0.19141300  1
  C  C5  1  0.50000000  0.39866600  0.29999500  1
  C  C6  1  0.00000000  0.19724500  0.39882000  1
  C  C7  1  0.00000000  0.38218600  0.80858700  1
  Ni  Ni8  1  0.50000000  0.69340600  0.39707800  1
  Ni  Ni9  1  0.00000000  0.50000000  0.50000000  1
  Ni  Ni10  1  0.50000000  0.30659400  0.60292200  1
  Cu  Cu11  1  0.00000000  0.90218600  0.29786300  1
  Cu  Cu12  1  0.00000000  0.09781400  0.70213700  1
  Cu  Cu13  1  0.50000000  0.89261000  0.80076100  1
  Cu  Cu14  1  0.00000000  0.69820300  0.90140700  1
  Cu  Cu15  1  0.50000000  0.50000000  0.00000000  1
  Cu  Cu16  1  0.00000000  0.30179700  0.09859300  1
  Cu  Cu17  1  0.50000000  0.10739000  0.19923900  1
  C  C18  1  0.50000000  0.97326000  0.65328800  1
  C  C19  1  0.50000000  0.02674000  0.34671200  1
  C  C20  1  0.00000000  0.98334700  0.15728100  1
  C  C21  1  0.00000000  0.83004300  0.44817800  1
  C  C22  1  0.00000000  0.01665300  0.84271900  1
  C  C23  1  0.50000000  0.79723600  0.24673500  1
  C  C24  1  0.50000000  0.80076600  0.95204700  1
  C  C25  1  0.50000000  0.63907300  0.54991400  1
  C  C26  1  0.00000000  0.76129500  0.75734900  1
  C  C27  1  0.00000000  0.55236400  0.34802300  1
  C  C28  1  0.00000000  0.44763600  0.65197700  1
  C  C29  1  0.00000000  0.62545600  0.04234700  1
  C  C30  1  0.50000000  0.59519600  0.84980900  1
  C  C31  1  0.50000000  0.36092700  0.45008600  1
  C  C32  1  0.50000000  0.40480400  0.15019100  1
  C  C33  1  0.00000000  0.37454400  0.95765300  1
  C  C34  1  0.00000000  0.16995700  0.55182200  1
  C  C35  1  0.00000000  0.23870500  0.24265100  1
  C  C36  1  0.50000000  0.19923400  0.04795300  1
  C  C37  1  0.50000000  0.20276400  0.75326500  1
