# generated using pymatgen
data_Cu5NiC3
_symmetry_space_group_name_H-M   'P 1'
_cell_length_a   4.71648522
_cell_length_b   4.71648522
_cell_length_c   9.48302900
_cell_angle_alpha   90.00000000
_cell_angle_beta   90.00000000
_cell_angle_gamma   92.47312709
_symmetry_Int_Tables_number   1
_chemical_formula_structural   Cu5NiC3
_chemical_formula_sum   'Cu10 Ni2 C6'
_cell_volume   210.75570104
_cell_formula_units_Z   2
loop_
 _symmetry_equiv_pos_site_id
 _symmetry_equiv_pos_as_xyz
  1  'x, y, z'
loop_
 _atom_site_type_symbol
 _atom_site_label
 _atom_site_symmetry_multiplicity
 _atom_site_fract_x
 _atom_site_fract_y
 _atom_site_fract_z
 _atom_site_occupancy
  C  C0  1  0.00922900  0.00922900  0.82601700  1
  C  C1  1  0.01457900  0.01457900  0.50000000  1
  C  C2  1  0.00922900  0.00922900  0.17398300  1
  C  C3  1  0.47306900  0.47306900  0.66430900  1
  C  C4  1  0.50901300  0.50901300  0.00000000  1
  C  C5  1  0.47306900  0.47306900  0.33569100  1
  Ni  Ni6  1  0.20305900  0.20305900  0.66271500  1
  Ni  Ni7  1  0.20305900  0.20305900  0.33728500  1
  Cu  Cu8  1  0.20251400  0.20251400  0.00000000  1
  Cu  Cu9  1  0.69316100  0.31055600  0.50000000  1
  Cu  Cu10  1  0.69755300  0.30713300  0.83050000  1
  Cu  Cu11  1  0.69755300  0.30713300  0.16950000  1
  Cu  Cu12  1  0.30713300  0.69755300  0.16950000  1
  Cu  Cu13  1  0.30713300  0.69755300  0.83050000  1
  Cu  Cu14  1  0.31055600  0.69316100  0.50000000  1
  Cu  Cu15  1  0.78792400  0.78792400  0.66268700  1
  Cu  Cu16  1  0.81424400  0.81424400  0.00000000  1
  Cu  Cu17  1  0.78792400  0.78792400  0.33731300  1
