# generated using pymatgen
data_Cu11Ni13C32
_symmetry_space_group_name_H-M   'P 1'
_cell_length_a   5.95687498
_cell_length_b   5.95687498
_cell_length_c   20.90241836
_cell_angle_alpha   74.07321442
_cell_angle_beta   74.07321442
_cell_angle_gamma   58.85948732
_symmetry_Int_Tables_number   1
_chemical_formula_structural   Cu11Ni13C32
_chemical_formula_sum   'Cu11 Ni13 C32'
_cell_volume   602.49802593
_cell_formula_units_Z   1
loop_
 _symmetry_equiv_pos_site_id
 _symmetry_equiv_pos_as_xyz
  1  'x, y, z'
loop_
 _atom_site_type_symbol
 _atom_site_label
 _atom_site_symmetry_multiplicity
 _atom_site_fract_x
 _atom_site_fract_y
 _atom_site_fract_z
 _atom_site_occupancy
  Ni  Ni0  1  0.49849000  0.49849000  0.24905500  1
  Ni  Ni1  1  0.74641500  0.74641500  0.12426700  1
  Ni  Ni2  1  0.80921100  0.80921100  0.27775600  1
  Ni  Ni3  1  0.19299600  0.19299600  0.21789900  1
  Ni  Ni4  1  0.69108800  0.69108800  0.96988400  1
  Ni  Ni5  1  0.30891200  0.30891200  0.03011600  1
  Ni  Ni6  1  0.19078900  0.19078900  0.72224400  1
  Ni  Ni7  1  0.25358500  0.25358500  0.87573300  1
  Ni  Ni8  1  0.50151000  0.50151000  0.75094500  1
  Ni  Ni9  1  0.80700400  0.80700400  0.78210100  1
  Ni  Ni10  1  0.31394000  0.31394000  0.52746700  1
  Ni  Ni11  1  0.68606000  0.68606000  0.47253300  1
  Ni  Ni12  1  0.00000000  0.00000000  0.50000000  1
  Cu  Cu13  1  0.75982000  0.23853800  0.12103300  1
  Cu  Cu14  1  0.23853800  0.75982000  0.12103300  1
  Cu  Cu15  1  0.00000000  0.00000000  0.00000000  1
  Cu  Cu16  1  0.24292800  0.75604800  0.62571600  1
  Cu  Cu17  1  0.24018000  0.76146200  0.87896700  1
  Cu  Cu18  1  0.76146200  0.24018000  0.87896700  1
  Cu  Cu19  1  0.75142400  0.75142400  0.62561500  1
  Cu  Cu20  1  0.75604800  0.24292800  0.62571600  1
  Cu  Cu21  1  0.24395200  0.75707200  0.37428400  1
  Cu  Cu22  1  0.24857600  0.24857600  0.37438500  1
  Cu  Cu23  1  0.75707200  0.24395200  0.37428400  1
  C  C24  1  0.85643200  0.38960400  0.18553500  1
  C  C25  1  0.38427100  0.38427100  0.18800000  1
  C  C26  1  0.62645700  0.62645700  0.06513700  1
  C  C27  1  0.86899300  0.86899300  0.18248000  1
  C  C28  1  0.63061200  0.10806500  0.06495600  1
  C  C29  1  0.14356800  0.61039600  0.81446500  1
  C  C30  1  0.10806500  0.63061200  0.06495600  1
  C  C31  1  0.89193500  0.36938800  0.93504400  1
  C  C32  1  0.38960400  0.85643200  0.18553500  1
  C  C33  1  0.38269500  0.38269500  0.69007600  1
  C  C34  1  0.87650700  0.87650700  0.93710000  1
  C  C35  1  0.13100700  0.13100700  0.81752000  1
  C  C36  1  0.12349300  0.12349300  0.06290000  1
  C  C37  1  0.37354300  0.37354300  0.93486300  1
  C  C38  1  0.61572900  0.61572900  0.81200000  1
  C  C39  1  0.11837100  0.64263500  0.56122900  1
  C  C40  1  0.61039600  0.14356800  0.81446500  1
  C  C41  1  0.85975200  0.37912400  0.69025800  1
  C  C42  1  0.36938800  0.89193500  0.93504400  1
  C  C43  1  0.37912400  0.85975200  0.69025800  1
  C  C44  1  0.62328600  0.62328600  0.56622200  1
  C  C45  1  0.87376800  0.87376800  0.68767600  1
  C  C46  1  0.37671400  0.37671400  0.43377800  1
  C  C47  1  0.61730500  0.61730500  0.30992400  1
  C  C48  1  0.12104400  0.12104400  0.56043000  1
  C  C49  1  0.14024800  0.62087600  0.30974200  1
  C  C50  1  0.64263500  0.11837100  0.56122900  1
  C  C51  1  0.62087600  0.14024800  0.30974200  1
  C  C52  1  0.88162900  0.35736500  0.43877100  1
  C  C53  1  0.35736500  0.88162900  0.43877100  1
  C  C54  1  0.87895600  0.87895600  0.43957000  1
  C  C55  1  0.12623200  0.12623200  0.31232400  1
