# generated using pymatgen
data_Cu3NiC
_symmetry_space_group_name_H-M   'P 1'
_cell_length_a   9.91398100
_cell_length_b   6.02554800
_cell_length_c   11.44457984
_cell_angle_alpha   65.73284921
_cell_angle_beta   90.00000000
_cell_angle_gamma   90.00000000
_symmetry_Int_Tables_number   1
_chemical_formula_structural   Cu3NiC
_chemical_formula_sum   'Cu24 Ni8 C8'
_cell_volume   623.25735209
_cell_formula_units_Z   8
loop_
 _symmetry_equiv_pos_site_id
 _symmetry_equiv_pos_as_xyz
  1  'x, y, z'
loop_
 _atom_site_type_symbol
 _atom_site_label
 _atom_site_symmetry_multiplicity
 _atom_site_fract_x
 _atom_site_fract_y
 _atom_site_fract_z
 _atom_site_occupancy
  C  C0  1  0.27745300  0.78463800  0.05112400  1
  C  C1  1  0.77745300  0.21536200  0.44887600  1
  C  C2  1  0.72254700  0.21536200  0.94887600  1
  C  C3  1  0.22254700  0.78463800  0.55112400  1
  C  C4  1  0.47072300  0.13977200  0.24510600  1
  C  C5  1  0.97072300  0.86022800  0.25489400  1
  C  C6  1  0.52927700  0.86022800  0.75489400  1
  C  C7  1  0.02927700  0.13977200  0.74510600  1
  Ni  Ni8  1  0.33084500  0.40391800  0.49201000  1
  Ni  Ni9  1  0.83084500  0.59608200  0.00799000  1
  Ni  Ni10  1  0.66915500  0.59608200  0.50799000  1
  Ni  Ni11  1  0.16915500  0.40391800  0.99201000  1
  Ni  Ni12  1  0.06700600  0.18734800  0.39744300  1
  Ni  Ni13  1  0.56700600  0.81265200  0.10255700  1
  Ni  Ni14  1  0.93299400  0.81265200  0.60255700  1
  Ni  Ni15  1  0.43299400  0.18734800  0.89744300  1
  Cu  Cu16  1  0.37970600  0.01035500  0.38294800  1
  Cu  Cu17  1  0.87970600  0.98964500  0.11705200  1
  Cu  Cu18  1  0.62029400  0.98964500  0.61705200  1
  Cu  Cu19  1  0.12029400  0.01035500  0.88294800  1
  Cu  Cu20  1  0.36344200  0.00992500  0.17105600  1
  Cu  Cu21  1  0.86344200  0.99007500  0.32894400  1
  Cu  Cu22  1  0.63655800  0.99007500  0.82894400  1
  Cu  Cu23  1  0.13655800  0.00992500  0.67105600  1
  Cu  Cu24  1  0.36777200  0.38938100  0.19518700  1
  Cu  Cu25  1  0.86777200  0.61061900  0.30481300  1
  Cu  Cu26  1  0.63222800  0.61061900  0.80481300  1
  Cu  Cu27  1  0.13222800  0.38938100  0.69518700  1
  Cu  Cu28  1  0.07682100  0.72746800  0.18481400  1
  Cu  Cu29  1  0.57682100  0.27253200  0.31518600  1
  Cu  Cu30  1  0.92317900  0.27253200  0.81518600  1
  Cu  Cu31  1  0.42317900  0.72746800  0.68481400  1
  Cu  Cu32  1  0.07028000  0.11418600  0.20744700  1
  Cu  Cu33  1  0.57028000  0.88581400  0.29255300  1
  Cu  Cu34  1  0.92972000  0.88581400  0.79255300  1
  Cu  Cu35  1  0.42972000  0.11418600  0.70744700  1
  Cu  Cu36  1  0.06282800  0.72960300  0.39544100  1
  Cu  Cu37  1  0.56282800  0.27039700  0.10455900  1
  Cu  Cu38  1  0.93717200  0.27039700  0.60455900  1
  Cu  Cu39  1  0.43717200  0.72960300  0.89544100  1
