# generated using pymatgen
data_Cu3Ni3C16
_symmetry_space_group_name_H-M   'P 1'
_cell_length_a   9.59510341
_cell_length_b   8.95588385
_cell_length_c   5.28578598
_cell_angle_alpha   80.22068098
_cell_angle_beta   66.89948171
_cell_angle_gamma   32.87983731
_symmetry_Int_Tables_number   1
_chemical_formula_structural   Cu3Ni3C16
_chemical_formula_sum   'Cu3 Ni3 C16'
_cell_volume   214.91186510
_cell_formula_units_Z   1
loop_
 _symmetry_equiv_pos_site_id
 _symmetry_equiv_pos_as_xyz
  1  'x, y, z'
loop_
 _atom_site_type_symbol
 _atom_site_label
 _atom_site_symmetry_multiplicity
 _atom_site_fract_x
 _atom_site_fract_y
 _atom_site_fract_z
 _atom_site_occupancy
  C  C0  1  0.82928400  0.82928400  0.17071600  1
  C  C1  1  0.17071600  0.17071600  0.82928400  1
  C  C2  1  0.92037300  0.92037300  0.57962700  1
  C  C3  1  0.57962700  0.57962700  0.92037300  1
  Ni  Ni4  1  0.00000000  0.00000000  0.00000000  1
  Ni  Ni5  1  0.66443000  0.66443000  0.33557000  1
  Ni  Ni6  1  0.33557000  0.33557000  0.66443000  1
  Cu  Cu7  1  0.41433500  0.41433500  0.08566500  1
  Cu  Cu8  1  0.08566500  0.08566500  0.41433500  1
  Cu  Cu9  1  0.75000000  0.75000000  0.75000000  1
  C  C10  1  0.21671800  0.78328200  0.21671800  1
  C  C11  1  0.45615500  0.86975600  0.10765800  1
  C  C12  1  0.87308300  0.30169600  0.17779800  1
  C  C13  1  0.10765800  0.56643200  0.45615500  1
  C  C14  1  0.64742300  0.17779800  0.30169600  1
  C  C15  1  0.30169600  0.87308300  0.64742300  1
  C  C16  1  0.52699700  0.97300300  0.52699700  1
  C  C17  1  0.86975600  0.45615500  0.56643200  1
  C  C18  1  0.78328200  0.21671800  0.78328200  1
  C  C19  1  0.17779800  0.64742300  0.87308300  1
  C  C20  1  0.56643200  0.10765800  0.86975600  1
  C  C21  1  0.97300300  0.52699700  0.97300300  1
