# generated using pymatgen
data_CuNiC3
_symmetry_space_group_name_H-M   'P 1'
_cell_length_a   10.89885762
_cell_length_b   10.89885762
_cell_length_c   10.89885762
_cell_angle_alpha   109.12437034
_cell_angle_beta   109.12437034
_cell_angle_gamma   110.16717081
_symmetry_Int_Tables_number   1
_chemical_formula_structural   CuNiC3
_chemical_formula_sum   'Cu16 Ni16 C48'
_cell_volume   996.48994216
_cell_formula_units_Z   16
loop_
 _symmetry_equiv_pos_site_id
 _symmetry_equiv_pos_as_xyz
  1  'x, y, z'
loop_
 _atom_site_type_symbol
 _atom_site_label
 _atom_site_symmetry_multiplicity
 _atom_site_fract_x
 _atom_site_fract_y
 _atom_site_fract_z
 _atom_site_occupancy
  Ni  Ni0  1  0.12500000  0.37500000  0.25000000  1
  Ni  Ni1  1  0.12500000  0.87500000  0.25000000  1
  Ni  Ni2  1  0.62500000  0.87500000  0.75000000  1
  Ni  Ni3  1  0.12500000  0.87500000  0.75000000  1
  Ni  Ni4  1  0.49911300  0.99911300  0.50000000  1
  Ni  Ni5  1  0.24911300  0.24911300  0.00000000  1
  Ni  Ni6  1  0.75088700  0.75088700  0.00000000  1
  Ni  Ni7  1  0.00088700  0.50088700  0.50000000  1
  Ni  Ni8  1  0.24241400  0.11223200  0.61800300  1
  Ni  Ni9  1  0.87441200  0.99241400  0.63018200  1
  Ni  Ni10  1  0.36223200  0.24423000  0.36981800  1
  Ni  Ni11  1  0.49423000  0.62441200  0.38199700  1
  Ni  Ni12  1  0.00758600  0.63776800  0.88199700  1
  Ni  Ni13  1  0.37558800  0.75758600  0.86981800  1
  Ni  Ni14  1  0.88776800  0.50577000  0.13018200  1
  Ni  Ni15  1  0.75577000  0.12558800  0.11800300  1
  Cu  Cu16  1  0.73795700  0.59923500  0.60759100  1
  Cu  Cu17  1  0.38036700  0.48795700  0.63872200  1
  Cu  Cu18  1  0.84923500  0.74164400  0.36127800  1
  Cu  Cu19  1  0.99164400  0.13036700  0.39240900  1
  Cu  Cu20  1  0.51204300  0.15076500  0.89240900  1
  Cu  Cu21  1  0.86963300  0.26204300  0.86127800  1
  Cu  Cu22  1  0.40076500  0.00835600  0.13872200  1
  Cu  Cu23  1  0.25835600  0.61963300  0.10759100  1
  Cu  Cu24  1  0.50000000  0.50000000  0.00000000  1
  Cu  Cu25  1  0.75000000  0.25000000  0.50000000  1
  Cu  Cu26  1  0.00000000  0.00000000  0.00000000  1
  Cu  Cu27  1  0.25000000  0.75000000  0.50000000  1
  Cu  Cu28  1  0.62500000  0.87500000  0.25000000  1
  Cu  Cu29  1  0.62500000  0.37500000  0.25000000  1
  Cu  Cu30  1  0.12500000  0.37500000  0.75000000  1
  Cu  Cu31  1  0.62500000  0.37500000  0.75000000  1
  C  C32  1  0.94443500  0.38049300  0.64140700  1
  C  C33  1  0.55302900  0.69443500  0.06394200  1
  C  C34  1  0.63049300  0.48908600  0.93605800  1
  C  C35  1  0.73908600  0.30302900  0.35859300  1
  C  C36  1  0.30556500  0.36950700  0.85859300  1
  C  C37  1  0.69697100  0.05556500  0.43605800  1
  C  C38  1  0.61950700  0.26091400  0.56394200  1
  C  C39  1  0.51091400  0.44697100  0.14140700  1
  C  C40  1  0.22091100  0.74039500  0.64931900  1
  C  C41  1  0.82159200  0.97091100  0.98051600  1
  C  C42  1  0.99039500  0.84107600  0.01948400  1
  C  C43  1  0.09107600  0.57159200  0.35068100  1
  C  C44  1  0.02908900  0.00960500  0.85068100  1
  C  C45  1  0.42840800  0.77908900  0.51948400  1
  C  C46  1  0.25960500  0.90892400  0.48051600  1
  C  C47  1  0.15892400  0.17840800  0.14931900  1
  C  C48  1  0.70934900  0.75014800  0.61378000  1
  C  C49  1  0.34556900  0.45934900  0.45920100  1
  C  C50  1  0.00014800  0.88636800  0.54079900  1
  C  C51  1  0.71237800  0.55708600  0.74792700  1
  C  C52  1  0.13636800  0.09556900  0.38622000  1
  C  C53  1  0.90443100  0.29065100  0.04079900  1
  C  C54  1  0.24985200  0.86363200  0.95920100  1
  C  C55  1  0.11363200  0.65443100  0.11378000  1
  C  C56  1  0.58992800  0.45284700  0.41427900  1
  C  C57  1  0.42564900  0.33992800  0.63708100  1
  C  C58  1  0.70284700  0.78856800  0.36291900  1
  C  C59  1  0.03856800  0.17564900  0.58572100  1
  C  C60  1  0.66007200  0.29715300  0.08572100  1
  C  C61  1  0.82435100  0.41007200  0.86291900  1
  C  C62  1  0.54715300  0.96143200  0.13708100  1
  C  C63  1  0.21143200  0.57435100  0.91427900  1
  C  C64  1  0.27354000  0.48647100  0.16125100  1
  C  C65  1  0.36228900  0.02354000  0.28707000  1
  C  C66  1  0.73647100  0.07522000  0.71293000  1
  C  C67  1  0.32522000  0.11228900  0.83874900  1
  C  C68  1  0.97646000  0.26352900  0.33874900  1
  C  C69  1  0.88771100  0.72646000  0.21293000  1
  C  C70  1  0.51352900  0.67478000  0.78707000  1
  C  C71  1  0.92478000  0.63771100  0.66125100  1
  C  C72  1  0.44084100  0.78554900  0.24792700  1
  C  C73  1  0.44291400  0.19084100  0.15529200  1
  C  C74  1  0.03554900  0.28762200  0.84470800  1
  C  C75  1  0.53762200  0.19291400  0.75207300  1
  C  C76  1  0.80915900  0.96445100  0.25207300  1
  C  C77  1  0.80708600  0.55915900  0.34470800  1
  C  C78  1  0.21445100  0.46237800  0.65529200  1
  C  C79  1  0.54065100  0.99985200  0.88622000  1
