# generated using pymatgen
data_CuNiC2
_symmetry_space_group_name_H-M   'P 1'
_cell_length_a   2.95292200
_cell_length_b   2.95292200
_cell_length_c   12.63850200
_cell_angle_alpha   90.00000000
_cell_angle_beta   90.00000000
_cell_angle_gamma   90.00000000
_symmetry_Int_Tables_number   1
_chemical_formula_structural   CuNiC2
_chemical_formula_sum   'Cu3 Ni3 C6'
_cell_volume   110.20455681
_cell_formula_units_Z   3
loop_
 _symmetry_equiv_pos_site_id
 _symmetry_equiv_pos_as_xyz
  1  'x, y, z'
loop_
 _atom_site_type_symbol
 _atom_site_label
 _atom_site_symmetry_multiplicity
 _atom_site_fract_x
 _atom_site_fract_y
 _atom_site_fract_z
 _atom_site_occupancy
  C  C0  1  0.50000000  0.50000000  0.66574300  1
  C  C1  1  0.50000000  0.50000000  0.33425700  1
  C  C2  1  0.00000000  0.00000000  0.50000000  1
  C  C3  1  0.00000000  0.00000000  0.83368200  1
  C  C4  1  0.50000000  0.50000000  0.00000000  1
  C  C5  1  0.00000000  0.00000000  0.16631800  1
  Ni  Ni6  1  0.50000000  0.50000000  0.83106600  1
  Ni  Ni7  1  0.00000000  0.00000000  0.00000000  1
  Ni  Ni8  1  0.50000000  0.50000000  0.16893400  1
  Cu  Cu9  1  0.00000000  0.00000000  0.66067000  1
  Cu  Cu10  1  0.00000000  0.00000000  0.33933000  1
  Cu  Cu11  1  0.50000000  0.50000000  0.50000000  1
