# generated using pymatgen
data_Cu3Ni2
_symmetry_space_group_name_H-M   'P 1'
_cell_length_a   5.88618800
_cell_length_b   7.42905900
_cell_length_c   7.91292300
_cell_angle_alpha   90.00000000
_cell_angle_beta   90.00000000
_cell_angle_gamma   90.00000000
_symmetry_Int_Tables_number   1
_chemical_formula_structural   Cu3Ni2
_chemical_formula_sum   'Cu12 Ni8'
_cell_volume   346.02292748
_cell_formula_units_Z   4
loop_
 _symmetry_equiv_pos_site_id
 _symmetry_equiv_pos_as_xyz
  1  'x, y, z'
loop_
 _atom_site_type_symbol
 _atom_site_label
 _atom_site_symmetry_multiplicity
 _atom_site_fract_x
 _atom_site_fract_y
 _atom_site_fract_z
 _atom_site_occupancy
  Ni  Ni0  1  0.25000000  0.21146900  0.02659600  1
  Ni  Ni1  1  0.25000000  0.28853100  0.52659600  1
  Ni  Ni2  1  0.75000000  0.78853100  0.97340400  1
  Ni  Ni3  1  0.75000000  0.71146900  0.47340400  1
  Ni  Ni4  1  0.25000000  0.60654000  0.30317700  1
  Ni  Ni5  1  0.25000000  0.89346000  0.80317700  1
  Ni  Ni6  1  0.75000000  0.39346000  0.69682300  1
  Ni  Ni7  1  0.75000000  0.10654000  0.19682300  1
  Cu  Cu8  1  0.25000000  0.68679900  0.44280000  1
  Cu  Cu9  1  0.25000000  0.81320100  0.94280000  1
  Cu  Cu10  1  0.75000000  0.31320100  0.55720000  1
  Cu  Cu11  1  0.75000000  0.18679900  0.05720000  1
  Cu  Cu12  1  0.06605700  0.56576800  0.23315700  1
  Cu  Cu13  1  0.43394300  0.93423200  0.73315700  1
  Cu  Cu14  1  0.56605700  0.43423200  0.76684300  1
  Cu  Cu15  1  0.93394300  0.06576800  0.26684300  1
  Cu  Cu16  1  0.93394300  0.43423200  0.76684300  1
  Cu  Cu17  1  0.56605700  0.06576800  0.26684300  1
  Cu  Cu18  1  0.43394300  0.56576800  0.23315700  1
  Cu  Cu19  1  0.06605700  0.93423200  0.73315700  1
