# generated using pymatgen
data_CuNi6C13
_symmetry_space_group_name_H-M   'P 1'
_cell_length_a   7.73476600
_cell_length_b   12.77984600
_cell_length_c   13.20344367
_cell_angle_alpha   76.63867465
_cell_angle_beta   90.00000000
_cell_angle_gamma   90.00000000
_symmetry_Int_Tables_number   1
_chemical_formula_structural   CuNi6C13
_chemical_formula_sum   'Cu4 Ni24 C52'
_cell_volume   1269.82111187
_cell_formula_units_Z   4
loop_
 _symmetry_equiv_pos_site_id
 _symmetry_equiv_pos_as_xyz
  1  'x, y, z'
loop_
 _atom_site_type_symbol
 _atom_site_label
 _atom_site_symmetry_multiplicity
 _atom_site_fract_x
 _atom_site_fract_y
 _atom_site_fract_z
 _atom_site_occupancy
  C  C0  1  0.57917200  0.64638000  0.68698100  1
  C  C1  1  0.07917200  0.35362000  0.81301900  1
  C  C2  1  0.42082800  0.35362000  0.31301900  1
  C  C3  1  0.92082800  0.64638000  0.18698100  1
  C  C4  1  0.04862800  0.13518800  0.60351000  1
  C  C5  1  0.54862800  0.86481200  0.89649000  1
  C  C6  1  0.95137200  0.86481200  0.39649000  1
  C  C7  1  0.45137200  0.13518800  0.10351000  1
  C  C8  1  0.50000000  0.00000000  0.50000000  1
  C  C9  1  0.00000000  0.00000000  0.00000000  1
  C  C10  1  0.50000000  0.50000000  0.00000000  1
  C  C11  1  0.00000000  0.50000000  0.50000000  1
  Ni  Ni12  1  0.26320200  0.05745800  0.86720100  1
  Ni  Ni13  1  0.76320200  0.94254200  0.63279900  1
  Ni  Ni14  1  0.73679800  0.94254200  0.13279900  1
  Ni  Ni15  1  0.23679800  0.05745800  0.36720100  1
  Ni  Ni16  1  0.27869700  0.86445800  0.59650600  1
  Ni  Ni17  1  0.77869700  0.13554200  0.90349400  1
  Ni  Ni18  1  0.72130300  0.13554200  0.40349400  1
  Ni  Ni19  1  0.22130300  0.86445800  0.09650600  1
  Ni  Ni20  1  0.71658800  0.39023700  0.10227500  1
  Ni  Ni21  1  0.21658800  0.60976300  0.39772500  1
  Ni  Ni22  1  0.28341200  0.60976300  0.89772500  1
  Ni  Ni23  1  0.78341200  0.39023700  0.60227500  1
  Ni  Ni24  1  0.06076800  0.61591700  0.97543800  1
  Ni  Ni25  1  0.56076800  0.38408300  0.52456200  1
  Ni  Ni26  1  0.93923200  0.38408300  0.02456200  1
  Ni  Ni27  1  0.43923200  0.61591700  0.47543800  1
  Ni  Ni28  1  0.55371200  0.26325700  0.57526500  1
  Ni  Ni29  1  0.05371200  0.73674300  0.92473500  1
  Ni  Ni30  1  0.44628800  0.73674300  0.42473500  1
  Ni  Ni31  1  0.94628800  0.26325700  0.07526500  1
  Ni  Ni32  1  0.73916800  0.15771900  0.75914800  1
  Ni  Ni33  1  0.23916800  0.84228100  0.74085200  1
  Ni  Ni34  1  0.26083200  0.84228100  0.24085200  1
  Ni  Ni35  1  0.76083200  0.15771900  0.25914800  1
  Cu  Cu36  1  0.97581500  0.78845000  0.71395800  1
  Cu  Cu37  1  0.47581500  0.21155000  0.78604200  1
  Cu  Cu38  1  0.02418500  0.21155000  0.28604200  1
  Cu  Cu39  1  0.52418500  0.78845000  0.21395800  1
  C  C40  1  0.82869600  0.85412300  0.74220600  1
  C  C41  1  0.32869600  0.14587700  0.75779400  1
  C  C42  1  0.17130400  0.14587700  0.25779400  1
  C  C43  1  0.67130400  0.85412300  0.24220600  1
  C  C44  1  0.68940000  0.37959500  0.85819300  1
  C  C45  1  0.18940000  0.62040500  0.64180700  1
  C  C46  1  0.31060000  0.62040500  0.14180700  1
  C  C47  1  0.81060000  0.37959500  0.35819300  1
  C  C48  1  0.64161800  0.18017100  0.71005300  1
  C  C49  1  0.14161800  0.81982900  0.78994700  1
  C  C50  1  0.35838200  0.81982900  0.28994700  1
  C  C51  1  0.85838200  0.18017100  0.21005300  1
  C  C52  1  0.99264300  0.68104300  0.97519200  1
  C  C53  1  0.49264300  0.31895700  0.52480800  1
  C  C54  1  0.00735700  0.31895700  0.02480800  1
  C  C55  1  0.50735700  0.68104300  0.47519200  1
  C  C56  1  0.24053800  0.00311000  0.93418300  1
  C  C57  1  0.74053800  0.99689000  0.56581700  1
  C  C58  1  0.75946200  0.99689000  0.06581700  1
  C  C59  1  0.25946200  0.00311000  0.43418300  1
  C  C60  1  0.39675900  0.87780400  0.62163600  1
  C  C61  1  0.89675900  0.12219600  0.87836400  1
  C  C62  1  0.60324100  0.12219600  0.37836400  1
  C  C63  1  0.10324100  0.87780400  0.12163600  1
  C  C64  1  0.45802700  0.84103800  0.10732000  1
  C  C65  1  0.95802700  0.15896200  0.39268000  1
  C  C66  1  0.54197300  0.15896200  0.89268000  1
  C  C67  1  0.04197300  0.84103800  0.60732000  1
  C  C68  1  0.57091200  0.63477300  0.92533300  1
  C  C69  1  0.07091200  0.36522700  0.57466700  1
  C  C70  1  0.42908800  0.36522700  0.07466700  1
  C  C71  1  0.92908800  0.63477300  0.42533300  1
  C  C72  1  0.05507100  0.55637700  0.64419500  1
  C  C73  1  0.55507100  0.44362300  0.85580500  1
  C  C74  1  0.94492900  0.44362300  0.35580500  1
  C  C75  1  0.44492900  0.55637700  0.14419500  1
  C  C76  1  0.26012600  0.53646100  0.93868600  1
  C  C77  1  0.76012600  0.46353900  0.56131400  1
  C  C78  1  0.73987400  0.46353900  0.06131400  1
  C  C79  1  0.23987400  0.53646100  0.43868600  1
