# generated using pymatgen
data_CuNiC5
_symmetry_space_group_name_H-M   'P 1'
_cell_length_a   8.67523773
_cell_length_b   8.67523773
_cell_length_c   8.67523803
_cell_angle_alpha   103.17524579
_cell_angle_beta   103.17524579
_cell_angle_gamma   103.17524922
_symmetry_Int_Tables_number   1
_chemical_formula_structural   CuNiC5
_chemical_formula_sum   'Cu6 Ni6 C30'
_cell_volume   591.38866795
_cell_formula_units_Z   6
loop_
 _symmetry_equiv_pos_site_id
 _symmetry_equiv_pos_as_xyz
  1  'x, y, z'
loop_
 _atom_site_type_symbol
 _atom_site_label
 _atom_site_symmetry_multiplicity
 _atom_site_fract_x
 _atom_site_fract_y
 _atom_site_fract_z
 _atom_site_occupancy
  C  C0  1  0.44014700  0.03578200  0.18939400  1
  C  C1  1  0.81060600  0.55985300  0.96421800  1
  C  C2  1  0.96421800  0.81060600  0.55985300  1
  C  C3  1  0.03578200  0.18939400  0.44014700  1
  C  C4  1  0.18939400  0.44014700  0.03578200  1
  C  C5  1  0.55985300  0.96421800  0.81060600  1
  Ni  Ni6  1  0.91294000  0.14506700  0.74580400  1
  Ni  Ni7  1  0.85493300  0.25419600  0.08706000  1
  Ni  Ni8  1  0.25419600  0.08706000  0.85493300  1
  Ni  Ni9  1  0.74580400  0.91294000  0.14506700  1
  Ni  Ni10  1  0.14506700  0.74580400  0.91294000  1
  Ni  Ni11  1  0.08706000  0.85493300  0.25419600  1
  Cu  Cu12  1  0.81146900  0.45616700  0.55562200  1
  Cu  Cu13  1  0.44437800  0.18853100  0.54383300  1
  Cu  Cu14  1  0.54383300  0.44437800  0.18853100  1
  Cu  Cu15  1  0.45616700  0.55562200  0.81146900  1
  Cu  Cu16  1  0.55562200  0.81146900  0.45616700  1
  Cu  Cu17  1  0.18853100  0.54383300  0.44437800  1
  C  C18  1  0.95492900  0.26167000  0.94203200  1
  C  C19  1  0.73833000  0.05796800  0.04507100  1
  C  C20  1  0.92999500  0.25733100  0.62068800  1
  C  C21  1  0.74266900  0.37931200  0.07000500  1
  C  C22  1  0.01041100  0.69343800  0.73205400  1
  C  C23  1  0.55780300  0.27991800  0.33472900  1
  C  C24  1  0.37931200  0.07000500  0.74266900  1
  C  C25  1  0.66527100  0.44219700  0.72008200  1
  C  C26  1  0.26794600  0.98958900  0.30656200  1
  C  C27  1  0.30656200  0.26794600  0.98958900  1
  C  C28  1  0.72008200  0.66527100  0.44219700  1
  C  C29  1  0.05796800  0.04507100  0.73833000  1
  C  C30  1  0.94203200  0.95492900  0.26167000  1
  C  C31  1  0.27991800  0.33472900  0.55780300  1
  C  C32  1  0.69343800  0.73205400  0.01041100  1
  C  C33  1  0.73205400  0.01041100  0.69343800  1
  C  C34  1  0.33472900  0.55780300  0.27991800  1
  C  C35  1  0.62068800  0.92999500  0.25733100  1
  C  C36  1  0.44219700  0.72008200  0.66527100  1
  C  C37  1  0.98958900  0.30656200  0.26794600  1
  C  C38  1  0.25733100  0.62068800  0.92999500  1
  C  C39  1  0.07000500  0.74266900  0.37931200  1
  C  C40  1  0.26167000  0.94203200  0.95492900  1
  C  C41  1  0.04507100  0.73833000  0.05796800  1
