# generated using pymatgen
data_Cu7NiC4
_symmetry_space_group_name_H-M   'P 1'
_cell_length_a   5.06973220
_cell_length_b   6.41000301
_cell_length_c   16.67391120
_cell_angle_alpha   89.99644487
_cell_angle_beta   83.93660984
_cell_angle_gamma   89.99357577
_symmetry_Int_Tables_number   1
_chemical_formula_structural   Cu7NiC4
_chemical_formula_sum   'Cu28 Ni4 C16'
_cell_volume   538.82075053
_cell_formula_units_Z   4
loop_
 _symmetry_equiv_pos_site_id
 _symmetry_equiv_pos_as_xyz
  1  'x, y, z'
loop_
 _atom_site_type_symbol
 _atom_site_label
 _atom_site_symmetry_multiplicity
 _atom_site_fract_x
 _atom_site_fract_y
 _atom_site_fract_z
 _atom_site_occupancy
  C  C0  1  0.78147700  0.24565300  0.04965400  1
  C  C1  1  0.78159200  0.24549200  0.54968600  1
  C  C2  1  0.21862300  0.74557000  0.45034900  1
  C  C3  1  0.21859800  0.74549600  0.95034200  1
  C  C4  1  0.26071100  0.46039300  0.14067400  1
  C  C5  1  0.26085300  0.46027200  0.64063800  1
  C  C6  1  0.73919000  0.96035200  0.35935600  1
  C  C7  1  0.73927700  0.96029500  0.85934900  1
  C  C8  1  0.79583600  0.75305900  0.66218000  1
  C  C9  1  0.20398300  0.25318600  0.83792200  1
  C  C10  1  0.79605000  0.75355300  0.16205100  1
  C  C11  1  0.20362900  0.25347900  0.33792000  1
  C  C12  1  0.72869200  0.24967100  0.20918400  1
  C  C13  1  0.72878400  0.24940700  0.70920800  1
  C  C14  1  0.27116100  0.74966200  0.29076700  1
  C  C15  1  0.27122500  0.74929500  0.79081400  1
  Ni  Ni16  1  0.68245000  0.75256600  0.02265000  1
  Ni  Ni17  1  0.68255800  0.75243200  0.52270700  1
  Ni  Ni18  1  0.31764300  0.25256000  0.47728200  1
  Ni  Ni19  1  0.31754300  0.25247300  0.97734100  1
  Cu  Cu20  1  0.93175000  0.75576200  0.03897100  1
  Cu  Cu21  1  0.93184200  0.75553100  0.53902200  1
  Cu  Cu22  1  0.06826000  0.25578000  0.46101500  1
  Cu  Cu23  1  0.06822900  0.25555100  0.96101400  1
  Cu  Cu24  1  0.38911800  0.27990600  0.04678400  1
  Cu  Cu25  1  0.38932600  0.27979600  0.54672500  1
  Cu  Cu26  1  0.61089300  0.77983900  0.45326500  1
  Cu  Cu27  1  0.61088200  0.77974600  0.95318100  1
  Cu  Cu28  1  0.51212100  0.72429100  0.08666500  1
  Cu  Cu29  1  0.51228700  0.72402700  0.58674000  1
  Cu  Cu30  1  0.48775800  0.22420800  0.41322300  1
  Cu  Cu31  1  0.48786100  0.22403100  0.91332200  1
  Cu  Cu32  1  0.78907600  0.06320600  0.15078900  1
  Cu  Cu33  1  0.78912200  0.06278300  0.65087800  1
  Cu  Cu34  1  0.21087800  0.56318300  0.34916600  1
  Cu  Cu35  1  0.21096300  0.56278900  0.84919300  1
  Cu  Cu36  1  0.83604400  0.43689700  0.15477300  1
  Cu  Cu37  1  0.83622300  0.43657200  0.65481900  1
  Cu  Cu38  1  0.16383200  0.93687500  0.34518400  1
  Cu  Cu39  1  0.16394700  0.93653500  0.84521700  1
  Cu  Cu40  1  0.13697400  0.72936100  0.21306300  1
  Cu  Cu41  1  0.13706400  0.72909100  0.71310500  1
  Cu  Cu42  1  0.86289600  0.22934000  0.28688200  1
  Cu  Cu43  1  0.86294200  0.22911900  0.78694300  1
  Cu  Cu44  1  0.42387000  0.27838400  0.23044000  1
  Cu  Cu45  1  0.42394800  0.27814600  0.73046400  1
  Cu  Cu46  1  0.57599100  0.77835700  0.26951400  1
  Cu  Cu47  1  0.57602700  0.77808500  0.76956900  1
