# generated using pymatgen
data_CuNiC11
_symmetry_space_group_name_H-M   'P 1'
_cell_length_a   6.77261400
_cell_length_b   8.77430373
_cell_length_c   10.18378461
_cell_angle_alpha   90.92413977
_cell_angle_beta   90.20390998
_cell_angle_gamma   91.16499754
_symmetry_Int_Tables_number   1
_chemical_formula_structural   CuNiC11
_chemical_formula_sum   'Cu4 Ni4 C44'
_cell_volume   604.96275027
_cell_formula_units_Z   4
loop_
 _symmetry_equiv_pos_site_id
 _symmetry_equiv_pos_as_xyz
  1  'x, y, z'
loop_
 _atom_site_type_symbol
 _atom_site_label
 _atom_site_symmetry_multiplicity
 _atom_site_fract_x
 _atom_site_fract_y
 _atom_site_fract_z
 _atom_site_occupancy
  C  C0  1  0.24048000  0.91733500  0.87722400  1
  C  C1  1  0.50125900  0.74616500  0.62394000  1
  C  C2  1  0.99783500  0.74621000  0.12637400  1
  C  C3  1  0.50132900  0.74443300  0.12496100  1
  C  C4  1  0.50081400  0.25368000  0.87532700  1
  C  C5  1  0.49956200  0.25380300  0.37597500  1
  C  C6  1  0.23472500  0.91588500  0.37532000  1
  C  C7  1  0.02488000  0.72653900  0.61291600  1
  C  C8  1  0.97490900  0.27310200  0.88780600  1
  C  C9  1  0.98330500  0.26831700  0.38329500  1
  C  C10  1  0.77379800  0.08798400  0.62655200  1
  C  C11  1  0.76326400  0.09237300  0.12750600  1
  C  C12  1  0.75037100  0.63818200  0.88442400  1
  C  C13  1  0.75384500  0.64130000  0.38976900  1
  C  C14  1  0.24548600  0.35319600  0.61216500  1
  C  C15  1  0.24383300  0.35752700  0.11143100  1
  Ni  Ni16  1  0.23915900  0.58488500  0.84985700  1
  Ni  Ni17  1  0.24646900  0.59113600  0.35512200  1
  Ni  Ni18  1  0.75886300  0.40572300  0.64523800  1
  Ni  Ni19  1  0.75217300  0.40359900  0.14611700  1
  Cu  Cu20  1  0.76088100  0.95523900  0.86573800  1
  Cu  Cu21  1  0.76057300  0.95578000  0.36706200  1
  Cu  Cu22  1  0.23881700  0.04344100  0.62671700  1
  Cu  Cu23  1  0.24628600  0.05983900  0.14296000  1
  C  C24  1  0.22255700  0.89875600  0.64746100  1
  C  C25  1  0.25533400  0.91479300  0.16492800  1
  C  C26  1  0.75378100  0.91695800  0.98919300  1
  C  C27  1  0.75222600  0.91588200  0.48940100  1
  C  C28  1  0.75158200  0.85036500  0.77382700  1
  C  C29  1  0.75428600  0.85106000  0.27402200  1
  C  C30  1  0.06492200  0.68166600  0.90003800  1
  C  C31  1  0.43261100  0.67235400  0.89018300  1
  C  C32  1  0.07370000  0.69512000  0.40017900  1
  C  C33  1  0.43891200  0.67880900  0.39627600  1
  C  C34  1  0.22836200  0.57311700  0.69649800  1
  C  C35  1  0.77083100  0.57089200  0.59045400  1
  C  C36  1  0.24179700  0.57263800  0.20240200  1
  C  C37  1  0.74680100  0.56453900  0.08517700  1
  C  C38  1  0.23181500  0.42023800  0.90501000  1
  C  C39  1  0.77517100  0.41990400  0.79832300  1
  C  C40  1  0.23116400  0.42911300  0.41380800  1
  C  C41  1  0.77489700  0.42459200  0.29844100  1
  C  C42  1  0.56323300  0.32062000  0.60820200  1
  C  C43  1  0.92662800  0.30312100  0.59189300  1
  C  C44  1  0.56240400  0.30767300  0.11425300  1
  C  C45  1  0.92479400  0.30666900  0.09194400  1
  C  C46  1  0.24604900  0.13963600  0.72604100  1
  C  C47  1  0.23404200  0.15473000  0.24136200  1
  C  C48  1  0.24857000  0.09451100  0.50735800  1
  C  C49  1  0.24893000  0.11203100  0.02381800  1
  C  C50  1  0.77661800  0.09702700  0.83205200  1
  C  C51  1  0.77506500  0.09751300  0.33366200  1
