# generated using pymatgen
data_Cu(NiC)3
_symmetry_space_group_name_H-M   'P 1'
_cell_length_a   15.86458500
_cell_length_b   7.63108500
_cell_length_c   9.28452443
_cell_angle_alpha   53.12547896
_cell_angle_beta   90.00000000
_cell_angle_gamma   90.00000000
_symmetry_Int_Tables_number   1
_chemical_formula_structural   Cu(NiC)3
_chemical_formula_sum   'Cu8 Ni24 C24'
_cell_volume   899.16288381
_cell_formula_units_Z   8
loop_
 _symmetry_equiv_pos_site_id
 _symmetry_equiv_pos_as_xyz
  1  'x, y, z'
loop_
 _atom_site_type_symbol
 _atom_site_label
 _atom_site_symmetry_multiplicity
 _atom_site_fract_x
 _atom_site_fract_y
 _atom_site_fract_z
 _atom_site_occupancy
  C  C0  1  0.29549200  0.31934900  0.74759000  1
  C  C1  1  0.95255300  0.98112800  0.27581500  1
  C  C2  1  0.45255300  0.01887200  0.22418500  1
  C  C3  1  0.79549200  0.68065100  0.75241000  1
  C  C4  1  0.20450800  0.31934900  0.24759000  1
  C  C5  1  0.54744700  0.98112800  0.77581500  1
  C  C6  1  0.04744700  0.01887200  0.72418500  1
  C  C7  1  0.70450800  0.68065100  0.25241000  1
  C  C8  1  0.20300800  0.87047900  0.22168200  1
  C  C9  1  0.53149400  0.51276800  0.73192600  1
  C  C10  1  0.03149400  0.48723200  0.76807400  1
  C  C11  1  0.70300800  0.12952100  0.27831800  1
  C  C12  1  0.29699200  0.87047900  0.72168200  1
  C  C13  1  0.96850600  0.51276800  0.23192600  1
  C  C14  1  0.46850600  0.48723200  0.26807400  1
  C  C15  1  0.79699200  0.12952100  0.77831800  1
  C  C16  1  0.89975400  0.20519500  0.89464600  1
  C  C17  1  0.11749500  0.63756100  0.53319200  1
  C  C18  1  0.61749500  0.36243900  0.96680800  1
  C  C19  1  0.39975400  0.79480500  0.60535400  1
  C  C20  1  0.60024600  0.20519500  0.39464600  1
  C  C21  1  0.38250500  0.63756100  0.03319200  1
  C  C22  1  0.88250500  0.36243900  0.46680800  1
  C  C23  1  0.10024600  0.79480500  0.10535400  1
  Ni  Ni24  1  0.83733300  0.15393900  0.92162500  1
  Ni  Ni25  1  0.99109800  0.26348300  0.87950800  1
  Ni  Ni26  1  0.47866400  0.30948000  0.83852600  1
  Ni  Ni27  1  0.10521200  0.48640100  0.65225000  1
  Ni  Ni28  1  0.60521200  0.51359900  0.84775000  1
  Ni  Ni29  1  0.13735900  0.86346800  0.34339900  1
  Ni  Ni30  1  0.26850000  0.04742700  0.13606300  1
  Ni  Ni31  1  0.97866400  0.69052000  0.66147400  1
  Ni  Ni32  1  0.49109800  0.73651700  0.62049200  1
  Ni  Ni33  1  0.76850000  0.95257300  0.36393700  1
  Ni  Ni34  1  0.63735900  0.13653200  0.15660100  1
  Ni  Ni35  1  0.33733300  0.84606100  0.57837500  1
  Ni  Ni36  1  0.66266700  0.15393900  0.42162500  1
  Ni  Ni37  1  0.36264100  0.86346800  0.84339900  1
  Ni  Ni38  1  0.23150000  0.04742700  0.63606300  1
  Ni  Ni39  1  0.50890200  0.26348300  0.37950800  1
  Ni  Ni40  1  0.02133600  0.30948000  0.33852600  1
  Ni  Ni41  1  0.73150000  0.95257300  0.86393700  1
  Ni  Ni42  1  0.86264100  0.13653200  0.65660100  1
  Ni  Ni43  1  0.39478800  0.48640100  0.15225000  1
  Ni  Ni44  1  0.89478800  0.51359900  0.34775000  1
  Ni  Ni45  1  0.52133600  0.69052000  0.16147400  1
  Ni  Ni46  1  0.00890200  0.73651700  0.12049200  1
  Ni  Ni47  1  0.16266700  0.84606100  0.07837500  1
  Cu  Cu48  1  0.74754700  0.36136600  0.65118600  1
  Cu  Cu49  1  0.58324100  0.50203500  0.58751500  1
  Cu  Cu50  1  0.08324100  0.49796500  0.91248500  1
  Cu  Cu51  1  0.24754700  0.63863400  0.84881400  1
  Cu  Cu52  1  0.75245300  0.36136600  0.15118600  1
  Cu  Cu53  1  0.91675900  0.50203500  0.08751500  1
  Cu  Cu54  1  0.41675900  0.49796500  0.41248500  1
  Cu  Cu55  1  0.25245300  0.63863400  0.34881400  1
