# generated using pymatgen
data_Cu6Ni2C3
_symmetry_space_group_name_H-M   'P 1'
_cell_length_a   5.19876100
_cell_length_b   7.19950954
_cell_length_c   7.63119153
_cell_angle_alpha   101.33639239
_cell_angle_beta   90.89760802
_cell_angle_gamma   90.32740580
_symmetry_Int_Tables_number   1
_chemical_formula_structural   Cu6Ni2C3
_chemical_formula_sum   'Cu12 Ni4 C6'
_cell_volume   280.00611706
_cell_formula_units_Z   2
loop_
 _symmetry_equiv_pos_site_id
 _symmetry_equiv_pos_as_xyz
  1  'x, y, z'
loop_
 _atom_site_type_symbol
 _atom_site_label
 _atom_site_symmetry_multiplicity
 _atom_site_fract_x
 _atom_site_fract_y
 _atom_site_fract_z
 _atom_site_occupancy
  C  C0  1  0.72026200  0.33915900  0.18248500  1
  C  C1  1  0.25926800  0.67637500  0.31215800  1
  C  C2  1  0.23675500  0.17114800  0.32406800  1
  C  C3  1  0.76324500  0.82885200  0.67593200  1
  C  C4  1  0.74073200  0.32362500  0.68784200  1
  C  C5  1  0.27973800  0.66084100  0.81751500  1
  Ni  Ni6  1  0.15108200  0.94169900  0.32564600  1
  Ni  Ni7  1  0.39704000  0.42290300  0.29993000  1
  Ni  Ni8  1  0.60296000  0.57709700  0.70007000  1
  Ni  Ni9  1  0.84891800  0.05830100  0.67435400  1
  Cu  Cu10  1  0.39398300  0.67777600  0.06837800  1
  Cu  Cu11  1  0.03675500  0.19331200  0.10828800  1
  Cu  Cu12  1  0.92392900  0.57253300  0.19985700  1
  Cu  Cu13  1  0.55318500  0.09173800  0.19157400  1
  Cu  Cu14  1  0.58200600  0.78662000  0.44224600  1
  Cu  Cu15  1  0.90972800  0.31023200  0.43289200  1
  Cu  Cu16  1  0.09027200  0.68976800  0.56710800  1
  Cu  Cu17  1  0.41799400  0.21338000  0.55775400  1
  Cu  Cu18  1  0.44681500  0.90826200  0.80842600  1
  Cu  Cu19  1  0.07607100  0.42746700  0.80014300  1
  Cu  Cu20  1  0.96324500  0.80668800  0.89171200  1
  Cu  Cu21  1  0.60601700  0.32222400  0.93162200  1
