# generated using pymatgen
data_CuNi3C10
_symmetry_space_group_name_H-M   'P 1'
_cell_length_a   5.94065500
_cell_length_b   10.29009200
_cell_length_c   9.69787900
_cell_angle_alpha   90.00022952
_cell_angle_beta   89.99995708
_cell_angle_gamma   89.99998479
_symmetry_Int_Tables_number   1
_chemical_formula_structural   CuNi3C10
_chemical_formula_sum   'Cu4 Ni12 C40'
_cell_volume   592.83024246
_cell_formula_units_Z   4
loop_
 _symmetry_equiv_pos_site_id
 _symmetry_equiv_pos_as_xyz
  1  'x, y, z'
loop_
 _atom_site_type_symbol
 _atom_site_label
 _atom_site_symmetry_multiplicity
 _atom_site_fract_x
 _atom_site_fract_y
 _atom_site_fract_z
 _atom_site_occupancy
  C  C0  1  0.99999000  0.33334100  0.88830500  1
  C  C1  1  0.49999000  0.83334400  0.88831100  1
  C  C2  1  0.49999500  0.16667400  0.38830500  1
  C  C3  1  0.99999500  0.66667200  0.38831100  1
  C  C4  1  0.99999800  0.99999500  0.99928100  1
  C  C5  1  0.49999700  0.50000500  0.99928300  1
  C  C6  1  0.99999800  0.99999900  0.49928300  1
  C  C7  1  0.49999800  0.50000800  0.49928100  1
  Ni  Ni8  1  0.75317000  0.41557600  0.21513000  1
  Ni  Ni9  1  0.25313400  0.91565200  0.21511000  1
  Ni  Ni10  1  0.00000300  0.16880600  0.21510600  1
  Ni  Ni11  1  0.50000300  0.66873700  0.21510200  1
  Ni  Ni12  1  0.24682100  0.41558000  0.21512000  1
  Ni  Ni13  1  0.74685700  0.91565600  0.21510100  1
  Ni  Ni14  1  0.25317100  0.08442700  0.71512000  1
  Ni  Ni15  1  0.75313600  0.58435000  0.71510100  1
  Ni  Ni16  1  0.50000400  0.33119900  0.71512200  1
  Ni  Ni17  1  0.00000400  0.83126600  0.71511800  1
  Ni  Ni18  1  0.74682500  0.08442200  0.71511300  1
  Ni  Ni19  1  0.24685900  0.58434500  0.71509400  1
  Cu  Cu20  1  0.49999700  0.83331800  0.48977000  1
  Cu  Cu21  1  0.99999200  0.66669300  0.98976700  1
  Cu  Cu22  1  0.99999700  0.33329800  0.48974900  1
  Cu  Cu23  1  0.49999200  0.16670800  0.98974200  1
  C  C24  1  0.99999000  0.33334300  0.10387000  1
  C  C25  1  0.49999000  0.83332700  0.10385900  1
  C  C26  1  0.49999500  0.16667300  0.60386900  1
  C  C27  1  0.99999500  0.66668900  0.60385800  1
  C  C28  1  0.99999200  0.99997500  0.31518300  1
  C  C29  1  0.49999300  0.50003500  0.31517100  1
  C  C30  1  0.99999600  0.99997600  0.81517100  1
  C  C31  1  0.49999600  0.50003700  0.81518400  1
  C  C32  1  0.73869200  0.42046000  0.60707200  1
  C  C33  1  0.23874400  0.92038700  0.60703900  1
  C  C34  1  0.99999400  0.15910700  0.60708000  1
  C  C35  1  0.49999400  0.65918300  0.60704500  1
  C  C36  1  0.23868500  0.07955600  0.10707200  1
  C  C37  1  0.73873500  0.57962900  0.10704000  1
  C  C38  1  0.26130000  0.42046200  0.60707300  1
  C  C39  1  0.76124600  0.92038800  0.60703900  1
  C  C40  1  0.49999000  0.34090200  0.10708200  1
  C  C41  1  0.99998800  0.84082700  0.10704700  1
  C  C42  1  0.76130200  0.07955500  0.10707200  1
  C  C43  1  0.26125000  0.57962600  0.10703800  1
  C  C44  1  0.77741400  0.25915300  0.33031200  1
  C  C45  1  0.27745400  0.75914600  0.33037000  1
  C  C46  1  0.99999200  0.48173500  0.33031300  1
  C  C47  1  0.49999200  0.98168000  0.33036600  1
  C  C48  1  0.22257100  0.25915200  0.33031100  1
  C  C49  1  0.72253100  0.75914600  0.33036900  1
  C  C50  1  0.27741600  0.24086100  0.83031400  1
  C  C51  1  0.77745500  0.74086900  0.83036800  1
  C  C52  1  0.49999400  0.01828000  0.83031600  1
  C  C53  1  0.99999400  0.51833400  0.83036800  1
  C  C54  1  0.72257000  0.24086100  0.83031400  1
  C  C55  1  0.22253000  0.74086800  0.83036900  1
