# generated using pymatgen
data_Cu3Ni2C3
_symmetry_space_group_name_H-M   'P 1'
_cell_length_a   12.80308000
_cell_length_b   12.80308000
_cell_length_c   15.13140800
_cell_angle_alpha   90.00000000
_cell_angle_beta   90.00000000
_cell_angle_gamma   90.00000000
_symmetry_Int_Tables_number   1
_chemical_formula_structural   Cu3Ni2C3
_chemical_formula_sum   'Cu36 Ni24 C36'
_cell_volume   2480.32311152
_cell_formula_units_Z   12
loop_
 _symmetry_equiv_pos_site_id
 _symmetry_equiv_pos_as_xyz
  1  'x, y, z'
loop_
 _atom_site_type_symbol
 _atom_site_label
 _atom_site_symmetry_multiplicity
 _atom_site_fract_x
 _atom_site_fract_y
 _atom_site_fract_z
 _atom_site_occupancy
  C  C0  1  0.32492200  0.39554200  0.50466000  1
  C  C1  1  0.17507800  0.89554200  0.00466000  1
  C  C2  1  0.60445800  0.32492200  0.49534000  1
  C  C3  1  0.89554200  0.82492200  0.99534000  1
  C  C4  1  0.67507800  0.60445800  0.50466000  1
  C  C5  1  0.82492200  0.10445800  0.00466000  1
  C  C6  1  0.39554200  0.67507800  0.49534000  1
  C  C7  1  0.10445800  0.17507800  0.99534000  1
  C  C8  1  0.50000000  0.50000000  0.67901200  1
  C  C9  1  0.00000000  0.00000000  0.17901200  1
  C  C10  1  0.50000000  0.50000000  0.32098800  1
  C  C11  1  0.00000000  0.00000000  0.82098800  1
  C  C12  1  0.41625200  0.24217200  0.67378700  1
  C  C13  1  0.08374800  0.74217200  0.17378700  1
  C  C14  1  0.75782800  0.41625200  0.32621300  1
  C  C15  1  0.74217200  0.91625200  0.82621300  1
  C  C16  1  0.58374800  0.75782800  0.67378700  1
  C  C17  1  0.91625200  0.25782800  0.17378700  1
  C  C18  1  0.24217200  0.58374800  0.32621300  1
  C  C19  1  0.25782800  0.08374800  0.82621300  1
  Ni  Ni20  1  0.14342700  0.44709200  0.01108200  1
  Ni  Ni21  1  0.35657300  0.94709200  0.51108200  1
  Ni  Ni22  1  0.55290800  0.14342700  0.98891800  1
  Ni  Ni23  1  0.94709200  0.64342700  0.48891800  1
  Ni  Ni24  1  0.85657300  0.55290800  0.01108200  1
  Ni  Ni25  1  0.64342700  0.05290800  0.51108200  1
  Ni  Ni26  1  0.44709200  0.85657300  0.98891800  1
  Ni  Ni27  1  0.05290800  0.35657300  0.48891800  1
  Ni  Ni28  1  0.18488500  0.51252700  0.96259900  1
  Ni  Ni29  1  0.31511500  0.01252700  0.46259900  1
  Ni  Ni30  1  0.48747300  0.18488500  0.03740100  1
  Ni  Ni31  1  0.01252700  0.68488500  0.53740100  1
  Ni  Ni32  1  0.81511500  0.48747300  0.96259900  1
  Ni  Ni33  1  0.68488500  0.98747300  0.46259900  1
  Ni  Ni34  1  0.51252700  0.81511500  0.03740100  1
  Ni  Ni35  1  0.98747300  0.31511500  0.53740100  1
  Ni  Ni36  1  0.28131200  0.62154200  0.85302400  1
  Ni  Ni37  1  0.21868800  0.12154200  0.35302400  1
  Ni  Ni38  1  0.37845800  0.28131200  0.14697600  1
  Ni  Ni39  1  0.12154200  0.78131200  0.64697600  1
  Ni  Ni40  1  0.71868800  0.37845800  0.85302400  1
  Ni  Ni41  1  0.78131200  0.87845800  0.35302400  1
  Ni  Ni42  1  0.62154200  0.71868800  0.14697600  1
  Ni  Ni43  1  0.87845800  0.21868800  0.64697600  1
  Cu  Cu44  1  0.25741000  0.24624100  0.59216600  1
  Cu  Cu45  1  0.24259000  0.74624100  0.09216600  1
  Cu  Cu46  1  0.75375900  0.25741000  0.40783400  1
  Cu  Cu47  1  0.74624100  0.75741000  0.90783400  1
  Cu  Cu48  1  0.74259000  0.75375900  0.59216600  1
  Cu  Cu49  1  0.75741000  0.25375900  0.09216600  1
  Cu  Cu50  1  0.24624100  0.74259000  0.40783400  1
  Cu  Cu51  1  0.25375900  0.24259000  0.90783400  1
  Cu  Cu52  1  0.42488700  0.07511300  0.75000000  1
  Cu  Cu53  1  0.07511300  0.57511300  0.25000000  1
  Cu  Cu54  1  0.92488700  0.42488700  0.25000000  1
  Cu  Cu55  1  0.57511300  0.92488700  0.75000000  1
  Cu  Cu56  1  0.53843400  0.63761800  0.78823700  1
  Cu  Cu57  1  0.96156600  0.13761800  0.28823700  1
  Cu  Cu58  1  0.36238200  0.53843400  0.21176300  1
  Cu  Cu59  1  0.13761800  0.03843400  0.71176300  1
  Cu  Cu60  1  0.46156600  0.36238200  0.78823700  1
  Cu  Cu61  1  0.03843400  0.86238200  0.28823700  1
  Cu  Cu62  1  0.63761800  0.46156600  0.21176300  1
  Cu  Cu63  1  0.86238200  0.96156600  0.71176300  1
  Cu  Cu64  1  0.31362800  0.54960900  0.61586700  1
  Cu  Cu65  1  0.18637200  0.04960900  0.11586700  1
  Cu  Cu66  1  0.45039100  0.31362800  0.38413300  1
  Cu  Cu67  1  0.04960900  0.81362800  0.88413300  1
  Cu  Cu68  1  0.68637200  0.45039100  0.61586700  1
  Cu  Cu69  1  0.81362800  0.95039100  0.11586700  1
  Cu  Cu70  1  0.54960900  0.68637200  0.38413300  1
  Cu  Cu71  1  0.95039100  0.18637200  0.88413300  1
  Cu  Cu72  1  0.38768500  0.85572800  0.58435300  1
  Cu  Cu73  1  0.11231500  0.35572800  0.08435300  1
  Cu  Cu74  1  0.14427200  0.38768500  0.41564700  1
  Cu  Cu75  1  0.35572800  0.88768500  0.91564700  1
  Cu  Cu76  1  0.61231500  0.14427200  0.58435300  1
  Cu  Cu77  1  0.88768500  0.64427200  0.08435300  1
  Cu  Cu78  1  0.85572800  0.61231500  0.41564700  1
  Cu  Cu79  1  0.64427200  0.11231500  0.91564700  1
  C  C80  1  0.23413000  0.57206000  0.90724000  1
  C  C81  1  0.26587000  0.07206000  0.40724000  1
  C  C82  1  0.42794000  0.23413000  0.09276000  1
  C  C83  1  0.07206000  0.73413000  0.59276000  1
  C  C84  1  0.76587000  0.42794000  0.90724000  1
  C  C85  1  0.73413000  0.92794000  0.40724000  1
  C  C86  1  0.57206000  0.76587000  0.09276000  1
  C  C87  1  0.92794000  0.26587000  0.59276000  1
  C  C88  1  0.63292300  0.47202100  0.41977600  1
  C  C89  1  0.86707700  0.97202100  0.91977600  1
  C  C90  1  0.52797900  0.63292300  0.58022400  1
  C  C91  1  0.97202100  0.13292300  0.08022400  1
  C  C92  1  0.36707700  0.52797900  0.41977600  1
  C  C93  1  0.13292300  0.02797900  0.91977600  1
  C  C94  1  0.47202100  0.36707700  0.58022400  1
  C  C95  1  0.02797900  0.86707700  0.08022400  1
