# generated using pymatgen
data_Cu5(NiC8)2
_symmetry_space_group_name_H-M   'P 1'
_cell_length_a   8.86290800
_cell_length_b   5.00743800
_cell_length_c   9.86533051
_cell_angle_alpha   78.99185764
_cell_angle_beta   90.00000000
_cell_angle_gamma   90.00000000
_symmetry_Int_Tables_number   1
_chemical_formula_structural   Cu5(NiC8)2
_chemical_formula_sum   'Cu10 Ni4 C32'
_cell_volume   429.77192034
_cell_formula_units_Z   2
loop_
 _symmetry_equiv_pos_site_id
 _symmetry_equiv_pos_as_xyz
  1  'x, y, z'
loop_
 _atom_site_type_symbol
 _atom_site_label
 _atom_site_symmetry_multiplicity
 _atom_site_fract_x
 _atom_site_fract_y
 _atom_site_fract_z
 _atom_site_occupancy
  C  C0  1  0.91278900  0.00124400  0.73946400  1
  C  C1  1  0.92472900  0.49334600  0.26151200  1
  C  C2  1  0.58029500  0.75840000  0.50454700  1
  C  C3  1  0.57523900  0.50772000  0.26283500  1
  C  C4  1  0.41278900  0.99875600  0.26053600  1
  C  C5  1  0.42472900  0.50665400  0.73848800  1
  C  C6  1  0.08029500  0.24160000  0.49545300  1
  C  C7  1  0.07523900  0.49228000  0.73716500  1
  Ni  Ni8  1  0.74683300  0.24912400  0.50276100  1
  Ni  Ni9  1  0.75011400  0.75151800  0.99827300  1
  Ni  Ni10  1  0.25011400  0.24848200  0.00172700  1
  Ni  Ni11  1  0.24683300  0.75087600  0.49723900  1
  Cu  Cu12  1  0.91960900  0.25670900  0.00338500  1
  Cu  Cu13  1  0.91908800  0.74970900  0.49756900  1
  Cu  Cu14  1  0.75010900  0.99505900  0.25866400  1
  Cu  Cu15  1  0.58228500  0.24546000  0.99883600  1
  Cu  Cu16  1  0.73662100  0.50718400  0.73923600  1
  Cu  Cu17  1  0.41908800  0.25029100  0.50243100  1
  Cu  Cu18  1  0.41960900  0.74329100  0.99661500  1
  Cu  Cu19  1  0.25010900  0.00494100  0.74133600  1
  Cu  Cu20  1  0.23662100  0.49281600  0.26076400  1
  Cu  Cu21  1  0.08228500  0.75454000  0.00116400  1
  C  C22  1  0.89833600  0.11487900  0.38999700  1
  C  C23  1  0.89985200  0.86968600  0.11217100  1
  C  C24  1  0.76769000  0.87390200  0.60939100  1
  C  C25  1  0.76470600  0.12138200  0.88660200  1
  C  C26  1  0.90098200  0.62877400  0.88105300  1
  C  C27  1  0.90309200  0.38515300  0.61316000  1
  C  C28  1  0.58819800  0.14532400  0.38722700  1
  C  C29  1  0.76403100  0.62027700  0.38588500  1
  C  C30  1  0.59426300  0.86006100  0.11627100  1
  C  C31  1  0.75594300  0.38329200  0.11653500  1
  C  C32  1  0.58828100  0.63299300  0.88925900  1
  C  C33  1  0.58873000  0.36963300  0.61121500  1
  C  C34  1  0.39985200  0.13031400  0.88782900  1
  C  C35  1  0.39833600  0.88512100  0.61000300  1
  C  C36  1  0.26769000  0.12609800  0.39060900  1
  C  C37  1  0.40309200  0.61484700  0.38684000  1
  C  C38  1  0.26470600  0.87861800  0.11339800  1
  C  C39  1  0.40098200  0.37122600  0.11894700  1
  C  C40  1  0.09426300  0.13993900  0.88372900  1
  C  C41  1  0.26403100  0.37972300  0.61411500  1
  C  C42  1  0.08819800  0.85467600  0.61277300  1
  C  C43  1  0.25594300  0.61670800  0.88346500  1
  C  C44  1  0.08873000  0.63036700  0.38878500  1
  C  C45  1  0.08828100  0.36700700  0.11074100  1
