# generated using pymatgen
data_CuNiC6
_symmetry_space_group_name_H-M   'P 1'
_cell_length_a   8.48676397
_cell_length_b   8.48676397
_cell_length_c   13.57042334
_cell_angle_alpha   76.12863819
_cell_angle_beta   76.12863819
_cell_angle_gamma   30.96295365
_symmetry_Int_Tables_number   1
_chemical_formula_structural   CuNiC6
_chemical_formula_sum   'Cu4 Ni4 C24'
_cell_volume   487.05399199
_cell_formula_units_Z   4
loop_
 _symmetry_equiv_pos_site_id
 _symmetry_equiv_pos_as_xyz
  1  'x, y, z'
loop_
 _atom_site_type_symbol
 _atom_site_label
 _atom_site_symmetry_multiplicity
 _atom_site_fract_x
 _atom_site_fract_y
 _atom_site_fract_z
 _atom_site_occupancy
  C  C0  1  0.12103800  0.12103800  0.72842800  1
  C  C1  1  0.87896200  0.87896200  0.27157200  1
  C  C2  1  0.79276000  0.13480800  0.61755400  1
  C  C3  1  0.13480800  0.79276000  0.61755400  1
  C  C4  1  0.20724000  0.86519200  0.38244600  1
  C  C5  1  0.86519200  0.20724000  0.38244600  1
  C  C6  1  0.93997900  0.28162900  0.97361300  1
  C  C7  1  0.28162900  0.93997900  0.97361300  1
  C  C8  1  0.06002100  0.71837100  0.02638700  1
  C  C9  1  0.71837100  0.06002100  0.02638700  1
  C  C10  1  0.76846800  0.76846800  0.74431100  1
  C  C11  1  0.23153200  0.23153200  0.25568900  1
  C  C12  1  0.72890400  0.72890400  0.86074100  1
  C  C13  1  0.27109600  0.27109600  0.13925900  1
  Ni  Ni14  1  0.34130900  0.34130900  0.50414500  1
  Ni  Ni15  1  0.65869100  0.65869100  0.49585500  1
  Ni  Ni16  1  0.43527900  0.43527900  0.85142600  1
  Ni  Ni17  1  0.56472100  0.56472100  0.14857400  1
  Cu  Cu18  1  0.34500800  0.34500800  0.62356600  1
  Cu  Cu19  1  0.65499200  0.65499200  0.37643400  1
  Cu  Cu20  1  0.33662300  0.33662300  0.91626600  1
  Cu  Cu21  1  0.66337700  0.66337700  0.08373400  1
  C  C22  1  0.33901800  0.33901800  0.41722100  1
  C  C23  1  0.66098200  0.66098200  0.58277900  1
  C  C24  1  0.50718400  0.50718400  0.80453700  1
  C  C25  1  0.49281600  0.49281600  0.19546300  1
  C  C26  1  0.99915800  0.99915800  0.62332500  1
  C  C27  1  0.00084200  0.00084200  0.37667500  1
  C  C28  1  0.09973100  0.09973100  0.93448900  1
  C  C29  1  0.90026900  0.90026900  0.06551100  1
  C  C30  1  0.71427100  0.71427100  0.79502500  1
  C  C31  1  0.28572900  0.28572900  0.20497500  1
