# generated using pymatgen
data_Cu(Ni5C8)3
_symmetry_space_group_name_H-M   'P 1'
_cell_length_a   9.26196157
_cell_length_b   9.26196157
_cell_length_c   10.69036439
_cell_angle_alpha   54.72515955
_cell_angle_beta   54.72515955
_cell_angle_gamma   70.51988475
_symmetry_Int_Tables_number   1
_chemical_formula_structural   Cu(Ni5C8)3
_chemical_formula_sum   'Cu1 Ni15 C24'
_cell_volume   611.21661301
_cell_formula_units_Z   1
loop_
 _symmetry_equiv_pos_site_id
 _symmetry_equiv_pos_as_xyz
  1  'x, y, z'
loop_
 _atom_site_type_symbol
 _atom_site_label
 _atom_site_symmetry_multiplicity
 _atom_site_fract_x
 _atom_site_fract_y
 _atom_site_fract_z
 _atom_site_occupancy
  Ni  Ni0  1  0.00035000  0.99961000  0.74958000  1
  Ni  Ni1  1  0.78314300  0.21685700  0.00000000  1
  Ni  Ni2  1  0.24992400  0.25082300  0.78262700  1
  Ni  Ni3  1  0.74917700  0.75007600  0.21737300  1
  Ni  Ni4  1  0.96731300  0.46729800  0.53298500  1
  Ni  Ni5  1  0.46633800  0.96658800  0.03403500  1
  Ni  Ni6  1  0.00039000  0.99965000  0.25042000  1
  Ni  Ni7  1  0.71697100  0.28302900  0.50000000  1
  Ni  Ni8  1  0.49941100  0.50025800  0.25055100  1
  Ni  Ni9  1  0.28304900  0.71695100  0.00000000  1
  Ni  Ni10  1  0.49974200  0.50058900  0.74944900  1
  Ni  Ni11  1  0.53270200  0.03268700  0.46701500  1
  Ni  Ni12  1  0.03341200  0.53366200  0.96596500  1
  Ni  Ni13  1  0.75076100  0.75002000  0.71667400  1
  Ni  Ni14  1  0.24998000  0.24923900  0.28332600  1
  Cu  Cu15  1  0.21631600  0.78368400  0.50000000  1
  C  C16  1  0.51050100  0.22942400  0.78210700  1
  C  C17  1  0.72911100  0.01064100  0.97802400  1
  C  C18  1  0.95981400  0.76168600  0.75796500  1
  C  C19  1  0.76132900  0.95709600  0.26089600  1
  C  C20  1  0.73907800  0.54287200  0.47910900  1
  C  C21  1  0.54310900  0.73887500  0.97928300  1
  C  C22  1  0.77057600  0.48949900  0.21789300  1
  C  C23  1  0.98935900  0.27088900  0.02197600  1
  C  C24  1  0.22805600  0.96817300  0.01104600  1
  C  C25  1  0.72796700  0.46816900  0.79267200  1
  C  C26  1  0.46468200  0.72849300  0.29581200  1
  C  C27  1  0.96805700  0.22814700  0.51115500  1
  C  C28  1  0.53183100  0.27203300  0.20732800  1
  C  C29  1  0.77185300  0.03194300  0.48884500  1
  C  C30  1  0.27150700  0.53531800  0.70418800  1
  C  C31  1  0.03182700  0.77194400  0.98895400  1
  C  C32  1  0.22919800  0.51076100  0.28189900  1
  C  C33  1  0.01365100  0.72919500  0.47852500  1
  C  C34  1  0.45712800  0.26092200  0.52089100  1
  C  C35  1  0.26112500  0.45689100  0.02071700  1
  C  C36  1  0.04290400  0.23867100  0.73910400  1
  C  C37  1  0.23831400  0.04018600  0.24203500  1
  C  C38  1  0.48923900  0.77080200  0.71810100  1
  C  C39  1  0.27080500  0.98634900  0.52147500  1
