# generated using pymatgen
data_Cu9Ni3C19
_symmetry_space_group_name_H-M   'P 1'
_cell_length_a   8.16604300
_cell_length_b   9.04909100
_cell_length_c   11.69050600
_cell_angle_alpha   90.00000000
_cell_angle_beta   90.00000000
_cell_angle_gamma   90.00000000
_symmetry_Int_Tables_number   1
_chemical_formula_structural   Cu9Ni3C19
_chemical_formula_sum   'Cu18 Ni6 C38'
_cell_volume   863.87305308
_cell_formula_units_Z   2
loop_
 _symmetry_equiv_pos_site_id
 _symmetry_equiv_pos_as_xyz
  1  'x, y, z'
loop_
 _atom_site_type_symbol
 _atom_site_label
 _atom_site_symmetry_multiplicity
 _atom_site_fract_x
 _atom_site_fract_y
 _atom_site_fract_z
 _atom_site_occupancy
  C  C0  1  0.00000000  0.66061400  0.50000000  1
  C  C1  1  0.50000000  0.33938600  0.00000000  1
  C  C2  1  0.72187900  0.47719900  0.59630700  1
  C  C3  1  0.72187900  0.47719900  0.40369300  1
  C  C4  1  0.27812100  0.47719900  0.59630700  1
  C  C5  1  0.27812100  0.47719900  0.40369300  1
  C  C6  1  0.77812100  0.52280100  0.90369300  1
  C  C7  1  0.77812100  0.52280100  0.09630700  1
  C  C8  1  0.22187900  0.52280100  0.90369300  1
  C  C9  1  0.22187900  0.52280100  0.09630700  1
  C  C10  1  0.70635700  0.62643500  0.66339500  1
  C  C11  1  0.70635700  0.62643500  0.33660500  1
  C  C12  1  0.29364300  0.62643500  0.66339500  1
  C  C13  1  0.29364300  0.62643500  0.33660500  1
  C  C14  1  0.79364300  0.37356500  0.83660500  1
  C  C15  1  0.79364300  0.37356500  0.16339500  1
  C  C16  1  0.20635700  0.37356500  0.83660500  1
  C  C17  1  0.20635700  0.37356500  0.16339500  1
  C  C18  1  0.00000000  0.32163500  0.43192300  1
  C  C19  1  0.00000000  0.32163500  0.56807700  1
  C  C20  1  0.50000000  0.67836500  0.06807700  1
  C  C21  1  0.50000000  0.67836500  0.93192300  1
  C  C22  1  0.27427900  0.87165300  0.43336800  1
  C  C23  1  0.27427900  0.87165300  0.56663200  1
  C  C24  1  0.72572100  0.87165300  0.43336800  1
  C  C25  1  0.72572100  0.87165300  0.56663200  1
  C  C26  1  0.22572100  0.12834700  0.06663200  1
  C  C27  1  0.22572100  0.12834700  0.93336800  1
  C  C28  1  0.77427900  0.12834700  0.06663200  1
  C  C29  1  0.77427900  0.12834700  0.93336800  1
  C  C30  1  0.00000000  0.89987400  0.70446500  1
  C  C31  1  0.00000000  0.89987400  0.29553500  1
  C  C32  1  0.50000000  0.10012600  0.79553500  1
  C  C33  1  0.50000000  0.10012600  0.20446500  1
  C  C34  1  0.00000000  0.74508900  0.76380600  1
  C  C35  1  0.00000000  0.74508900  0.23619400  1
  C  C36  1  0.50000000  0.25491100  0.73619400  1
  C  C37  1  0.50000000  0.25491100  0.26380600  1
  Ni  Ni38  1  0.50000000  0.82431000  0.73557400  1
  Ni  Ni39  1  0.50000000  0.82431000  0.26442600  1
  Ni  Ni40  1  0.00000000  0.17569000  0.76442600  1
  Ni  Ni41  1  0.00000000  0.17569000  0.23557400  1
  Ni  Ni42  1  0.00000000  0.69486400  0.00000000  1
  Ni  Ni43  1  0.50000000  0.30513600  0.50000000  1
  Cu  Cu44  1  0.78653000  0.56113900  0.62547900  1
  Cu  Cu45  1  0.78653000  0.56113900  0.37452100  1
  Cu  Cu46  1  0.21347000  0.56113900  0.62547900  1
  Cu  Cu47  1  0.21347000  0.56113900  0.37452100  1
  Cu  Cu48  1  0.71347000  0.43886100  0.87452100  1
  Cu  Cu49  1  0.71347000  0.43886100  0.12547900  1
  Cu  Cu50  1  0.28653000  0.43886100  0.87452100  1
  Cu  Cu51  1  0.28653000  0.43886100  0.12547900  1
  Cu  Cu52  1  0.00000000  0.38571700  0.50000000  1
  Cu  Cu53  1  0.50000000  0.61428300  0.00000000  1
  Cu  Cu54  1  0.20163000  0.86191800  0.50000000  1
  Cu  Cu55  1  0.79837000  0.86191800  0.50000000  1
  Cu  Cu56  1  0.29837000  0.13808200  0.00000000  1
  Cu  Cu57  1  0.70163000  0.13808200  0.00000000  1
  Cu  Cu58  1  0.00000000  0.79281500  0.68857200  1
  Cu  Cu59  1  0.00000000  0.79281500  0.31142800  1
  Cu  Cu60  1  0.50000000  0.20718500  0.81142800  1
  Cu  Cu61  1  0.50000000  0.20718500  0.18857200  1
