# generated using pymatgen
data_Cu2NiC6
_symmetry_space_group_name_H-M   'P 1'
_cell_length_a   4.94403911
_cell_length_b   4.94403911
_cell_length_c   9.71932900
_cell_angle_alpha   90.00000000
_cell_angle_beta   90.00000000
_cell_angle_gamma   118.99848064
_symmetry_Int_Tables_number   1
_chemical_formula_structural   Cu2NiC6
_chemical_formula_sum   'Cu4 Ni2 C12'
_cell_volume   207.79051593
_cell_formula_units_Z   2
loop_
 _symmetry_equiv_pos_site_id
 _symmetry_equiv_pos_as_xyz
  1  'x, y, z'
loop_
 _atom_site_type_symbol
 _atom_site_label
 _atom_site_symmetry_multiplicity
 _atom_site_fract_x
 _atom_site_fract_y
 _atom_site_fract_z
 _atom_site_occupancy
  Ni  Ni0  1  0.00000000  0.00000000  0.00000000  1
  Ni  Ni1  1  0.50000000  0.50000000  0.50000000  1
  Cu  Cu2  1  0.83394800  0.16605200  0.50000000  1
  Cu  Cu3  1  0.66605200  0.33394800  0.00000000  1
  Cu  Cu4  1  0.33394800  0.66605200  0.00000000  1
  Cu  Cu5  1  0.16605200  0.83394800  0.50000000  1
  C  C6  1  0.66116200  0.99790200  0.09735800  1
  C  C7  1  0.33883800  0.00209800  0.90264200  1
  C  C8  1  0.49790200  0.16116200  0.40264200  1
  C  C9  1  0.83883800  0.50209800  0.59735800  1
  C  C10  1  0.15760300  0.15760300  0.59841500  1
  C  C11  1  0.34239700  0.34239700  0.09841500  1
  C  C12  1  0.65760300  0.65760300  0.90158500  1
  C  C13  1  0.00209800  0.33883800  0.90264200  1
  C  C14  1  0.84239700  0.84239700  0.40158500  1
  C  C15  1  0.16116200  0.49790200  0.40264200  1
  C  C16  1  0.50209800  0.83883800  0.59735800  1
  C  C17  1  0.99790200  0.66116200  0.09735800  1
