# generated using pymatgen
data_Cu2Ni2C7
_symmetry_space_group_name_H-M   'P 1'
_cell_length_a   7.31417100
_cell_length_b   7.31417100
_cell_length_c   12.52360600
_cell_angle_alpha   90.00000000
_cell_angle_beta   90.00000000
_cell_angle_gamma   90.00000000
_symmetry_Int_Tables_number   1
_chemical_formula_structural   Cu2Ni2C7
_chemical_formula_sum   'Cu8 Ni8 C28'
_cell_volume   669.97657020
_cell_formula_units_Z   4
loop_
 _symmetry_equiv_pos_site_id
 _symmetry_equiv_pos_as_xyz
  1  'x, y, z'
loop_
 _atom_site_type_symbol
 _atom_site_label
 _atom_site_symmetry_multiplicity
 _atom_site_fract_x
 _atom_site_fract_y
 _atom_site_fract_z
 _atom_site_occupancy
  Ni  Ni0  1  0.13698300  0.62534200  0.13405800  1
  Ni  Ni1  1  0.12534200  0.36301700  0.88405800  1
  Ni  Ni2  1  0.37465800  0.86301700  0.36594200  1
  Ni  Ni3  1  0.36301700  0.12534200  0.11594200  1
  Ni  Ni4  1  0.63698300  0.87465800  0.61594200  1
  Ni  Ni5  1  0.62534200  0.13698300  0.86594200  1
  Ni  Ni6  1  0.87465800  0.63698300  0.38405800  1
  Ni  Ni7  1  0.86301700  0.37465800  0.63405800  1
  Cu  Cu8  1  0.09897500  0.87160700  0.59465200  1
  Cu  Cu9  1  0.12839300  0.90102500  0.90534800  1
  Cu  Cu10  1  0.37160700  0.40102500  0.34465200  1
  Cu  Cu11  1  0.40102500  0.37160700  0.65534800  1
  Cu  Cu12  1  0.59897500  0.62839300  0.15534800  1
  Cu  Cu13  1  0.62839300  0.59897500  0.84465200  1
  Cu  Cu14  1  0.87160700  0.09897500  0.40534800  1
  Cu  Cu15  1  0.90102500  0.12839300  0.09465200  1
  C  C16  1  0.06971500  0.90893100  0.41532800  1
  C  C17  1  0.08177000  0.32593500  0.07379900  1
  C  C18  1  0.09106900  0.93028500  0.08467200  1
  C  C19  1  0.15290900  0.64028300  0.95306500  1
  C  C20  1  0.17406500  0.58177000  0.32379900  1
  C  C21  1  0.14028300  0.34709100  0.70306500  1
  C  C22  1  0.14318800  0.85681200  0.75000000  1
  C  C23  1  0.35681200  0.35681200  0.50000000  1
  C  C24  1  0.35971700  0.84709100  0.54693500  1
  C  C25  1  0.32593500  0.08177000  0.92620100  1
  C  C26  1  0.34709100  0.14028300  0.29693500  1
  C  C27  1  0.40893100  0.43028500  0.16532800  1
  C  C28  1  0.41823000  0.82593500  0.17620100  1
  C  C29  1  0.43028500  0.40893100  0.83467200  1
  C  C30  1  0.56971500  0.59106900  0.33467200  1
  C  C31  1  0.58177000  0.17406500  0.67620100  1
  C  C32  1  0.59106900  0.56971500  0.66532800  1
  C  C33  1  0.65290900  0.85971700  0.79693500  1
  C  C34  1  0.67406500  0.91823000  0.42620100  1
  C  C35  1  0.64028300  0.15290900  0.04693500  1
  C  C36  1  0.64318800  0.64318800  0.00000000  1
  C  C37  1  0.85681200  0.14318800  0.25000000  1
  C  C38  1  0.85971700  0.65290900  0.20306500  1
  C  C39  1  0.82593500  0.41823000  0.82379900  1
  C  C40  1  0.84709100  0.35971700  0.45306500  1
  C  C41  1  0.90893100  0.06971500  0.58467200  1
  C  C42  1  0.91823000  0.67406500  0.57379900  1
  C  C43  1  0.93028500  0.09106900  0.91532800  1
