# generated using pymatgen
data_Cu15NiC15
_symmetry_space_group_name_H-M   'P 1'
_cell_length_a   21.62433900
_cell_length_b   6.46524800
_cell_length_c   8.66615389
_cell_angle_alpha   70.31464387
_cell_angle_beta   90.00000000
_cell_angle_gamma   90.00000000
_symmetry_Int_Tables_number   1
_chemical_formula_structural   Cu15NiC15
_chemical_formula_sum   'Cu60 Ni4 C60'
_cell_volume   1140.77735290
_cell_formula_units_Z   4
loop_
 _symmetry_equiv_pos_site_id
 _symmetry_equiv_pos_as_xyz
  1  'x, y, z'
loop_
 _atom_site_type_symbol
 _atom_site_label
 _atom_site_symmetry_multiplicity
 _atom_site_fract_x
 _atom_site_fract_y
 _atom_site_fract_z
 _atom_site_occupancy
  C  C0  1  0.30795600  0.53068300  0.72939500  1
  C  C1  1  0.80795600  0.96931700  0.27060500  1
  C  C2  1  0.69204400  0.46931700  0.27060500  1
  C  C3  1  0.19204400  0.03068300  0.72939500  1
  C  C4  1  0.47108700  0.52237200  0.80724100  1
  C  C5  1  0.97108700  0.97762800  0.19275900  1
  C  C6  1  0.52891300  0.47762800  0.19275900  1
  C  C7  1  0.02891300  0.02237200  0.80724100  1
  C  C8  1  0.75495100  0.99575700  0.63516400  1
  C  C9  1  0.25495100  0.50424300  0.36483600  1
  C  C10  1  0.24504900  0.00424300  0.36483600  1
  C  C11  1  0.74504900  0.49575700  0.63516400  1
  Ni  Ni12  1  0.64341200  0.13693400  0.81301800  1
  Ni  Ni13  1  0.14341200  0.36306600  0.18698200  1
  Ni  Ni14  1  0.35658800  0.86306600  0.18698200  1
  Ni  Ni15  1  0.85658800  0.63693400  0.81301800  1
  Cu  Cu16  1  0.29865500  0.80520700  0.92662200  1
  Cu  Cu17  1  0.79865500  0.69479300  0.07337800  1
  Cu  Cu18  1  0.70134500  0.19479300  0.07337800  1
  Cu  Cu19  1  0.20134500  0.30520700  0.92662200  1
  Cu  Cu20  1  0.24070600  0.65533700  0.98329900  1
  Cu  Cu21  1  0.74070600  0.84466300  0.01670100  1
  Cu  Cu22  1  0.75929400  0.34466300  0.01670100  1
  Cu  Cu23  1  0.25929400  0.15533700  0.98329900  1
  Cu  Cu24  1  0.37300400  0.56987000  0.01023000  1
  Cu  Cu25  1  0.87300400  0.93013000  0.98977000  1
  Cu  Cu26  1  0.62699600  0.43013000  0.98977000  1
  Cu  Cu27  1  0.12699600  0.06987000  0.01023000  1
  Cu  Cu28  1  0.35336900  0.32431300  0.04872000  1
  Cu  Cu29  1  0.85336900  0.17568700  0.95128000  1
  Cu  Cu30  1  0.64663100  0.67568700  0.95128000  1
  Cu  Cu31  1  0.14663100  0.82431300  0.04872000  1
  Cu  Cu32  1  0.36082000  0.08129300  0.82549000  1
  Cu  Cu33  1  0.86082000  0.41870700  0.17451000  1
  Cu  Cu34  1  0.63918000  0.91870700  0.17451000  1
  Cu  Cu35  1  0.13918000  0.58129300  0.82549000  1
  Cu  Cu36  1  0.40443100  0.21902600  0.68294500  1
  Cu  Cu37  1  0.90443100  0.28097400  0.31705500  1
  Cu  Cu38  1  0.59556900  0.78097400  0.31705500  1
  Cu  Cu39  1  0.09556900  0.71902600  0.68294500  1
  Cu  Cu40  1  0.47205700  0.31308400  0.52580300  1
  Cu  Cu41  1  0.97205700  0.18691600  0.47419700  1
  Cu  Cu42  1  0.52794300  0.68691600  0.47419700  1
  Cu  Cu43  1  0.02794300  0.81308400  0.52580300  1
  Cu  Cu44  1  0.51873900  0.21048700  0.67540000  1
  Cu  Cu45  1  0.01873900  0.28951300  0.32460000  1
  Cu  Cu46  1  0.48126100  0.78951300  0.32460000  1
  Cu  Cu47  1  0.98126100  0.71048700  0.67540000  1
  Cu  Cu48  1  0.45007700  0.84200300  0.96663700  1
  Cu  Cu49  1  0.95007700  0.65799700  0.03336300  1
  Cu  Cu50  1  0.54992300  0.15799700  0.03336300  1
  Cu  Cu51  1  0.04992300  0.34200300  0.96663700  1
  Cu  Cu52  1  0.51881400  0.88355900  0.89394500  1
  Cu  Cu53  1  0.01881400  0.61644100  0.10605500  1
  Cu  Cu54  1  0.48118600  0.11644100  0.10605500  1
  Cu  Cu55  1  0.98118600  0.38355900  0.89394500  1
  Cu  Cu56  1  0.38634200  0.90533000  0.64189100  1
  Cu  Cu57  1  0.88634200  0.59467000  0.35810900  1
  Cu  Cu58  1  0.61365800  0.09467000  0.35810900  1
  Cu  Cu59  1  0.11365800  0.40533000  0.64189100  1
  Cu  Cu60  1  0.40037400  0.82062400  0.49590300  1
  Cu  Cu61  1  0.90037400  0.67937600  0.50409700  1
  Cu  Cu62  1  0.59962600  0.17937600  0.50409700  1
  Cu  Cu63  1  0.09962600  0.32062400  0.49590300  1
  Cu  Cu64  1  0.39965200  0.42035400  0.31762000  1
  Cu  Cu65  1  0.89965200  0.07964600  0.68238000  1
  Cu  Cu66  1  0.60034800  0.57964600  0.68238000  1
  Cu  Cu67  1  0.10034800  0.92035400  0.31762000  1
  Cu  Cu68  1  0.42232400  0.18513600  0.31704700  1
  Cu  Cu69  1  0.92232400  0.31486400  0.68295300  1
  Cu  Cu70  1  0.57767600  0.81486400  0.68295300  1
  Cu  Cu71  1  0.07767600  0.68513600  0.31704700  1
  Cu  Cu72  1  0.30056300  0.16827300  0.56387300  1
  Cu  Cu73  1  0.80056300  0.33172700  0.43612700  1
  Cu  Cu74  1  0.69943700  0.83172700  0.43612700  1
  Cu  Cu75  1  0.19943700  0.66827300  0.56387300  1
  C  C76  1  0.73821500  0.80972900  0.50007700  1
  C  C77  1  0.23821500  0.69027100  0.49992300  1
  C  C78  1  0.26178500  0.19027100  0.49992300  1
  C  C79  1  0.76178500  0.30972900  0.50007700  1
  C  C80  1  0.69866500  0.97557500  0.82100900  1
  C  C81  1  0.19866500  0.52442500  0.17899100  1
  C  C82  1  0.30133500  0.02442500  0.17899100  1
  C  C83  1  0.80133500  0.47557500  0.82100900  1
  C  C84  1  0.83798800  0.87943000  0.71612300  1
  C  C85  1  0.33798800  0.62057000  0.28387700  1
  C  C86  1  0.16201200  0.12057000  0.28387700  1
  C  C87  1  0.66201200  0.37943000  0.71612300  1
  C  C88  1  0.58735000  0.07074500  0.72800800  1
  C  C89  1  0.08735000  0.42925500  0.27199200  1
  C  C90  1  0.41265000  0.92925500  0.27199200  1
  C  C91  1  0.91265000  0.57074500  0.72800800  1
  C  C92  1  0.62802400  0.12190600  0.99175700  1
  C  C93  1  0.12802400  0.37809400  0.00824300  1
  C  C94  1  0.37197600  0.87809400  0.00824300  1
  C  C95  1  0.87197600  0.62190600  0.99175700  1
  C  C96  1  0.26198900  0.75102400  0.88368700  1
  C  C97  1  0.76198900  0.74897600  0.11631300  1
  C  C98  1  0.73801100  0.24897600  0.11631300  1
  C  C99  1  0.23801100  0.25102400  0.88368700  1
  C  C100  1  0.37510500  0.44602300  0.96842600  1
  C  C101  1  0.87510500  0.05397700  0.03157400  1
  C  C102  1  0.62489500  0.55397700  0.03157400  1
  C  C103  1  0.12489500  0.94602300  0.96842600  1
  C  C104  1  0.36049600  0.17184400  0.70645300  1
  C  C105  1  0.86049600  0.32815600  0.29354700  1
  C  C106  1  0.63950400  0.82815600  0.29354700  1
  C  C107  1  0.13950400  0.67184400  0.70645300  1
  C  C108  1  0.47899600  0.29308100  0.64301600  1
  C  C109  1  0.97899600  0.20691900  0.35698400  1
  C  C110  1  0.52100400  0.70691900  0.35698400  1
  C  C111  1  0.02100400  0.79308100  0.64301600  1
  C  C112  1  0.48937900  0.76962800  0.95505400  1
  C  C113  1  0.98937900  0.73037200  0.04494600  1
  C  C114  1  0.51062100  0.23037200  0.04494600  1
  C  C115  1  0.01062100  0.26962800  0.95505400  1
  C  C116  1  0.39427300  0.77056800  0.61654600  1
  C  C117  1  0.89427300  0.72943200  0.38345400  1
  C  C118  1  0.60572700  0.22943200  0.38345400  1
  C  C119  1  0.10572700  0.27056800  0.61654600  1
  C  C120  1  0.43549200  0.31861500  0.34003800  1
  C  C121  1  0.93549200  0.18138500  0.65996200  1
  C  C122  1  0.56450800  0.68138500  0.65996200  1
  C  C123  1  0.06450800  0.81861500  0.34003800  1
