# generated using pymatgen
data_Cu3NiC40
_symmetry_space_group_name_H-M   'P 1'
_cell_length_a   9.60425147
_cell_length_b   9.64822939
_cell_length_c   7.05813807
_cell_angle_alpha   99.93165927
_cell_angle_beta   98.82486853
_cell_angle_gamma   119.12948515
_symmetry_Int_Tables_number   1
_chemical_formula_structural   Cu3NiC40
_chemical_formula_sum   'Cu3 Ni1 C40'
_cell_volume   540.91405449
_cell_formula_units_Z   1
loop_
 _symmetry_equiv_pos_site_id
 _symmetry_equiv_pos_as_xyz
  1  'x, y, z'
loop_
 _atom_site_type_symbol
 _atom_site_label
 _atom_site_symmetry_multiplicity
 _atom_site_fract_x
 _atom_site_fract_y
 _atom_site_fract_z
 _atom_site_occupancy
  C  C0  1  0.15893000  0.01960500  0.67504500  1
  C  C1  1  0.73063400  0.09023800  0.32680000  1
  C  C2  1  0.23285000  0.59275200  0.32802600  1
  C  C3  1  0.65568000  0.51661000  0.67141700  1
  Ni  Ni4  1  0.39319300  0.39175700  0.26711400  1
  Cu  Cu5  1  0.85664100  0.35611900  0.72698900  1
  Cu  Cu6  1  0.35794400  0.85716500  0.72770100  1
  Cu  Cu7  1  0.89345500  0.89305200  0.27247100  1
  C  C8  1  0.11138800  0.29058100  0.52230900  1
  C  C9  1  0.75125500  0.03539600  0.91443900  1
  C  C10  1  0.24928400  0.53768700  0.91221600  1
  C  C11  1  0.46017800  0.14139200  0.48214700  1
  C  C12  1  0.61081100  0.78899800  0.52227200  1
  C  C13  1  0.71479800  0.49904800  0.08738100  1
  C  C14  1  0.21677600  0.00017600  0.08868900  1
  C  C15  1  0.95964400  0.64062800  0.47753900  1
  C  C16  1  0.07511400  0.11308500  0.48355100  1
  C  C17  1  0.35831200  0.03365700  0.60446200  1
  C  C18  1  0.58310000  0.01591800  0.91628000  1
  C  C19  1  0.08022500  0.51763700  0.90966400  1
  C  C20  1  0.22095800  0.37563400  0.75310400  1
  C  C21  1  0.37686200  0.03237000  0.24922600  1
  C  C22  1  0.23445700  0.16720500  0.08564300  1
  C  C23  1  0.21246600  0.38832500  0.39152900  1
  C  C24  1  0.45536700  0.29820400  0.50477700  1
  C  C25  1  0.13685200  0.67600500  0.51510500  1
  C  C26  1  0.63680800  0.17411100  0.51782400  1
  C  C27  1  0.86174500  0.18734900  0.85247000  1
  C  C28  1  0.35954400  0.68583000  0.84373300  1
  C  C29  1  0.21960600  0.91459100  0.88803100  1
  C  C30  1  0.72141200  0.41768400  0.88726500  1
  C  C31  1  0.33196300  0.53866300  0.11383500  1
  C  C32  1  0.83375300  0.03074800  0.11353800  1
  C  C33  1  0.06399400  0.88896700  0.15027300  1
  C  C34  1  0.55914500  0.38321900  0.14287100  1
  C  C35  1  0.57544300  0.61146600  0.47968600  1
  C  C36  1  0.45367000  0.79512300  0.50724200  1
  C  C37  1  0.95273800  0.29465900  0.50631700  1
  C  C38  1  0.85903400  0.53688700  0.60373400  1
  C  C39  1  0.72252400  0.87444800  0.75212900  1
  C  C40  1  0.87451600  0.52827700  0.24709600  1
  C  C41  1  0.73250200  0.66612000  0.08851900  1
  C  C42  1  0.71429400  0.89015200  0.39604400  1
  C  C43  1  0.95456000  0.79805100  0.49349600  1
