# generated using pymatgen
data_Cu(Ni6C5)2
_symmetry_space_group_name_H-M   'P 1'
_cell_length_a   8.50484900
_cell_length_b   8.50484900
_cell_length_c   8.50484900
_cell_angle_alpha   90.00000000
_cell_angle_beta   90.00000000
_cell_angle_gamma   90.00000000
_symmetry_Int_Tables_number   1
_chemical_formula_structural   Cu(Ni6C5)2
_chemical_formula_sum   'Cu2 Ni24 C20'
_cell_volume   615.17662044
_cell_formula_units_Z   2
loop_
 _symmetry_equiv_pos_site_id
 _symmetry_equiv_pos_as_xyz
  1  'x, y, z'
loop_
 _atom_site_type_symbol
 _atom_site_label
 _atom_site_symmetry_multiplicity
 _atom_site_fract_x
 _atom_site_fract_y
 _atom_site_fract_z
 _atom_site_occupancy
  C  C0  1  0.14235400  0.14235400  0.14235400  1
  C  C1  1  0.14235400  0.85764600  0.85764600  1
  C  C2  1  0.35764600  0.35764600  0.64235400  1
  C  C3  1  0.35764600  0.64235400  0.35764600  1
  C  C4  1  0.64235400  0.35764600  0.35764600  1
  C  C5  1  0.64235400  0.64235400  0.64235400  1
  C  C6  1  0.85764600  0.14235400  0.85764600  1
  C  C7  1  0.85764600  0.85764600  0.14235400  1
  C  C8  1  0.00000000  0.50000000  0.25000000  1
  C  C9  1  0.00000000  0.50000000  0.75000000  1
  C  C10  1  0.25000000  0.00000000  0.50000000  1
  C  C11  1  0.50000000  0.25000000  0.00000000  1
  C  C12  1  0.50000000  0.75000000  0.00000000  1
  C  C13  1  0.75000000  0.00000000  0.50000000  1
  C  C14  1  0.00000000  0.25000000  0.50000000  1
  C  C15  1  0.00000000  0.75000000  0.50000000  1
  C  C16  1  0.25000000  0.50000000  0.00000000  1
  C  C17  1  0.50000000  0.00000000  0.25000000  1
  C  C18  1  0.50000000  0.00000000  0.75000000  1
  C  C19  1  0.75000000  0.50000000  0.00000000  1
  Ni  Ni20  1  0.11792900  0.35125200  0.59683600  1
  Ni  Ni21  1  0.11792900  0.64874800  0.40316400  1
  Ni  Ni22  1  0.09683600  0.14874800  0.38207100  1
  Ni  Ni23  1  0.09683600  0.85125200  0.61792900  1
  Ni  Ni24  1  0.14874800  0.38207100  0.09683600  1
  Ni  Ni25  1  0.14874800  0.61792900  0.90316400  1
  Ni  Ni26  1  0.35125200  0.40316400  0.88207100  1
  Ni  Ni27  1  0.35125200  0.59683600  0.11792900  1
  Ni  Ni28  1  0.40316400  0.11792900  0.64874800  1
  Ni  Ni29  1  0.40316400  0.88207100  0.35125200  1
  Ni  Ni30  1  0.38207100  0.09683600  0.14874800  1
  Ni  Ni31  1  0.38207100  0.90316400  0.85125200  1
  Ni  Ni32  1  0.61792900  0.09683600  0.85125200  1
  Ni  Ni33  1  0.61792900  0.90316400  0.14874800  1
  Ni  Ni34  1  0.59683600  0.88207100  0.64874800  1
  Ni  Ni35  1  0.59683600  0.11792900  0.35125200  1
  Ni  Ni36  1  0.64874800  0.59683600  0.88207100  1
  Ni  Ni37  1  0.64874800  0.40316400  0.11792900  1
  Ni  Ni38  1  0.85125200  0.38207100  0.90316400  1
  Ni  Ni39  1  0.85125200  0.61792900  0.09683600  1
  Ni  Ni40  1  0.90316400  0.14874800  0.61792900  1
  Ni  Ni41  1  0.90316400  0.85125200  0.38207100  1
  Ni  Ni42  1  0.88207100  0.35125200  0.40316400  1
  Ni  Ni43  1  0.88207100  0.64874800  0.59683600  1
  Cu  Cu44  1  0.00000000  0.00000000  0.00000000  1
  Cu  Cu45  1  0.50000000  0.50000000  0.50000000  1
