# generated using pymatgen
data_Cu(NiC12)3
_symmetry_space_group_name_H-M   'P 1'
_cell_length_a   8.56982600
_cell_length_b   8.61649862
_cell_length_c   8.62246275
_cell_angle_alpha   61.70081561
_cell_angle_beta   61.67502352
_cell_angle_gamma   61.84759922
_symmetry_Int_Tables_number   1
_chemical_formula_structural   Cu(NiC12)3
_chemical_formula_sum   'Cu1 Ni3 C36'
_cell_volume   467.77815086
_cell_formula_units_Z   1
loop_
 _symmetry_equiv_pos_site_id
 _symmetry_equiv_pos_as_xyz
  1  'x, y, z'
loop_
 _atom_site_type_symbol
 _atom_site_label
 _atom_site_symmetry_multiplicity
 _atom_site_fract_x
 _atom_site_fract_y
 _atom_site_fract_z
 _atom_site_occupancy
  C  C0  1  0.98013300  0.01120800  0.99889800  1
  C  C1  1  0.24584800  0.65078100  0.85223500  1
  C  C2  1  0.51949200  0.50492700  0.48948300  1
  C  C3  1  0.78023700  0.34168100  0.15308500  1
  C  C4  1  0.33786800  0.15511800  0.77895700  1
  C  C5  1  0.15721400  0.78207100  0.34028000  1
  Ni  Ni6  1  0.85498000  0.86074200  0.85315400  1
  Ni  Ni7  1  0.64538600  0.64706000  0.63985200  1
  Ni  Ni8  1  0.35408600  0.35218100  0.35455100  1
  Cu  Cu9  1  0.14490200  0.14638500  0.14697100  1
  C  C10  1  0.94914100  0.54691400  0.24969400  1
  C  C11  1  0.54766700  0.25040700  0.94940600  1
  C  C12  1  0.25050800  0.95073500  0.54359400  1
  C  C13  1  0.74948900  0.04271200  0.45619700  1
  C  C14  1  0.45424500  0.74882900  0.03761600  1
  C  C15  1  0.04518700  0.46128300  0.75097100  1
  C  C16  1  0.87626800  0.51523900  0.69659100  1
  C  C17  1  0.68411600  0.88643800  0.49543200  1
  C  C18  1  0.95124200  0.73083800  0.08140200  1
  C  C19  1  0.47090900  0.69213200  0.88397600  1
  C  C20  1  0.75738900  0.57532600  0.40572800  1
  C  C21  1  0.96917500  0.38988700  0.19656200  1
  C  C22  1  0.73841700  0.09260700  0.93199000  1
  C  C23  1  0.55839600  0.41727100  0.76349800  1
  C  C24  1  0.40452400  0.75534500  0.57433500  1
  C  C25  1  0.80401500  0.00670900  0.61796000  1
  C  C26  1  0.91304400  0.05317200  0.26756100  1
  C  C27  1  0.62892500  0.78972500  0.99266800  1
  C  C28  1  0.38805300  0.19736400  0.97239700  1
  C  C29  1  0.09519200  0.93145000  0.73917900  1
  C  C30  1  0.19452600  0.97275900  0.38899600  1
  C  C31  1  0.59584400  0.23883800  0.42733100  1
  C  C32  1  0.42732100  0.59496800  0.23371300  1
  C  C33  1  0.27061700  0.91676300  0.05333300  1
  C  C34  1  0.03408200  0.61847700  0.79886000  1
  C  C35  1  0.23766400  0.42500100  0.59342400  1
  C  C36  1  0.50946500  0.30763300  0.11216000  1
  C  C37  1  0.05083100  0.27358500  0.91409600  1
  C  C38  1  0.31131600  0.11100000  0.50455900  1
  C  C39  1  0.11228400  0.50343800  0.31030700  1
