# generated using pymatgen
data_Cu2Ni3C23
_symmetry_space_group_name_H-M   'P 1'
_cell_length_a   6.26371206
_cell_length_b   6.26371206
_cell_length_c   9.83442889
_cell_angle_alpha   87.89982936
_cell_angle_beta   87.89982936
_cell_angle_gamma   57.82406020
_symmetry_Int_Tables_number   1
_chemical_formula_structural   Cu2Ni3C23
_chemical_formula_sum   'Cu2 Ni3 C23'
_cell_volume   326.29927300
_cell_formula_units_Z   1
loop_
 _symmetry_equiv_pos_site_id
 _symmetry_equiv_pos_as_xyz
  1  'x, y, z'
loop_
 _atom_site_type_symbol
 _atom_site_label
 _atom_site_symmetry_multiplicity
 _atom_site_fract_x
 _atom_site_fract_y
 _atom_site_fract_z
 _atom_site_occupancy
  C  C0  1  0.66114800  0.66114800  0.11867600  1
  C  C1  1  0.98754100  0.98754100  0.01057600  1
  C  C2  1  0.00004800  0.00004800  0.49646800  1
  C  C3  1  0.32357300  0.32357300  0.60076300  1
  Ni  Ni4  1  0.83128700  0.83128700  0.78637900  1
  Ni  Ni5  1  0.16834100  0.65906600  0.28703200  1
  Ni  Ni6  1  0.65906600  0.16834100  0.28703200  1
  Cu  Cu7  1  0.67675400  0.67675400  0.49788800  1
  Cu  Cu8  1  0.34284700  0.34284700  0.01509800  1
  C  C9  1  0.33566600  0.83155400  0.78235500  1
  C  C10  1  0.83155400  0.33566600  0.78235500  1
  C  C11  1  0.17213500  0.17213500  0.28339300  1
  C  C12  1  0.33540900  0.85527100  0.40553400  1
  C  C13  1  0.51673300  0.51673300  0.66133300  1
  C  C14  1  0.65399500  0.65399500  0.89776800  1
  C  C15  1  0.00978200  0.00978200  0.67930600  1
  C  C16  1  0.00476700  0.00476700  0.19627600  1
  C  C17  1  0.85527100  0.33540900  0.40553400  1
  C  C18  1  0.50140200  0.95730500  0.65621100  1
  C  C19  1  0.95730500  0.50140200  0.65621100  1
  C  C20  1  0.15587100  0.15587100  0.89320100  1
  C  C21  1  0.84312300  0.84312300  0.40160300  1
  C  C22  1  0.02645200  0.47735400  0.16150000  1
  C  C23  1  0.47735400  0.02645200  0.16150000  1
  C  C24  1  0.33045600  0.33045600  0.39357400  1
  C  C25  1  0.17718600  0.68756200  0.89861200  1
  C  C26  1  0.47770000  0.47770000  0.17679000  1
  C  C27  1  0.68756200  0.17718600  0.89861200  1
