# generated using pymatgen
data_Cu4Ni2C9
_symmetry_space_group_name_H-M   'P 1'
_cell_length_a   11.66178599
_cell_length_b   11.66178599
_cell_length_c   11.66178585
_cell_angle_alpha   89.40689488
_cell_angle_beta   89.40689488
_cell_angle_gamma   89.40689171
_symmetry_Int_Tables_number   1
_chemical_formula_structural   Cu4Ni2C9
_chemical_formula_sum   'Cu24 Ni12 C54'
_cell_volume   1585.71766171
_cell_formula_units_Z   6
loop_
 _symmetry_equiv_pos_site_id
 _symmetry_equiv_pos_as_xyz
  1  'x, y, z'
loop_
 _atom_site_type_symbol
 _atom_site_label
 _atom_site_symmetry_multiplicity
 _atom_site_fract_x
 _atom_site_fract_y
 _atom_site_fract_z
 _atom_site_occupancy
  C  C0  1  0.63274100  0.39323400  0.85422400  1
  C  C1  1  0.85422400  0.63274100  0.39323400  1
  C  C2  1  0.39323400  0.85422400  0.63274100  1
  C  C3  1  0.36725900  0.60676600  0.14577600  1
  C  C4  1  0.14577600  0.36725900  0.60676600  1
  C  C5  1  0.60676600  0.14577600  0.36725900  1
  Ni  Ni6  1  0.36620600  0.01762300  0.27874000  1
  Ni  Ni7  1  0.27874000  0.36620600  0.01762300  1
  Ni  Ni8  1  0.01762300  0.27874000  0.36620600  1
  Ni  Ni9  1  0.63379400  0.98237700  0.72126000  1
  Ni  Ni10  1  0.72126000  0.63379400  0.98237700  1
  Ni  Ni11  1  0.98237700  0.72126000  0.63379400  1
  Ni  Ni12  1  0.20785300  0.12392600  0.45852700  1
  Ni  Ni13  1  0.45852700  0.20785300  0.12392600  1
  Ni  Ni14  1  0.12392600  0.45852700  0.20785300  1
  Ni  Ni15  1  0.79214700  0.87607400  0.54147300  1
  Ni  Ni16  1  0.54147300  0.79214700  0.87607400  1
  Ni  Ni17  1  0.87607400  0.54147300  0.79214700  1
  Cu  Cu18  1  0.78037400  0.31299700  0.55931600  1
  Cu  Cu19  1  0.55931600  0.78037400  0.31299700  1
  Cu  Cu20  1  0.31299700  0.55931600  0.78037400  1
  Cu  Cu21  1  0.21962600  0.68700300  0.44068400  1
  Cu  Cu22  1  0.44068400  0.21962600  0.68700300  1
  Cu  Cu23  1  0.68700300  0.44068400  0.21962600  1
  Cu  Cu24  1  0.66308000  0.42597000  0.27799400  1
  Cu  Cu25  1  0.27799400  0.66308000  0.42597000  1
  Cu  Cu26  1  0.42597000  0.27799400  0.66308000  1
  Cu  Cu27  1  0.33692000  0.57403000  0.72200600  1
  Cu  Cu28  1  0.72200600  0.33692000  0.57403000  1
  Cu  Cu29  1  0.57403000  0.72200600  0.33692000  1
  Cu  Cu30  1  0.51736900  0.22748200  0.94470200  1
  Cu  Cu31  1  0.94470200  0.51736900  0.22748200  1
  Cu  Cu32  1  0.22748200  0.94470200  0.51736900  1
  Cu  Cu33  1  0.48263100  0.77251800  0.05529800  1
  Cu  Cu34  1  0.05529800  0.48263100  0.77251800  1
  Cu  Cu35  1  0.77251800  0.05529800  0.48263100  1
  Cu  Cu36  1  0.87845100  0.92388900  0.21671800  1
  Cu  Cu37  1  0.21671800  0.87845100  0.92388900  1
  Cu  Cu38  1  0.92388900  0.21671800  0.87845100  1
  Cu  Cu39  1  0.12154900  0.07611100  0.78328200  1
  Cu  Cu40  1  0.78328300  0.12154900  0.07611100  1
  Cu  Cu41  1  0.07611100  0.78328200  0.12154900  1
  C  C42  1  0.87436200  0.28559000  0.35507800  1
  C  C43  1  0.35507800  0.87436200  0.28559000  1
  C  C44  1  0.28559000  0.35507800  0.87436200  1
  C  C45  1  0.12563800  0.71441000  0.64492200  1
  C  C46  1  0.64492200  0.12563800  0.71441000  1
  C  C47  1  0.71441000  0.64492200  0.12563800  1
  C  C48  1  0.99338100  0.68037800  0.50906800  1
  C  C49  1  0.50906800  0.99338100  0.68037800  1
  C  C50  1  0.68037800  0.50906800  0.99338100  1
  C  C51  1  0.00661900  0.31962200  0.49093200  1
  C  C52  1  0.49093200  0.00661900  0.31962200  1
  C  C53  1  0.31962200  0.49093200  0.00661900  1
  C  C54  1  0.20301400  0.55293900  0.23738700  1
  C  C55  1  0.23738700  0.20301400  0.55293900  1
  C  C56  1  0.55293900  0.23738700  0.20301400  1
  C  C57  1  0.79698600  0.44706100  0.76261300  1
  C  C58  1  0.76261300  0.79698600  0.44706100  1
  C  C59  1  0.44706100  0.76261300  0.79698600  1
  C  C60  1  0.00039000  0.49477800  0.16608100  1
  C  C61  1  0.16608100  0.00039000  0.49477800  1
  C  C62  1  0.49477800  0.16608100  0.00039000  1
  C  C63  1  0.99961000  0.50522200  0.83391900  1
  C  C64  1  0.83391900  0.99961000  0.50522200  1
  C  C65  1  0.50522200  0.83391900  0.99961000  1
  C  C66  1  0.38001400  0.31875200  0.10925400  1
  C  C67  1  0.10925400  0.38001400  0.31875200  1
  C  C68  1  0.31875200  0.10925400  0.38001400  1
  C  C69  1  0.61998600  0.68124800  0.89074600  1
  C  C70  1  0.89074600  0.61998600  0.68124800  1
  C  C71  1  0.68124800  0.89074600  0.61998600  1
  C  C72  1  0.38000600  0.10575500  0.16512600  1
  C  C73  1  0.16512600  0.38000600  0.10575500  1
  C  C74  1  0.10575500  0.16512600  0.38000600  1
  C  C75  1  0.61999400  0.89424500  0.83487400  1
  C  C76  1  0.83487400  0.61999400  0.89424500  1
  C  C77  1  0.89424500  0.83487400  0.61999400  1
  C  C78  1  0.23540700  0.87054900  0.24495100  1
  C  C79  1  0.24495100  0.23540700  0.87054900  1
  C  C80  1  0.87054900  0.24495100  0.23540700  1
  C  C81  1  0.76459300  0.12945100  0.75504900  1
  C  C82  1  0.75504900  0.76459300  0.12945100  1
  C  C83  1  0.12945100  0.75504900  0.76459300  1
  C  C84  1  0.22945100  0.22956100  0.99466000  1
  C  C85  1  0.99466000  0.22945100  0.22956100  1
  C  C86  1  0.22956100  0.99466000  0.22945100  1
  C  C87  1  0.77054900  0.77043900  0.00534000  1
  C  C88  1  0.00534000  0.77054900  0.77043900  1
  C  C89  1  0.77043900  0.00534000  0.77054900  1
