# generated using pymatgen
data_Cu3NiC10
_symmetry_space_group_name_H-M   'P 1'
_cell_length_a   5.77939485
_cell_length_b   5.77939485
_cell_length_c   9.40659400
_cell_angle_alpha   90.00000000
_cell_angle_beta   90.00000000
_cell_angle_gamma   120.00000969
_symmetry_Int_Tables_number   1
_chemical_formula_structural   Cu3NiC10
_chemical_formula_sum   'Cu6 Ni2 C20'
_cell_volume   272.09948622
_cell_formula_units_Z   2
loop_
 _symmetry_equiv_pos_site_id
 _symmetry_equiv_pos_as_xyz
  1  'x, y, z'
loop_
 _atom_site_type_symbol
 _atom_site_label
 _atom_site_symmetry_multiplicity
 _atom_site_fract_x
 _atom_site_fract_y
 _atom_site_fract_z
 _atom_site_occupancy
  C  C0  1  0.33333300  0.66666700  0.89600200  1
  C  C1  1  0.00000000  0.00000000  0.99606100  1
  C  C2  1  0.00000000  0.00000000  0.49606100  1
  C  C3  1  0.66666700  0.33333300  0.39600200  1
  Ni  Ni4  1  0.33333300  0.66666700  0.49648700  1
  Ni  Ni5  1  0.66666700  0.33333300  0.99648700  1
  Cu  Cu6  1  0.16981400  0.83018600  0.21583900  1
  Cu  Cu7  1  0.16981400  0.33962800  0.21583900  1
  Cu  Cu8  1  0.66037200  0.83018600  0.21583900  1
  Cu  Cu9  1  0.33962800  0.16981400  0.71583900  1
  Cu  Cu10  1  0.83018600  0.66037200  0.71583900  1
  Cu  Cu11  1  0.83018600  0.16981400  0.71583900  1
  C  C12  1  0.16493600  0.83506400  0.59965800  1
  C  C13  1  0.03794000  0.51897000  0.33408200  1
  C  C14  1  0.33333300  0.66666700  0.11227400  1
  C  C15  1  0.00000000  0.00000000  0.30777800  1
  C  C16  1  0.00000000  0.00000000  0.80777800  1
  C  C17  1  0.16493600  0.32987200  0.59965800  1
  C  C18  1  0.48103000  0.96206000  0.33408200  1
  C  C19  1  0.48103000  0.51897000  0.33408200  1
  C  C20  1  0.32987200  0.16493600  0.09965800  1
  C  C21  1  0.67012800  0.83506400  0.59965800  1
  C  C22  1  0.51897000  0.48103000  0.83408200  1
  C  C23  1  0.51897000  0.03794000  0.83408200  1
  C  C24  1  0.66666700  0.33333300  0.61227400  1
  C  C25  1  0.83506400  0.67012800  0.09965800  1
  C  C26  1  0.96206000  0.48103000  0.83408200  1
  C  C27  1  0.83506400  0.16493600  0.09965800  1
