# generated using pymatgen
data_Cu(NiC2)16
_symmetry_space_group_name_H-M   'P 1'
_cell_length_a   23.15748871
_cell_length_b   23.15748871
_cell_length_c   23.15748808
_cell_angle_alpha   17.35161477
_cell_angle_beta   17.35161477
_cell_angle_gamma   17.35161529
_symmetry_Int_Tables_number   1
_chemical_formula_structural   Cu(NiC2)16
_chemical_formula_sum   'Cu1 Ni16 C32'
_cell_volume   963.89091154
_cell_formula_units_Z   1
loop_
 _symmetry_equiv_pos_site_id
 _symmetry_equiv_pos_as_xyz
  1  'x, y, z'
loop_
 _atom_site_type_symbol
 _atom_site_label
 _atom_site_symmetry_multiplicity
 _atom_site_fract_x
 _atom_site_fract_y
 _atom_site_fract_z
 _atom_site_occupancy
  Ni  Ni0  1  0.87247100  0.87247100  0.38245900  1
  Ni  Ni1  1  0.12645100  0.62446600  0.62446600  1
  Ni  Ni2  1  0.38245900  0.87247100  0.87247100  1
  Ni  Ni3  1  0.99844500  0.99844500  0.99844500  1
  Ni  Ni4  1  0.75096500  0.75096500  0.75096500  1
  Ni  Ni5  1  0.87247100  0.38245900  0.87247100  1
  Ni  Ni6  1  0.62446600  0.62446600  0.12645100  1
  Ni  Ni7  1  0.62446600  0.12645100  0.62446600  1
  Ni  Ni8  1  0.50009800  0.50009800  0.50009800  1
  Ni  Ni9  1  0.37528500  0.87425300  0.37528500  1
  Ni  Ni10  1  0.37528500  0.37528500  0.87425300  1
  Ni  Ni11  1  0.12324000  0.62689200  0.12324000  1
  Ni  Ni12  1  0.87425300  0.37528500  0.37528500  1
  Ni  Ni13  1  0.62689200  0.12324000  0.12324000  1
  Ni  Ni14  1  0.24946600  0.24946600  0.24946600  1
  Ni  Ni15  1  0.12324000  0.12324000  0.62689200  1
  Cu  Cu16  1  0.34380400  0.34380400  0.34380400  1
  C  C17  1  0.18080800  0.70199100  0.18080800  1
  C  C18  1  0.70199100  0.18080800  0.18080800  1
  C  C19  1  0.68835700  0.68835700  0.68835700  1
  C  C20  1  0.05517700  0.56569200  0.56569200  1
  C  C21  1  0.56569200  0.56569200  0.05517700  1
  C  C22  1  0.56569200  0.05517700  0.56569200  1
  C  C23  1  0.18080800  0.18080800  0.70199100  1
  C  C24  1  0.93321200  0.93321200  0.44633900  1
  C  C25  1  0.44633900  0.93321200  0.93321200  1
  C  C26  1  0.19613400  0.68358900  0.68358900  1
  C  C27  1  0.81162900  0.81162900  0.81162900  1
  C  C28  1  0.06150800  0.06150800  0.06150800  1
  C  C29  1  0.43830800  0.43830800  0.43830800  1
  C  C30  1  0.31621500  0.31621500  0.80405600  1
  C  C31  1  0.31621500  0.80405700  0.31621500  1
  C  C32  1  0.06668800  0.55369300  0.06668800  1
  C  C33  1  0.93321200  0.44633900  0.93321200  1
  C  C34  1  0.68358900  0.19613400  0.68358900  1
  C  C35  1  0.68358900  0.68358900  0.19613400  1
  C  C36  1  0.56168900  0.56168900  0.56168900  1
  C  C37  1  0.18836400  0.18836400  0.18836400  1
  C  C38  1  0.80405700  0.31621500  0.31621500  1
  C  C39  1  0.55369300  0.06668800  0.06668800  1
  C  C40  1  0.93807100  0.93807100  0.93807100  1
  C  C41  1  0.81656700  0.81656700  0.30378800  1
  C  C42  1  0.06668800  0.06668800  0.55369300  1
  C  C43  1  0.43392100  0.94617000  0.43392100  1
  C  C44  1  0.43392100  0.43392100  0.94617000  1
  C  C45  1  0.94617000  0.43392100  0.43392100  1
  C  C46  1  0.31130300  0.31130300  0.31130300  1
  C  C47  1  0.30378800  0.81656700  0.81656700  1
  C  C48  1  0.81656700  0.30378800  0.81656700  1
