# generated using pymatgen
data_Cu2NiC14
_symmetry_space_group_name_H-M   'P 1'
_cell_length_a   5.54391476
_cell_length_b   10.30074874
_cell_length_c   6.23486827
_cell_angle_alpha   78.82160119
_cell_angle_beta   88.26029861
_cell_angle_gamma   85.58756288
_symmetry_Int_Tables_number   1
_chemical_formula_structural   Cu2NiC14
_chemical_formula_sum   'Cu4 Ni2 C28'
_cell_volume   348.21774071
_cell_formula_units_Z   2
loop_
 _symmetry_equiv_pos_site_id
 _symmetry_equiv_pos_as_xyz
  1  'x, y, z'
loop_
 _atom_site_type_symbol
 _atom_site_label
 _atom_site_symmetry_multiplicity
 _atom_site_fract_x
 _atom_site_fract_y
 _atom_site_fract_z
 _atom_site_occupancy
  C  C0  1  0.41724900  0.08164600  0.80825900  1
  C  C1  1  0.41745500  0.58170200  0.80819800  1
  C  C2  1  0.58277100  0.41835500  0.19172900  1
  C  C3  1  0.58253200  0.91830600  0.19180400  1
  C  C4  1  0.24549800  0.30690000  0.03642000  1
  C  C5  1  0.24539400  0.80691000  0.03631900  1
  C  C6  1  0.75448300  0.19309700  0.96361000  1
  C  C7  1  0.75452600  0.69311500  0.96370600  1
  C  C8  1  0.35988400  0.39191100  0.61544200  1
  C  C9  1  0.35958300  0.89179200  0.61544900  1
  C  C10  1  0.64018000  0.10813800  0.38456100  1
  C  C11  1  0.64039300  0.60820300  0.38451800  1
  Ni  Ni12  1  0.99993400  0.74998300  0.50005200  1
  Ni  Ni13  1  0.00010400  0.24999800  0.49999500  1
  Cu  Cu14  1  0.20546100  0.06197700  0.27917700  1
  Cu  Cu15  1  0.20572700  0.56206500  0.27911800  1
  Cu  Cu16  1  0.79458600  0.43799100  0.72079400  1
  Cu  Cu17  1  0.79425400  0.93794200  0.72088800  1
  C  C18  1  0.21620400  0.39900600  0.29681500  1
  C  C19  1  0.21574900  0.89894400  0.29673100  1
  C  C20  1  0.78383600  0.10099200  0.70321300  1
  C  C21  1  0.78415300  0.60104900  0.70321300  1
  C  C22  1  0.05125700  0.34879600  0.77767700  1
  C  C23  1  0.05100100  0.84879100  0.77768700  1
  C  C24  1  0.94876100  0.15120300  0.22232400  1
  C  C25  1  0.94891800  0.65120800  0.22231200  1
  C  C26  1  0.29006500  0.09369500  0.51753900  1
  C  C27  1  0.29066200  0.59373000  0.51730100  1
  C  C28  1  0.70999000  0.40622000  0.48247500  1
  C  C29  1  0.70934600  0.90627900  0.48270000  1
  C  C30  1  0.42139700  0.11679900  0.10265200  1
  C  C31  1  0.42171400  0.61693400  0.10264400  1
  C  C32  1  0.57862200  0.38320500  0.89735000  1
  C  C33  1  0.57831000  0.88311600  0.89732700  1
