# generated using pymatgen
data_CuNiC5
_symmetry_space_group_name_H-M   'P 1'
_cell_length_a   5.73247300
_cell_length_b   5.73241900
_cell_length_c   8.06375500
_cell_angle_alpha   90.00000000
_cell_angle_beta   90.00065668
_cell_angle_gamma   89.99930035
_symmetry_Int_Tables_number   1
_chemical_formula_structural   CuNiC5
_chemical_formula_sum   'Cu4 Ni4 C20'
_cell_volume   264.98254617
_cell_formula_units_Z   4
loop_
 _symmetry_equiv_pos_site_id
 _symmetry_equiv_pos_as_xyz
  1  'x, y, z'
loop_
 _atom_site_type_symbol
 _atom_site_label
 _atom_site_symmetry_multiplicity
 _atom_site_fract_x
 _atom_site_fract_y
 _atom_site_fract_z
 _atom_site_occupancy
  C  C0  1  0.00000000  0.22077200  0.99999800  1
  C  C1  1  0.00000100  0.77922500  0.49999600  1
  C  C2  1  0.22078200  0.00000200  0.25000200  1
  C  C3  1  0.77922000  0.00000300  0.75000100  1
  Ni  Ni4  1  0.50004900  0.77452000  0.50005500  1
  Ni  Ni5  1  0.77454300  0.50005700  0.74995700  1
  Ni  Ni6  1  0.22542900  0.49994800  0.24995000  1
  Ni  Ni7  1  0.49995000  0.22544800  0.00005000  1
  Cu  Cu8  1  0.25643200  0.25642600  0.62500200  1
  Cu  Cu9  1  0.25646200  0.74355000  0.87500000  1
  Cu  Cu10  1  0.74354600  0.25645100  0.37499900  1
  Cu  Cu11  1  0.74356000  0.74357100  0.12499900  1
  C  C12  1  0.98254200  0.25838900  0.26047900  1
  C  C13  1  0.98252600  0.74163100  0.23954100  1
  C  C14  1  0.25839700  0.98255000  0.98951600  1
  C  C15  1  0.25837000  0.01747500  0.51045400  1
  C  C16  1  0.74161400  0.01745800  0.48951600  1
  C  C17  1  0.74162400  0.98253000  0.01045500  1
  C  C18  1  0.01748300  0.25836700  0.73954700  1
  C  C19  1  0.01746400  0.74162100  0.76048600  1
  C  C20  1  0.25934800  0.49486200  0.50126800  1
  C  C21  1  0.25930600  0.50515600  0.99866800  1
  C  C22  1  0.50515700  0.25930900  0.25132700  1
  C  C23  1  0.50512900  0.74064700  0.24872500  1
  C  C24  1  0.49486800  0.25935500  0.74873500  1
  C  C25  1  0.49484900  0.74070100  0.75133800  1
  C  C26  1  0.74070300  0.49484200  0.49866300  1
  C  C27  1  0.74064500  0.50513200  0.00127000  1
