# generated using pymatgen
data_Cu2Ni4C3
_symmetry_space_group_name_H-M   'P 1'
_cell_length_a   4.59980300
_cell_length_b   5.56706900
_cell_length_c   7.69462830
_cell_angle_alpha   86.85753358
_cell_angle_beta   90.00000000
_cell_angle_gamma   90.00000000
_symmetry_Int_Tables_number   1
_chemical_formula_structural   Cu2Ni4C3
_chemical_formula_sum   'Cu4 Ni8 C6'
_cell_volume   196.74329837
_cell_formula_units_Z   2
loop_
 _symmetry_equiv_pos_site_id
 _symmetry_equiv_pos_as_xyz
  1  'x, y, z'
loop_
 _atom_site_type_symbol
 _atom_site_label
 _atom_site_symmetry_multiplicity
 _atom_site_fract_x
 _atom_site_fract_y
 _atom_site_fract_z
 _atom_site_occupancy
  C  C0  1  0.52951400  0.56942500  0.65789700  1
  C  C1  1  0.49313000  0.23273200  0.00254000  1
  C  C2  1  0.49074100  0.90881400  0.31986700  1
  C  C3  1  0.99313000  0.76726800  0.99746000  1
  C  C4  1  0.02951400  0.43057500  0.34210300  1
  C  C5  1  0.99074100  0.09118600  0.68013300  1
  Ni  Ni6  1  0.19423100  0.72131600  0.22115600  1
  Ni  Ni7  1  0.19266900  0.04635500  0.89889200  1
  Ni  Ni8  1  0.19407800  0.37857200  0.57429600  1
  Ni  Ni9  1  0.30631500  0.21079200  0.23247600  1
  Ni  Ni10  1  0.69266900  0.95364500  0.10110800  1
  Ni  Ni11  1  0.69407800  0.62142800  0.42570400  1
  Ni  Ni12  1  0.69423100  0.27868400  0.77884400  1
  Ni  Ni13  1  0.80631500  0.78920800  0.76752400  1
  Cu  Cu14  1  0.29230200  0.88777300  0.56122800  1
  Cu  Cu15  1  0.30702000  0.54458800  0.90108600  1
  Cu  Cu16  1  0.80702000  0.45541200  0.09891400  1
  Cu  Cu17  1  0.79230200  0.11222700  0.43877200  1
