# generated using pymatgen
data_Cu3NiC2
_symmetry_space_group_name_H-M   'P 1'
_cell_length_a   5.81349296
_cell_length_b   5.81349296
_cell_length_c   10.70986632
_cell_angle_alpha   69.36388344
_cell_angle_beta   69.36388344
_cell_angle_gamma   65.88759264
_symmetry_Int_Tables_number   1
_chemical_formula_structural   Cu3NiC2
_chemical_formula_sum   'Cu12 Ni4 C8'
_cell_volume   299.83019323
_cell_formula_units_Z   4
loop_
 _symmetry_equiv_pos_site_id
 _symmetry_equiv_pos_as_xyz
  1  'x, y, z'
loop_
 _atom_site_type_symbol
 _atom_site_label
 _atom_site_symmetry_multiplicity
 _atom_site_fract_x
 _atom_site_fract_y
 _atom_site_fract_z
 _atom_site_occupancy
  C  C0  1  0.26565900  0.26565900  0.01718700  1
  C  C1  1  0.88146900  0.37082700  0.74988200  1
  C  C2  1  0.11853100  0.62917300  0.25011800  1
  C  C3  1  0.73434100  0.73434100  0.98281300  1
  C  C4  1  0.00000000  0.00000000  0.50000000  1
  C  C5  1  0.50000000  0.50000000  0.50000000  1
  C  C6  1  0.37082700  0.88146900  0.74988200  1
  C  C7  1  0.62917300  0.11853100  0.25011800  1
  Ni  Ni8  1  0.08446100  0.08446100  0.66150200  1
  Ni  Ni9  1  0.91553900  0.91553900  0.33849800  1
  Ni  Ni10  1  0.66467000  0.66467000  0.83492900  1
  Ni  Ni11  1  0.33533000  0.33533000  0.16507100  1
  Cu  Cu12  1  0.10015800  0.60163800  0.60206100  1
  Cu  Cu13  1  0.18526900  0.18526900  0.85795400  1
  Cu  Cu14  1  0.57836200  0.57836200  0.64749000  1
  Cu  Cu15  1  0.81473100  0.81473100  0.14204600  1
  Cu  Cu16  1  0.89984200  0.39836200  0.39793900  1
  Cu  Cu17  1  0.15052800  0.65843500  0.89886300  1
  Cu  Cu18  1  0.65843500  0.15052800  0.89886300  1
  Cu  Cu19  1  0.60163800  0.10015800  0.60206100  1
  Cu  Cu20  1  0.84947200  0.34156500  0.10113700  1
  Cu  Cu21  1  0.34156500  0.84947200  0.10113700  1
  Cu  Cu22  1  0.42163800  0.42163800  0.35251000  1
  Cu  Cu23  1  0.39836200  0.89984200  0.39793900  1
