# generated using pymatgen
data_CuNiC4
_symmetry_space_group_name_H-M   'P 1'
_cell_length_a   7.16479169
_cell_length_b   7.16479169
_cell_length_c   5.72091315
_cell_angle_alpha   77.74123686
_cell_angle_beta   77.74123686
_cell_angle_gamma   81.41784374
_symmetry_Int_Tables_number   1
_chemical_formula_structural   CuNiC4
_chemical_formula_sum   'Cu4 Ni4 C16'
_cell_volume   278.76605282
_cell_formula_units_Z   4
loop_
 _symmetry_equiv_pos_site_id
 _symmetry_equiv_pos_as_xyz
  1  'x, y, z'
loop_
 _atom_site_type_symbol
 _atom_site_label
 _atom_site_symmetry_multiplicity
 _atom_site_fract_x
 _atom_site_fract_y
 _atom_site_fract_z
 _atom_site_occupancy
  Ni  Ni0  1  0.88652400  0.88652400  0.79331200  1
  Ni  Ni1  1  0.75125000  0.24875000  0.50000000  1
  Ni  Ni2  1  0.24875000  0.75125000  0.50000000  1
  Ni  Ni3  1  0.11347600  0.11347600  0.20668800  1
  Cu  Cu4  1  0.72028500  0.72028500  0.38682000  1
  Cu  Cu5  1  0.76155200  0.23844800  0.00000000  1
  Cu  Cu6  1  0.23844800  0.76155200  0.00000000  1
  Cu  Cu7  1  0.27971500  0.27971500  0.61318000  1
  C  C8  1  0.80862700  0.80862700  0.58306200  1
  C  C9  1  0.81539900  0.81539900  0.09596200  1
  C  C10  1  0.78179100  0.46118300  0.90563400  1
  C  C11  1  0.46118300  0.78179100  0.90563400  1
  C  C12  1  0.48345900  0.77102000  0.43629600  1
  C  C13  1  0.77102000  0.48345900  0.43629600  1
  C  C14  1  0.12459400  0.83109300  0.74163800  1
  C  C15  1  0.83109300  0.12459400  0.74163800  1
  C  C16  1  0.87540600  0.16890700  0.25836200  1
  C  C17  1  0.16890700  0.87540600  0.25836200  1
  C  C18  1  0.51654100  0.22898000  0.56370400  1
  C  C19  1  0.22898000  0.51654100  0.56370400  1
  C  C20  1  0.53881700  0.21820900  0.09436600  1
  C  C21  1  0.21820900  0.53881700  0.09436600  1
  C  C22  1  0.18460100  0.18460100  0.90403800  1
  C  C23  1  0.19137300  0.19137300  0.41693800  1
