# generated using pymatgen
data_CuNiC3
_symmetry_space_group_name_H-M   'P 1'
_cell_length_a   5.39412900
_cell_length_b   5.41643900
_cell_length_c   7.96169500
_cell_angle_alpha   90.00000000
_cell_angle_beta   90.00000000
_cell_angle_gamma   90.00000000
_symmetry_Int_Tables_number   1
_chemical_formula_structural   CuNiC3
_chemical_formula_sum   'Cu4 Ni4 C12'
_cell_volume   232.61660943
_cell_formula_units_Z   4
loop_
 _symmetry_equiv_pos_site_id
 _symmetry_equiv_pos_as_xyz
  1  'x, y, z'
loop_
 _atom_site_type_symbol
 _atom_site_label
 _atom_site_symmetry_multiplicity
 _atom_site_fract_x
 _atom_site_fract_y
 _atom_site_fract_z
 _atom_site_occupancy
  Ni  Ni0  1  0.01507400  0.95584100  0.25000000  1
  Ni  Ni1  1  0.48492600  0.45584100  0.25000000  1
  Ni  Ni2  1  0.51507400  0.54415900  0.75000000  1
  Ni  Ni3  1  0.98492600  0.04415900  0.75000000  1
  Cu  Cu4  1  0.00000000  0.50000000  0.50000000  1
  Cu  Cu5  1  0.00000000  0.50000000  0.00000000  1
  Cu  Cu6  1  0.50000000  0.00000000  0.50000000  1
  Cu  Cu7  1  0.50000000  0.00000000  0.00000000  1
  C  C8  1  0.10773700  0.44680000  0.75000000  1
  C  C9  1  0.18775500  0.21375500  0.05984500  1
  C  C10  1  0.18775500  0.21375500  0.44015500  1
  C  C11  1  0.31224500  0.71375500  0.44015500  1
  C  C12  1  0.31224500  0.71375500  0.05984500  1
  C  C13  1  0.39226300  0.94680000  0.75000000  1
  C  C14  1  0.60773700  0.05320000  0.25000000  1
  C  C15  1  0.68775500  0.28624500  0.94015500  1
  C  C16  1  0.68775500  0.28624500  0.55984500  1
  C  C17  1  0.81224500  0.78624500  0.55984500  1
  C  C18  1  0.81224500  0.78624500  0.94015500  1
  C  C19  1  0.89226300  0.55320000  0.25000000  1
