# generated using pymatgen
data_Cu4NiC12
_symmetry_space_group_name_H-M   'P 1'
_cell_length_a   9.98392100
_cell_length_b   6.94435200
_cell_length_c   14.86217615
_cell_angle_alpha   66.33691698
_cell_angle_beta   90.00000000
_cell_angle_gamma   90.00000000
_symmetry_Int_Tables_number   1
_chemical_formula_structural   Cu4NiC12
_chemical_formula_sum   'Cu16 Ni4 C48'
_cell_volume   943.78586147
_cell_formula_units_Z   4
loop_
 _symmetry_equiv_pos_site_id
 _symmetry_equiv_pos_as_xyz
  1  'x, y, z'
loop_
 _atom_site_type_symbol
 _atom_site_label
 _atom_site_symmetry_multiplicity
 _atom_site_fract_x
 _atom_site_fract_y
 _atom_site_fract_z
 _atom_site_occupancy
  C  C0  1  0.85930700  0.97046900  0.41941500  1
  C  C1  1  0.09021200  0.54516100  0.76117600  1
  C  C2  1  0.59021200  0.45483900  0.73882400  1
  C  C3  1  0.35930700  0.02953100  0.08058500  1
  C  C4  1  0.64069300  0.97046900  0.91941500  1
  C  C5  1  0.40978800  0.54516100  0.26117600  1
  C  C6  1  0.90978800  0.45483900  0.23882400  1
  C  C7  1  0.14069300  0.02953100  0.58058500  1
  Ni  Ni8  1  0.86445400  0.78975300  0.66164100  1
  Ni  Ni9  1  0.36445400  0.21024700  0.83835900  1
  Ni  Ni10  1  0.63554600  0.78975300  0.16164100  1
  Ni  Ni11  1  0.13554600  0.21024700  0.33835900  1
  Cu  Cu12  1  0.72662000  0.64754800  0.86407200  1
  Cu  Cu13  1  0.44703800  0.66600400  0.83774600  1
  Cu  Cu14  1  0.02769600  0.08522300  0.16834100  1
  Cu  Cu15  1  0.26578100  0.78827700  0.45846400  1
  Cu  Cu16  1  0.76578100  0.21172300  0.04153600  1
  Cu  Cu17  1  0.52769600  0.91477700  0.33165900  1
  Cu  Cu18  1  0.77338000  0.64754800  0.36407200  1
  Cu  Cu19  1  0.05296200  0.66600400  0.33774600  1
  Cu  Cu20  1  0.94703800  0.33399600  0.66225400  1
  Cu  Cu21  1  0.22662000  0.35245200  0.63592800  1
  Cu  Cu22  1  0.47230400  0.08522300  0.66834100  1
  Cu  Cu23  1  0.23421900  0.78827700  0.95846400  1
  Cu  Cu24  1  0.73421900  0.21172300  0.54153600  1
  Cu  Cu25  1  0.97230400  0.91477700  0.83165900  1
  Cu  Cu26  1  0.55296200  0.33399600  0.16225400  1
  Cu  Cu27  1  0.27338000  0.35245200  0.13592800  1
  C  C28  1  0.55102500  0.17041300  0.27906800  1
  C  C29  1  0.69612600  0.29815100  0.11854800  1
  C  C30  1  0.17846000  0.97888600  0.46533500  1
  C  C31  1  0.98808900  0.18435300  0.24679400  1
  C  C32  1  0.42163200  0.27966100  0.10528800  1
  C  C33  1  0.71893700  0.66199800  0.75309600  1
  C  C34  1  0.17694500  0.17672200  0.11803200  1
  C  C35  1  0.41917500  0.86023600  0.42071300  1
  C  C36  1  0.77497700  0.41162500  0.93530700  1
  C  C37  1  0.91917500  0.13976400  0.07928700  1
  C  C38  1  0.67694500  0.82327800  0.38196800  1
  C  C39  1  0.97276200  0.56912100  0.65149600  1
  C  C40  1  0.47276200  0.43087900  0.84850400  1
  C  C41  1  0.27497700  0.58837500  0.56469300  1
  C  C42  1  0.92163200  0.72033900  0.39471200  1
  C  C43  1  0.48808900  0.81564700  0.25320600  1
  C  C44  1  0.67846000  0.02111400  0.03466500  1
  C  C45  1  0.19612600  0.70184900  0.38145200  1
  C  C46  1  0.05102500  0.82958700  0.22093200  1
  C  C47  1  0.21893700  0.33800200  0.74690400  1
  C  C48  1  0.78106300  0.66199800  0.25309600  1
  C  C49  1  0.94897500  0.17041300  0.77906800  1
  C  C50  1  0.80387400  0.29815100  0.61854800  1
  C  C51  1  0.32154000  0.97888600  0.96533500  1
  C  C52  1  0.51191100  0.18435300  0.74679400  1
  C  C53  1  0.07836800  0.27966100  0.60528800  1
  C  C54  1  0.72502300  0.41162500  0.43530700  1
  C  C55  1  0.52723800  0.56912100  0.15149600  1
  C  C56  1  0.02723800  0.43087900  0.34850400  1
  C  C57  1  0.32305500  0.17672200  0.61803200  1
  C  C58  1  0.08082500  0.86023600  0.92071300  1
  C  C59  1  0.22502300  0.58837500  0.06469300  1
  C  C60  1  0.58082500  0.13976400  0.57928700  1
  C  C61  1  0.82305500  0.82327800  0.88196800  1
  C  C62  1  0.28106300  0.33800200  0.24690400  1
  C  C63  1  0.57836800  0.72033900  0.89471200  1
  C  C64  1  0.01191100  0.81564700  0.75320600  1
  C  C65  1  0.82154000  0.02111400  0.53466500  1
  C  C66  1  0.30387400  0.70184900  0.88145200  1
  C  C67  1  0.44897500  0.82958700  0.72093200  1
