# generated using pymatgen
data_Cu3NiC
_symmetry_space_group_name_H-M   'P 1'
_cell_length_a   7.91295000
_cell_length_b   7.13022600
_cell_length_c   12.02173803
_cell_angle_alpha   55.47529320
_cell_angle_beta   90.00000000
_cell_angle_gamma   90.00000000
_symmetry_Int_Tables_number   1
_chemical_formula_structural   Cu3NiC
_chemical_formula_sum   'Cu12 Ni4 C4'
_cell_volume   558.82254976
_cell_formula_units_Z   4
loop_
 _symmetry_equiv_pos_site_id
 _symmetry_equiv_pos_as_xyz
  1  'x, y, z'
loop_
 _atom_site_type_symbol
 _atom_site_label
 _atom_site_symmetry_multiplicity
 _atom_site_fract_x
 _atom_site_fract_y
 _atom_site_fract_z
 _atom_site_occupancy
  C  C0  1  0.89038800  0.71611500  0.74885300  1
  C  C1  1  0.39038800  0.28388500  0.75114700  1
  C  C2  1  0.10961200  0.28388500  0.25114700  1
  C  C3  1  0.60961200  0.71611500  0.24885300  1
  Ni  Ni4  1  0.89426400  0.37809300  0.56364800  1
  Ni  Ni5  1  0.39426400  0.62190700  0.93635200  1
  Ni  Ni6  1  0.10573600  0.62190700  0.43635200  1
  Ni  Ni7  1  0.60573600  0.37809300  0.06364800  1
  Cu  Cu8  1  0.49865000  0.13259300  0.26544800  1
  Cu  Cu9  1  0.99865000  0.86740700  0.23455200  1
  Cu  Cu10  1  0.50135000  0.86740700  0.73455200  1
  Cu  Cu11  1  0.00135000  0.13259300  0.76544800  1
  Cu  Cu12  1  0.69954200  0.22431000  0.95861800  1
  Cu  Cu13  1  0.19954200  0.77569000  0.54138200  1
  Cu  Cu14  1  0.30045800  0.77569000  0.04138200  1
  Cu  Cu15  1  0.80045800  0.22431000  0.45861800  1
  Cu  Cu16  1  0.80208900  0.60619000  0.05536800  1
  Cu  Cu17  1  0.30208900  0.39381000  0.44463200  1
  Cu  Cu18  1  0.19791100  0.39381000  0.94463200  1
  Cu  Cu19  1  0.69791100  0.60619000  0.55536800  1
