# generated using pymatgen
data_CuNi3C32
_symmetry_space_group_name_H-M   'P 1'
_cell_length_a   8.56731979
_cell_length_b   8.56731992
_cell_length_c   8.56731986
_cell_angle_alpha   60.83831163
_cell_angle_beta   60.83831473
_cell_angle_gamma   60.83831294
_symmetry_Int_Tables_number   1
_chemical_formula_structural   CuNi3C32
_chemical_formula_sum   'Cu1 Ni3 C32'
_cell_volume   453.05714231
_cell_formula_units_Z   1
loop_
 _symmetry_equiv_pos_site_id
 _symmetry_equiv_pos_as_xyz
  1  'x, y, z'
loop_
 _atom_site_type_symbol
 _atom_site_label
 _atom_site_symmetry_multiplicity
 _atom_site_fract_x
 _atom_site_fract_y
 _atom_site_fract_z
 _atom_site_occupancy
  Ni  Ni0  1  0.14367300  0.14367300  0.14367300  1
  Ni  Ni1  1  0.35406800  0.35406800  0.35406800  1
  Ni  Ni2  1  0.64714300  0.64714300  0.64714300  1
  Cu  Cu3  1  0.85539000  0.85539000  0.85539000  1
  C  C4  1  0.99625000  0.99625000  0.99625000  1
  C  C5  1  0.49913700  0.49913700  0.49913700  1
  C  C6  1  0.04953800  0.75263300  0.44991300  1
  C  C7  1  0.44991300  0.04953800  0.75263300  1
  C  C8  1  0.25543200  0.54173900  0.95455300  1
  C  C9  1  0.54173900  0.95455300  0.25543200  1
  C  C10  1  0.95455300  0.25543200  0.54173900  1
  C  C11  1  0.75263300  0.44991300  0.04953800  1
  C  C12  1  0.11075900  0.33578000  0.47929100  1
  C  C13  1  0.33578000  0.47929100  0.11075900  1
  C  C14  1  0.05950300  0.91104000  0.25214900  1
  C  C15  1  0.47929100  0.11075900  0.33578000  1
  C  C16  1  0.02250700  0.81598900  0.59800400  1
  C  C17  1  0.24318200  0.58784600  0.42693700  1
  C  C18  1  0.25214900  0.05950300  0.91104000  1
  C  C19  1  0.42693700  0.24318200  0.58784600  1
  C  C20  1  0.18680400  0.38035300  0.00230000  1
  C  C21  1  0.58784600  0.42693700  0.24318200  1
  C  C22  1  0.10261600  0.73400300  0.95191000  1
  C  C23  1  0.38035300  0.00230000  0.18680400  1
  C  C24  1  0.59800400  0.02250700  0.81598900  1
  C  C25  1  0.91104000  0.25214900  0.05950300  1
  C  C26  1  0.41661800  0.55072600  0.75924200  1
  C  C27  1  0.81598900  0.59800400  0.02250700  1
  C  C28  1  0.55072600  0.75924200  0.41661800  1
  C  C29  1  0.73400300  0.95191000  0.10261600  1
  C  C30  1  0.75924200  0.41661800  0.55072600  1
  C  C31  1  0.00230000  0.18680400  0.38035300  1
  C  C32  1  0.50316000  0.88102500  0.68878900  1
  C  C33  1  0.95191000  0.10261600  0.73400300  1
  C  C34  1  0.68878900  0.50316000  0.88102500  1
  C  C35  1  0.88102500  0.68878900  0.50316000  1
