# generated using pymatgen
data_Cu(NiC3)3
_symmetry_space_group_name_H-M   'P 1'
_cell_length_a   5.90454839
_cell_length_b   5.90454839
_cell_length_c   5.90454834
_cell_angle_alpha   59.20694405
_cell_angle_beta   59.20694405
_cell_angle_gamma   59.20694950
_symmetry_Int_Tables_number   1
_chemical_formula_structural   Cu(NiC3)3
_chemical_formula_sum   'Cu1 Ni3 C9'
_cell_volume   142.93102424
_cell_formula_units_Z   1
loop_
 _symmetry_equiv_pos_site_id
 _symmetry_equiv_pos_as_xyz
  1  'x, y, z'
loop_
 _atom_site_type_symbol
 _atom_site_label
 _atom_site_symmetry_multiplicity
 _atom_site_fract_x
 _atom_site_fract_y
 _atom_site_fract_z
 _atom_site_occupancy
  C  C0  1  0.12303400  0.12303400  0.12303400  1
  Ni  Ni1  1  0.99716900  0.50089800  0.50089800  1
  Ni  Ni2  1  0.50089800  0.99716900  0.50089800  1
  Ni  Ni3  1  0.50089800  0.50089800  0.99716900  1
  Cu  Cu4  1  0.50073500  0.50073500  0.50073500  1
  C  C5  1  0.73513000  0.73513000  0.73513000  1
  C  C6  1  0.74033000  0.74033000  0.29529700  1
  C  C7  1  0.29529700  0.74033000  0.74033000  1
  C  C8  1  0.74033000  0.29529700  0.74033000  1
  C  C9  1  0.70913400  0.25943000  0.25943000  1
  C  C10  1  0.25943000  0.70913400  0.25943000  1
  C  C11  1  0.25943000  0.25943000  0.70913400  1
  C  C12  1  0.26318500  0.26318500  0.26318500  1
