# generated using pymatgen
data_CuNiC5
_symmetry_space_group_name_H-M   'P 1'
_cell_length_a   10.87547197
_cell_length_b   10.87547197
_cell_length_c   11.94474700
_cell_angle_alpha   90.00000000
_cell_angle_beta   90.00000000
_cell_angle_gamma   119.99999984
_symmetry_Int_Tables_number   1
_chemical_formula_structural   CuNiC5
_chemical_formula_sum   'Cu12 Ni12 C60'
_cell_volume   1223.49955281
_cell_formula_units_Z   12
loop_
 _symmetry_equiv_pos_site_id
 _symmetry_equiv_pos_as_xyz
  1  'x, y, z'
loop_
 _atom_site_type_symbol
 _atom_site_label
 _atom_site_symmetry_multiplicity
 _atom_site_fract_x
 _atom_site_fract_y
 _atom_site_fract_z
 _atom_site_occupancy
  C  C0  1  0.00000000  0.50000000  0.00812500  1
  C  C1  1  0.00000000  0.50000000  0.65854200  1
  C  C2  1  0.00000000  0.50000000  0.33333300  1
  C  C3  1  0.00000000  0.00000000  0.16666700  1
  C  C4  1  0.00000000  0.00000000  0.50000000  1
  C  C5  1  0.00000000  0.00000000  0.83333300  1
  C  C6  1  0.50000000  0.50000000  0.34145800  1
  C  C7  1  0.50000000  0.50000000  0.66666700  1
  C  C8  1  0.50000000  0.50000000  0.99187500  1
  C  C9  1  0.50000000  0.00000000  0.32520800  1
  C  C10  1  0.50000000  0.00000000  0.00000000  1
  C  C11  1  0.50000000  0.00000000  0.67479200  1
  Ni  Ni12  1  0.00000000  0.74982200  0.83333300  1
  Ni  Ni13  1  0.00000000  0.25017800  0.83333300  1
  Ni  Ni14  1  0.25138500  0.74861500  0.16666700  1
  Ni  Ni15  1  0.25138500  0.50277000  0.50000000  1
  Ni  Ni16  1  0.49723000  0.74861500  0.83333300  1
  Ni  Ni17  1  0.25017800  0.25017800  0.16666700  1
  Ni  Ni18  1  0.25017800  0.00000000  0.50000000  1
  Ni  Ni19  1  0.74982200  0.74982200  0.16666700  1
  Ni  Ni20  1  0.50277000  0.25138500  0.83333300  1
  Ni  Ni21  1  0.74861500  0.49723000  0.50000000  1
  Ni  Ni22  1  0.74861500  0.25138500  0.16666700  1
  Ni  Ni23  1  0.74982200  0.00000000  0.50000000  1
  Cu  Cu24  1  0.00000000  0.75334300  0.33333300  1
  Cu  Cu25  1  0.24732200  0.75267800  0.66666700  1
  Cu  Cu26  1  0.00000000  0.24665700  0.33333300  1
  Cu  Cu27  1  0.24732200  0.49464400  0.00000000  1
  Cu  Cu28  1  0.24665700  0.24665700  0.66666700  1
  Cu  Cu29  1  0.50535600  0.75267800  0.33333300  1
  Cu  Cu30  1  0.24665700  0.00000000  0.00000000  1
  Cu  Cu31  1  0.49464400  0.24732200  0.33333300  1
  Cu  Cu32  1  0.75334300  0.75334300  0.66666700  1
  Cu  Cu33  1  0.75267800  0.50535600  0.00000000  1
  Cu  Cu34  1  0.75267800  0.24732200  0.66666700  1
  Cu  Cu35  1  0.75334300  0.00000000  0.00000000  1
  C  C36  1  0.07782600  0.88440700  0.42384800  1
  C  C37  1  0.11559300  0.92217400  0.90948600  1
  C  C38  1  0.09706800  0.69486000  0.73483800  1
  C  C39  1  0.10404100  0.70691000  0.26839200  1
  C  C40  1  0.29309000  0.89595900  0.06494100  1
  C  C41  1  0.30514000  0.90293200  0.59849500  1
  C  C42  1  0.19916800  0.61452200  0.58512900  1
  C  C43  1  0.09706800  0.40220900  0.93182900  1
  C  C44  1  0.19916800  0.58464600  0.08153700  1
  C  C45  1  0.10404100  0.39713200  0.39827500  1
  C  C46  1  0.07782600  0.19341900  0.24281900  1
  C  C47  1  0.38547800  0.80083200  0.74820400  1
  C  C48  1  0.41535400  0.80083200  0.25179600  1
  C  C49  1  0.11559300  0.19341900  0.75718100  1
  C  C50  1  0.29309000  0.39713200  0.60172500  1
  C  C51  1  0.38547800  0.58464600  0.91846300  1
  C  C52  1  0.30514000  0.40220900  0.06817100  1
  C  C53  1  0.41535400  0.61452200  0.41487100  1
  C  C54  1  0.19341900  0.11559300  0.57615200  1
  C  C55  1  0.19341900  0.07782600  0.09051400  1
  C  C56  1  0.59779100  0.90293200  0.40150500  1
  C  C57  1  0.60286800  0.89595900  0.93505900  1
  C  C58  1  0.60286800  0.70691000  0.73160800  1
  C  C59  1  0.40220900  0.30514000  0.26516200  1
  C  C60  1  0.59779100  0.69486000  0.26516200  1
  C  C61  1  0.39713200  0.29309000  0.73160800  1
  C  C62  1  0.39713200  0.10404100  0.93505900  1
  C  C63  1  0.40220900  0.09706800  0.40150500  1
  C  C64  1  0.80658100  0.92217400  0.09051400  1
  C  C65  1  0.80658100  0.88440700  0.57615200  1
  C  C66  1  0.58464600  0.38547800  0.41487100  1
  C  C67  1  0.69486000  0.59779100  0.06817100  1
  C  C68  1  0.61452200  0.41535400  0.91846300  1
  C  C69  1  0.70691000  0.60286800  0.60172500  1
  C  C70  1  0.88440700  0.80658100  0.75718100  1
  C  C71  1  0.58464600  0.19916800  0.25179600  1
  C  C72  1  0.61452200  0.19916800  0.74820400  1
  C  C73  1  0.92217400  0.80658100  0.24281900  1
  C  C74  1  0.89595900  0.60286800  0.39827500  1
  C  C75  1  0.80083200  0.41535400  0.08153700  1
  C  C76  1  0.90293200  0.59779100  0.93182900  1
  C  C77  1  0.80083200  0.38547800  0.58512900  1
  C  C78  1  0.69486000  0.09706800  0.59849500  1
  C  C79  1  0.70691000  0.10404100  0.06494100  1
  C  C80  1  0.89595900  0.29309000  0.26839200  1
  C  C81  1  0.90293200  0.30514000  0.73483800  1
  C  C82  1  0.88440700  0.07782600  0.90948600  1
  C  C83  1  0.92217400  0.11559300  0.42384800  1
