# generated using pymatgen
data_Cu24Ni4C21
_symmetry_space_group_name_H-M   'P 1'
_cell_length_a   9.13357400
_cell_length_b   9.25166233
_cell_length_c   9.64572177
_cell_angle_alpha   68.89769241
_cell_angle_beta   66.08044884
_cell_angle_gamma   77.18085076
_symmetry_Int_Tables_number   1
_chemical_formula_structural   Cu24Ni4C21
_chemical_formula_sum   'Cu24 Ni4 C21'
_cell_volume   692.34561403
_cell_formula_units_Z   1
loop_
 _symmetry_equiv_pos_site_id
 _symmetry_equiv_pos_as_xyz
  1  'x, y, z'
loop_
 _atom_site_type_symbol
 _atom_site_label
 _atom_site_symmetry_multiplicity
 _atom_site_fract_x
 _atom_site_fract_y
 _atom_site_fract_z
 _atom_site_occupancy
  C  C0  1  0.55882300  0.49790900  0.78668900  1
  C  C1  1  0.44117700  0.50209100  0.21331100  1
  C  C2  1  0.20660500  0.23113100  0.01408900  1
  C  C3  1  0.79339500  0.76886900  0.98591100  1
  C  C4  1  0.09659300  0.38789900  0.14743500  1
  C  C5  1  0.90340700  0.61210100  0.85256500  1
  C  C6  1  0.14984700  0.62846600  0.57210600  1
  C  C7  1  0.85015300  0.37153400  0.42789400  1
  C  C8  1  0.87567300  0.37729400  0.49069500  1
  C  C9  1  0.12432700  0.62270600  0.50930500  1
  C  C10  1  0.33940000  0.07616000  0.64872700  1
  C  C11  1  0.66060000  0.92384000  0.35127300  1
  C  C12  1  0.24171700  0.01846100  0.27498300  1
  C  C13  1  0.75828300  0.98153900  0.72501700  1
  C  C14  1  0.86157600  0.11286500  0.69631500  1
  C  C15  1  0.13842400  0.88713500  0.30368500  1
  C  C16  1  0.83240300  0.48710100  0.01216000  1
  C  C17  1  0.16759700  0.51289900  0.98784000  1
  C  C18  1  0.50000000  0.50000000  0.50000000  1
  C  C19  1  0.11180600  0.09167400  0.05450100  1
  C  C20  1  0.88819400  0.90832600  0.94549900  1
  Ni  Ni21  1  0.98307000  0.30932700  0.78999500  1
  Ni  Ni22  1  0.01693000  0.69067300  0.21000500  1
  Ni  Ni23  1  0.56176900  0.08186100  0.18260800  1
  Ni  Ni24  1  0.43823100  0.91813900  0.81739200  1
  Cu  Cu25  1  0.92616600  0.22341500  0.10779000  1
  Cu  Cu26  1  0.07383400  0.77658500  0.89221000  1
  Cu  Cu27  1  0.44999300  0.38202000  0.60556200  1
  Cu  Cu28  1  0.55000700  0.61798000  0.39443800  1
  Cu  Cu29  1  0.84990900  0.30868200  0.74013000  1
  Cu  Cu30  1  0.15009100  0.69131800  0.25987000  1
  Cu  Cu31  1  0.80826600  0.55073600  0.91491800  1
  Cu  Cu32  1  0.19173400  0.44926400  0.08508200  1
  Cu  Cu33  1  0.65753400  0.03845100  0.29991900  1
  Cu  Cu34  1  0.34246600  0.96154900  0.70008100  1
  Cu  Cu35  1  0.54813700  0.25071500  0.12348800  1
  Cu  Cu36  1  0.45186300  0.74928500  0.87651200  1
  Cu  Cu37  1  0.34061200  0.98657500  0.94931500  1
  Cu  Cu38  1  0.65938800  0.01342500  0.05068500  1
  Cu  Cu39  1  0.41100400  0.01119200  0.27724800  1
  Cu  Cu40  1  0.58899600  0.98880800  0.72275200  1
  Cu  Cu41  1  0.13563400  0.00071400  0.27592100  1
  Cu  Cu42  1  0.86436600  0.99928600  0.72407900  1
  Cu  Cu43  1  0.90303500  0.33457200  0.17581200  1
  Cu  Cu44  1  0.09696500  0.66542800  0.82418800  1
  Cu  Cu45  1  0.37807800  0.31918500  0.54607100  1
  Cu  Cu46  1  0.62192200  0.68081500  0.45392900  1
  Cu  Cu47  1  0.95716300  0.86099800  0.13957000  1
  Cu  Cu48  1  0.04283700  0.13900200  0.86043000  1
