# generated using pymatgen
data_Cu2Ni2C3
_symmetry_space_group_name_H-M   'P 1'
_cell_length_a   3.43977500
_cell_length_b   3.99361600
_cell_length_c   8.44582400
_cell_angle_alpha   90.00000000
_cell_angle_beta   90.00000000
_cell_angle_gamma   90.00000000
_symmetry_Int_Tables_number   1
_chemical_formula_structural   Cu2Ni2C3
_chemical_formula_sum   'Cu2 Ni2 C3'
_cell_volume   116.02147073
_cell_formula_units_Z   1
loop_
 _symmetry_equiv_pos_site_id
 _symmetry_equiv_pos_as_xyz
  1  'x, y, z'
loop_
 _atom_site_type_symbol
 _atom_site_label
 _atom_site_symmetry_multiplicity
 _atom_site_fract_x
 _atom_site_fract_y
 _atom_site_fract_z
 _atom_site_occupancy
  C  C0  1  0.00000000  0.50000000  0.45912700  1
  C  C1  1  0.50000000  0.00000000  0.06556400  1
  C  C2  1  0.00000000  0.50000000  0.88568500  1
  Ni  Ni3  1  0.00000000  0.00000000  0.30582300  1
  Ni  Ni4  1  0.50000000  0.50000000  0.65257600  1
  Cu  Cu5  1  0.00000000  0.00000000  0.94261300  1
  Cu  Cu6  1  0.50000000  0.50000000  0.04860900  1
