# generated using pymatgen
data_Cu3Ni5C6
_symmetry_space_group_name_H-M   'P 1'
_cell_length_a   5.97688422
_cell_length_b   5.97725688
_cell_length_c   10.22338307
_cell_angle_alpha   106.21880523
_cell_angle_beta   88.83451774
_cell_angle_gamma   60.81665895
_symmetry_Int_Tables_number   1
_chemical_formula_structural   Cu3Ni5C6
_chemical_formula_sum   'Cu6 Ni10 C12'
_cell_volume   300.79745498
_cell_formula_units_Z   2
loop_
 _symmetry_equiv_pos_site_id
 _symmetry_equiv_pos_as_xyz
  1  'x, y, z'
loop_
 _atom_site_type_symbol
 _atom_site_label
 _atom_site_symmetry_multiplicity
 _atom_site_fract_x
 _atom_site_fract_y
 _atom_site_fract_z
 _atom_site_occupancy
  C  C0  1  0.86504900  0.24581500  0.38081400  1
  C  C1  1  0.36496700  0.24578200  0.88086400  1
  C  C2  1  0.93652400  0.62064500  0.68411200  1
  C  C3  1  0.43655500  0.62058200  0.18402700  1
  C  C4  1  0.68818400  0.62604800  0.93786900  1
  C  C5  1  0.18818400  0.62595200  0.43776400  1
  C  C6  1  0.93670200  0.12306500  0.67804900  1
  C  C7  1  0.43689200  0.12325000  0.17820900  1
  C  C8  1  0.44500400  0.61474800  0.67806000  1
  C  C9  1  0.94514900  0.61503300  0.17826000  1
  C  C10  1  0.00566000  0.00527900  0.99967800  1
  C  C11  1  0.50561300  0.00516500  0.49960300  1
  Ni  Ni12  1  0.80201500  0.38426200  0.58189400  1
  Ni  Ni13  1  0.30197600  0.38407600  0.08182600  1
  Ni  Ni14  1  0.57445400  0.88024700  0.30573800  1
  Ni  Ni15  1  0.07446200  0.88036600  0.80588400  1
  Ni  Ni16  1  0.81235200  0.87682700  0.06424600  1
  Ni  Ni17  1  0.31225800  0.87666500  0.56424600  1
  Ni  Ni18  1  0.82862300  0.37607000  0.06902600  1
  Ni  Ni19  1  0.32891800  0.37588400  0.56885200  1
  Ni  Ni20  1  0.30698500  0.89769900  0.06899600  1
  Ni  Ni21  1  0.80681000  0.89773000  0.56877000  1
  Cu  Cu22  1  0.56914200  0.38099100  0.81166200  1
  Cu  Cu23  1  0.06918500  0.38102000  0.31163700  1
  Cu  Cu24  1  0.04074400  0.37039300  0.80746400  1
  Cu  Cu25  1  0.54088500  0.37051900  0.30753500  1
  Cu  Cu26  1  0.56329700  0.84784800  0.80744200  1
  Cu  Cu27  1  0.06341000  0.84803800  0.30747500  1
