# generated using pymatgen
data_Cu5NiC16
_symmetry_space_group_name_H-M   'P 1'
_cell_length_a   4.92071833
_cell_length_b   4.92071833
_cell_length_c   9.95047102
_cell_angle_alpha   89.82833080
_cell_angle_beta   89.82833080
_cell_angle_gamma   119.69437717
_symmetry_Int_Tables_number   1
_chemical_formula_structural   Cu5NiC16
_chemical_formula_sum   'Cu5 Ni1 C16'
_cell_volume   209.29208978
_cell_formula_units_Z   1
loop_
 _symmetry_equiv_pos_site_id
 _symmetry_equiv_pos_as_xyz
  1  'x, y, z'
loop_
 _atom_site_type_symbol
 _atom_site_label
 _atom_site_symmetry_multiplicity
 _atom_site_fract_x
 _atom_site_fract_y
 _atom_site_fract_z
 _atom_site_occupancy
  C  C0  1  0.34269900  0.83814400  0.74727200  1
  C  C1  1  0.16185600  0.65730100  0.25272800  1
  C  C2  1  0.83814400  0.34269900  0.74727200  1
  C  C3  1  0.65730100  0.16185600  0.25272800  1
  Ni  Ni4  1  0.00000000  0.00000000  0.00000000  1
  Cu  Cu5  1  0.16483200  0.83516800  0.50000000  1
  Cu  Cu6  1  0.66479700  0.33520300  0.00000000  1
  Cu  Cu7  1  0.33520300  0.66479700  0.00000000  1
  Cu  Cu8  1  0.83516800  0.16483200  0.50000000  1
  Cu  Cu9  1  0.50000000  0.50000000  0.50000000  1
  C  C10  1  0.34017400  0.99626900  0.10714800  1
  C  C11  1  0.00373100  0.65982600  0.89285200  1
  C  C12  1  0.49710700  0.83254700  0.39885800  1
  C  C13  1  0.83254700  0.49710700  0.39885800  1
  C  C14  1  0.16745300  0.50289300  0.60114200  1
  C  C15  1  0.82642400  0.82642400  0.59694100  1
  C  C16  1  0.50289300  0.16745300  0.60114200  1
  C  C17  1  0.99626900  0.34017400  0.10714800  1
  C  C18  1  0.66144900  0.66144900  0.10320200  1
  C  C19  1  0.65982600  0.00373100  0.89285200  1
  C  C20  1  0.33855100  0.33855100  0.89679800  1
  C  C21  1  0.17357600  0.17357600  0.40305900  1
