# generated using pymatgen
data_Cu7NiC4
_symmetry_space_group_name_H-M   'P 1'
_cell_length_a   8.29998013
_cell_length_b   8.29998013
_cell_length_c   10.27603205
_cell_angle_alpha   107.45781579
_cell_angle_beta   107.45781579
_cell_angle_gamma   101.97308464
_symmetry_Int_Tables_number   1
_chemical_formula_structural   Cu7NiC4
_chemical_formula_sum   'Cu28 Ni4 C16'
_cell_volume   608.81174277
_cell_formula_units_Z   4
loop_
 _symmetry_equiv_pos_site_id
 _symmetry_equiv_pos_as_xyz
  1  'x, y, z'
loop_
 _atom_site_type_symbol
 _atom_site_label
 _atom_site_symmetry_multiplicity
 _atom_site_fract_x
 _atom_site_fract_y
 _atom_site_fract_z
 _atom_site_occupancy
  C  C0  1  0.24859600  0.23486100  0.24161900  1
  C  C1  1  0.74859600  0.73486100  0.24161900  1
  C  C2  1  0.48486100  0.99859600  0.24161900  1
  C  C3  1  0.98486100  0.49859600  0.24161900  1
  C  C4  1  0.01513900  0.50140400  0.75838100  1
  C  C5  1  0.51513900  0.00140400  0.75838100  1
  C  C6  1  0.25140400  0.26513900  0.75838100  1
  C  C7  1  0.75140400  0.76513900  0.75838100  1
  C  C8  1  0.44520800  0.69520800  0.34921200  1
  C  C9  1  0.05479200  0.80479200  0.65078800  1
  C  C10  1  0.94520800  0.19520800  0.34921200  1
  C  C11  1  0.55479200  0.30479200  0.65078800  1
  C  C12  1  0.69756600  0.44756600  0.42956200  1
  C  C13  1  0.19756600  0.94756600  0.42956200  1
  C  C14  1  0.80243400  0.05243400  0.57043800  1
  C  C15  1  0.30243400  0.55243400  0.57043800  1
  Ni  Ni16  1  0.77762500  0.02762500  0.08064300  1
  Ni  Ni17  1  0.27762500  0.52762500  0.08064300  1
  Ni  Ni18  1  0.72237500  0.47237500  0.91935700  1
  Ni  Ni19  1  0.22237500  0.97237500  0.91935700  1
  Cu  Cu20  1  0.30770700  0.05770700  0.05495000  1
  Cu  Cu21  1  0.80770700  0.55770700  0.05495000  1
  Cu  Cu22  1  0.19229300  0.44229300  0.94505000  1
  Cu  Cu23  1  0.69229300  0.94229300  0.94505000  1
  Cu  Cu24  1  0.92012000  0.17012000  0.14027800  1
  Cu  Cu25  1  0.42012000  0.67012000  0.14027800  1
  Cu  Cu26  1  0.57988000  0.32988000  0.85972200  1
  Cu  Cu27  1  0.07988000  0.82988000  0.85972200  1
  Cu  Cu28  1  0.73497000  0.98497000  0.18314000  1
  Cu  Cu29  1  0.23497000  0.48497000  0.18314000  1
  Cu  Cu30  1  0.76503000  0.51503000  0.81686000  1
  Cu  Cu31  1  0.26503000  0.01503000  0.81686000  1
  Cu  Cu32  1  0.64921500  0.89921500  0.41398000  1
  Cu  Cu33  1  0.14921500  0.39921500  0.41398000  1
  Cu  Cu34  1  0.85078500  0.60078500  0.58602000  1
  Cu  Cu35  1  0.35078500  0.10078500  0.58602000  1
  Cu  Cu36  1  0.55893900  0.30893900  0.46669200  1
  Cu  Cu37  1  0.05893900  0.80893900  0.46669200  1
  Cu  Cu38  1  0.94106100  0.19106100  0.53330800  1
  Cu  Cu39  1  0.44106100  0.69106100  0.53330800  1
  Cu  Cu40  1  0.58385200  0.53694400  0.32816500  1
  Cu  Cu41  1  0.08385200  0.03694400  0.32816500  1
  Cu  Cu42  1  0.78694400  0.33385200  0.32816500  1
  Cu  Cu43  1  0.28694400  0.83385200  0.32816500  1
  Cu  Cu44  1  0.71305600  0.16614800  0.67183500  1
  Cu  Cu45  1  0.21305600  0.66614800  0.67183500  1
  Cu  Cu46  1  0.91614800  0.96305600  0.67183500  1
  Cu  Cu47  1  0.41614800  0.46305600  0.67183500  1
