# generated using pymatgen
data_Cu(Ni2C9)3
_symmetry_space_group_name_H-M   'P 1'
_cell_length_a   4.92131300
_cell_length_b   8.03351312
_cell_length_c   11.48356938
_cell_angle_alpha   88.70220173
_cell_angle_beta   89.22322106
_cell_angle_gamma   87.05730920
_symmetry_Int_Tables_number   1
_chemical_formula_structural   Cu(Ni2C9)3
_chemical_formula_sum   'Cu1 Ni6 C27'
_cell_volume   453.25798453
_cell_formula_units_Z   1
loop_
 _symmetry_equiv_pos_site_id
 _symmetry_equiv_pos_as_xyz
  1  'x, y, z'
loop_
 _atom_site_type_symbol
 _atom_site_label
 _atom_site_symmetry_multiplicity
 _atom_site_fract_x
 _atom_site_fract_y
 _atom_site_fract_z
 _atom_site_occupancy
  C  C0  1  0.72919200  0.00577900  0.17697300  1
  C  C1  1  0.27080800  0.99422100  0.82302700  1
  C  C2  1  0.00000000  0.00000000  0.50000000  1
  C  C3  1  0.71761500  0.49427600  0.20299500  1
  C  C4  1  0.28238500  0.50572400  0.79700500  1
  Ni  Ni5  1  0.18208500  0.70598100  0.05093200  1
  Ni  Ni6  1  0.81791500  0.29401900  0.94906800  1
  Ni  Ni7  1  0.23364700  0.30246600  0.34301900  1
  Ni  Ni8  1  0.76635300  0.69753400  0.65698100  1
  Ni  Ni9  1  0.52783500  0.75653100  0.42561500  1
  Ni  Ni10  1  0.47216500  0.24346900  0.57438500  1
  Cu  Cu11  1  0.50000000  0.50000000  0.00000000  1
  C  C12  1  0.92091700  0.68129900  0.12474500  1
  C  C13  1  0.07908300  0.31870100  0.87525500  1
  C  C14  1  0.40876100  0.56638500  0.08611700  1
  C  C15  1  0.59123900  0.43361500  0.91388300  1
  C  C16  1  0.26976600  0.88466000  0.07075400  1
  C  C17  1  0.73023400  0.11534000  0.92924600  1
  C  C18  1  0.13590100  0.68189800  0.91955100  1
  C  C19  1  0.86409900  0.31810200  0.08044900  1
  C  C20  1  0.13567300  0.12337200  0.34705900  1
  C  C21  1  0.86432700  0.87662800  0.65294100  1
  C  C22  1  0.01568300  0.43462000  0.31015300  1
  C  C23  1  0.98431700  0.56538000  0.68984700  1
  C  C24  1  0.67697000  0.64608400  0.52811300  1
  C  C25  1  0.32303000  0.35391600  0.47188700  1
  C  C26  1  0.48923900  0.30484600  0.26288900  1
  C  C27  1  0.51076100  0.69515400  0.73711100  1
  C  C28  1  0.69531000  0.91399000  0.40709600  1
  C  C29  1  0.30469000  0.08601000  0.59290400  1
  C  C30  1  0.23604000  0.79713900  0.46464300  1
  C  C31  1  0.76396000  0.20286100  0.53535700  1
  C  C32  1  0.53978100  0.65885400  0.31478000  1
  C  C33  1  0.46021900  0.34114600  0.68522000  1
