# generated using pymatgen
data_Cu18Ni36C43
_symmetry_space_group_name_H-M   'P 1'
_cell_length_a   11.69093901
_cell_length_b   11.69093901
_cell_length_c   11.69476286
_cell_angle_alpha   70.56198168
_cell_angle_beta   70.56198168
_cell_angle_gamma   109.44454157
_symmetry_Int_Tables_number   1
_chemical_formula_structural   Cu18Ni36C43
_chemical_formula_sum   'Cu18 Ni36 C43'
_cell_volume   1231.87381566
_cell_formula_units_Z   1
loop_
 _symmetry_equiv_pos_site_id
 _symmetry_equiv_pos_as_xyz
  1  'x, y, z'
loop_
 _atom_site_type_symbol
 _atom_site_label
 _atom_site_symmetry_multiplicity
 _atom_site_fract_x
 _atom_site_fract_y
 _atom_site_fract_z
 _atom_site_occupancy
  C  C0  1  0.42499200  0.99997100  0.31995000  1
  C  C1  1  0.99997100  0.42499200  0.31995000  1
  C  C2  1  0.99958700  0.99958700  0.00207200  1
  C  C3  1  0.57914000  0.57914000  0.74780400  1
  C  C4  1  0.75065400  0.32678000  0.66801900  1
  C  C5  1  0.32678000  0.75065400  0.66801900  1
  C  C6  1  0.00279000  0.67476200  0.57737400  1
  C  C7  1  0.67476200  0.00279000  0.57737400  1
  C  C8  1  0.57553000  0.24957400  0.41970200  1
  C  C9  1  0.24957400  0.57553000  0.41970200  1
  C  C10  1  0.32647000  0.32647000  0.25293600  1
  C  C11  1  0.67319800  0.42105300  0.00221300  1
  C  C12  1  0.42105300  0.67319800  0.00221300  1
  C  C13  1  0.99986300  0.75370700  0.83755400  1
  C  C14  1  0.75311900  0.16193100  0.00027300  1
  C  C15  1  0.16193100  0.75311900  0.00027300  1
  C  C16  1  0.75370700  0.99986300  0.83755400  1
  C  C17  1  0.83765400  0.83765400  0.40945200  1
  C  C18  1  0.24738300  0.40995800  0.75292700  1
  C  C19  1  0.40995800  0.24738300  0.75292700  1
  C  C20  1  0.24639700  0.24639700  0.59172300  1
  C  C21  1  0.59104500  0.83788700  0.16244800  1
  C  C22  1  0.83788700  0.59104500  0.16244800  1
  C  C23  1  0.00045500  0.16266600  0.24619200  1
  C  C24  1  0.16266600  0.00045500  0.24619200  1
  C  C25  1  0.69909800  0.69909800  0.99984300  1
  C  C26  1  0.84003800  0.84003800  0.69856600  1
  C  C27  1  0.16086900  0.46172900  0.99827300  1
  C  C28  1  0.99952000  0.29979700  0.69978400  1
  C  C29  1  0.99953500  0.46138400  0.83907000  1
  C  C30  1  0.46138400  0.99953500  0.83907000  1
  C  C31  1  0.69908300  0.53908600  0.46137700  1
  C  C32  1  0.53908600  0.69908300  0.46137700  1
  C  C33  1  0.29979700  0.99952000  0.69978400  1
  C  C34  1  0.53871700  0.53871700  0.30058500  1
  C  C35  1  0.00042900  0.16138700  0.53763000  1
  C  C36  1  0.16138700  0.00042900  0.53763000  1
  C  C37  1  0.84172100  0.30129000  0.15923900  1
  C  C38  1  0.30129000  0.84172100  0.15923900  1
  C  C39  1  0.69966800  0.00007700  0.30104100  1
  C  C40  1  0.00007700  0.69966800  0.30104100  1
  C  C41  1  0.46172900  0.16086900  0.99827300  1
  C  C42  1  0.30141600  0.30141600  0.00004200  1
  Ni  Ni43  1  0.68885600  0.84250600  0.99982700  1
  Ni  Ni44  1  0.84250600  0.68885600  0.99982700  1
  Ni  Ni45  1  0.69552000  0.69552000  0.85369400  1
  Ni  Ni46  1  0.30572700  0.45176200  0.99907700  1
  Ni  Ni47  1  0.84661100  0.15614600  0.84368400  1
  Ni  Ni48  1  0.15614600  0.84661100  0.84368400  1
  Ni  Ni49  1  0.48020000  0.15129000  0.84709500  1
  Ni  Ni50  1  0.15129000  0.48020000  0.84709500  1
  Ni  Ni51  1  0.31181000  0.31181000  0.84624400  1
  Ni  Ni52  1  0.00009600  0.30399000  0.55082700  1
  Ni  Ni53  1  0.00004500  0.84990300  0.67252900  1
  Ni  Ni54  1  0.84990300  0.00004500  0.67252900  1
  Ni  Ni55  1  0.84306000  0.99961500  0.31109300  1
  Ni  Ni56  1  0.67266600  0.67266600  0.47766700  1
  Ni  Ni57  1  0.85373200  0.55101900  0.45134200  1
  Ni  Ni58  1  0.55101900  0.85373200  0.45134200  1
  Ni  Ni59  1  0.15348000  0.31066900  0.69027400  1
  Ni  Ni60  1  0.31066900  0.15348000  0.69027400  1
  Ni  Ni61  1  0.99673700  0.44839100  0.69671400  1
  Ni  Ni62  1  0.44839100  0.99673700  0.69671400  1
  Ni  Ni63  1  0.52176900  0.67223900  0.32784200  1
  Ni  Ni64  1  0.67223900  0.52176900  0.32784200  1
  Ni  Ni65  1  0.00000400  0.69289900  0.15619600  1
  Ni  Ni66  1  0.30399000  0.00009600  0.55082700  1
  Ni  Ni67  1  0.15061700  0.15061700  0.52267500  1
  Ni  Ni68  1  0.99961500  0.84306000  0.31109300  1
  Ni  Ni69  1  0.69887400  0.14723800  0.30486500  1
  Ni  Ni70  1  0.14723800  0.69887400  0.30486500  1
  Ni  Ni71  1  0.55047200  0.55047200  0.14509600  1
  Ni  Ni72  1  0.84903500  0.32813600  0.99937200  1
  Ni  Ni73  1  0.32813600  0.84903500  0.99937200  1
  Ni  Ni74  1  0.69289900  0.00000400  0.15619600  1
  Ni  Ni75  1  0.15831200  0.15831200  0.15266600  1
  Ni  Ni76  1  0.00183400  0.32544000  0.14401200  1
  Ni  Ni77  1  0.32544000  0.00183400  0.14401200  1
  Ni  Ni78  1  0.45176200  0.30572700  0.99907700  1
  Cu  Cu79  1  0.74989600  0.50116300  0.74918600  1
  Cu  Cu80  1  0.50116300  0.74989600  0.74918600  1
  Cu  Cu81  1  0.81154600  0.81154600  0.57836700  1
  Cu  Cu82  1  0.99969000  0.61024400  0.81257100  1
  Cu  Cu83  1  0.61024400  0.99969000  0.81257100  1
  Cu  Cu84  1  0.39139600  0.57718800  0.61032200  1
  Cu  Cu85  1  0.57718800  0.39139600  0.61032200  1
  Cu  Cu86  1  0.24063700  0.73327800  0.51210500  1
  Cu  Cu87  1  0.73327800  0.24063700  0.51210500  1
  Cu  Cu88  1  0.99929700  0.18237900  0.39142400  1
  Cu  Cu89  1  0.38987800  0.38987800  0.42307700  1
  Cu  Cu90  1  0.42300700  0.81343200  0.18609700  1
  Cu  Cu91  1  0.81343200  0.42300700  0.18609700  1
  Cu  Cu92  1  0.50658900  0.26613700  0.24444400  1
  Cu  Cu93  1  0.26613700  0.50658900  0.24444400  1
  Cu  Cu94  1  0.18237900  0.99929700  0.39142400  1
  Cu  Cu95  1  0.18758100  0.61006800  0.99974100  1
  Cu  Cu96  1  0.61006800  0.18758100  0.99974100  1
