# generated using pymatgen
data_Cu6(NiC5)5
_symmetry_space_group_name_H-M   'P 1'
_cell_length_a   10.09937636
_cell_length_b   10.09937636
_cell_length_c   10.09937620
_cell_angle_alpha   49.63405479
_cell_angle_beta   49.63405479
_cell_angle_gamma   49.63405679
_symmetry_Int_Tables_number   1
_chemical_formula_structural   Cu6(NiC5)5
_chemical_formula_sum   'Cu6 Ni5 C25'
_cell_volume   549.86968937
_cell_formula_units_Z   1
loop_
 _symmetry_equiv_pos_site_id
 _symmetry_equiv_pos_as_xyz
  1  'x, y, z'
loop_
 _atom_site_type_symbol
 _atom_site_label
 _atom_site_symmetry_multiplicity
 _atom_site_fract_x
 _atom_site_fract_y
 _atom_site_fract_z
 _atom_site_occupancy
  Ni  Ni0  1  0.82686800  0.82686800  0.82686800  1
  Ni  Ni1  1  0.17313200  0.17313200  0.17313200  1
  Ni  Ni2  1  0.57173900  0.57173900  0.57173900  1
  Ni  Ni3  1  0.42826100  0.42826100  0.42826100  1
  Ni  Ni4  1  0.00000000  0.00000000  0.00000000  1
  Cu  Cu5  1  0.82070200  0.06106200  0.38635000  1
  Cu  Cu6  1  0.61365000  0.17929800  0.93893800  1
  Cu  Cu7  1  0.93893800  0.61365000  0.17929800  1
  Cu  Cu8  1  0.06106200  0.38635000  0.82070200  1
  Cu  Cu9  1  0.38635000  0.82070200  0.06106200  1
  Cu  Cu10  1  0.17929800  0.93893800  0.61365000  1
  C  C11  1  0.95532000  0.27386800  0.90014000  1
  C  C12  1  0.89681100  0.21463700  0.27371900  1
  C  C13  1  0.72628100  0.10318900  0.78536300  1
  C  C14  1  0.72613200  0.09986000  0.04468000  1
  C  C15  1  0.59864200  0.16722000  0.44186300  1
  C  C16  1  0.91224700  0.56276100  0.86407200  1
  C  C17  1  0.43723900  0.13592800  0.08775300  1
  C  C18  1  0.83278000  0.55813700  0.40135800  1
  C  C19  1  0.55813700  0.40135800  0.83278000  1
  C  C20  1  0.09986000  0.04468000  0.72613200  1
  C  C21  1  0.78536300  0.72628100  0.10318900  1
  C  C22  1  0.13592800  0.08775300  0.43723900  1
  C  C23  1  0.50000000  0.50000000  0.50000000  1
  C  C24  1  0.86407200  0.91224700  0.56276100  1
  C  C25  1  0.21463700  0.27371900  0.89681100  1
  C  C26  1  0.90014000  0.95532000  0.27386800  1
  C  C27  1  0.44186300  0.59864200  0.16722000  1
  C  C28  1  0.16722000  0.44186300  0.59864200  1
  C  C29  1  0.56276100  0.86407200  0.91224700  1
  C  C30  1  0.08775300  0.43723900  0.13592800  1
  C  C31  1  0.40135800  0.83278000  0.55813700  1
  C  C32  1  0.27386800  0.90014000  0.95532000  1
  C  C33  1  0.27371900  0.89681100  0.21463700  1
  C  C34  1  0.10318900  0.78536300  0.72628100  1
  C  C35  1  0.04468000  0.72613200  0.09986000  1
