# generated using pymatgen
data_Cu2NiC2
_symmetry_space_group_name_H-M   'P 1'
_cell_length_a   3.54934480
_cell_length_b   3.54934480
_cell_length_c   12.61455500
_cell_angle_alpha   90.00000000
_cell_angle_beta   90.00000000
_cell_angle_gamma   120.00001500
_symmetry_Int_Tables_number   1
_chemical_formula_structural   Cu2NiC2
_chemical_formula_sum   'Cu4 Ni2 C4'
_cell_volume   137.62549165
_cell_formula_units_Z   2
loop_
 _symmetry_equiv_pos_site_id
 _symmetry_equiv_pos_as_xyz
  1  'x, y, z'
loop_
 _atom_site_type_symbol
 _atom_site_label
 _atom_site_symmetry_multiplicity
 _atom_site_fract_x
 _atom_site_fract_y
 _atom_site_fract_z
 _atom_site_occupancy
  C  C0  1  0.33333300  0.66666700  0.60699200  1
  C  C1  1  0.66666700  0.33333300  0.10699200  1
  C  C2  1  0.66666700  0.33333300  0.39300800  1
  C  C3  1  0.33333300  0.66666700  0.89300800  1
  Ni  Ni4  1  0.00000000  0.00000000  0.25000000  1
  Ni  Ni5  1  0.00000000  0.00000000  0.75000000  1
  Cu  Cu6  1  0.66666700  0.33333300  0.56566000  1
  Cu  Cu7  1  0.33333300  0.66666700  0.06566000  1
  Cu  Cu8  1  0.33333300  0.66666700  0.43434000  1
  Cu  Cu9  1  0.66666700  0.33333300  0.93434000  1
