# generated using pymatgen
data_Cu4Ni3C8
_symmetry_space_group_name_H-M   'P 1'
_cell_length_a   8.88884500
_cell_length_b   9.25525001
_cell_length_c   9.27823444
_cell_angle_alpha   89.83637745
_cell_angle_beta   89.54830380
_cell_angle_gamma   89.52279637
_symmetry_Int_Tables_number   1
_chemical_formula_structural   Cu4Ni3C8
_chemical_formula_sum   'Cu16 Ni12 C32'
_cell_volume   763.25310536
_cell_formula_units_Z   4
loop_
 _symmetry_equiv_pos_site_id
 _symmetry_equiv_pos_as_xyz
  1  'x, y, z'
loop_
 _atom_site_type_symbol
 _atom_site_label
 _atom_site_symmetry_multiplicity
 _atom_site_fract_x
 _atom_site_fract_y
 _atom_site_fract_z
 _atom_site_occupancy
  Ni  Ni0  1  0.12600400  0.83333100  0.07558900  1
  Ni  Ni1  1  0.34196200  0.58399100  0.12137000  1
  Ni  Ni2  1  0.59165400  0.37722500  0.16740000  1
  Ni  Ni3  1  0.09074500  0.62696000  0.32675800  1
  Ni  Ni4  1  0.83829200  0.42447000  0.36995900  1
  Ni  Ni5  1  0.62772300  0.16904600  0.41377000  1
  Ni  Ni6  1  0.87766600  0.66626700  0.58262000  1
  Ni  Ni7  1  0.66574700  0.91482000  0.62823600  1
  Ni  Ni8  1  0.41868700  0.12924100  0.66837100  1
  Ni  Ni9  1  0.91920200  0.86949800  0.83447100  1
  Ni  Ni10  1  0.16863200  0.08919400  0.87820500  1
  Ni  Ni11  1  0.37925700  0.33139500  0.92123800  1
  Cu  Cu12  1  0.98967000  0.16064100  0.20240000  1
  Cu  Cu13  1  0.29886900  0.97857900  0.33548700  1
  Cu  Cu14  1  0.12036100  0.36247900  0.61602800  1
  Cu  Cu15  1  0.40793900  0.50227100  0.53014300  1
  Cu  Cu16  1  0.78969500  0.21529400  0.91384100  1
  Cu  Cu17  1  0.62550900  0.62392700  0.87125400  1
  Cu  Cu18  1  0.17735300  0.60133800  0.78262600  1
  Cu  Cu19  1  0.26545700  0.81197300  0.59006500  1
  Cu  Cu20  1  0.88080300  0.90200100  0.34518200  1
  Cu  Cu21  1  0.95267400  0.47611800  0.97818800  1
  Cu  Cu22  1  0.67324200  0.38518700  0.69183900  1
  Cu  Cu23  1  0.25067700  0.28577400  0.34062800  1
  Cu  Cu24  1  0.98763600  0.10609400  0.55574900  1
  Cu  Cu25  1  0.49051100  0.88861800  0.94901400  1
  Cu  Cu26  1  0.72860400  0.99482200  0.11022800  1
  Cu  Cu27  1  0.54635800  0.74170000  0.34717000  1
  C  C28  1  0.91242800  0.84316700  0.03606900  1
  C  C29  1  0.15478200  0.03870400  0.07834900  1
  C  C30  1  0.33712300  0.79068100  0.09609700  1
  C  C31  1  0.11820200  0.61794600  0.11237300  1
  C  C32  1  0.36940200  0.36883500  0.13286800  1
  C  C33  1  0.55155800  0.58191800  0.15098200  1
  C  C34  1  0.80222000  0.40440900  0.16894500  1
  C  C35  1  0.59852900  0.16889700  0.21238300  1
  C  C36  1  0.10504400  0.83276500  0.28301600  1
  C  C37  1  0.30196900  0.59582500  0.32643000  1
  C  C38  1  0.05056700  0.42600700  0.33999300  1
  C  C39  1  0.86758300  0.63640800  0.36575600  1
  C  C40  1  0.61373400  0.38570800  0.38256200  1
  C  C41  1  0.83981400  0.21605800  0.39774100  1
  C  C42  1  0.65571400  0.96032500  0.42332100  1
  C  C43  1  0.41646900  0.15198100  0.45920000  1
  C  C44  1  0.09171200  0.66006200  0.53389000  1
  C  C45  1  0.86711400  0.46013500  0.57609100  1
  C  C46  1  0.66554700  0.70949400  0.59521000  1
  C  C47  1  0.88821400  0.87936800  0.61912700  1
  C  C48  1  0.63892700  0.13338300  0.63233200  1
  C  C49  1  0.45471700  0.92600900  0.66257700  1
  C  C50  1  0.20626500  0.10654100  0.67414900  1
  C  C51  1  0.41573700  0.33404400  0.71292300  1
  C  C52  1  0.91164200  0.66477900  0.78855700  1
  C  C53  1  0.70530500  0.89960900  0.82944200  1
  C  C54  1  0.95901900  0.07537400  0.83860100  1
  C  C55  1  0.14033500  0.86462300  0.86465800  1
  C  C56  1  0.39010100  0.11860300  0.88254500  1
  C  C57  1  0.16795200  0.29398400  0.90611800  1
  C  C58  1  0.36271500  0.53886100  0.91928700  1
  C  C59  1  0.59537300  0.34716100  0.96275800  1
