# generated using pymatgen
data_Cu4NiC23
_symmetry_space_group_name_H-M   'P 1'
_cell_length_a   10.46862600
_cell_length_b   10.46996599
_cell_length_c   18.11417618
_cell_angle_alpha   73.98442710
_cell_angle_beta   73.21239274
_cell_angle_gamma   60.22533848
_symmetry_Int_Tables_number   1
_chemical_formula_structural   Cu4NiC23
_chemical_formula_sum   'Cu16 Ni4 C92'
_cell_volume   1628.77656864
_cell_formula_units_Z   4
loop_
 _symmetry_equiv_pos_site_id
 _symmetry_equiv_pos_as_xyz
  1  'x, y, z'
loop_
 _atom_site_type_symbol
 _atom_site_label
 _atom_site_symmetry_multiplicity
 _atom_site_fract_x
 _atom_site_fract_y
 _atom_site_fract_z
 _atom_site_occupancy
  C  C0  1  0.41074400  0.91009900  0.16053900  1
  C  C1  1  0.39798700  0.28467500  0.03387400  1
  C  C2  1  0.28386900  0.78480600  0.53436300  1
  C  C3  1  0.78229600  0.28676100  0.03448200  1
  C  C4  1  0.71422600  0.60772500  0.46414400  1
  C  C5  1  0.41082300  0.51752400  0.16113400  1
  C  C6  1  0.20930100  0.10567500  0.96278600  1
  C  C7  1  0.10567500  0.21452600  0.46482700  1
  C  C8  1  0.01920300  0.91009700  0.16031800  1
  C  C9  1  0.51312800  0.41119300  0.65811300  1
  C  C10  1  0.09040900  0.59100200  0.34060100  1
  C  C11  1  0.91627400  0.40516700  0.66014700  1
  C  C12  1  0.47728400  0.59105100  0.34078600  1
  C  C13  1  0.59024400  0.47570200  0.84208600  1
  C  C14  1  0.89772300  0.78466400  0.53381500  1
  C  C15  1  0.20163700  0.72742400  0.96437500  1
  C  C16  1  0.71495200  0.21409400  0.46461700  1
  C  C17  1  0.90971700  0.02296700  0.66283100  1
  C  C18  1  0.60813300  0.71925000  0.96596700  1
  C  C19  1  0.58947800  0.09221300  0.84056200  1
  C  C20  1  0.99547400  0.51011500  0.99948100  1
  C  C21  1  0.24792600  0.24250600  0.25302800  1
  C  C22  1  0.49631100  0.00925100  0.49936200  1
  C  C23  1  0.75690600  0.24244200  0.25211500  1
  C  C24  1  0.24484900  0.75461400  0.75202300  1
  C  C25  1  0.75320200  0.74638000  0.75059400  1
  C  C26  1  0.75027600  0.75534700  0.24523600  1
  C  C27  1  0.24530300  0.25039700  0.74822200  1
  Ni  Ni28  1  0.18763800  0.68725000  0.43752200  1
  Ni  Ni29  1  0.31326400  0.81198500  0.06246900  1
  Ni  Ni30  1  0.68875300  0.18618900  0.93716200  1
  Ni  Ni31  1  0.81075400  0.31421300  0.56254500  1
  Cu  Cu32  1  0.08329000  0.19889700  0.13592400  1
  Cu  Cu33  1  0.08799100  0.57761700  0.14056600  1
  Cu  Cu34  1  0.42106500  0.91821300  0.36113200  1
  Cu  Cu35  1  0.60963400  0.11275500  0.16955600  1
  Cu  Cu36  1  0.11028000  0.61093200  0.66972300  1
  Cu  Cu37  1  0.41876500  0.30162900  0.35899300  1
  Cu  Cu38  1  0.80083300  0.91705400  0.36021500  1
  Cu  Cu39  1  0.30180200  0.41942000  0.86035500  1
  Cu  Cu40  1  0.19510800  0.07888400  0.63761700  1
  Cu  Cu41  1  0.69378500  0.57816900  0.14081300  1
  Cu  Cu42  1  0.58230900  0.69693800  0.63880800  1
  Cu  Cu43  1  0.58741600  0.07788300  0.64075400  1
  Cu  Cu44  1  0.88546000  0.39537000  0.33259400  1
  Cu  Cu45  1  0.39424800  0.88837100  0.83258000  1
  Cu  Cu46  1  0.91664900  0.42222900  0.86034300  1
  Cu  Cu47  1  0.91712800  0.80011900  0.86003400  1
  C  C48  1  0.13246400  0.26489600  0.07053400  1
  C  C49  1  0.07358400  0.59928600  0.46644700  1
  C  C50  1  0.23075100  0.70223900  0.33647100  1
  C  C51  1  0.15767200  0.13873200  0.19268700  1
  C  C52  1  0.03972400  0.62930400  0.07489600  1
  C  C53  1  0.35996900  0.59977400  0.46670700  1
  C  C54  1  0.08676200  0.84723800  0.48040100  1
  C  C55  1  0.98972600  0.35895200  0.79870200  1
  C  C56  1  0.48063600  0.12350200  0.16799500  1
  C  C57  1  0.48998000  0.84647800  0.30174200  1
  C  C58  1  0.21072100  0.45425900  0.14810700  1
  C  C59  1  0.30165800  0.04461300  0.35616300  1
  C  C60  1  0.22661700  0.48207900  0.67519500  1
  C  C61  1  0.72670500  0.98461800  0.17381100  1
  C  C62  1  0.01711200  0.38000500  0.33317200  1
  C  C63  1  0.41368000  0.64470600  0.02720900  1
  C  C64  1  0.14428100  0.91369000  0.03070700  1
  C  C65  1  0.47228700  0.86313900  0.42661300  1
  C  C66  1  0.62148900  0.23249900  0.16713900  1
  C  C67  1  0.12187400  0.73115300  0.66751000  1
  C  C68  1  0.34646100  0.36370300  0.30079700  1
  C  C69  1  0.80950000  0.79096800  0.35533400  1
  C  C70  1  0.30866900  0.29605300  0.85285400  1
  C  C71  1  0.41185200  0.91488500  0.02891700  1
  C  C72  1  0.28135500  0.77643400  0.16324100  1
  C  C73  1  0.95940500  0.19025400  0.14362900  1
  C  C74  1  0.45883900  0.68842900  0.64582400  1
  C  C75  1  0.26137600  0.02799700  0.57117700  1
  C  C76  1  0.75898400  0.52736800  0.07448000  1
  C  C77  1  0.85406100  0.98815500  0.29952100  1
  C  C78  1  0.36723900  0.23187800  0.42141000  1
  C  C79  1  0.36049200  0.49164500  0.80235200  1
  C  C80  1  0.63341900  0.76254000  0.57412900  1
  C  C81  1  0.63646600  0.50475300  0.19867500  1
  C  C82  1  0.13608300  0.00569500  0.69428400  1
  C  C83  1  0.04454400  0.79727600  0.85672200  1
  C  C84  1  0.73864500  0.97102200  0.42569400  1
  C  C85  1  0.23771900  0.47083600  0.92641900  1
  C  C86  1  0.54171000  0.30929400  0.35424900  1
  C  C87  1  0.57374900  0.09918900  0.96695200  1
  C  C88  1  0.70527400  0.22999500  0.83627400  1
  C  C89  1  0.18545800  0.20239500  0.64560700  1
  C  C90  1  0.68344000  0.70277800  0.14798500  1
  C  C91  1  0.65516000  0.63668400  0.69683400  1
  C  C92  1  0.87010500  0.27902900  0.33399100  1
  C  C93  1  0.54058900  0.12898800  0.57462900  1
  C  C94  1  0.37903000  0.77131600  0.83302400  1
  C  C95  1  0.58412800  0.35876100  0.97208200  1
  C  C96  1  0.85020700  0.09736600  0.97364800  1
  C  C97  1  0.98207600  0.62281600  0.66672100  1
  C  C98  1  0.71123100  0.95476800  0.64789400  1
  C  C99  1  0.28003000  0.01859400  0.83229900  1
  C  C100  1  0.77051000  0.52626900  0.33250100  1
  C  C101  1  0.78891800  0.54219300  0.85661000  1
  C  C102  1  0.52554300  0.87165400  0.83427000  1
  C  C103  1  0.51312100  0.15122400  0.69924000  1
  C  C104  1  0.01440000  0.65192400  0.19904300  1
  C  C105  1  0.91248000  0.14433200  0.53007300  1
  C  C106  1  0.64466900  0.41451000  0.52773500  1
  C  C107  1  0.96876400  0.36859300  0.92530900  1
  C  C108  1  0.84642700  0.86708300  0.80127900  1
  C  C109  1  0.91216600  0.41438000  0.52888500  1
  C  C110  1  0.77399600  0.28360000  0.66332300  1
  C  C111  1  0.86094700  0.73296700  0.92174500  1
