# generated using pymatgen
data_Cu2NiC6
_symmetry_space_group_name_H-M   'P 1'
_cell_length_a   6.46097300
_cell_length_b   6.46097300
_cell_length_c   5.76051427
_cell_angle_alpha   76.46319463
_cell_angle_beta   76.46319463
_cell_angle_gamma   26.12245075
_symmetry_Int_Tables_number   1
_chemical_formula_structural   Cu2NiC6
_chemical_formula_sum   'Cu2 Ni1 C6'
_cell_volume   102.77391043
_cell_formula_units_Z   1
loop_
 _symmetry_equiv_pos_site_id
 _symmetry_equiv_pos_as_xyz
  1  'x, y, z'
loop_
 _atom_site_type_symbol
 _atom_site_label
 _atom_site_symmetry_multiplicity
 _atom_site_fract_x
 _atom_site_fract_y
 _atom_site_fract_z
 _atom_site_occupancy
  Ni  Ni0  1  0.00000000  0.00000000  0.50000000  1
  Cu  Cu1  1  0.66945700  0.66945700  0.16632000  1
  Cu  Cu2  1  0.33054300  0.33054300  0.83368000  1
  C  C3  1  0.16160300  0.16160300  0.38326700  1
  C  C4  1  0.48598700  0.48598700  0.73246600  1
  C  C5  1  0.82195400  0.82195400  0.05420900  1
  C  C6  1  0.51401300  0.51401300  0.26753400  1
  C  C7  1  0.83839700  0.83839700  0.61673300  1
  C  C8  1  0.17804600  0.17804600  0.94579100  1
