# generated using pymatgen
data_Cu8Ni2C5
_symmetry_space_group_name_H-M   'P 1'
_cell_length_a   4.85218000
_cell_length_b   7.96447099
_cell_length_c   10.04068293
_cell_angle_alpha   70.77380765
_cell_angle_beta   88.65271772
_cell_angle_gamma   88.39466061
_symmetry_Int_Tables_number   1
_chemical_formula_structural   Cu8Ni2C5
_chemical_formula_sum   'Cu16 Ni4 C10'
_cell_volume   366.19529861
_cell_formula_units_Z   2
loop_
 _symmetry_equiv_pos_site_id
 _symmetry_equiv_pos_as_xyz
  1  'x, y, z'
loop_
 _atom_site_type_symbol
 _atom_site_label
 _atom_site_symmetry_multiplicity
 _atom_site_fract_x
 _atom_site_fract_y
 _atom_site_fract_z
 _atom_site_occupancy
  C  C0  1  0.51518400  0.70235900  0.89341000  1
  C  C1  1  0.49628800  0.89930500  0.30438700  1
  C  C2  1  0.51502400  0.09368300  0.69311500  1
  C  C3  1  0.44859400  0.28941400  0.09921300  1
  C  C4  1  0.51660400  0.50465100  0.49218400  1
  C  C5  1  0.01749000  0.38911600  0.80848500  1
  C  C6  1  0.97350700  0.80304800  0.61652600  1
  C  C7  1  0.02287400  0.19487200  0.38715900  1
  C  C8  1  0.96505300  0.60930000  0.20999800  1
  C  C9  1  0.01884000  0.01324900  0.99586300  1
  Ni  Ni10  1  0.20158900  0.24569800  0.98114900  1
  Ni  Ni11  1  0.32034700  0.12800500  0.27868200  1
  Ni  Ni12  1  0.70112700  0.85950600  0.72230100  1
  Ni  Ni13  1  0.69046200  0.67910700  0.31634900  1
  Cu  Cu14  1  0.18701900  0.02585800  0.58199000  1
  Cu  Cu15  1  0.18268700  0.45449900  0.37005300  1
  Cu  Cu16  1  0.19927700  0.64407900  0.77578900  1
  Cu  Cu17  1  0.20359200  0.82491800  0.18748900  1
  Cu  Cu18  1  0.30277100  0.93670100  0.87862100  1
  Cu  Cu19  1  0.31875600  0.33933100  0.66506700  1
  Cu  Cu20  1  0.28700800  0.53722900  0.08882700  1
  Cu  Cu21  1  0.28882000  0.75087700  0.48131200  1
  Cu  Cu22  1  0.71395100  0.25701700  0.50801700  1
  Cu  Cu23  1  0.69848700  0.05768800  0.12524400  1
  Cu  Cu24  1  0.68020900  0.44725000  0.93514500  1
  Cu  Cu25  1  0.82385800  0.56322800  0.62448600  1
  Cu  Cu26  1  0.80001300  0.94660900  0.42616600  1
  Cu  Cu27  1  0.79731000  0.16327600  0.81661500  1
  Cu  Cu28  1  0.81890500  0.75943600  0.02535400  1
  Cu  Cu29  1  0.79435300  0.38069100  0.21100200  1
