# generated using pymatgen
data_Cu15Ni13C42
_symmetry_space_group_name_H-M   'P 1'
_cell_length_a   9.17742373
_cell_length_b   8.91016815
_cell_length_c   9.96179573
_cell_angle_alpha   81.63652452
_cell_angle_beta   104.51312467
_cell_angle_gamma   80.72321282
_symmetry_Int_Tables_number   1
_chemical_formula_structural   Cu15Ni13C42
_chemical_formula_sum   'Cu15 Ni13 C42'
_cell_volume   763.42550165
_cell_formula_units_Z   1
loop_
 _symmetry_equiv_pos_site_id
 _symmetry_equiv_pos_as_xyz
  1  'x, y, z'
loop_
 _atom_site_type_symbol
 _atom_site_label
 _atom_site_symmetry_multiplicity
 _atom_site_fract_x
 _atom_site_fract_y
 _atom_site_fract_z
 _atom_site_occupancy
  Ni  Ni0  1  0.93738100  0.98319200  0.18523800  1
  Ni  Ni1  1  0.79457200  0.26586100  0.61476900  1
  Ni  Ni2  1  0.92069900  0.30779100  0.24136300  1
  Ni  Ni3  1  0.77374400  0.59300100  0.66776700  1
  Ni  Ni4  1  0.36992600  0.12021300  0.90345100  1
  Ni  Ni5  1  0.49098900  0.16106500  0.52759400  1
  Ni  Ni6  1  0.63662200  0.87679100  0.09933700  1
  Ni  Ni7  1  0.65164700  0.54758600  0.04334600  1
  Ni  Ni8  1  0.34742700  0.44835400  0.95737000  1
  Ni  Ni9  1  0.07896500  0.69469000  0.75770500  1
  Ni  Ni10  1  0.22311500  0.40847700  0.33024500  1
  Ni  Ni11  1  0.06108400  0.02191800  0.81190800  1
  Ni  Ni12  1  0.20516100  0.73743000  0.38507600  1
  Cu  Cu13  1  0.84273600  0.95108100  0.45459500  1
  Cu  Cu14  1  0.70628200  0.23539400  0.88340400  1
  Cu  Cu15  1  0.72592100  0.90796600  0.83038300  1
  Cu  Cu16  1  0.86956500  0.62122200  0.40269600  1
  Cu  Cu17  1  0.98805700  0.66573600  0.02674000  1
  Cu  Cu18  1  0.51053500  0.83536600  0.47352700  1
  Cu  Cu19  1  0.42030200  0.80775300  0.74045100  1
  Cu  Cu20  1  0.58062100  0.19033500  0.25830700  1
  Cu  Cu21  1  0.43621000  0.48036400  0.68682000  1
  Cu  Cu22  1  0.56455600  0.52506300  0.31678700  1
  Cu  Cu23  1  0.14930500  0.05271000  0.54333100  1
  Cu  Cu24  1  0.29519400  0.76559400  0.11828000  1
  Cu  Cu25  1  0.27980800  0.09060500  0.17352100  1
  Cu  Cu26  1  0.00787400  0.34054300  0.97064600  1
  Cu  Cu27  1  0.13550600  0.37502600  0.60005500  1
  C  C28  1  0.95835300  0.85976700  0.84697100  1
  C  C29  1  0.94028800  0.55929600  0.84116500  1
  C  C30  1  0.92940500  0.19267300  0.83218400  1
  C  C31  1  0.93048900  0.09009500  0.59975500  1
  C  C32  1  0.92038200  0.72794200  0.59298100  1
  C  C33  1  0.90286900  0.42389600  0.58349800  1
  C  C34  1  0.81939800  0.14353000  0.27247100  1
  C  C35  1  0.67631100  0.42922900  0.70568000  1
  C  C36  1  0.65261100  0.13208000  0.69572500  1
  C  C37  1  0.79581200  0.84183100  0.26367900  1
  C  C38  1  0.64283400  0.76413300  0.69019500  1
  C  C39  1  0.78373300  0.48155200  0.25681500  1
  C  C40  1  0.65265900  0.65326300  0.45592900  1
  C  C41  1  0.50363300  0.94727800  0.88106600  1
  C  C42  1  0.78610700  0.37638600  0.02219600  1
  C  C43  1  0.63252300  0.30139600  0.44835400  1
  C  C44  1  0.77458000  0.01366400  0.02063500  1
  C  C45  1  0.48750200  0.58436500  0.87831700  1
  C  C46  1  0.61331800  0.00586700  0.43777300  1
  C  C47  1  0.46587900  0.28565800  0.86578300  1
  C  C48  1  0.74977700  0.71263700  0.01168500  1
  C  C49  1  0.24822900  0.28204700  0.99555100  1
  C  C50  1  0.52032700  0.71928800  0.13035400  1
  C  C51  1  0.38690400  0.00153900  0.56076900  1
  C  C52  1  0.36500300  0.69770900  0.55314300  1
  C  C53  1  0.23011600  0.97221600  0.98370800  1
  C  C54  1  0.51186000  0.41556100  0.12408600  1
  C  C55  1  0.35119600  0.33774700  0.54377100  1
  C  C56  1  0.50183000  0.05204900  0.11668000  1
  C  C57  1  0.22012400  0.62837000  0.98225700  1
  C  C58  1  0.21553000  0.51882300  0.74625300  1
  C  C59  1  0.35874000  0.23685100  0.31252300  1
  C  C60  1  0.33779800  0.86993000  0.29341200  1
  C  C61  1  0.20522200  0.15496600  0.73996800  1
  C  C62  1  0.17936300  0.85854500  0.72101900  1
  C  C63  1  0.32204400  0.57538900  0.28808200  1
  C  C64  1  0.10322600  0.57413800  0.41779000  1
  C  C65  1  0.08159700  0.26735900  0.40881800  1
  C  C66  1  0.06557500  0.90823200  0.39912000  1
  C  C67  1  0.07481000  0.80488800  0.16263200  1
  C  C68  1  0.05997500  0.44292100  0.16382100  1
  C  C69  1  0.03825900  0.14377100  0.14867900  1
