# generated using pymatgen
data_CuNiC4
_symmetry_space_group_name_H-M   'P 1'
_cell_length_a   6.64095710
_cell_length_b   6.64095710
_cell_length_c   6.73438933
_cell_angle_alpha   73.23279679
_cell_angle_beta   73.23279679
_cell_angle_gamma   34.04181054
_symmetry_Int_Tables_number   1
_chemical_formula_structural   CuNiC4
_chemical_formula_sum   'Cu2 Ni2 C8'
_cell_volume   158.51390030
_cell_formula_units_Z   2
loop_
 _symmetry_equiv_pos_site_id
 _symmetry_equiv_pos_as_xyz
  1  'x, y, z'
loop_
 _atom_site_type_symbol
 _atom_site_label
 _atom_site_symmetry_multiplicity
 _atom_site_fract_x
 _atom_site_fract_y
 _atom_site_fract_z
 _atom_site_occupancy
  Ni  Ni0  1  0.89590500  0.89590500  0.22332100  1
  Ni  Ni1  1  0.10409500  0.10409500  0.77667900  1
  Cu  Cu2  1  0.80325000  0.80325000  0.80707700  1
  Cu  Cu3  1  0.19675000  0.19675000  0.19292300  1
  C  C4  1  0.94551600  0.94551600  0.86893100  1
  C  C5  1  0.86404100  0.86404100  0.50818100  1
  C  C6  1  0.63410800  0.63410800  0.79733100  1
  C  C7  1  0.74435600  0.74435600  0.14760500  1
  C  C8  1  0.25564400  0.25564400  0.85239500  1
  C  C9  1  0.36589200  0.36589200  0.20266900  1
  C  C10  1  0.13595900  0.13595900  0.49181900  1
  C  C11  1  0.05448400  0.05448400  0.13106900  1
