# generated using pymatgen
data_CuNiC13
_symmetry_space_group_name_H-M   'P 1'
_cell_length_a   17.06768600
_cell_length_b   5.25778300
_cell_length_c   9.23949775
_cell_angle_alpha   58.73373136
_cell_angle_beta   90.00000000
_cell_angle_gamma   90.00000000
_symmetry_Int_Tables_number   1
_chemical_formula_structural   CuNiC13
_chemical_formula_sum   'Cu4 Ni4 C52'
_cell_volume   708.71587513
_cell_formula_units_Z   4
loop_
 _symmetry_equiv_pos_site_id
 _symmetry_equiv_pos_as_xyz
  1  'x, y, z'
loop_
 _atom_site_type_symbol
 _atom_site_label
 _atom_site_symmetry_multiplicity
 _atom_site_fract_x
 _atom_site_fract_y
 _atom_site_fract_z
 _atom_site_occupancy
  C  C0  1  0.66116900  0.98321700  0.66127500  1
  C  C1  1  0.83883100  0.98321700  0.16127500  1
  C  C2  1  0.33883100  0.01678300  0.33872500  1
  C  C3  1  0.16116900  0.01678300  0.83872500  1
  Ni  Ni4  1  0.65579500  0.48431200  0.19391400  1
  Ni  Ni5  1  0.84420500  0.48431200  0.69391400  1
  Ni  Ni6  1  0.34420500  0.51568800  0.80608600  1
  Ni  Ni7  1  0.15579500  0.51568800  0.30608600  1
  Cu  Cu8  1  0.52860000  0.34124900  0.74892100  1
  Cu  Cu9  1  0.97140000  0.34124900  0.24892100  1
  Cu  Cu10  1  0.47140000  0.65875100  0.25107900  1
  Cu  Cu11  1  0.02860000  0.65875100  0.75107900  1
  C  C12  1  0.66996600  0.23173300  0.91833900  1
  C  C13  1  0.83003400  0.23173300  0.41833900  1
  C  C14  1  0.33003400  0.76826700  0.08166100  1
  C  C15  1  0.16996600  0.76826700  0.58166100  1
  C  C16  1  0.58762100  0.74438400  0.42702300  1
  C  C17  1  0.91237900  0.74438400  0.92702300  1
  C  C18  1  0.41237900  0.25561600  0.57297700  1
  C  C19  1  0.08762100  0.25561600  0.07297700  1
  C  C20  1  0.49667200  0.54609900  0.07869900  1
  C  C21  1  0.00332800  0.54609900  0.57869900  1
  C  C22  1  0.50332800  0.45390100  0.92130100  1
  C  C23  1  0.99667200  0.45390100  0.42130100  1
  C  C24  1  0.65131800  0.47410500  0.96234100  1
  C  C25  1  0.84868200  0.47410500  0.46234100  1
  C  C26  1  0.34868200  0.52589500  0.03765900  1
  C  C27  1  0.15131800  0.52589500  0.53765900  1
  C  C28  1  0.59210600  0.14736800  0.85884400  1
  C  C29  1  0.90789400  0.14736800  0.35884400  1
  C  C30  1  0.40789400  0.85263200  0.14115600  1
  C  C31  1  0.09210600  0.85263200  0.64115600  1
  C  C32  1  0.52686100  0.59010500  0.15178500  1
  C  C33  1  0.97313900  0.59010500  0.65178500  1
  C  C34  1  0.47313900  0.40989500  0.84821500  1
  C  C35  1  0.02686100  0.40989500  0.34821500  1
  C  C36  1  0.51190000  0.82860000  0.31315300  1
  C  C37  1  0.98810000  0.82860000  0.81315300  1
  C  C38  1  0.48810000  0.17140000  0.68684700  1
  C  C39  1  0.01190000  0.17140000  0.18684700  1
  C  C40  1  0.56120900  0.63030800  0.61368400  1
  C  C41  1  0.93879100  0.63030800  0.11368400  1
  C  C42  1  0.43879100  0.36969200  0.38631600  1
  C  C43  1  0.06120900  0.36969200  0.88631600  1
  C  C44  1  0.72486700  0.35516400  0.76495100  1
  C  C45  1  0.77513300  0.35516400  0.26495100  1
  C  C46  1  0.27513300  0.64483600  0.23504900  1
  C  C47  1  0.22486700  0.64483600  0.73504900  1
  C  C48  1  0.69961300  0.94093900  0.07346100  1
  C  C49  1  0.80038700  0.94093900  0.57346100  1
  C  C50  1  0.30038700  0.05906100  0.92653900  1
  C  C51  1  0.19961300  0.05906100  0.42653900  1
  C  C52  1  0.63333300  0.50021600  0.42061400  1
  C  C53  1  0.86666700  0.50021600  0.92061400  1
  C  C54  1  0.36666700  0.49978400  0.57938600  1
  C  C55  1  0.13333300  0.49978400  0.07938600  1
  C  C56  1  0.63339300  0.02533700  0.37579300  1
  C  C57  1  0.86660700  0.02533700  0.87579300  1
  C  C58  1  0.36660700  0.97466300  0.62420700  1
  C  C59  1  0.13339300  0.97466300  0.12420700  1
