# generated using pymatgen
data_Cu3Ni7C20
_symmetry_space_group_name_H-M   'P 1'
_cell_length_a   5.88468063
_cell_length_b   5.88468063
_cell_length_c   24.37743183
_cell_angle_alpha   83.23401190
_cell_angle_beta   83.23401190
_cell_angle_gamma   59.33374312
_symmetry_Int_Tables_number   1
_chemical_formula_structural   Cu3Ni7C20
_chemical_formula_sum   'Cu6 Ni14 C40'
_cell_volume   719.41612024
_cell_formula_units_Z   2
loop_
 _symmetry_equiv_pos_site_id
 _symmetry_equiv_pos_as_xyz
  1  'x, y, z'
loop_
 _atom_site_type_symbol
 _atom_site_label
 _atom_site_symmetry_multiplicity
 _atom_site_fract_x
 _atom_site_fract_y
 _atom_site_fract_z
 _atom_site_occupancy
  Ni  Ni0  1  0.30063600  0.30063600  0.09967800  1
  Ni  Ni1  1  0.29798600  0.80334100  0.09987400  1
  Ni  Ni2  1  0.70201400  0.19665900  0.90012600  1
  Ni  Ni3  1  0.19665900  0.70201400  0.90012600  1
  Ni  Ni4  1  0.80334100  0.29798600  0.09987400  1
  Ni  Ni5  1  0.69936400  0.69936400  0.90032200  1
  Ni  Ni6  1  0.10022500  0.60354500  0.69977400  1
  Ni  Ni7  1  0.39645500  0.89977500  0.30022600  1
  Ni  Ni8  1  0.60354500  0.10022500  0.69977400  1
  Ni  Ni9  1  0.00000000  0.50000000  0.50000000  1
  Ni  Ni10  1  0.89977500  0.39645500  0.30022600  1
  Ni  Ni11  1  0.50000000  0.00000000  0.50000000  1
  Ni  Ni12  1  0.70308500  0.70308500  0.39997900  1
  Ni  Ni13  1  0.29691500  0.29691500  0.60002100  1
  Cu  Cu14  1  0.90205700  0.90205700  0.80011600  1
  Cu  Cu15  1  0.09794300  0.09794300  0.19988400  1
  Cu  Cu16  1  0.50000000  0.50000000  0.00000000  1
  Cu  Cu17  1  0.10210900  0.10210900  0.70019400  1
  Cu  Cu18  1  0.50000000  0.50000000  0.50000000  1
  Cu  Cu19  1  0.89789100  0.89789100  0.29980600  1
  C  C20  1  0.41133800  0.97334900  0.14516900  1
  C  C21  1  0.97334900  0.41133800  0.14516900  1
  C  C22  1  0.85499600  0.85499600  0.94067800  1
  C  C23  1  0.45329400  0.45329400  0.14041600  1
  C  C24  1  0.62830000  0.18949200  0.05433300  1
  C  C25  1  0.18949200  0.62830000  0.05433300  1
  C  C26  1  0.58866200  0.02665100  0.85483100  1
  C  C27  1  0.63062300  0.63062300  0.05459700  1
  C  C28  1  0.36937700  0.36937700  0.94540300  1
  C  C29  1  0.97041800  0.97041800  0.14489400  1
  C  C30  1  0.81050800  0.37170000  0.94566700  1
  C  C31  1  0.37170000  0.81050800  0.94566700  1
  C  C32  1  0.76364200  0.21974900  0.74636600  1
  C  C33  1  0.94538800  0.94538800  0.65911200  1
  C  C34  1  0.14500400  0.14500400  0.05932200  1
  C  C35  1  0.54670600  0.54670600  0.85958400  1
  C  C36  1  0.02665100  0.58866200  0.85483100  1
  C  C37  1  0.02958200  0.02958200  0.85510600  1
  C  C38  1  0.42976700  0.42976700  0.65301900  1
  C  C39  1  0.99046800  0.43741800  0.65254900  1
  C  C40  1  0.21974900  0.76364200  0.74636600  1
  C  C41  1  0.17395000  0.17395100  0.54689000  1
  C  C42  1  0.77227000  0.77227000  0.74559900  1
  C  C43  1  0.16529000  0.61345200  0.54783000  1
  C  C44  1  0.83471000  0.38654800  0.45217000  1
  C  C45  1  0.25899900  0.25899900  0.74118500  1
  C  C46  1  0.43741800  0.99046800  0.65254900  1
  C  C47  1  0.65863300  0.65863300  0.54088200  1
  C  C48  1  0.05461200  0.05461200  0.34088800  1
  C  C49  1  0.22773000  0.22773000  0.25440100  1
  C  C50  1  0.82605000  0.82605000  0.45311000  1
  C  C51  1  0.38654800  0.83471000  0.45217000  1
  C  C52  1  0.61345200  0.16529000  0.54783000  1
  C  C53  1  0.57023300  0.57023300  0.34698100  1
  C  C54  1  0.00953200  0.56258200  0.34745100  1
  C  C55  1  0.56258200  0.00953200  0.34745100  1
  C  C56  1  0.34136700  0.34136700  0.45911800  1
  C  C57  1  0.74100100  0.74100100  0.25881500  1
  C  C58  1  0.23635800  0.78025100  0.25363400  1
  C  C59  1  0.78025100  0.23635800  0.25363400  1
