# generated using pymatgen
data_Cu3(NiC3)4
_symmetry_space_group_name_H-M   'P 1'
_cell_length_a   8.48531344
_cell_length_b   8.48531344
_cell_length_c   8.48531344
_cell_angle_alpha   109.47122063
_cell_angle_beta   109.47122063
_cell_angle_gamma   109.47122063
_symmetry_Int_Tables_number   1
_chemical_formula_structural   Cu3(NiC3)4
_chemical_formula_sum   'Cu6 Ni8 C24'
_cell_volume   470.30736279
_cell_formula_units_Z   2
loop_
 _symmetry_equiv_pos_site_id
 _symmetry_equiv_pos_as_xyz
  1  'x, y, z'
loop_
 _atom_site_type_symbol
 _atom_site_label
 _atom_site_symmetry_multiplicity
 _atom_site_fract_x
 _atom_site_fract_y
 _atom_site_fract_z
 _atom_site_occupancy
  Ni  Ni0  1  0.85138500  0.50000000  0.00000000  1
  Ni  Ni1  1  0.50000000  0.00000000  0.35138500  1
  Ni  Ni2  1  0.14861500  0.14861500  0.14861500  1
  Ni  Ni3  1  0.35138500  0.50000000  0.00000000  1
  Ni  Ni4  1  0.50000000  0.00000000  0.85138500  1
  Ni  Ni5  1  0.64861500  0.64861500  0.64861500  1
  Ni  Ni6  1  0.00000000  0.35138500  0.50000000  1
  Ni  Ni7  1  0.00000000  0.85138500  0.50000000  1
  Cu  Cu8  1  0.62500000  0.37500000  0.25000000  1
  Cu  Cu9  1  0.87500000  0.12500000  0.75000000  1
  Cu  Cu10  1  0.75000000  0.87500000  0.12500000  1
  Cu  Cu11  1  0.37500000  0.25000000  0.62500000  1
  Cu  Cu12  1  0.25000000  0.62500000  0.37500000  1
  Cu  Cu13  1  0.12500000  0.75000000  0.87500000  1
  C  C14  1  0.91803700  0.07280000  0.25790300  1
  C  C15  1  0.65476300  0.33986600  0.08196300  1
  C  C16  1  0.83986600  0.15476300  0.58196300  1
  C  C17  1  0.66013400  0.24209700  0.31489700  1
  C  C18  1  0.81489700  0.74209700  0.16013400  1
  C  C19  1  0.42720000  0.34523700  0.18510300  1
  C  C20  1  0.74209700  0.16013400  0.81489700  1
  C  C21  1  0.75790300  0.57280000  0.41803700  1
  C  C22  1  0.34523700  0.18510300  0.42720000  1
  C  C23  1  0.33986600  0.08196300  0.65476300  1
  C  C24  1  0.58196300  0.83986600  0.15476300  1
  C  C25  1  0.18510300  0.42720000  0.34523700  1
  C  C26  1  0.31489700  0.66013400  0.24209700  1
  C  C27  1  0.57280000  0.41803700  0.75790300  1
  C  C28  1  0.92720000  0.68510300  0.84523700  1
  C  C29  1  0.25790300  0.91803700  0.07280000  1
  C  C30  1  0.24209700  0.31489700  0.66013400  1
  C  C31  1  0.84523700  0.92720000  0.68510300  1
  C  C32  1  0.41803700  0.75790300  0.57280000  1
  C  C33  1  0.08196300  0.65476300  0.33986600  1
  C  C34  1  0.68510300  0.84523700  0.92720000  1
  C  C35  1  0.07280000  0.25790300  0.91803700  1
  C  C36  1  0.15476300  0.58196300  0.83986600  1
  C  C37  1  0.16013400  0.81489700  0.74209700  1
