# generated using pymatgen
data_Cu2Ni2C15
_symmetry_space_group_name_H-M   'P 1'
_cell_length_a   9.20956700
_cell_length_b   7.65600600
_cell_length_c   8.06828556
_cell_angle_alpha   65.89033565
_cell_angle_beta   90.00000000
_cell_angle_gamma   90.00000000
_symmetry_Int_Tables_number   1
_chemical_formula_structural   Cu2Ni2C15
_chemical_formula_sum   'Cu4 Ni4 C30'
_cell_volume   519.25639488
_cell_formula_units_Z   2
loop_
 _symmetry_equiv_pos_site_id
 _symmetry_equiv_pos_as_xyz
  1  'x, y, z'
loop_
 _atom_site_type_symbol
 _atom_site_label
 _atom_site_symmetry_multiplicity
 _atom_site_fract_x
 _atom_site_fract_y
 _atom_site_fract_z
 _atom_site_occupancy
  C  C0  1  0.50000000  0.50000000  0.50000000  1
  C  C1  1  0.00000000  0.00000000  0.50000000  1
  C  C2  1  0.87850600  0.04459200  0.17126200  1
  C  C3  1  0.62149400  0.54459200  0.17126200  1
  C  C4  1  0.55701600  0.33883700  0.25079500  1
  C  C5  1  0.96109700  0.39343900  0.29827100  1
  C  C6  1  0.80350100  0.32653600  0.37326300  1
  C  C7  1  0.94298400  0.83883700  0.25079500  1
  C  C8  1  0.53890300  0.89343900  0.29827100  1
  C  C9  1  0.69649900  0.82653600  0.37326300  1
  C  C10  1  0.30350100  0.17346400  0.62673700  1
  C  C11  1  0.46109700  0.10656100  0.70172900  1
  C  C12  1  0.05701600  0.16116300  0.74920500  1
  C  C13  1  0.19649900  0.67346400  0.62673700  1
  C  C14  1  0.03890300  0.60656100  0.70172900  1
  C  C15  1  0.44298400  0.66116300  0.74920500  1
  C  C16  1  0.37850600  0.45540800  0.82873800  1
  C  C17  1  0.12149400  0.95540800  0.82873800  1
  Ni  Ni18  1  0.28488700  0.13925900  0.22446400  1
  Ni  Ni19  1  0.21511300  0.63925900  0.22446400  1
  Ni  Ni20  1  0.78488700  0.36074100  0.77553600  1
  Ni  Ni21  1  0.71511300  0.86074100  0.77553600  1
  Cu  Cu22  1  0.42911900  0.18224100  0.09584800  1
  Cu  Cu23  1  0.07088100  0.68224100  0.09584800  1
  Cu  Cu24  1  0.92911900  0.31775900  0.90415200  1
  Cu  Cu25  1  0.57088100  0.81775900  0.90415200  1
  C  C26  1  0.18138400  0.10545300  0.31887800  1
  C  C27  1  0.31861600  0.60545300  0.31887800  1
  C  C28  1  0.68138400  0.39454700  0.68112200  1
  C  C29  1  0.81861600  0.89454700  0.68112200  1
  C  C30  1  0.61738500  0.42645700  0.28476500  1
  C  C31  1  0.90692000  0.29037200  0.39383800  1
  C  C32  1  0.88261500  0.92645700  0.28476500  1
  C  C33  1  0.59308000  0.79037200  0.39383800  1
  C  C34  1  0.40692000  0.20962800  0.60616200  1
  C  C35  1  0.11738500  0.07354300  0.71523500  1
  C  C36  1  0.09308000  0.70962800  0.60616200  1
  C  C37  1  0.38261500  0.57354300  0.71523500  1
