# generated using pymatgen
data_Cu18Ni3C71
_symmetry_space_group_name_H-M   'P 1'
_cell_length_a   10.49254700
_cell_length_b   10.49675764
_cell_length_c   13.87098146
_cell_angle_alpha   90.04425688
_cell_angle_beta   112.15516380
_cell_angle_gamma   119.86456957
_symmetry_Int_Tables_number   1
_chemical_formula_structural   Cu18Ni3C71
_chemical_formula_sum   'Cu18 Ni3 C71'
_cell_volume   1192.73318338
_cell_formula_units_Z   1
loop_
 _symmetry_equiv_pos_site_id
 _symmetry_equiv_pos_as_xyz
  1  'x, y, z'
loop_
 _atom_site_type_symbol
 _atom_site_label
 _atom_site_symmetry_multiplicity
 _atom_site_fract_x
 _atom_site_fract_y
 _atom_site_fract_z
 _atom_site_occupancy
  Ni  Ni0  1  0.63501700  0.81731800  0.45061500  1
  Ni  Ni1  1  0.47234100  0.53053500  0.02362700  1
  Ni  Ni2  1  0.63065300  0.32043700  0.95097700  1
  Cu  Cu3  1  0.85591500  0.91878100  0.20208400  1
  Cu  Cu4  1  0.27042200  0.34616600  0.20179600  1
  Cu  Cu5  1  0.28153700  0.93742200  0.20317700  1
  Cu  Cu6  1  0.49293100  0.93768300  0.02383000  1
  Cu  Cu7  1  0.08818800  0.55345300  0.02499500  1
  Cu  Cu8  1  0.27159500  0.42857200  0.70708300  1
  Cu  Cu9  1  0.27821300  0.84249300  0.70425700  1
  Cu  Cu10  1  0.86164000  0.43518400  0.70448600  1
  Cu  Cu11  1  0.99889100  0.49972400  0.49844000  1
  Cu  Cu12  1  0.15616600  0.56334400  0.30488200  1
  Cu  Cu13  1  0.71225700  0.14912700  0.30486400  1
  Cu  Cu14  1  0.73757900  0.58941900  0.30003300  1
  Cu  Cu15  1  0.71195500  0.06129700  0.80705900  1
  Cu  Cu16  1  0.74283900  0.65006400  0.80756500  1
  Cu  Cu17  1  0.15713800  0.09727300  0.80740900  1
  Cu  Cu18  1  0.49547700  0.05347200  0.52380400  1
  Cu  Cu19  1  0.08156900  0.02848400  0.52405200  1
  Cu  Cu20  1  0.46997800  0.44146200  0.52390100  1
  C  C21  1  0.99874200  0.00017300  0.99865600  1
  C  C22  1  0.46750200  0.73524300  0.20131000  1
  C  C23  1  0.59574200  0.77743200  0.90965400  1
  C  C24  1  0.08978500  0.31329500  0.90839100  1
  C  C25  1  0.13065700  0.81762700  0.90821900  1
  C  C26  1  0.42718600  0.69379500  0.59964600  1
  C  C27  1  0.86632000  0.17241900  0.59997200  1
  C  C28  1  0.08822000  0.27153300  0.40228000  1
  C  C29  1  0.90671500  0.73399600  0.60053400  1
  C  C30  1  0.13110400  0.81669500  0.40256400  1
  C  C31  1  0.58634100  0.31511900  0.40273600  1
  C  C32  1  0.86571500  0.18953400  0.09361900  1
  C  C33  1  0.90748300  0.67769300  0.09473600  1
  C  C34  1  0.41561700  0.22450000  0.09290100  1
  C  C35  1  0.46703200  0.23323700  0.70025600  1
  C  C36  1  0.63452400  0.74759200  0.24553600  1
  C  C37  1  0.35178100  0.60919200  0.24161000  1
  C  C38  1  0.49802900  0.89069200  0.24422500  1
  C  C39  1  0.38477400  0.69713300  0.07808800  1
  C  C40  1  0.64281500  0.81772700  0.02929700  1
  C  C41  1  0.19488800  0.38858300  0.02831000  1
  C  C42  1  0.52208600  0.60859800  0.86863600  1
  C  C43  1  0.75615400  0.86914700  0.89059400  1
  C  C44  1  0.00064300  0.13438500  0.89108600  1
  C  C45  1  0.19139600  0.35820600  0.84464600  1
  C  C46  1  0.21633900  0.82901200  0.02847800  1
  C  C47  1  0.95539000  0.35112100  0.86888900  1
  C  C48  1  0.48347300  0.83427200  0.84885400  1
  C  C49  1  0.50648200  0.60973600  0.66383600  1
  C  C50  1  0.26364600  0.91038300  0.86953700  1
  C  C51  1  0.01525100  0.64921700  0.84911300  1
  C  C52  1  0.97687800  0.10909500  0.63908300  1
  C  C53  1  0.02220000  0.88753700  0.88907400  1
  C  C54  1  0.76843700  0.15806300  0.66519100  1
  C  C55  1  0.52931500  0.86725100  0.64005100  1
  C  C56  1  0.19427100  0.31384700  0.52511700  1
  C  C57  1  0.26786900  0.63146500  0.61596800  1
  C  C58  1  0.97900800  0.34766500  0.61559600  1
  C  C59  1  0.39265700  0.64885100  0.48124600  1
  C  C60  1  0.98526500  0.63661400  0.61646500  1
  C  C61  1  0.73647300  0.08890600  0.48183200  1
  C  C62  1  0.05533300  0.89656900  0.66575300  1
  C  C63  1  0.95823600  0.09943000  0.36863900  1
  C  C64  1  0.20328500  0.32258300  0.34697300  1
  C  C65  1  0.77324600  0.66220900  0.64077900  1
  C  C66  1  0.21163400  0.88019100  0.52544900  1
  C  C67  1  0.64520000  0.33141800  0.52555500  1
  C  C68  1  0.99590300  0.35555000  0.37198500  1
  C  C69  1  0.26991200  0.85883800  0.36881400  1
  C  C70  1  0.01694400  0.64091600  0.37199400  1
  C  C71  1  0.73167300  0.37617300  0.37213300  1
  C  C72  1  0.83449000  0.74534400  0.48236800  1
  C  C73  1  0.46667400  0.14506600  0.34804000  1
  C  C74  1  0.97162800  0.11853300  0.09784800  1
  C  C75  1  0.77487000  0.10731700  0.16232400  1
  C  C76  1  0.51049400  0.41181700  0.36933500  1
  C  C77  1  0.02662300  0.88248700  0.34807600  1
  C  C78  1  0.98683500  0.36145300  0.13847200  1
  C  C79  1  0.06017300  0.66996200  0.16170500  1
  C  C80  1  0.50878500  0.14517100  0.13899900  1
  C  C81  1  0.73306500  0.15155500  0.97915800  1
  C  C82  1  0.49318600  0.38179500  0.16268000  1
  C  C83  1  0.78621300  0.63091900  0.14338400  1
  C  C84  1  0.98115800  0.85401900  0.09709000  1
  C  C85  1  0.24186500  0.12395900  0.09698600  1
  C  C86  1  0.83018600  0.58251800  0.98023800  1
  C  C87  1  0.39339500  0.23557500  0.97753500  1
  C  C88  1  0.49672600  0.10761600  0.74091200  1
  C  C89  1  0.63284200  0.38841300  0.74113800  1
  C  C90  1  0.35237300  0.24445000  0.74087500  1
  C  C91  1  0.38454900  0.19185800  0.57599200  1
