# generated using pymatgen
data_Cu2Ni13C20
_symmetry_space_group_name_H-M   'P 1'
_cell_length_a   6.06415552
_cell_length_b   6.06415552
_cell_length_c   24.94102567
_cell_angle_alpha   82.93700537
_cell_angle_beta   82.93700537
_cell_angle_gamma   59.87117901
_symmetry_Int_Tables_number   1
_chemical_formula_structural   Cu2Ni13C20
_chemical_formula_sum   'Cu4 Ni26 C40'
_cell_volume   785.24280320
_cell_formula_units_Z   2
loop_
 _symmetry_equiv_pos_site_id
 _symmetry_equiv_pos_as_xyz
  1  'x, y, z'
loop_
 _atom_site_type_symbol
 _atom_site_label
 _atom_site_symmetry_multiplicity
 _atom_site_fract_x
 _atom_site_fract_y
 _atom_site_fract_z
 _atom_site_occupancy
  Ni  Ni0  1  0.69930800  0.20118500  0.89794000  1
  Ni  Ni1  1  0.67497800  0.67497800  0.97440200  1
  Ni  Ni2  1  0.60053700  0.60053700  0.70030000  1
  Ni  Ni3  1  0.00242200  0.00242200  0.00017000  1
  Ni  Ni4  1  0.72853100  0.72853100  0.82521300  1
  Ni  Ni5  1  0.20118500  0.69930800  0.89794000  1
  Ni  Ni6  1  0.59897800  0.09988400  0.69950600  1
  Ni  Ni7  1  0.50059800  0.99751700  0.50172200  1
  Ni  Ni8  1  0.09988400  0.59897800  0.69950600  1
  Ni  Ni9  1  0.07265400  0.07265400  0.77349000  1
  Ni  Ni10  1  0.47510100  0.47510100  0.57542800  1
  Ni  Ni11  1  0.87339900  0.87339900  0.37764200  1
  Ni  Ni12  1  0.99591900  0.99591900  0.50230500  1
  Ni  Ni13  1  0.12570200  0.12570200  0.62527300  1
  Ni  Ni14  1  0.52463200  0.52463200  0.42555700  1
  Ni  Ni15  1  0.92332900  0.92332900  0.22555200  1
  Ni  Ni16  1  0.99751700  0.50059800  0.50172200  1
  Ni  Ni17  1  0.90228200  0.39820100  0.29994100  1
  Ni  Ni18  1  0.39820100  0.90228200  0.29994100  1
  Ni  Ni19  1  0.79835500  0.30173100  0.10089400  1
  Ni  Ni20  1  0.27690600  0.27690600  0.17372000  1
  Ni  Ni21  1  0.39944900  0.39944900  0.29994400  1
  Ni  Ni22  1  0.79795400  0.79795400  0.10126300  1
  Ni  Ni23  1  0.20054100  0.20054100  0.40151300  1
  Ni  Ni24  1  0.32613800  0.32613800  0.02362500  1
  Ni  Ni25  1  0.30173100  0.79835500  0.10089400  1
  Cu  Cu26  1  0.79834700  0.79834700  0.59996000  1
  Cu  Cu27  1  0.20014700  0.20014700  0.89901900  1
  Cu  Cu28  1  0.39889600  0.39889600  0.79954600  1
  Cu  Cu29  1  0.59952600  0.59952600  0.19975100  1
  C  C30  1  0.85369900  0.32932700  0.94880300  1
  C  C31  1  0.86243900  0.86243900  0.94746900  1
  C  C32  1  0.54276300  0.54276300  0.85272200  1
  C  C33  1  0.75688100  0.75688100  0.74755400  1
  C  C34  1  0.35545900  0.35545900  0.94462400  1
  C  C35  1  0.54641500  0.06458900  0.85263000  1
  C  C36  1  0.06458900  0.54641500  0.85263000  1
  C  C37  1  0.95194000  0.46218400  0.65252000  1
  C  C38  1  0.24852700  0.73472600  0.74925900  1
  C  C39  1  0.73472600  0.24852700  0.74925900  1
  C  C40  1  0.32932700  0.85369900  0.94880300  1
  C  C41  1  0.65350400  0.65350400  0.55158900  1
  C  C42  1  0.85526600  0.85526600  0.45671900  1
  C  C43  1  0.04542700  0.04542700  0.85389300  1
  C  C44  1  0.44167300  0.44167300  0.65511800  1
  C  C45  1  0.25751300  0.25751300  0.74831100  1
  C  C46  1  0.94047400  0.94047400  0.65397100  1
  C  C47  1  0.46218400  0.95194000  0.65252000  1
  C  C48  1  0.86847100  0.33494200  0.44879600  1
  C  C49  1  0.33494200  0.86847100  0.44879600  1
  C  C50  1  0.66446500  0.13885900  0.54921800  1
  C  C51  1  0.52038300  0.06643500  0.34576500  1
  C  C52  1  0.13885900  0.66446500  0.54921800  1
  C  C53  1  0.06849300  0.06849300  0.34615700  1
  C  C54  1  0.74007700  0.74007700  0.25330700  1
  C  C55  1  0.55242900  0.55242900  0.34427700  1
  C  C56  1  0.34405400  0.34405400  0.44670400  1
  C  C57  1  0.94372400  0.94372400  0.14846900  1
  C  C58  1  0.14523800  0.14523800  0.54778300  1
  C  C59  1  0.74169800  0.26451000  0.25307600  1
  C  C60  1  0.26451000  0.74169800  0.25307600  1
  C  C61  1  0.66864300  0.13207800  0.04903300  1
  C  C62  1  0.06643500  0.52038300  0.34576500  1
  C  C63  1  0.93823600  0.46628500  0.14871300  1
  C  C64  1  0.46628500  0.93823600  0.14871300  1
  C  C65  1  0.65633000  0.65633000  0.05106500  1
  C  C66  1  0.45629800  0.45629800  0.14991100  1
  C  C67  1  0.24897900  0.24897900  0.25340000  1
  C  C68  1  0.14341700  0.14341700  0.04765600  1
  C  C69  1  0.13207800  0.66864300  0.04903300  1
