# generated using pymatgen
data_Cu11NiC6
_symmetry_space_group_name_H-M   'P 1'
_cell_length_a   4.96472500
_cell_length_b   5.89741264
_cell_length_c   16.21397753
_cell_angle_alpha   90.32838445
_cell_angle_beta   90.66971670
_cell_angle_gamma   90.60303689
_symmetry_Int_Tables_number   1
_chemical_formula_structural   Cu11NiC6
_chemical_formula_sum   'Cu22 Ni2 C12'
_cell_volume   474.66270787
_cell_formula_units_Z   2
loop_
 _symmetry_equiv_pos_site_id
 _symmetry_equiv_pos_as_xyz
  1  'x, y, z'
loop_
 _atom_site_type_symbol
 _atom_site_label
 _atom_site_symmetry_multiplicity
 _atom_site_fract_x
 _atom_site_fract_y
 _atom_site_fract_z
 _atom_site_occupancy
  C  C0  1  0.99106200  0.83340200  0.41261400  1
  C  C1  1  0.00893800  0.16659800  0.58738600  1
  C  C2  1  0.97799300  0.81133400  0.75661100  1
  C  C3  1  0.01045500  0.82850400  0.08260800  1
  C  C4  1  0.02200700  0.18866600  0.24338900  1
  C  C5  1  0.98954500  0.17149600  0.91739200  1
  C  C6  1  0.49160100  0.64625500  0.24725900  1
  C  C7  1  0.51291800  0.66399200  0.91223600  1
  C  C8  1  0.49799300  0.67220500  0.58327800  1
  C  C9  1  0.50839900  0.35374500  0.75274100  1
  C  C10  1  0.50200700  0.32779500  0.41672200  1
  C  C11  1  0.48708200  0.33600800  0.08776400  1
  Ni  Ni12  1  0.29338200  0.41256500  0.19638900  1
  Ni  Ni13  1  0.70661800  0.58743500  0.80361100  1
  Cu  Cu14  1  0.22811200  0.89551800  0.52546100  1
  Cu  Cu15  1  0.24028000  0.89197200  0.19537100  1
  Cu  Cu16  1  0.21498900  0.88737800  0.86191700  1
  Cu  Cu17  1  0.25059600  0.12399200  0.69954000  1
  Cu  Cu18  1  0.21645000  0.10948300  0.35878600  1
  Cu  Cu19  1  0.22821800  0.10884700  0.02653700  1
  Cu  Cu20  1  0.26399800  0.60669100  0.69184500  1
  Cu  Cu21  1  0.26983400  0.39261700  0.52581200  1
  Cu  Cu22  1  0.27948400  0.61235900  0.35791400  1
  Cu  Cu23  1  0.27562000  0.61192000  0.02010300  1
  Cu  Cu24  1  0.26717400  0.38044600  0.85618100  1
  Cu  Cu25  1  0.72051600  0.38764100  0.64208600  1
  Cu  Cu26  1  0.73016600  0.60738300  0.47418800  1
  Cu  Cu27  1  0.73600200  0.39330900  0.30815500  1
  Cu  Cu28  1  0.72438000  0.38808000  0.97989700  1
  Cu  Cu29  1  0.73282600  0.61955400  0.14381900  1
  Cu  Cu30  1  0.78355000  0.89051700  0.64121400  1
  Cu  Cu31  1  0.74940400  0.87600800  0.30046000  1
  Cu  Cu32  1  0.77188800  0.10448200  0.47453900  1
  Cu  Cu33  1  0.75972000  0.10802800  0.80462900  1
  Cu  Cu34  1  0.77178200  0.89115300  0.97346300  1
  Cu  Cu35  1  0.78501100  0.11262200  0.13808300  1
