# generated using pymatgen
data_Cu8NiC22
_symmetry_space_group_name_H-M   'P 1'
_cell_length_a   2.96818200
_cell_length_b   9.11028242
_cell_length_c   25.10500683
_cell_angle_alpha   89.27307248
_cell_angle_beta   89.62916225
_cell_angle_gamma   89.87289651
_symmetry_Int_Tables_number   1
_chemical_formula_structural   Cu8NiC22
_chemical_formula_sum   'Cu16 Ni2 C44'
_cell_volume   678.79349050
_cell_formula_units_Z   2
loop_
 _symmetry_equiv_pos_site_id
 _symmetry_equiv_pos_as_xyz
  1  'x, y, z'
loop_
 _atom_site_type_symbol
 _atom_site_label
 _atom_site_symmetry_multiplicity
 _atom_site_fract_x
 _atom_site_fract_y
 _atom_site_fract_z
 _atom_site_occupancy
  C  C0  1  0.00108500  0.18367900  0.00885300  1
  C  C1  1  0.99916500  0.16275300  0.79192100  1
  C  C2  1  0.00393400  0.32598200  0.30099800  1
  C  C3  1  0.99708500  0.31247500  0.51064800  1
  C  C4  1  0.99985500  0.69791400  0.48136900  1
  C  C5  1  0.99604400  0.70186400  0.68770200  1
  C  C6  1  0.00032000  0.80333300  0.19072300  1
  C  C7  1  0.01562200  0.81046600  0.98489700  1
  Ni  Ni8  1  0.99793900  0.48524900  0.60307600  1
  Ni  Ni9  1  0.98269500  0.01237400  0.10171000  1
  Cu  Cu10  1  0.99910100  0.00393900  0.50060700  1
  Cu  Cu11  1  0.99587700  0.99090400  0.89550400  1
  Cu  Cu12  1  0.99161800  0.00691800  0.68832000  1
  Cu  Cu13  1  0.50065900  0.16108100  0.41517600  1
  Cu  Cu14  1  0.48570800  0.15281100  0.19507400  1
  Cu  Cu15  1  0.49341100  0.34484200  0.69782400  1
  Cu  Cu16  1  0.50864300  0.34234400  0.91575900  1
  Cu  Cu17  1  0.00152000  0.49062900  0.19064500  1
  Cu  Cu18  1  0.99681900  0.51215600  0.39745300  1
  Cu  Cu19  1  0.00293700  0.49892800  0.00374600  1
  Cu  Cu20  1  0.99896000  0.51304900  0.81015300  1
  Cu  Cu21  1  0.49973800  0.66182700  0.08470100  1
  Cu  Cu22  1  0.50055800  0.65483700  0.30485000  1
  Cu  Cu23  1  0.50762900  0.84351200  0.80527700  1
  Cu  Cu24  1  0.49656000  0.84125000  0.58434700  1
  Cu  Cu25  1  0.00516300  0.99509900  0.31241100  1
  C  C26  1  0.99601500  0.99265100  0.57652900  1
  C  C27  1  0.00139100  0.01121700  0.42501700  1
  C  C28  1  0.49514700  0.07267500  0.05787600  1
  C  C29  1  0.49227700  0.04436800  0.84082600  1
  C  C30  1  0.50347800  0.12280500  0.33756900  1
  C  C31  1  0.01690500  0.10368800  0.24384600  1
  C  C32  1  0.49793300  0.15223200  0.49770600  1
  C  C33  1  0.49227400  0.13822700  0.71608500  1
  C  C34  1  0.98164200  0.19532500  0.14484600  1
  C  C35  1  0.01112100  0.20128500  0.92096300  1
  C  C36  1  0.99914200  0.31203700  0.41778200  1
  C  C37  1  0.99727100  0.30310700  0.64760500  1
  C  C38  1  0.50436100  0.36164300  0.21674300  1
  C  C39  1  0.50401000  0.34936100  0.99638100  1
  C  C40  1  0.99224200  0.37902400  0.74774600  1
  C  C41  1  0.50119000  0.38800700  0.84408900  1
  C  C42  1  0.50058800  0.46265600  0.33987100  1
  C  C43  1  0.49948000  0.42958400  0.56043200  1
  C  C44  1  0.00620900  0.48551900  0.92654500  1
  C  C45  1  0.00039200  0.50518200  0.07685500  1
  C  C46  1  0.49431200  0.56947500  0.44245400  1
  C  C47  1  0.49201300  0.53357500  0.66182100  1
  C  C48  1  0.50126200  0.62379800  0.16253300  1
  C  C49  1  0.00273600  0.60850400  0.25731100  1
  C  C50  1  0.50237900  0.64484800  0.00284400  1
  C  C51  1  0.49705500  0.63379600  0.78393600  1
  C  C52  1  0.99827100  0.69044500  0.35721800  1
  C  C53  1  0.99713900  0.68933700  0.58528500  1
  C  C54  1  0.99952500  0.81024600  0.08019600  1
  C  C55  1  0.01703500  0.80164300  0.85579800  1
  C  C56  1  0.50565200  0.85779300  0.28942700  1
  C  C57  1  0.49995800  0.85463900  0.50287700  1
  C  C58  1  0.98173500  0.89579400  0.75605200  1
  C  C59  1  0.49336800  0.87404000  0.66326500  1
  C  C60  1  0.50111300  0.95713000  0.15747300  1
  C  C61  1  0.54473500  0.93412700  0.94245000  1
