# generated using pymatgen
data_CuNiC3
_symmetry_space_group_name_H-M   'P 1'
_cell_length_a   5.78441400
_cell_length_b   6.03343600
_cell_length_c   8.49043800
_cell_angle_alpha   90.00000000
_cell_angle_beta   90.00000000
_cell_angle_gamma   90.00000000
_symmetry_Int_Tables_number   1
_chemical_formula_structural   CuNiC3
_chemical_formula_sum   'Cu4 Ni4 C12'
_cell_volume   296.31536640
_cell_formula_units_Z   4
loop_
 _symmetry_equiv_pos_site_id
 _symmetry_equiv_pos_as_xyz
  1  'x, y, z'
loop_
 _atom_site_type_symbol
 _atom_site_label
 _atom_site_symmetry_multiplicity
 _atom_site_fract_x
 _atom_site_fract_y
 _atom_site_fract_z
 _atom_site_occupancy
  Ni  Ni0  1  0.50000000  0.00000000  0.00000000  1
  Ni  Ni1  1  0.50000000  0.00000000  0.50000000  1
  Ni  Ni2  1  0.00000000  0.50000000  0.00000000  1
  Ni  Ni3  1  0.00000000  0.50000000  0.50000000  1
  Cu  Cu4  1  0.98892300  0.04822300  0.25000000  1
  Cu  Cu5  1  0.48892300  0.45177700  0.75000000  1
  Cu  Cu6  1  0.51107700  0.54822300  0.25000000  1
  Cu  Cu7  1  0.01107700  0.95177700  0.75000000  1
  C  C8  1  0.64577600  0.07989800  0.75000000  1
  C  C9  1  0.17660800  0.18017500  0.57503600  1
  C  C10  1  0.17660800  0.18017500  0.92496400  1
  C  C11  1  0.67660800  0.31982500  0.42496400  1
  C  C12  1  0.67660800  0.31982500  0.07503600  1
  C  C13  1  0.14577600  0.42010200  0.25000000  1
  C  C14  1  0.85422400  0.57989800  0.75000000  1
  C  C15  1  0.32339200  0.68017500  0.57503600  1
  C  C16  1  0.32339200  0.68017500  0.92496400  1
  C  C17  1  0.82339200  0.81982500  0.07503600  1
  C  C18  1  0.82339200  0.81982500  0.42496400  1
  C  C19  1  0.35422400  0.92010200  0.25000000  1
