# generated using pymatgen
data_Cu6NiC22
_symmetry_space_group_name_H-M   'P 1'
_cell_length_a   7.21406659
_cell_length_b   7.21406659
_cell_length_c   14.21937356
_cell_angle_alpha   85.29926802
_cell_angle_beta   85.29926802
_cell_angle_gamma   66.67460711
_symmetry_Int_Tables_number   1
_chemical_formula_structural   Cu6NiC22
_chemical_formula_sum   'Cu12 Ni2 C44'
_cell_volume   676.25749155
_cell_formula_units_Z   2
loop_
 _symmetry_equiv_pos_site_id
 _symmetry_equiv_pos_as_xyz
  1  'x, y, z'
loop_
 _atom_site_type_symbol
 _atom_site_label
 _atom_site_symmetry_multiplicity
 _atom_site_fract_x
 _atom_site_fract_y
 _atom_site_fract_z
 _atom_site_occupancy
  C  C0  1  0.96202000  0.70151000  0.92819000  1
  C  C1  1  0.70151000  0.96202000  0.42819000  1
  C  C2  1  0.77495600  0.56113100  0.54682200  1
  C  C3  1  0.56113100  0.77495600  0.04682200  1
  C  C4  1  0.43886900  0.22504400  0.95317800  1
  C  C5  1  0.22504400  0.43886900  0.45317800  1
  C  C6  1  0.29849000  0.03798000  0.57181000  1
  C  C7  1  0.03798000  0.29849000  0.07181000  1
  Ni  Ni8  1  0.36429700  0.63570300  0.75000000  1
  Ni  Ni9  1  0.63570300  0.36429700  0.25000000  1
  Cu  Cu10  1  0.96120900  0.85629500  0.61293700  1
  Cu  Cu11  1  0.85629500  0.96120900  0.11293700  1
  Cu  Cu12  1  0.62819900  0.90284400  0.75432900  1
  Cu  Cu13  1  0.90284400  0.62819900  0.25432900  1
  Cu  Cu14  1  0.77059900  0.39702600  0.89021400  1
  Cu  Cu15  1  0.39702600  0.77059900  0.39021400  1
  Cu  Cu16  1  0.60297400  0.22940100  0.60978600  1
  Cu  Cu17  1  0.22940100  0.60297400  0.10978600  1
  Cu  Cu18  1  0.09715600  0.37180100  0.74567100  1
  Cu  Cu19  1  0.37180100  0.09715600  0.24567100  1
  Cu  Cu20  1  0.14370500  0.03879100  0.88706300  1
  Cu  Cu21  1  0.03879100  0.14370500  0.38706300  1
  C  C22  1  0.86100200  0.81456500  0.71378700  1
  C  C23  1  0.90570300  0.75809000  0.53672900  1
  C  C24  1  0.81456500  0.86100200  0.21378700  1
  C  C25  1  0.75809000  0.90570300  0.03672900  1
  C  C26  1  0.62816100  0.89931900  0.85858900  1
  C  C27  1  0.89931900  0.62816100  0.35858900  1
  C  C28  1  0.81689500  0.50301100  0.96662800  1
  C  C29  1  0.51625500  0.79924400  0.70656700  1
  C  C30  1  0.86636600  0.44944100  0.78937800  1
  C  C31  1  0.50301100  0.81689500  0.46662800  1
  C  C32  1  0.79924400  0.51625500  0.20656700  1
  C  C33  1  0.44944100  0.86636600  0.28937800  1
  C  C34  1  0.90055200  0.15517700  0.90303700  1
  C  C35  1  0.18329600  0.82282600  0.87129700  1
  C  C36  1  0.55788700  0.42434800  0.87555500  1
  C  C37  1  0.15517700  0.90055200  0.40303700  1
  C  C38  1  0.57565200  0.44211300  0.62444500  1
  C  C39  1  0.82282600  0.18329600  0.37129700  1
  C  C40  1  0.17717400  0.81670400  0.62870300  1
  C  C41  1  0.42434800  0.55788700  0.37555500  1
  C  C42  1  0.84482300  0.09944800  0.59696300  1
  C  C43  1  0.44211300  0.57565200  0.12444500  1
  C  C44  1  0.81670400  0.17717400  0.12870300  1
  C  C45  1  0.09944800  0.84482300  0.09696300  1
  C  C46  1  0.55055900  0.13363400  0.71062200  1
  C  C47  1  0.20075600  0.48374500  0.79343300  1
  C  C48  1  0.49698900  0.18310500  0.53337200  1
  C  C49  1  0.13363400  0.55055900  0.21062200  1
  C  C50  1  0.48374500  0.20075600  0.29343300  1
  C  C51  1  0.18310500  0.49698900  0.03337200  1
  C  C52  1  0.10068100  0.37183900  0.64141100  1
  C  C53  1  0.37183900  0.10068100  0.14141100  1
  C  C54  1  0.24191000  0.09429700  0.96327100  1
  C  C55  1  0.18543500  0.13899800  0.78621300  1
  C  C56  1  0.09429700  0.24191000  0.46327100  1
  C  C57  1  0.13899800  0.18543500  0.28621300  1
