# generated using pymatgen
data_CuNiC6
_symmetry_space_group_name_H-M   'P 1'
_cell_length_a   5.93298345
_cell_length_b   5.97047875
_cell_length_c   8.29624713
_cell_angle_alpha   89.99784196
_cell_angle_beta   89.99857340
_cell_angle_gamma   90.05453599
_symmetry_Int_Tables_number   1
_chemical_formula_structural   CuNiC6
_chemical_formula_sum   'Cu4 Ni4 C24'
_cell_volume   293.87576808
_cell_formula_units_Z   4
loop_
 _symmetry_equiv_pos_site_id
 _symmetry_equiv_pos_as_xyz
  1  'x, y, z'
loop_
 _atom_site_type_symbol
 _atom_site_label
 _atom_site_symmetry_multiplicity
 _atom_site_fract_x
 _atom_site_fract_y
 _atom_site_fract_z
 _atom_site_occupancy
  C  C0  1  0.25000000  0.74999500  0.75000000  1
  C  C1  1  0.75000000  0.24999500  0.25000000  1
  C  C2  1  0.25000100  0.24998000  0.74999500  1
  C  C3  1  0.75000100  0.74998000  0.24999500  1
  C  C4  1  0.00000100  0.99999700  0.49999500  1
  C  C5  1  0.49999900  0.49999700  0.99999700  1
  C  C6  1  0.50000600  0.99999900  0.49999600  1
  C  C7  1  0.00000700  0.49999900  0.99999800  1
  Ni  Ni8  1  0.99999200  0.50000100  0.50000600  1
  Ni  Ni9  1  0.49999100  0.00000100  0.99999800  1
  Ni  Ni10  1  0.49999100  0.49999600  0.50000400  1
  Ni  Ni11  1  0.99999200  0.99999600  0.99999600  1
  Cu  Cu12  1  0.25000300  0.74999900  0.25000100  1
  Cu  Cu13  1  0.24999900  0.25000100  0.24999900  1
  Cu  Cu14  1  0.75000300  0.24999900  0.75000100  1
  Cu  Cu15  1  0.74999900  0.75000100  0.75000000  1
  C  C16  1  0.99288000  0.50018000  0.73522800  1
  C  C17  1  0.49288200  0.00018000  0.23522100  1
  C  C18  1  0.99289900  0.00013500  0.76477200  1
  C  C19  1  0.49290100  0.50013500  0.26478000  1
  C  C20  1  0.00710200  0.99986100  0.23521800  1
  C  C21  1  0.50710400  0.49986100  0.73522500  1
  C  C22  1  0.00712200  0.49982000  0.26478000  1
  C  C23  1  0.50712400  0.99982100  0.76477400  1
  C  C24  1  0.75024500  0.72780900  0.49774600  1
  C  C25  1  0.25024500  0.22780700  0.99773900  1
  C  C26  1  0.74976000  0.27217500  0.49779000  1
  C  C27  1  0.24976000  0.77217700  0.99778200  1
  C  C28  1  0.25024300  0.72782000  0.50221800  1
  C  C29  1  0.75024400  0.22782200  0.00221100  1
  C  C30  1  0.24975900  0.27219000  0.50226000  1
  C  C31  1  0.74975800  0.77218800  0.00225300  1
