# generated using pymatgen
data_Cu2NiC7
_symmetry_space_group_name_H-M   'P 1'
_cell_length_a   7.90122200
_cell_length_b   5.57352000
_cell_length_c   9.67327228
_cell_angle_alpha   84.10800416
_cell_angle_beta   90.00000000
_cell_angle_gamma   90.00000000
_symmetry_Int_Tables_number   1
_chemical_formula_structural   Cu2NiC7
_chemical_formula_sum   'Cu8 Ni4 C28'
_cell_volume   423.73745489
_cell_formula_units_Z   4
loop_
 _symmetry_equiv_pos_site_id
 _symmetry_equiv_pos_as_xyz
  1  'x, y, z'
loop_
 _atom_site_type_symbol
 _atom_site_label
 _atom_site_symmetry_multiplicity
 _atom_site_fract_x
 _atom_site_fract_y
 _atom_site_fract_z
 _atom_site_occupancy
  C  C0  1  0.46788800  0.44881500  0.35137800  1
  C  C1  1  0.03211200  0.94881500  0.35137800  1
  C  C2  1  0.96788800  0.05118500  0.64862200  1
  C  C3  1  0.53211200  0.55118500  0.64862200  1
  C  C4  1  0.19593800  0.20980200  0.01713600  1
  C  C5  1  0.30406200  0.70980200  0.01713600  1
  C  C6  1  0.69593800  0.29019800  0.98286400  1
  C  C7  1  0.80406200  0.79019800  0.98286400  1
  Ni  Ni8  1  0.52536800  0.01785800  0.19889000  1
  Ni  Ni9  1  0.97463200  0.51785800  0.19889000  1
  Ni  Ni10  1  0.02536800  0.48214200  0.80111000  1
  Ni  Ni11  1  0.47463200  0.98214200  0.80111000  1
  Cu  Cu12  1  0.74131600  0.12823700  0.41772000  1
  Cu  Cu13  1  0.89621000  0.30418600  0.43643600  1
  Cu  Cu14  1  0.75868400  0.62823700  0.41772000  1
  Cu  Cu15  1  0.60379000  0.80418600  0.43643600  1
  Cu  Cu16  1  0.39621000  0.19581400  0.56356400  1
  Cu  Cu17  1  0.24131600  0.37176300  0.58228000  1
  Cu  Cu18  1  0.10379000  0.69581400  0.56356400  1
  Cu  Cu19  1  0.25868400  0.87176300  0.58228000  1
  C  C20  1  0.44468000  0.23229000  0.10178200  1
  C  C21  1  0.05532000  0.73229000  0.10178200  1
  C  C22  1  0.79555500  0.48421400  0.13226200  1
  C  C23  1  0.70444500  0.98421400  0.13226200  1
  C  C24  1  0.08194500  0.28288800  0.19800000  1
  C  C25  1  0.41805500  0.78288800  0.19800000  1
  C  C26  1  0.54443100  0.09356400  0.34661200  1
  C  C27  1  0.95556900  0.59356400  0.34661200  1
  C  C28  1  0.85782000  0.13401400  0.45734700  1
  C  C29  1  0.64218000  0.63401400  0.45734700  1
  C  C30  1  0.35782000  0.36598600  0.54265300  1
  C  C31  1  0.14218000  0.86598600  0.54265300  1
  C  C32  1  0.04443100  0.40643600  0.65338800  1
  C  C33  1  0.45556900  0.90643600  0.65338800  1
  C  C34  1  0.58194500  0.21711200  0.80200000  1
  C  C35  1  0.91805500  0.71711200  0.80200000  1
  C  C36  1  0.29555500  0.01578600  0.86773800  1
  C  C37  1  0.20444500  0.51578600  0.86773800  1
  C  C38  1  0.94468000  0.26771000  0.89821800  1
  C  C39  1  0.55532000  0.76771000  0.89821800  1
