# generated using pymatgen
data_Cu6NiC4
_symmetry_space_group_name_H-M   'P 1'
_cell_length_a   9.97717210
_cell_length_b   9.97717210
_cell_length_c   9.97717210
_cell_angle_alpha   109.47122063
_cell_angle_beta   109.47122063
_cell_angle_gamma   109.47122063
_symmetry_Int_Tables_number   1
_chemical_formula_structural   Cu6NiC4
_chemical_formula_sum   'Cu24 Ni4 C16'
_cell_volume   764.54050759
_cell_formula_units_Z   4
loop_
 _symmetry_equiv_pos_site_id
 _symmetry_equiv_pos_as_xyz
  1  'x, y, z'
loop_
 _atom_site_type_symbol
 _atom_site_label
 _atom_site_symmetry_multiplicity
 _atom_site_fract_x
 _atom_site_fract_y
 _atom_site_fract_z
 _atom_site_occupancy
  Ni  Ni0  1  0.74877300  0.00000000  0.00000000  1
  Ni  Ni1  1  0.25122700  0.25122700  0.25122700  1
  Ni  Ni2  1  0.00000000  0.74877300  0.00000000  1
  Ni  Ni3  1  0.00000000  0.00000000  0.74877300  1
  Cu  Cu4  1  0.71991600  0.47242900  0.00000000  1
  Cu  Cu5  1  0.71991600  0.00000000  0.47242900  1
  Cu  Cu6  1  0.47306100  0.22062500  0.00000000  1
  Cu  Cu7  1  0.47306100  0.00000000  0.22062500  1
  Cu  Cu8  1  0.75251300  0.28008400  0.28008400  1
  Cu  Cu9  1  0.77937500  0.25243600  0.77937500  1
  Cu  Cu10  1  0.77937500  0.77937500  0.25243600  1
  Cu  Cu11  1  0.22062500  0.47306100  0.00000000  1
  Cu  Cu12  1  0.22062500  0.00000000  0.47306100  1
  Cu  Cu13  1  0.52757100  0.24748700  0.52757100  1
  Cu  Cu14  1  0.52757100  0.52757100  0.24748700  1
  Cu  Cu15  1  0.47242900  0.71991600  0.00000000  1
  Cu  Cu16  1  0.47242900  0.00000000  0.71991600  1
  Cu  Cu17  1  0.74756400  0.52693900  0.52693900  1
  Cu  Cu18  1  0.00000000  0.47306100  0.22062500  1
  Cu  Cu19  1  0.00000000  0.22062500  0.47306100  1
  Cu  Cu20  1  0.28008400  0.75251300  0.28008400  1
  Cu  Cu21  1  0.28008400  0.28008400  0.75251300  1
  Cu  Cu22  1  0.52693900  0.74756400  0.52693900  1
  Cu  Cu23  1  0.52693900  0.52693900  0.74756400  1
  Cu  Cu24  1  0.24748700  0.52757100  0.52757100  1
  Cu  Cu25  1  0.00000000  0.71991600  0.47242900  1
  Cu  Cu26  1  0.00000000  0.47242900  0.71991600  1
  Cu  Cu27  1  0.25243600  0.77937500  0.77937500  1
  C  C28  1  0.72350300  0.24509400  0.00000000  1
  C  C29  1  0.72350300  0.00000000  0.24509400  1
  C  C30  1  0.00000000  0.00000000  0.00000000  1
  C  C31  1  0.50000000  0.50000000  0.00000000  1
  C  C32  1  0.50000000  0.00000000  0.50000000  1
  C  C33  1  0.52159200  0.27649700  0.27649700  1
  C  C34  1  0.75490600  0.47840800  0.75490600  1
  C  C35  1  0.75490600  0.75490600  0.47840800  1
  C  C36  1  0.24509400  0.72350300  0.00000000  1
  C  C37  1  0.24509400  0.00000000  0.72350300  1
  C  C38  1  0.27649700  0.52159200  0.27649700  1
  C  C39  1  0.27649700  0.27649700  0.52159200  1
  C  C40  1  0.00000000  0.72350300  0.24509400  1
  C  C41  1  0.00000000  0.24509400  0.72350300  1
  C  C42  1  0.00000000  0.50000000  0.50000000  1
  C  C43  1  0.47840800  0.75490600  0.75490600  1
