# generated using pymatgen
data_CuNiC18
_symmetry_space_group_name_H-M   'P 1'
_cell_length_a   8.50557394
_cell_length_b   8.50557394
_cell_length_c   8.61602224
_cell_angle_alpha   61.68041154
_cell_angle_beta   61.68041154
_cell_angle_gamma   63.15911734
_symmetry_Int_Tables_number   1
_chemical_formula_structural   CuNiC18
_chemical_formula_sum   'Cu2 Ni2 C36'
_cell_volume   461.96143768
_cell_formula_units_Z   2
loop_
 _symmetry_equiv_pos_site_id
 _symmetry_equiv_pos_as_xyz
  1  'x, y, z'
loop_
 _atom_site_type_symbol
 _atom_site_label
 _atom_site_symmetry_multiplicity
 _atom_site_fract_x
 _atom_site_fract_y
 _atom_site_fract_z
 _atom_site_occupancy
  C  C0  1  0.12851000  0.25216800  0.84332200  1
  C  C1  1  0.50048700  0.99686400  0.99877000  1
  C  C2  1  0.25216800  0.12851000  0.34332200  1
  C  C3  1  0.74121600  0.87234300  0.65857500  1
  C  C4  1  0.99686400  0.50048700  0.49877000  1
  C  C5  1  0.87234300  0.74121600  0.15857500  1
  Ni  Ni6  1  0.36211300  0.85699700  0.85026900  1
  Ni  Ni7  1  0.85699700  0.36211300  0.35026900  1
  Cu  Cu8  1  0.14441800  0.63652000  0.64467300  1
  Cu  Cu9  1  0.63652000  0.14441800  0.14467300  1
  C  C10  1  0.75166800  0.54975400  0.96539200  1
  C  C11  1  0.05227500  0.94654200  0.24837000  1
  C  C12  1  0.45138600  0.25075700  0.53552300  1
  C  C13  1  0.54975400  0.75166800  0.46539200  1
  C  C14  1  0.94654200  0.05227500  0.74837000  1
  C  C15  1  0.25075700  0.45138600  0.03552300  1
  C  C16  1  0.18713700  0.46435600  0.88864100  1
  C  C17  1  0.10749900  0.03351200  0.79708800  1
  C  C18  1  0.31779400  0.61604900  0.97590600  1
  C  C19  1  0.06288100  0.76002700  0.41677100  1
  C  C20  1  0.61132800  0.74544000  0.92488000  1
  C  C21  1  0.25659200  0.39610100  0.57585900  1
  C  C22  1  0.45288100  0.08616800  0.72769600  1
  C  C23  1  0.03351200  0.10749900  0.29708800  1
  C  C24  1  0.76002700  0.06288100  0.91677100  1
  C  C25  1  0.38587800  0.68211200  0.52792300  1
  C  C26  1  0.08616800  0.45288100  0.22769600  1
  C  C27  1  0.53453400  0.81481300  0.61521800  1
  C  C28  1  0.46435600  0.18713700  0.38864100  1
  C  C29  1  0.91574800  0.54142000  0.77591700  1
  C  C30  1  0.61604900  0.31779400  0.47590600  1
  C  C31  1  0.23724700  0.93551900  0.07710600  1
  C  C32  1  0.97722100  0.88372600  0.70210100  1
  C  C33  1  0.54142000  0.91574800  0.27591700  1
  C  C34  1  0.74544000  0.61132800  0.42488000  1
  C  C35  1  0.39610100  0.25659200  0.07585900  1
  C  C36  1  0.93551900  0.23724700  0.57710600  1
  C  C37  1  0.68211200  0.38587800  0.02792300  1
  C  C38  1  0.88372600  0.97722100  0.20210100  1
  C  C39  1  0.81481300  0.53453400  0.11521800  1
