# generated using pymatgen
data_Cu5Ni7C60
_symmetry_space_group_name_H-M   'P 1'
_cell_length_a   5.08396500
_cell_length_b   9.80677927
_cell_length_c   13.38236533
_cell_angle_alpha   97.04844510
_cell_angle_beta   100.71444673
_cell_angle_gamma   95.05397507
_symmetry_Int_Tables_number   1
_chemical_formula_structural   Cu5Ni7C60
_chemical_formula_sum   'Cu5 Ni7 C60'
_cell_volume   646.40059991
_cell_formula_units_Z   1
loop_
 _symmetry_equiv_pos_site_id
 _symmetry_equiv_pos_as_xyz
  1  'x, y, z'
loop_
 _atom_site_type_symbol
 _atom_site_label
 _atom_site_symmetry_multiplicity
 _atom_site_fract_x
 _atom_site_fract_y
 _atom_site_fract_z
 _atom_site_occupancy
  C  C0  1  0.16128400  0.00013500  0.83497600  1
  C  C1  1  0.05056200  0.00081700  0.61146900  1
  C  C2  1  0.00018700  0.74989700  0.25031400  1
  C  C3  1  0.33284200  0.75001000  0.91569200  1
  C  C4  1  0.04847000  0.50012800  0.11277000  1
  C  C5  1  0.38190300  0.49737900  0.77933200  1
  C  C6  1  0.16328500  0.50072300  0.33480300  1
  C  C7  1  0.50049000  0.49954900  0.00007800  1
  C  C8  1  0.28859000  0.49993800  0.55232400  1
  C  C9  1  0.33297700  0.24985800  0.41641800  1
  C  C10  1  0.49317900  0.00063700  0.50219900  1
  C  C11  1  0.28697700  0.00111100  0.05358800  1
  C  C12  1  0.61955500  0.00160500  0.72056000  1
  C  C13  1  0.38608300  0.00184900  0.28043400  1
  C  C14  1  0.70979400  0.99804700  0.94454200  1
  C  C15  1  0.66616300  0.75012200  0.58221200  1
  C  C16  1  0.71781500  0.50005300  0.44709800  1
  C  C17  1  0.82860200  0.49830600  0.66857600  1
  C  C18  1  0.61350900  0.49820000  0.21844900  1
  C  C19  1  0.95592700  0.50143900  0.88673800  1
  C  C20  1  0.66719700  0.24974800  0.08442600  1
  C  C21  1  0.83769900  0.00044400  0.16586600  1
  C  C22  1  0.99874100  0.25019200  0.74936000  1
  C  C23  1  0.94949700  0.99805300  0.38689700  1
  Ni  Ni24  1  0.11137900  0.24970200  0.97491300  1
  Ni  Ni25  1  0.22254800  0.75033000  0.69600300  1
  Ni  Ni26  1  0.55920400  0.25172800  0.86072300  1
  Ni  Ni27  1  0.44439500  0.75016000  0.13990700  1
  Ni  Ni28  1  0.55751100  0.75018500  0.36449900  1
  Ni  Ni29  1  0.88899000  0.24776300  0.52469700  1
  Ni  Ni30  1  0.89066300  0.75084000  0.02586800  1
  Cu  Cu31  1  0.10940000  0.74937700  0.47233600  1
  Cu  Cu32  1  0.22569800  0.25069800  0.19878300  1
  Cu  Cu33  1  0.43995000  0.25048900  0.63872600  1
  Cu  Cu34  1  0.77394000  0.74915600  0.80312200  1
  Cu  Cu35  1  0.77524900  0.24963100  0.30208500  1
  C  C36  1  0.00054100  0.86197000  0.92628100  1
  C  C37  1  0.07230200  0.63321100  0.78405900  1
  C  C38  1  0.99762500  0.36266200  0.42663400  1
  C  C39  1  0.15269300  0.36247500  0.64302200  1
  C  C40  1  0.26454300  0.36579800  0.88232200  1
  C  C41  1  0.33236000  0.86138200  0.59358100  1
  C  C42  1  0.07673200  0.13585000  0.28328800  1
  C  C43  1  0.18744500  0.13669100  0.52122000  1
  C  C44  1  0.40232600  0.13390900  0.95169000  1
  C  C45  1  0.14376400  0.86393500  0.14309100  1
  C  C46  1  0.25879300  0.86413300  0.38384100  1
  C  C47  1  0.47283200  0.86407600  0.80913800  1
  C  C48  1  0.32982500  0.13781300  0.73434600  1
  C  C49  1  0.19008700  0.63674800  0.02288400  1
  C  C50  1  0.40728400  0.63313600  0.45305200  1
  C  C51  1  0.53089800  0.63819000  0.69159400  1
  C  C52  1  0.33260300  0.63635900  0.23855400  1
  C  C53  1  0.66491800  0.63844700  0.90187600  1
  C  C54  1  0.33539900  0.36210200  0.09822900  1
  C  C55  1  0.67154500  0.36273100  0.76231500  1
  C  C56  1  0.46882000  0.36204100  0.30798300  1
  C  C57  1  0.59475500  0.36444700  0.54840300  1
  C  C58  1  0.80972800  0.36402600  0.97723000  1
  C  C59  1  0.66888500  0.86384500  0.26324100  1
  C  C60  1  0.53245200  0.13826400  0.19271000  1
  C  C61  1  0.73208000  0.13649300  0.61847500  1
  C  C62  1  0.85654100  0.13662100  0.85713500  1
  C  C63  1  0.59775400  0.86627600  0.04820600  1
  C  C64  1  0.80745000  0.86369600  0.47834400  1
  C  C65  1  0.92517400  0.86470600  0.71681100  1
  C  C66  1  0.66617600  0.13720200  0.40198500  1
  C  C67  1  0.73625200  0.63407200  0.11780000  1
  C  C68  1  0.86369500  0.63819500  0.35898600  1
  C  C69  1  0.99987500  0.63759900  0.56926500  1
  C  C70  1  0.92413300  0.36420900  0.21746300  1
  C  C71  1  0.00145800  0.13839400  0.07416300  1
