# generated using pymatgen
data_Cu(NiC)2
_symmetry_space_group_name_H-M   'P 1'
_cell_length_a   8.71234900
_cell_length_b   8.73039262
_cell_length_c   8.73534400
_cell_angle_alpha   109.34705286
_cell_angle_beta   109.54220172
_cell_angle_gamma   109.37040337
_symmetry_Int_Tables_number   1
_chemical_formula_structural   Cu(NiC)2
_chemical_formula_sum   'Cu8 Ni16 C16'
_cell_volume   512.44672555
_cell_formula_units_Z   8
loop_
 _symmetry_equiv_pos_site_id
 _symmetry_equiv_pos_as_xyz
  1  'x, y, z'
loop_
 _atom_site_type_symbol
 _atom_site_label
 _atom_site_symmetry_multiplicity
 _atom_site_fract_x
 _atom_site_fract_y
 _atom_site_fract_z
 _atom_site_occupancy
  C  C0  1  0.48738500  0.49910200  0.49969500  1
  C  C1  1  0.78772400  0.53706500  0.25147500  1
  C  C2  1  0.03654000  0.75239900  0.78569300  1
  C  C3  1  0.52312200  0.74987600  0.28163900  1
  C  C4  1  0.71254900  0.96991600  0.76103400  1
  C  C5  1  0.99671600  0.49966800  0.98793200  1
  C  C6  1  0.49699700  0.99912000  0.00085300  1
  C  C7  1  0.01750100  0.00632500  0.50755300  1
  C  C8  1  0.75939000  0.21300700  0.46733600  1
  C  C9  1  0.24189600  0.28222500  0.03006000  1
  C  C10  1  0.25639700  0.79645500  0.53686000  1
  C  C11  1  0.74918300  0.71286800  0.96574600  1
  C  C12  1  0.28043400  0.02997800  0.24012900  1
  C  C13  1  0.96955100  0.24201200  0.21054700  1
  C  C14  1  0.46650400  0.25342500  0.71914900  1
  C  C15  1  0.21388900  0.45672600  0.74858300  1
  Ni  Ni16  1  0.23182700  0.26548400  0.27396200  1
  Ni  Ni17  1  0.45227700  0.72433700  0.48409800  1
  Ni  Ni18  1  0.49582100  0.96124800  0.23351700  1
  Ni  Ni19  1  0.98768300  0.75964000  0.53206100  1
  Ni  Ni20  1  0.26224100  0.03308500  0.98414500  1
  Ni  Ni21  1  0.96320900  0.22597200  0.95003000  1
  Ni  Ni22  1  0.00438500  0.23238600  0.46114200  1
  Ni  Ni23  1  0.23900900  0.22652400  0.77047900  1
  Ni  Ni24  1  0.03111900  0.77299600  0.04373300  1
  Ni  Ni25  1  0.73969000  0.96430800  0.01460600  1
  Ni  Ni26  1  0.51049000  0.04384100  0.77479000  1
  Ni  Ni27  1  0.27492900  0.54559300  0.03553700  1
  Ni  Ni28  1  0.23008300  0.98991300  0.45371900  1
  Ni  Ni29  1  0.95154700  0.46523600  0.72459100  1
  Ni  Ni30  1  0.72801800  0.45660300  0.97374700  1
  Ni  Ni31  1  0.46531900  0.51398800  0.73416600  1
  Cu  Cu32  1  0.72432300  0.27608300  0.23793200  1
  Cu  Cu33  1  0.77208700  0.73665300  0.72622600  1
  Cu  Cu34  1  0.54261900  0.48943400  0.26586200  1
  Cu  Cu35  1  0.75453900  0.76889000  0.22787200  1
  Cu  Cu36  1  0.77475000  0.01111100  0.54732000  1
  Cu  Cu37  1  0.55067100  0.27887400  0.51219800  1
  Cu  Cu38  1  0.04236600  0.52819300  0.27681000  1
  Cu  Cu39  1  0.27522200  0.72943900  0.76717300  1
