# generated using pymatgen
data_Cu5NiC3
_symmetry_space_group_name_H-M   'P 1'
_cell_length_a   4.72923697
_cell_length_b   4.72923697
_cell_length_c   9.42155645
_cell_angle_alpha   89.20949443
_cell_angle_beta   89.20949443
_cell_angle_gamma   91.46164868
_symmetry_Int_Tables_number   1
_chemical_formula_structural   Cu5NiC3
_chemical_formula_sum   'Cu10 Ni2 C6'
_cell_volume   210.60982579
_cell_formula_units_Z   2
loop_
 _symmetry_equiv_pos_site_id
 _symmetry_equiv_pos_as_xyz
  1  'x, y, z'
loop_
 _atom_site_type_symbol
 _atom_site_label
 _atom_site_symmetry_multiplicity
 _atom_site_fract_x
 _atom_site_fract_y
 _atom_site_fract_z
 _atom_site_occupancy
  C  C0  1  0.02419700  0.02419700  0.66298400  1
  C  C1  1  0.97580300  0.97580300  0.33701600  1
  C  C2  1  0.00000000  0.00000000  0.00000000  1
  C  C3  1  0.50000000  0.50000000  0.50000000  1
  C  C4  1  0.49727100  0.49727100  0.82535300  1
  C  C5  1  0.50272900  0.50272900  0.17464700  1
  Ni  Ni6  1  0.67402200  0.67402200  0.35305500  1
  Ni  Ni7  1  0.32597800  0.32597800  0.64694500  1
  Cu  Cu8  1  0.79845600  0.20154400  0.50000000  1
  Cu  Cu9  1  0.81331100  0.20535800  0.83107100  1
  Cu  Cu10  1  0.79464200  0.18668900  0.16892900  1
  Cu  Cu11  1  0.71203700  0.71203700  0.65974900  1
  Cu  Cu12  1  0.69368300  0.69368300  0.99766900  1
  Cu  Cu13  1  0.30631700  0.30631700  0.00233100  1
  Cu  Cu14  1  0.28796300  0.28796300  0.34025100  1
  Cu  Cu15  1  0.20154400  0.79845600  0.50000000  1
  Cu  Cu16  1  0.20535800  0.81331100  0.83107100  1
  Cu  Cu17  1  0.18668900  0.79464200  0.16892900  1
