# generated using pymatgen
data_Cu(NiC16)3
_symmetry_space_group_name_H-M   'P 1'
_cell_length_a   8.47152825
_cell_length_b   9.99761636
_cell_length_c   6.43878900
_cell_angle_alpha   90.00000000
_cell_angle_beta   90.00000000
_cell_angle_gamma   85.26408917
_symmetry_Int_Tables_number   1
_chemical_formula_structural   Cu(NiC16)3
_chemical_formula_sum   'Cu1 Ni3 C48'
_cell_volume   543.47195059
_cell_formula_units_Z   1
loop_
 _symmetry_equiv_pos_site_id
 _symmetry_equiv_pos_as_xyz
  1  'x, y, z'
loop_
 _atom_site_type_symbol
 _atom_site_label
 _atom_site_symmetry_multiplicity
 _atom_site_fract_x
 _atom_site_fract_y
 _atom_site_fract_z
 _atom_site_occupancy
  C  C0  1  0.09311400  0.38124200  0.25000000  1
  C  C1  1  0.09626200  0.88172900  0.25000000  1
  C  C2  1  0.27509700  0.12246100  0.02243200  1
  C  C3  1  0.27509700  0.12246100  0.47756800  1
  C  C4  1  0.27566400  0.62518800  0.02298500  1
  C  C5  1  0.27566400  0.62518800  0.47701500  1
  C  C6  1  0.72536300  0.37798200  0.52215700  1
  C  C7  1  0.72536300  0.37798200  0.97784300  1
  C  C8  1  0.72505800  0.87428000  0.52074400  1
  C  C9  1  0.72505800  0.87428000  0.97925600  1
  C  C10  1  0.90594700  0.11933800  0.75000000  1
  C  C11  1  0.90473400  0.61840400  0.75000000  1
  Ni  Ni12  1  0.33383800  0.39527100  0.75000000  1
  Ni  Ni13  1  0.33622700  0.89147600  0.75000000  1
  Ni  Ni14  1  0.66680900  0.10616400  0.25000000  1
  Cu  Cu15  1  0.66711300  0.60416400  0.25000000  1
  C  C16  1  0.41299000  0.36128000  0.25000000  1
  C  C17  1  0.41335500  0.85851600  0.25000000  1
  C  C18  1  0.58752500  0.14005300  0.75000000  1
  C  C19  1  0.58830900  0.64096100  0.75000000  1
  C  C20  1  0.03451000  0.35001000  0.75000000  1
  C  C21  1  0.03480700  0.85121600  0.75000000  1
  C  C22  1  0.96591300  0.14945600  0.25000000  1
  C  C23  1  0.96143900  0.64866300  0.25000000  1
  C  C24  1  0.07097300  0.47345800  0.75000000  1
  C  C25  1  0.11244600  0.17909100  0.25000000  1
  C  C26  1  0.07098600  0.97433900  0.75000000  1
  C  C27  1  0.14792500  0.25369100  0.75000000  1
  C  C28  1  0.10704200  0.67958300  0.25000000  1
  C  C29  1  0.14860000  0.75491800  0.75000000  1
  C  C30  1  0.30958400  0.41420600  0.06301000  1
  C  C31  1  0.30958400  0.41420600  0.43699000  1
  C  C32  1  0.30959700  0.91093700  0.06300700  1
  C  C33  1  0.30959700  0.91093700  0.43699300  1
  C  C34  1  0.42124300  0.08837100  0.75000000  1
  C  C35  1  0.43135900  0.20501200  0.25000000  1
  C  C36  1  0.42036400  0.59230400  0.75000000  1
  C  C37  1  0.43278200  0.70142200  0.25000000  1
  C  C38  1  0.56980500  0.29675100  0.75000000  1
  C  C39  1  0.58017100  0.41343500  0.25000000  1
  C  C40  1  0.57177200  0.79759800  0.75000000  1
  C  C41  1  0.57888900  0.91114100  0.25000000  1
  C  C42  1  0.69079500  0.08714900  0.93728900  1
  C  C43  1  0.69079500  0.08714900  0.56271100  1
  C  C44  1  0.69101500  0.58728800  0.56200900  1
  C  C45  1  0.69101500  0.58728800  0.93799100  1
  C  C46  1  0.85215400  0.24592500  0.25000000  1
  C  C47  1  0.88773700  0.32075300  0.75000000  1
  C  C48  1  0.84534400  0.74320400  0.25000000  1
  C  C49  1  0.92932700  0.02618100  0.25000000  1
  C  C50  1  0.88825300  0.82099000  0.75000000  1
  C  C51  1  0.92558800  0.52491400  0.25000000  1
