# generated using pymatgen
data_Cu17(NiC7)2
_symmetry_space_group_name_H-M   'P 1'
_cell_length_a   14.28027200
_cell_length_b   7.63771600
_cell_length_c   11.54677851
_cell_angle_alpha   87.70465776
_cell_angle_beta   90.00000000
_cell_angle_gamma   90.00000000
_symmetry_Int_Tables_number   1
_chemical_formula_structural   Cu17(NiC7)2
_chemical_formula_sum   'Cu68 Ni8 C56'
_cell_volume   1258.38121408
_cell_formula_units_Z   4
loop_
 _symmetry_equiv_pos_site_id
 _symmetry_equiv_pos_as_xyz
  1  'x, y, z'
loop_
 _atom_site_type_symbol
 _atom_site_label
 _atom_site_symmetry_multiplicity
 _atom_site_fract_x
 _atom_site_fract_y
 _atom_site_fract_z
 _atom_site_occupancy
  C  C0  1  0.95981100  0.90293000  0.72151000  1
  C  C1  1  0.45981100  0.09707000  0.77849000  1
  C  C2  1  0.04018900  0.09707000  0.27849000  1
  C  C3  1  0.54018900  0.90293000  0.22151000  1
  Ni  Ni4  1  0.81414100  0.16123200  0.60053400  1
  Ni  Ni5  1  0.31414100  0.83876800  0.89946600  1
  Ni  Ni6  1  0.18585900  0.83876800  0.39946600  1
  Ni  Ni7  1  0.68585900  0.16123200  0.10053400  1
  Ni  Ni8  1  0.91532100  0.28089900  0.80945000  1
  Ni  Ni9  1  0.41532100  0.71910100  0.69055000  1
  Ni  Ni10  1  0.08467900  0.71910100  0.19055000  1
  Ni  Ni11  1  0.58467900  0.28089900  0.30945000  1
  Cu  Cu12  1  0.99048200  0.80169200  0.93578700  1
  Cu  Cu13  1  0.49048200  0.19830800  0.56421300  1
  Cu  Cu14  1  0.00951800  0.19830800  0.06421300  1
  Cu  Cu15  1  0.50951800  0.80169200  0.43578700  1
  Cu  Cu16  1  0.09557700  0.80301700  0.87284900  1
  Cu  Cu17  1  0.59557700  0.19698300  0.62715100  1
  Cu  Cu18  1  0.90442300  0.19698300  0.12715100  1
  Cu  Cu19  1  0.40442300  0.80301700  0.37284900  1
  Cu  Cu20  1  0.02249300  0.63442300  0.85709700  1
  Cu  Cu21  1  0.52249300  0.36557700  0.64290300  1
  Cu  Cu22  1  0.97750700  0.36557700  0.14290300  1
  Cu  Cu23  1  0.47750700  0.63442300  0.35709700  1
  Cu  Cu24  1  0.00065900  0.58023700  0.66637300  1
  Cu  Cu25  1  0.50065900  0.41976300  0.83362700  1
  Cu  Cu26  1  0.99934100  0.41976300  0.33362700  1
  Cu  Cu27  1  0.49934100  0.58023700  0.16637300  1
  Cu  Cu28  1  0.94024900  0.68105400  0.55947400  1
  Cu  Cu29  1  0.44024900  0.31894600  0.94052600  1
  Cu  Cu30  1  0.05975100  0.31894600  0.44052600  1
  Cu  Cu31  1  0.55975100  0.68105400  0.05947400  1
  Cu  Cu32  1  0.05678900  0.71526800  0.57413100  1
  Cu  Cu33  1  0.55678900  0.28473200  0.92586900  1
  Cu  Cu34  1  0.94321100  0.28473200  0.42586900  1
  Cu  Cu35  1  0.44321100  0.71526800  0.07413100  1
  Cu  Cu36  1  0.08869500  0.03205300  0.58485900  1
  Cu  Cu37  1  0.58869500  0.96794700  0.91514100  1
  Cu  Cu38  1  0.91130500  0.96794700  0.41514100  1
  Cu  Cu39  1  0.41130500  0.03205300  0.08485900  1
  Cu  Cu40  1  0.14207800  0.97998100  0.70936800  1
  Cu  Cu41  1  0.64207800  0.02001900  0.79063200  1
  Cu  Cu42  1  0.85792200  0.02001900  0.29063200  1
  Cu  Cu43  1  0.35792200  0.97998100  0.20936800  1
  Cu  Cu44  1  0.08099500  0.16533400  0.69376300  1
  Cu  Cu45  1  0.58099500  0.83466600  0.80623700  1
  Cu  Cu46  1  0.91900500  0.83466600  0.30623700  1
  Cu  Cu47  1  0.41900500  0.16533400  0.19376300  1
  Cu  Cu48  1  0.83083800  0.75023400  0.85760600  1
  Cu  Cu49  1  0.33083800  0.24976600  0.64239400  1
  Cu  Cu50  1  0.16916200  0.24976600  0.14239400  1
  Cu  Cu51  1  0.66916200  0.75023400  0.35760600  1
  Cu  Cu52  1  0.78270200  0.84019900  0.73776200  1
  Cu  Cu53  1  0.28270200  0.15980100  0.76223800  1
  Cu  Cu54  1  0.21729800  0.15980100  0.26223800  1
  Cu  Cu55  1  0.71729800  0.84019900  0.23776200  1
  Cu  Cu56  1  0.83216900  0.64333600  0.73593300  1
  Cu  Cu57  1  0.33216900  0.35666400  0.76406700  1
  Cu  Cu58  1  0.16783100  0.35666400  0.26406700  1
  Cu  Cu59  1  0.66783100  0.64333600  0.23593300  1
  Cu  Cu60  1  0.89021100  0.70370300  0.10056100  1
  Cu  Cu61  1  0.39021100  0.29629700  0.39943900  1
  Cu  Cu62  1  0.10978900  0.29629700  0.89943900  1
  Cu  Cu63  1  0.60978900  0.70370300  0.60056100  1
  Cu  Cu64  1  0.82969700  0.87545400  0.07826700  1
  Cu  Cu65  1  0.32969700  0.12454600  0.42173300  1
  Cu  Cu66  1  0.17030300  0.12454600  0.92173300  1
  Cu  Cu67  1  0.67030300  0.87545400  0.57826700  1
  Cu  Cu68  1  0.82640400  0.50827600  0.46959000  1
  Cu  Cu69  1  0.32640400  0.49172400  0.03041000  1
  Cu  Cu70  1  0.17359600  0.49172400  0.53041000  1
  Cu  Cu71  1  0.67359600  0.50827600  0.96959000  1
  Cu  Cu72  1  0.77079800  0.67465500  0.50025800  1
  Cu  Cu73  1  0.27079800  0.32534500  0.99974200  1
  Cu  Cu74  1  0.22920200  0.32534500  0.49974200  1
  Cu  Cu75  1  0.72920200  0.67465500  0.00025800  1
  Cu  Cu76  1  0.79478700  0.31599600  0.93326000  1
  Cu  Cu77  1  0.29478700  0.68400400  0.56674000  1
  Cu  Cu78  1  0.20521300  0.68400400  0.06674000  1
  Cu  Cu79  1  0.70521300  0.31599600  0.43326000  1
  C  C80  1  0.02629500  0.76876100  0.86311200  1
  C  C81  1  0.52629500  0.23123900  0.63688800  1
  C  C82  1  0.97370500  0.23123900  0.13688800  1
  C  C83  1  0.47370500  0.76876100  0.36311200  1
  C  C84  1  0.99475700  0.69551600  0.61767300  1
  C  C85  1  0.49475700  0.30448400  0.88232700  1
  C  C86  1  0.00524300  0.30448400  0.38232700  1
  C  C87  1  0.50524300  0.69551600  0.11767300  1
  C  C88  1  0.08300200  0.03595700  0.67326700  1
  C  C89  1  0.58300200  0.96404300  0.82673300  1
  C  C90  1  0.91699800  0.96404300  0.32673300  1
  C  C91  1  0.41699800  0.03595700  0.17326700  1
  C  C92  1  0.83703200  0.76478700  0.76948300  1
  C  C93  1  0.33703200  0.23521300  0.73051700  1
  C  C94  1  0.16296800  0.23521300  0.23051700  1
  C  C95  1  0.66296800  0.76478700  0.26948300  1
  C  C96  1  0.89558100  0.02536000  0.59180400  1
  C  C97  1  0.39558100  0.97464000  0.90819600  1
  C  C98  1  0.10441900  0.97464000  0.40819600  1
  C  C99  1  0.60441900  0.02536000  0.09180400  1
  C  C100  1  0.80276800  0.26485700  0.48599300  1
  C  C101  1  0.30276800  0.73514300  0.01400700  1
  C  C102  1  0.19723200  0.73514300  0.51400700  1
  C  C103  1  0.69723200  0.26485700  0.98599300  1
  C  C104  1  0.72545200  0.07698700  0.64987200  1
  C  C105  1  0.22545200  0.92301300  0.85012800  1
  C  C106  1  0.27454800  0.92301300  0.35012800  1
  C  C107  1  0.77454800  0.07698700  0.14987200  1
  C  C108  1  0.85367000  0.30674600  0.69063500  1
  C  C109  1  0.35367000  0.69325400  0.80936500  1
  C  C110  1  0.14633000  0.69325400  0.30936500  1
  C  C111  1  0.64633000  0.30674600  0.19063500  1
  C  C112  1  0.92343100  0.08396400  0.83765300  1
  C  C113  1  0.42343100  0.91603600  0.66234700  1
  C  C114  1  0.07656900  0.91603600  0.16234700  1
  C  C115  1  0.57656900  0.08396400  0.33765300  1
  C  C116  1  0.00577900  0.38083000  0.79329100  1
  C  C117  1  0.50577900  0.61917000  0.70670900  1
  C  C118  1  0.99422100  0.61917000  0.20670900  1
  C  C119  1  0.49422100  0.38083000  0.29329100  1
  C  C120  1  0.85580900  0.37340300  0.90373200  1
  C  C121  1  0.35580900  0.62659700  0.59626800  1
  C  C122  1  0.14419100  0.62659700  0.09626800  1
  C  C123  1  0.64419100  0.37340300  0.40373200  1
  C  C124  1  0.84713500  0.76320700  0.04464500  1
  C  C125  1  0.34713500  0.23679300  0.45535500  1
  C  C126  1  0.15286500  0.23679300  0.95535500  1
  C  C127  1  0.65286500  0.76320700  0.54464500  1
  C  C128  1  0.83232900  0.63717300  0.47086500  1
  C  C129  1  0.33232900  0.36282700  0.02913500  1
  C  C130  1  0.16767100  0.36282700  0.52913500  1
  C  C131  1  0.66767100  0.63717300  0.97086500  1
