# generated using pymatgen
data_CuNiC
_symmetry_space_group_name_H-M   'P 1'
_cell_length_a   3.09745500
_cell_length_b   14.14130500
_cell_length_c   14.24729507
_cell_angle_alpha   89.80911821
_cell_angle_beta   90.00000000
_cell_angle_gamma   90.00000000
_symmetry_Int_Tables_number   1
_chemical_formula_structural   CuNiC
_chemical_formula_sum   'Cu18 Ni18 C18'
_cell_volume   624.05735135
_cell_formula_units_Z   18
loop_
 _symmetry_equiv_pos_site_id
 _symmetry_equiv_pos_as_xyz
  1  'x, y, z'
loop_
 _atom_site_type_symbol
 _atom_site_label
 _atom_site_symmetry_multiplicity
 _atom_site_fract_x
 _atom_site_fract_y
 _atom_site_fract_z
 _atom_site_occupancy
  C  C0  1  0.00000000  0.98674400  0.99650600  1
  C  C1  1  0.00000000  0.98208200  0.33745000  1
  C  C2  1  0.00000000  0.99303800  0.66379800  1
  C  C3  1  0.50000000  0.84636500  0.16498000  1
  C  C4  1  0.50000000  0.84722800  0.50250600  1
  C  C5  1  0.50000000  0.82632200  0.85028900  1
  C  C6  1  0.00000000  0.65787100  0.99406300  1
  C  C7  1  0.00000000  0.65911800  0.33540400  1
  C  C8  1  0.00000000  0.65690700  0.66376800  1
  C  C9  1  0.50000000  0.51329200  0.49907900  1
  C  C10  1  0.50000000  0.52148200  0.16709900  1
  C  C11  1  0.50000000  0.51456100  0.83031500  1
  C  C12  1  0.00000000  0.32733400  0.00385600  1
  C  C13  1  0.00000000  0.32323800  0.32850800  1
  C  C14  1  0.00000000  0.31988600  0.66570700  1
  C  C15  1  0.50000000  0.17768300  0.16483000  1
  C  C16  1  0.50000000  0.18115200  0.49562500  1
  C  C17  1  0.50000000  0.15901600  0.81163100  1
  Ni  Ni18  1  0.50000000  0.93499000  0.27101800  1
  Ni  Ni19  1  0.50000000  0.93181200  0.60082200  1
  Ni  Ni20  1  0.50000000  0.93851500  0.93203500  1
  Ni  Ni21  1  0.00000000  0.89887500  0.10223100  1
  Ni  Ni22  1  0.00000000  0.89793800  0.44281100  1
  Ni  Ni23  1  0.00000000  0.76473600  0.90336800  1
  Ni  Ni24  1  0.50000000  0.60691400  0.27236000  1
  Ni  Ni25  1  0.50000000  0.60282200  0.60248700  1
  Ni  Ni26  1  0.50000000  0.59551900  0.93794300  1
  Ni  Ni27  1  0.00000000  0.56515500  0.10156800  1
  Ni  Ni28  1  0.00000000  0.56535400  0.43600200  1
  Ni  Ni29  1  0.00000000  0.56490600  0.76779600  1
  Ni  Ni30  1  0.50000000  0.27051000  0.26423900  1
  Ni  Ni31  1  0.50000000  0.26869900  0.60216200  1
  Ni  Ni32  1  0.00000000  0.23308800  0.09701300  1
  Ni  Ni33  1  0.00000000  0.23448200  0.43259000  1
  Ni  Ni34  1  0.00000000  0.23239200  0.77220200  1
  Ni  Ni35  1  0.50000000  0.05667500  0.72792500  1
  Cu  Cu36  1  0.00000000  0.89053800  0.76971600  1
  Cu  Cu37  1  0.00000000  0.76891500  0.23431200  1
  Cu  Cu38  1  0.00000000  0.77074300  0.56847600  1
  Cu  Cu39  1  0.50000000  0.73154100  0.07137200  1
  Cu  Cu40  1  0.50000000  0.73361600  0.73125500  1
  Cu  Cu41  1  0.50000000  0.73761900  0.40262000  1
  Cu  Cu42  1  0.00000000  0.43548900  0.23051500  1
  Cu  Cu43  1  0.00000000  0.43406500  0.56590100  1
  Cu  Cu44  1  0.00000000  0.42699800  0.90150500  1
  Cu  Cu45  1  0.50000000  0.39771000  0.06246900  1
  Cu  Cu46  1  0.50000000  0.40044400  0.39650800  1
  Cu  Cu47  1  0.50000000  0.39887100  0.73417900  1
  Cu  Cu48  1  0.50000000  0.27031200  0.93568100  1
  Cu  Cu49  1  0.00000000  0.10408500  0.22844400  1
  Cu  Cu50  1  0.00000000  0.10216500  0.55955400  1
  Cu  Cu51  1  0.00000000  0.10457700  0.90199800  1
  Cu  Cu52  1  0.50000000  0.06819700  0.06641000  1
  Cu  Cu53  1  0.50000000  0.06741100  0.39710500  1
