# generated using pymatgen
data_Cu12Ni3C2
_symmetry_space_group_name_H-M   'P 1'
_cell_length_a   9.39068964
_cell_length_b   9.39068964
_cell_length_c   9.39068949
_cell_angle_alpha   57.84588277
_cell_angle_beta   57.84588277
_cell_angle_gamma   57.84587857
_symmetry_Int_Tables_number   1
_chemical_formula_structural   Cu12Ni3C2
_chemical_formula_sum   'Cu24 Ni6 C4'
_cell_volume   556.60958656
_cell_formula_units_Z   2
loop_
 _symmetry_equiv_pos_site_id
 _symmetry_equiv_pos_as_xyz
  1  'x, y, z'
loop_
 _atom_site_type_symbol
 _atom_site_label
 _atom_site_symmetry_multiplicity
 _atom_site_fract_x
 _atom_site_fract_y
 _atom_site_fract_z
 _atom_site_occupancy
  C  C0  1  0.64402700  0.64402700  0.64402700  1
  C  C1  1  0.14402700  0.14402700  0.14402700  1
  C  C2  1  0.85597300  0.85597300  0.85597300  1
  C  C3  1  0.35597300  0.35597300  0.35597300  1
  Ni  Ni4  1  0.25000000  0.53744700  0.96255300  1
  Ni  Ni5  1  0.46255300  0.03744700  0.75000000  1
  Ni  Ni6  1  0.03744700  0.75000000  0.46255300  1
  Ni  Ni7  1  0.96255300  0.25000000  0.53744700  1
  Ni  Ni8  1  0.53744700  0.96255300  0.25000000  1
  Ni  Ni9  1  0.75000000  0.46255300  0.03744700  1
  Cu  Cu10  1  0.00933500  0.77304300  0.62105500  1
  Cu  Cu11  1  0.77304300  0.62105500  0.00933500  1
  Cu  Cu12  1  0.40960500  0.56391600  0.80090400  1
  Cu  Cu13  1  0.27304300  0.50933500  0.12105500  1
  Cu  Cu14  1  0.62105500  0.00933500  0.77304300  1
  Cu  Cu15  1  0.49066500  0.87894500  0.72695700  1
  Cu  Cu16  1  0.19909600  0.59039500  0.43608400  1
  Cu  Cu17  1  0.09039500  0.69909600  0.93608400  1
  Cu  Cu18  1  0.30090400  0.06391600  0.90960500  1
  Cu  Cu19  1  0.43608400  0.19909600  0.59039500  1
  Cu  Cu20  1  0.06391600  0.90960500  0.30090400  1
  Cu  Cu21  1  0.87894500  0.72695700  0.49066500  1
  Cu  Cu22  1  0.12105500  0.27304300  0.50933500  1
  Cu  Cu23  1  0.93608400  0.09039500  0.69909600  1
  Cu  Cu24  1  0.56391600  0.80090400  0.40960500  1
  Cu  Cu25  1  0.69909600  0.93608400  0.09039500  1
  Cu  Cu26  1  0.90960500  0.30090400  0.06391600  1
  Cu  Cu27  1  0.80090400  0.40960500  0.56391600  1
  Cu  Cu28  1  0.50933500  0.12105500  0.27304300  1
  Cu  Cu29  1  0.37894500  0.99066500  0.22695700  1
  Cu  Cu30  1  0.72695700  0.49066500  0.87894500  1
  Cu  Cu31  1  0.59039500  0.43608400  0.19909600  1
  Cu  Cu32  1  0.22695700  0.37894500  0.99066500  1
  Cu  Cu33  1  0.99066500  0.22695700  0.37894500  1
