# generated using pymatgen
data_Cu2Ni2C13
_symmetry_space_group_name_H-M   'P 1'
_cell_length_a   6.90545000
_cell_length_b   7.48422009
_cell_length_c   11.11918667
_cell_angle_alpha   99.28822077
_cell_angle_beta   107.44095590
_cell_angle_gamma   89.41952372
_symmetry_Int_Tables_number   1
_chemical_formula_structural   Cu2Ni2C13
_chemical_formula_sum   'Cu6 Ni6 C39'
_cell_volume   540.60692238
_cell_formula_units_Z   3
loop_
 _symmetry_equiv_pos_site_id
 _symmetry_equiv_pos_as_xyz
  1  'x, y, z'
loop_
 _atom_site_type_symbol
 _atom_site_label
 _atom_site_symmetry_multiplicity
 _atom_site_fract_x
 _atom_site_fract_y
 _atom_site_fract_z
 _atom_site_occupancy
  C  C0  1  0.25083700  0.31158600  0.15889100  1
  C  C1  1  0.08349200  0.35343500  0.50709200  1
  C  C2  1  0.74931900  0.68798700  0.83997700  1
  C  C3  1  0.16918700  0.33304100  0.83437200  1
  C  C4  1  0.82903100  0.66441000  0.16641400  1
  C  C5  1  0.50241700  0.00011900  0.50106100  1
  C  C6  1  0.66605200  0.33117300  0.33273400  1
  C  C7  1  0.33100600  0.67274100  0.66588500  1
  C  C8  1  0.99943800  0.99818000  0.99939300  1
  Ni  Ni9  1  0.05497300  0.07312100  0.30025000  1
  Ni  Ni10  1  0.61329300  0.25801500  0.03107900  1
  Ni  Ni11  1  0.27877700  0.59256500  0.36511000  1
  Ni  Ni12  1  0.72143600  0.40623100  0.63568300  1
  Ni  Ni13  1  0.38687300  0.74062800  0.96748000  1
  Ni  Ni14  1  0.94560600  0.92484700  0.69963700  1
  Cu  Cu15  1  0.04269100  0.66922200  0.01858100  1
  Cu  Cu16  1  0.68964700  0.99823900  0.34120100  1
  Cu  Cu17  1  0.37567800  0.33671600  0.68480900  1
  Cu  Cu18  1  0.64261700  0.66697600  0.32576000  1
  Cu  Cu19  1  0.30880300  0.00254000  0.65842200  1
  Cu  Cu20  1  0.95667700  0.32995400  0.98140700  1
  C  C21  1  0.14069700  0.07914700  0.18822500  1
  C  C22  1  0.22779000  0.08877700  0.42949800  1
  C  C23  1  0.10557300  0.57924500  0.23585700  1
  C  C24  1  0.08217800  0.10086500  0.72154800  1
  C  C25  1  0.52136100  0.26995300  0.14248800  1
  C  C26  1  0.73923600  0.09102200  0.02102100  1
  C  C27  1  0.19412300  0.58435100  0.47734300  1
  C  C28  1  0.59735700  0.08471100  0.36981300  1
  C  C29  1  0.40215500  0.42290000  0.34483200  1
  C  C30  1  0.75626000  0.42995700  0.05050200  1
  C  C31  1  0.07278400  0.25551600  0.97213700  1
  C  C32  1  0.56182900  0.74606100  0.09451200  1
  C  C33  1  0.25873200  0.41012900  0.69390400  1
  C  C34  1  0.07475600  0.75989600  0.68581800  1
  C  C35  1  0.41734000  0.76475000  0.38664900  1
  C  C36  1  0.57624200  0.23780600  0.61561600  1
  C  C37  1  0.93049400  0.24227500  0.32042200  1
  C  C38  1  0.73562600  0.58115400  0.29691800  1
  C  C39  1  0.43899100  0.25497900  0.90365400  1
  C  C40  1  0.92662600  0.74359500  0.02721600  1
  C  C41  1  0.24457100  0.56806100  0.94813300  1
  C  C42  1  0.60042400  0.57784300  0.65228100  1
  C  C43  1  0.39960400  0.91535100  0.62907000  1
  C  C44  1  0.81198100  0.39682100  0.52428400  1
  C  C45  1  0.26055900  0.90748000  0.97791000  1
  C  C46  1  0.47819900  0.72588300  0.85557700  1
  C  C47  1  0.91733600  0.90002800  0.27848700  1
  C  C48  1  0.89327400  0.41974600  0.76556500  1
  C  C49  1  0.77077000  0.92010700  0.57302200  1
  C  C50  1  0.85796400  0.92159300  0.81164300  1
