# generated using pymatgen
data_Cu2Ni2C3
_symmetry_space_group_name_H-M   'P 1'
_cell_length_a   8.70024400
_cell_length_b   8.36895100
_cell_length_c   10.92516689
_cell_angle_alpha   73.79244913
_cell_angle_beta   90.00000000
_cell_angle_gamma   90.00000000
_symmetry_Int_Tables_number   1
_chemical_formula_structural   Cu2Ni2C3
_chemical_formula_sum   'Cu16 Ni16 C24'
_cell_volume   763.86740507
_cell_formula_units_Z   8
loop_
 _symmetry_equiv_pos_site_id
 _symmetry_equiv_pos_as_xyz
  1  'x, y, z'
loop_
 _atom_site_type_symbol
 _atom_site_label
 _atom_site_symmetry_multiplicity
 _atom_site_fract_x
 _atom_site_fract_y
 _atom_site_fract_z
 _atom_site_occupancy
  C  C0  1  0.79722100  0.07642800  0.36173400  1
  C  C1  1  0.42581800  0.09967600  0.37835000  1
  C  C2  1  0.18511500  0.23397600  0.16814600  1
  C  C3  1  0.70277900  0.07642800  0.86173400  1
  C  C4  1  0.51899800  0.31041900  0.06704600  1
  C  C5  1  0.07418200  0.09967600  0.87835000  1
  C  C6  1  0.31488500  0.23397600  0.66814600  1
  C  C7  1  0.92275100  0.45587800  0.26790600  1
  C  C8  1  0.98100200  0.31041900  0.56704600  1
  C  C9  1  0.14670200  0.59693000  0.00853100  1
  C  C10  1  0.64670200  0.40307000  0.49146900  1
  C  C11  1  0.42275100  0.54412200  0.23209400  1
  C  C12  1  0.57724900  0.45587800  0.76790600  1
  C  C13  1  0.35329800  0.59693000  0.50853100  1
  C  C14  1  0.85329800  0.40307000  0.99146900  1
  C  C15  1  0.01899800  0.68958100  0.43295400  1
  C  C16  1  0.07724900  0.54412200  0.73209400  1
  C  C17  1  0.68511500  0.76602400  0.33185400  1
  C  C18  1  0.92581800  0.90032400  0.12165000  1
  C  C19  1  0.48100200  0.68958100  0.93295400  1
  C  C20  1  0.29722100  0.92357200  0.13826600  1
  C  C21  1  0.81488500  0.76602400  0.83185400  1
  C  C22  1  0.57418200  0.90032400  0.62165000  1
  C  C23  1  0.20277900  0.92357200  0.63826600  1
  Ni  Ni24  1  0.10579100  0.06518500  0.07526400  1
  Ni  Ni25  1  0.39440000  0.11933600  0.18572800  1
  Ni  Ni26  1  0.39420900  0.06518500  0.57526400  1
  Ni  Ni27  1  0.10560000  0.11933600  0.68572800  1
  Ni  Ni28  1  0.02163100  0.40515600  0.11754000  1
  Ni  Ni29  1  0.36628100  0.49763600  0.06576700  1
  Ni  Ni30  1  0.86628100  0.50236400  0.43423300  1
  Ni  Ni31  1  0.47836900  0.40515600  0.61754000  1
  Ni  Ni32  1  0.52163100  0.59484400  0.38246000  1
  Ni  Ni33  1  0.13371900  0.49763600  0.56576700  1
  Ni  Ni34  1  0.63371900  0.50236400  0.93423300  1
  Ni  Ni35  1  0.97836900  0.59484400  0.88246000  1
  Ni  Ni36  1  0.89440000  0.88066400  0.31427200  1
  Ni  Ni37  1  0.60579100  0.93481500  0.42473600  1
  Ni  Ni38  1  0.60560000  0.88066400  0.81427200  1
  Ni  Ni39  1  0.89420900  0.93481500  0.92473600  1
  Cu  Cu40  1  0.73169400  0.19140700  0.08742000  1
  Cu  Cu41  1  0.98987200  0.21627900  0.36347800  1
  Cu  Cu42  1  0.76830600  0.19140700  0.58742000  1
  Cu  Cu43  1  0.67017900  0.29284300  0.32127600  1
  Cu  Cu44  1  0.51012800  0.21627900  0.86347800  1
  Cu  Cu45  1  0.30385400  0.32718500  0.32253400  1
  Cu  Cu46  1  0.82982100  0.29284300  0.82127600  1
  Cu  Cu47  1  0.80385400  0.67281500  0.17746600  1
  Cu  Cu48  1  0.19614600  0.32718500  0.82253400  1
  Cu  Cu49  1  0.17017900  0.70715700  0.17872400  1
  Cu  Cu50  1  0.69614600  0.67281500  0.67746600  1
  Cu  Cu51  1  0.48987200  0.78372100  0.13652200  1
  Cu  Cu52  1  0.32982100  0.70715700  0.67872400  1
  Cu  Cu53  1  0.23169400  0.80859300  0.41258000  1
  Cu  Cu54  1  0.01012800  0.78372100  0.63652200  1
  Cu  Cu55  1  0.26830600  0.80859300  0.91258000  1
