# generated using pymatgen
data_Cu3(NiC5)2
_symmetry_space_group_name_H-M   'P 1'
_cell_length_a   8.14199500
_cell_length_b   7.19361540
_cell_length_c   7.25732844
_cell_angle_alpha   90.21551252
_cell_angle_beta   93.95527320
_cell_angle_gamma   102.69881581
_symmetry_Int_Tables_number   1
_chemical_formula_structural   Cu3(NiC5)2
_chemical_formula_sum   'Cu6 Ni4 C20'
_cell_volume   413.60115183
_cell_formula_units_Z   2
loop_
 _symmetry_equiv_pos_site_id
 _symmetry_equiv_pos_as_xyz
  1  'x, y, z'
loop_
 _atom_site_type_symbol
 _atom_site_label
 _atom_site_symmetry_multiplicity
 _atom_site_fract_x
 _atom_site_fract_y
 _atom_site_fract_z
 _atom_site_occupancy
  C  C0  1  0.56145600  0.26194200  0.35247900  1
  C  C1  1  0.43854400  0.73805800  0.64752100  1
  Ni  Ni2  1  0.85299700  0.58927800  0.14135400  1
  Ni  Ni3  1  0.14700300  0.41072200  0.85864600  1
  Ni  Ni4  1  0.85159600  0.08950700  0.13303600  1
  Ni  Ni5  1  0.14840400  0.91049300  0.86696400  1
  Cu  Cu6  1  0.79036700  0.59169500  0.65281700  1
  Cu  Cu7  1  0.20963300  0.40830500  0.34718300  1
  Cu  Cu8  1  0.79314800  0.05285800  0.64836400  1
  Cu  Cu9  1  0.20685200  0.94714200  0.35163600  1
  Cu  Cu10  1  0.54054500  0.26133800  0.85828800  1
  Cu  Cu11  1  0.45945500  0.73866200  0.14171200  1
  C  C12  1  0.94129600  0.61117800  0.83962100  1
  C  C13  1  0.05870400  0.38882200  0.16037900  1
  C  C14  1  0.95057600  0.10823100  0.83074400  1
  C  C15  1  0.04942400  0.89176900  0.16925600  1
  C  C16  1  0.58472700  0.47066100  0.71873700  1
  C  C17  1  0.41527300  0.52933900  0.28126300  1
  C  C18  1  0.58941900  0.07984400  0.70976100  1
  C  C19  1  0.41058100  0.92015600  0.29023900  1
  C  C20  1  0.67393600  0.79493400  0.10384000  1
  C  C21  1  0.32606400  0.20506600  0.89616000  1
  C  C22  1  0.67557700  0.29214000  0.06070100  1
  C  C23  1  0.32442300  0.70786000  0.93929900  1
  C  C24  1  0.81422000  0.48647900  0.43759300  1
  C  C25  1  0.18578000  0.51352100  0.56240700  1
  C  C26  1  0.84330100  0.17378300  0.44098000  1
  C  C27  1  0.15669900  0.82621700  0.55902000  1
  C  C28  1  0.73375300  0.80800300  0.58304600  1
  C  C29  1  0.26624700  0.19199700  0.41695400  1
