# generated using pymatgen
data_CuNiC
_symmetry_space_group_name_H-M   'P 1'
_cell_length_a   4.71697200
_cell_length_b   4.73074500
_cell_length_c   9.39317700
_cell_angle_alpha   90.00000000
_cell_angle_beta   90.00000000
_cell_angle_gamma   90.00000000
_symmetry_Int_Tables_number   1
_chemical_formula_structural   CuNiC
_chemical_formula_sum   'Cu6 Ni6 C6'
_cell_volume   209.60678820
_cell_formula_units_Z   6
loop_
 _symmetry_equiv_pos_site_id
 _symmetry_equiv_pos_as_xyz
  1  'x, y, z'
loop_
 _atom_site_type_symbol
 _atom_site_label
 _atom_site_symmetry_multiplicity
 _atom_site_fract_x
 _atom_site_fract_y
 _atom_site_fract_z
 _atom_site_occupancy
  C  C0  1  0.97860100  0.97075400  0.99921800  1
  C  C1  1  0.97860100  0.97075400  0.33411500  1
  C  C2  1  0.04612600  0.02216900  0.66666700  1
  C  C3  1  0.54612600  0.47783100  0.16666700  1
  C  C4  1  0.47860100  0.52924600  0.83411500  1
  C  C5  1  0.47860100  0.52924600  0.49921800  1
  Ni  Ni6  1  0.19337500  0.81812000  0.49834500  1
  Ni  Ni7  1  0.19337500  0.81812000  0.83498900  1
  Ni  Ni8  1  0.31555600  0.32561400  0.66666700  1
  Ni  Ni9  1  0.69337500  0.68188000  0.99834500  1
  Ni  Ni10  1  0.69337500  0.68188000  0.33498900  1
  Ni  Ni11  1  0.81555600  0.17438600  0.16666700  1
  Cu  Cu12  1  0.20047700  0.77106100  0.16666700  1
  Cu  Cu13  1  0.29694500  0.29377500  0.00124400  1
  Cu  Cu14  1  0.29694500  0.29377500  0.33208900  1
  Cu  Cu15  1  0.70047700  0.72893900  0.66666700  1
  Cu  Cu16  1  0.79694500  0.20622500  0.83208900  1
  Cu  Cu17  1  0.79694500  0.20622500  0.50124400  1
