# generated using pymatgen
data_Cu2Ni3C23
_symmetry_space_group_name_H-M   'P 1'
_cell_length_a   6.10550900
_cell_length_b   6.13749184
_cell_length_c   9.82262957
_cell_angle_alpha   90.21872185
_cell_angle_beta   91.07907097
_cell_angle_gamma   119.75735778
_symmetry_Int_Tables_number   1
_chemical_formula_structural   Cu2Ni3C23
_chemical_formula_sum   'Cu2 Ni3 C23'
_cell_volume   319.44853207
_cell_formula_units_Z   1
loop_
 _symmetry_equiv_pos_site_id
 _symmetry_equiv_pos_as_xyz
  1  'x, y, z'
loop_
 _atom_site_type_symbol
 _atom_site_label
 _atom_site_symmetry_multiplicity
 _atom_site_fract_x
 _atom_site_fract_y
 _atom_site_fract_z
 _atom_site_occupancy
  C  C0  1  0.66131800  0.32878800  0.90410200  1
  C  C1  1  0.98308600  0.98968300  0.00165400  1
  C  C2  1  0.96761200  0.98447600  0.48767500  1
  C  C3  1  0.32539400  0.66042400  0.38336100  1
  Ni  Ni4  1  0.34121300  0.17106900  0.21350800  1
  Ni  Ni5  1  0.17891900  0.34142200  0.71329700  1
  Ni  Ni6  1  0.17705000  0.83671600  0.71338500  1
  Cu  Cu7  1  0.68980700  0.34379000  0.47552200  1
  Cu  Cu8  1  0.34670100  0.68161300  0.99812200  1
  C  C9  1  0.83162800  0.16942400  0.21268100  1
  C  C10  1  0.82321300  0.65702800  0.21311000  1
  C  C11  1  0.66401100  0.83387000  0.71510200  1
  C  C12  1  0.85334500  0.17952900  0.60188200  1
  C  C13  1  0.95536000  0.46921700  0.34256600  1
  C  C14  1  0.65114600  0.31269700  0.10100400  1
  C  C15  1  0.00788800  0.01300100  0.30765700  1
  C  C16  1  0.02372300  0.01495800  0.81617100  1
  C  C17  1  0.86001100  0.68245900  0.60070000  1
  C  C18  1  0.51541400  0.03475200  0.33854000  1
  C  C19  1  0.49944600  0.45744700  0.35344600  1
  C  C20  1  0.66971500  0.84063200  0.09627000  1
  C  C21  1  0.32870700  0.16427800  0.60456000  1
  C  C22  1  0.46844400  0.51110500  0.84141900  1
  C  C23  1  0.47029900  0.96347100  0.84031400  1
  C  C24  1  0.31009200  0.65361400  0.59924800  1
  C  C25  1  0.17341200  0.33181900  0.10201700  1
  C  C26  1  0.04159500  0.52291800  0.83401300  1
  C  C27  1  0.18145200  0.84950000  0.09651400  1
