# generated using pymatgen
data_Cu3NiC4
_symmetry_space_group_name_H-M   'P 1'
_cell_length_a   11.55185700
_cell_length_b   3.08972300
_cell_length_c   5.90079345
_cell_angle_alpha   62.97061804
_cell_angle_beta   90.00000000
_cell_angle_gamma   90.00000000
_symmetry_Int_Tables_number   1
_chemical_formula_structural   Cu3NiC4
_chemical_formula_sum   'Cu6 Ni2 C8'
_cell_volume   187.60702567
_cell_formula_units_Z   2
loop_
 _symmetry_equiv_pos_site_id
 _symmetry_equiv_pos_as_xyz
  1  'x, y, z'
loop_
 _atom_site_type_symbol
 _atom_site_label
 _atom_site_symmetry_multiplicity
 _atom_site_fract_x
 _atom_site_fract_y
 _atom_site_fract_z
 _atom_site_occupancy
  Ni  Ni0  1  0.50000000  0.00000000  0.50000000  1
  Ni  Ni1  1  0.00000000  0.00000000  0.00000000  1
  Cu  Cu2  1  0.00000000  0.00000000  0.50000000  1
  Cu  Cu3  1  0.24881300  0.69299600  0.82686900  1
  Cu  Cu4  1  0.75118700  0.30700400  0.17313100  1
  Cu  Cu5  1  0.50000000  0.00000000  0.00000000  1
  Cu  Cu6  1  0.25118700  0.69299600  0.32686900  1
  Cu  Cu7  1  0.74881300  0.30700400  0.67313100  1
  C  C8  1  0.40572900  0.75536700  0.80251900  1
  C  C9  1  0.08921500  0.64494400  0.84182400  1
  C  C10  1  0.91078500  0.35505600  0.15817600  1
  C  C11  1  0.59427100  0.24463300  0.19748100  1
  C  C12  1  0.41078500  0.64494400  0.34182400  1
  C  C13  1  0.09427100  0.75536700  0.30251900  1
  C  C14  1  0.58921500  0.35505600  0.65817600  1
  C  C15  1  0.90572900  0.24463300  0.69748100  1
