# generated using pymatgen
data_CuNiC5
_symmetry_space_group_name_H-M   'P 1'
_cell_length_a   6.69751924
_cell_length_b   7.14746630
_cell_length_c   7.78755903
_cell_angle_alpha   90.00501638
_cell_angle_beta   90.00992037
_cell_angle_gamma   61.11499751
_symmetry_Int_Tables_number   1
_chemical_formula_structural   CuNiC5
_chemical_formula_sum   'Cu4 Ni4 C20'
_cell_volume   326.41395667
_cell_formula_units_Z   4
loop_
 _symmetry_equiv_pos_site_id
 _symmetry_equiv_pos_as_xyz
  1  'x, y, z'
loop_
 _atom_site_type_symbol
 _atom_site_label
 _atom_site_symmetry_multiplicity
 _atom_site_fract_x
 _atom_site_fract_y
 _atom_site_fract_z
 _atom_site_occupancy
  Ni  Ni0  1  0.67042700  0.80896500  0.12092400  1
  Ni  Ni1  1  0.67026000  0.80900100  0.62091900  1
  Ni  Ni2  1  0.32958600  0.19104700  0.37078300  1
  Ni  Ni3  1  0.32985600  0.19092900  0.87075900  1
  Cu  Cu4  1  0.61234300  0.54092100  0.37118700  1
  Cu  Cu5  1  0.61241300  0.54089500  0.87118900  1
  Cu  Cu6  1  0.38762600  0.45905500  0.12098300  1
  Cu  Cu7  1  0.38756300  0.45910200  0.62095700  1
  C  C8  1  0.88550400  0.18989300  0.62100500  1
  C  C9  1  0.11455700  0.80999000  0.87065300  1
  C  C10  1  0.88549200  0.18994400  0.12078600  1
  C  C11  1  0.11440100  0.81015700  0.37072200  1
  C  C12  1  0.92636000  0.13124700  0.37082600  1
  C  C13  1  0.92641000  0.13118800  0.87083300  1
  C  C14  1  0.07367100  0.86877900  0.12082200  1
  C  C15  1  0.07359300  0.86881400  0.62084100  1
  C  C16  1  0.68882000  0.46458400  0.12115400  1
  C  C17  1  0.68890000  0.46440600  0.62117400  1
  C  C18  1  0.31109200  0.53550200  0.37090700  1
  C  C19  1  0.31114500  0.53546900  0.87090300  1
  C  C20  1  0.85387000  0.75848900  0.37089200  1
  C  C21  1  0.85396600  0.75842300  0.87086500  1
  C  C22  1  0.14612100  0.24161100  0.12073100  1
  C  C23  1  0.14603200  0.24159200  0.62080100  1
  C  C24  1  0.40593700  0.84641300  0.37079400  1
  C  C25  1  0.40597000  0.84634500  0.87075500  1
  C  C26  1  0.59408000  0.15360400  0.12036500  1
  C  C27  1  0.59401300  0.15364500  0.62048900  1
