# generated using pymatgen
data_Cu3Ni2C23
_symmetry_space_group_name_H-M   'P 1'
_cell_length_a   5.93577044
_cell_length_b   5.93577044
_cell_length_c   9.60517379
_cell_angle_alpha   89.62241666
_cell_angle_beta   89.62241666
_cell_angle_gamma   59.89226583
_symmetry_Int_Tables_number   1
_chemical_formula_structural   Cu3Ni2C23
_chemical_formula_sum   'Cu3 Ni2 C23'
_cell_volume   292.75545542
_cell_formula_units_Z   1
loop_
 _symmetry_equiv_pos_site_id
 _symmetry_equiv_pos_as_xyz
  1  'x, y, z'
loop_
 _atom_site_type_symbol
 _atom_site_label
 _atom_site_symmetry_multiplicity
 _atom_site_fract_x
 _atom_site_fract_y
 _atom_site_fract_z
 _atom_site_occupancy
  C  C0  1  0.66872100  0.66872100  0.10812900  1
  C  C1  1  0.99615800  0.99615800  0.00512800  1
  C  C2  1  0.99652800  0.99652800  0.50333800  1
  C  C3  1  0.33279500  0.33279500  0.60449000  1
  C  C4  1  0.33663900  0.83238100  0.78648500  1
  C  C5  1  0.83238100  0.33663900  0.78648500  1
  C  C6  1  0.16911300  0.16911300  0.28580100  1
  Ni  Ni7  1  0.66552900  0.66552900  0.51374700  1
  Ni  Ni8  1  0.33630000  0.33630000  0.01745600  1
  Cu  Cu9  1  0.83074300  0.83074300  0.78633300  1
  Cu  Cu10  1  0.16993900  0.66061300  0.28736100  1
  Cu  Cu11  1  0.66061300  0.16993900  0.28736100  1
  C  C12  1  0.33005900  0.84137800  0.39947500  1
  C  C13  1  0.51918700  0.51918700  0.66308800  1
  C  C14  1  0.66276800  0.66276800  0.89586800  1
  C  C15  1  0.00230500  0.00230500  0.68898800  1
  C  C16  1  0.00052600  0.00052600  0.19092800  1
  C  C17  1  0.84137800  0.33005900  0.39947500  1
  C  C18  1  0.51337100  0.95706900  0.65819100  1
  C  C19  1  0.95706900  0.51337100  0.65819100  1
  C  C20  1  0.16504700  0.16504700  0.89446200  1
  C  C21  1  0.83384800  0.83384800  0.40047100  1
  C  C22  1  0.04082800  0.47272900  0.15904000  1
  C  C23  1  0.47272900  0.04082800  0.15904000  1
  C  C24  1  0.33004900  0.33004900  0.39696400  1
  C  C25  1  0.17319900  0.67223700  0.89846500  1
  C  C26  1  0.48079100  0.48079100  0.15875500  1
  C  C27  1  0.67223700  0.17319900  0.89846500  1
