# generated using pymatgen
data_Cu3NiC36
_symmetry_space_group_name_H-M   'P 1'
_cell_length_a   8.45435400
_cell_length_b   8.52839729
_cell_length_c   8.52825122
_cell_angle_alpha   61.98398972
_cell_angle_beta   62.23229982
_cell_angle_gamma   62.13924387
_symmetry_Int_Tables_number   1
_chemical_formula_structural   Cu3NiC36
_chemical_formula_sum   'Cu3 Ni1 C36'
_cell_volume   455.38500747
_cell_formula_units_Z   1
loop_
 _symmetry_equiv_pos_site_id
 _symmetry_equiv_pos_as_xyz
  1  'x, y, z'
loop_
 _atom_site_type_symbol
 _atom_site_label
 _atom_site_symmetry_multiplicity
 _atom_site_fract_x
 _atom_site_fract_y
 _atom_site_fract_z
 _atom_site_occupancy
  C  C0  1  0.97510600  0.00219700  0.99114100  1
  C  C1  1  0.25109700  0.65361900  0.84714100  1
  C  C2  1  0.52499700  0.50674900  0.49423000  1
  C  C3  1  0.72895200  0.35100800  0.16028100  1
  C  C4  1  0.34742200  0.16393100  0.72658600  1
  C  C5  1  0.16446700  0.72786200  0.34886800  1
  Ni  Ni6  1  0.14261700  0.14446400  0.14435800  1
  Cu  Cu7  1  0.85451600  0.86275200  0.85311700  1
  Cu  Cu8  1  0.64617000  0.64661400  0.63853900  1
  Cu  Cu9  1  0.35168400  0.35011300  0.34926000  1
  C  C10  1  0.95132100  0.54902300  0.24741000  1
  C  C11  1  0.54800500  0.25013000  0.95141500  1
  C  C12  1  0.24897500  0.95444000  0.54624700  1
  C  C13  1  0.75000900  0.04340600  0.45878900  1
  C  C14  1  0.45688800  0.74986100  0.04025300  1
  C  C15  1  0.04522700  0.46227300  0.75062900  1
  C  C16  1  0.87118000  0.50192400  0.70768300  1
  C  C17  1  0.69505900  0.88156100  0.49073100  1
  C  C18  1  0.95156400  0.73322200  0.07938600  1
  C  C19  1  0.46768400  0.70372100  0.88097300  1
  C  C20  1  0.76334800  0.56680000  0.40753200  1
  C  C21  1  0.98543500  0.38548600  0.19197300  1
  C  C22  1  0.73891300  0.09413000  0.93021500  1
  C  C23  1  0.54460600  0.42209300  0.77043700  1
  C  C24  1  0.40671300  0.76106500  0.56654000  1
  C  C25  1  0.81511800  0.00473800  0.61646100  1
  C  C26  1  0.90361200  0.07414000  0.26136000  1
  C  C27  1  0.62541800  0.80343200  0.99399600  1
  C  C28  1  0.38441400  0.19016600  0.99033300  1
  C  C29  1  0.09479400  0.93182400  0.74074000  1
  C  C30  1  0.18882200  0.99010100  0.38595200  1
  C  C31  1  0.58469100  0.23346900  0.44724200  1
  C  C32  1  0.44972100  0.58293600  0.22921400  1
  C  C33  1  0.26143700  0.90535600  0.07856100  1
  C  C34  1  0.02838400  0.61763700  0.80598700  1
  C  C35  1  0.23163000  0.44480200  0.58186900  1
  C  C36  1  0.52173800  0.30532900  0.11537000  1
  C  C37  1  0.07285000  0.26458800  0.90497200  1
  C  C38  1  0.30921500  0.11437500  0.51845700  1
  C  C39  1  0.11619900  0.51766300  0.30675300  1
