# generated using pymatgen
data_Cu2(NiC4)3
_symmetry_space_group_name_H-M   'P 1'
_cell_length_a   9.31874156
_cell_length_b   10.09916236
_cell_length_c   13.57781788
_cell_angle_alpha   109.55155742
_cell_angle_beta   111.18987667
_cell_angle_gamma   94.20303472
_symmetry_Int_Tables_number   1
_chemical_formula_structural   Cu2(NiC4)3
_chemical_formula_sum   'Cu4 Ni6 C24'
_cell_volume   1094.95078910
_cell_formula_units_Z   2
loop_
 _symmetry_equiv_pos_site_id
 _symmetry_equiv_pos_as_xyz
  1  'x, y, z'
loop_
 _atom_site_type_symbol
 _atom_site_label
 _atom_site_symmetry_multiplicity
 _atom_site_fract_x
 _atom_site_fract_y
 _atom_site_fract_z
 _atom_site_occupancy
  Ni  Ni0  1  0.22079100  0.76974000  0.63259800  1
  Ni  Ni1  1  0.20175800  0.30692300  0.20721200  1
  Ni  Ni2  1  0.58818900  0.21285500  0.97053600  1
  Ni  Ni3  1  0.41181100  0.78714500  0.02946400  1
  Ni  Ni4  1  0.79824200  0.69307700  0.79278800  1
  Ni  Ni5  1  0.77920900  0.23026000  0.36740200  1
  Cu  Cu6  1  0.00565000  0.22891200  0.79609600  1
  Cu  Cu7  1  0.36665700  0.27952900  0.57655300  1
  Cu  Cu8  1  0.63334300  0.72047100  0.42344700  1
  Cu  Cu9  1  0.99435000  0.77108800  0.20390400  1
  C  C10  1  0.13272300  0.67253800  0.79743300  1
  C  C11  1  0.21947000  0.45541500  0.98640800  1
  C  C12  1  0.07556300  0.23606700  0.61070700  1
  C  C13  1  0.22511500  0.06277000  0.83824900  1
  C  C14  1  0.16275500  0.42963700  0.46520100  1
  C  C15  1  0.08658600  0.85100700  0.05299900  1
  C  C16  1  0.24313600  0.64779000  0.29846900  1
  C  C17  1  0.16483200  0.04835500  0.36591900  1
  C  C18  1  0.54471200  0.88163800  0.86974000  1
  C  C19  1  0.46941800  0.52119400  0.76991000  1
  C  C20  1  0.44475400  0.08664400  0.68163600  1
  C  C21  1  0.51512600  0.70073900  0.58164800  1
  C  C22  1  0.48487400  0.29926100  0.41835200  1
  C  C23  1  0.55524600  0.91335600  0.31836400  1
  C  C24  1  0.53058200  0.47880600  0.23009000  1
  C  C25  1  0.45528800  0.11836200  0.13026000  1
  C  C26  1  0.83516800  0.95164500  0.63408100  1
  C  C27  1  0.75686400  0.35221000  0.70153100  1
  C  C28  1  0.91341400  0.14899300  0.94700100  1
  C  C29  1  0.83724500  0.57036300  0.53479900  1
  C  C30  1  0.77488500  0.93723000  0.16175100  1
  C  C31  1  0.92443700  0.76393300  0.38929300  1
  C  C32  1  0.78053000  0.54458500  0.01359200  1
  C  C33  1  0.86727700  0.32746200  0.20256700  1
