# generated using pymatgen
data_Cu5Ni2C21
_symmetry_space_group_name_H-M   'P 1'
_cell_length_a   9.78810500
_cell_length_b   11.03884419
_cell_length_c   6.57894144
_cell_angle_alpha   92.90229726
_cell_angle_beta   91.13824968
_cell_angle_gamma   95.77220551
_symmetry_Int_Tables_number   1
_chemical_formula_structural   Cu5Ni2C21
_chemical_formula_sum   'Cu10 Ni4 C42'
_cell_volume   706.11617043
_cell_formula_units_Z   2
loop_
 _symmetry_equiv_pos_site_id
 _symmetry_equiv_pos_as_xyz
  1  'x, y, z'
loop_
 _atom_site_type_symbol
 _atom_site_label
 _atom_site_symmetry_multiplicity
 _atom_site_fract_x
 _atom_site_fract_y
 _atom_site_fract_z
 _atom_site_occupancy
  C  C0  1  0.69005900  0.09727100  0.18322700  1
  C  C1  1  0.83711000  0.34849400  0.36006400  1
  C  C2  1  0.16643700  0.64966300  0.63430800  1
  C  C3  1  0.33601000  0.88482200  0.82081500  1
  C  C4  1  0.64240900  0.19131300  0.88214400  1
  C  C5  1  0.12323900  0.97990200  0.98101500  1
  Ni  Ni6  1  0.04411500  0.67388100  0.23043400  1
  Ni  Ni7  1  0.39029100  0.23173900  0.34860800  1
  Ni  Ni8  1  0.61129800  0.76931900  0.65251200  1
  Ni  Ni9  1  0.95644100  0.31562500  0.76381300  1
  Cu  Cu10  1  0.79584600  0.47992600  0.04582100  1
  Cu  Cu11  1  0.38709100  0.22502300  0.01587000  1
  Cu  Cu12  1  0.09535300  0.17177000  0.28057700  1
  Cu  Cu13  1  0.81571300  0.84581700  0.43186600  1
  Cu  Cu14  1  0.36300000  0.72509500  0.42511200  1
  Cu  Cu15  1  0.64098800  0.27869800  0.57276400  1
  Cu  Cu16  1  0.18964400  0.14989100  0.57164900  1
  Cu  Cu17  1  0.90999300  0.82154200  0.72323300  1
  Cu  Cu18  1  0.59871100  0.78390400  0.98470800  1
  Cu  Cu19  1  0.19929900  0.52622000  0.94886500  1
  C  C20  1  0.68496400  0.97092900  0.00548900  1
  C  C21  1  0.90011900  0.64721800  0.08132600  1
  C  C22  1  0.31156100  0.42860400  0.03144700  1
  C  C23  1  0.50108100  0.75260500  0.07580400  1
  C  C24  1  0.14864400  0.67593200  0.05042000  1
  C  C25  1  0.75876000  0.36705900  0.16816800  1
  C  C26  1  0.45568900  0.21875200  0.16912700  1
  C  C27  1  0.05467600  0.00386100  0.17330200  1
  C  C28  1  0.22241300  0.26917500  0.25505800  1
  C  C29  1  0.80396700  0.02383400  0.33991600  1
  C  C30  1  0.88329000  0.66798000  0.38121700  1
  C  C31  1  0.00629100  0.33972400  0.28386700  1
  C  C32  1  0.36980500  0.91723400  0.33226400  1
  C  C33  1  0.42349500  0.54214300  0.35678900  1
  C  C34  1  0.55898400  0.21097900  0.43662900  1
  C  C35  1  0.68690200  0.76817800  0.47525800  1
  C  C36  1  0.11295500  0.06311600  0.42580900  1
  C  C37  1  0.23519500  0.66708200  0.45526700  1
  C  C38  1  0.76869300  0.33251400  0.54156300  1
  C  C39  1  0.89288400  0.93047800  0.57730800  1
  C  C40  1  0.31689000  0.23431300  0.52849100  1
  C  C41  1  0.44399400  0.79002900  0.56467400  1
  C  C42  1  0.58415800  0.45913300  0.64792600  1
  C  C43  1  0.98843100  0.63911100  0.71166100  1
  C  C44  1  0.63363000  0.09250500  0.67387600  1
  C  C45  1  0.11810800  0.32528800  0.62027400  1
  C  C46  1  0.20359100  0.97253400  0.66390000  1
  C  C47  1  0.77906200  0.75056800  0.75441300  1
  C  C48  1  0.97039500  0.98091600  0.82655500  1
  C  C49  1  0.53464700  0.78151500  0.82588500  1
  C  C50  1  0.23980600  0.62934000  0.82469600  1
  C  C51  1  0.82714100  0.34155500  0.92501300  1
  C  C52  1  0.48320400  0.25410100  0.92024800  1
  C  C53  1  0.68062500  0.58755100  0.97570400  1
  C  C54  1  0.09973500  0.34585700  0.91579600  1
  C  C55  1  0.29453000  0.05055700  0.97983000  1
