# generated using pymatgen
data_Cu9Ni3C
_symmetry_space_group_name_H-M   'P 1'
_cell_length_a   8.47257400
_cell_length_b   9.59828900
_cell_length_c   10.11249553
_cell_angle_alpha   81.22562473
_cell_angle_beta   90.00000000
_cell_angle_gamma   90.00000000
_symmetry_Int_Tables_number   1
_chemical_formula_structural   Cu9Ni3C
_chemical_formula_sum   'Cu36 Ni12 C4'
_cell_volume   812.74607802
_cell_formula_units_Z   4
loop_
 _symmetry_equiv_pos_site_id
 _symmetry_equiv_pos_as_xyz
  1  'x, y, z'
loop_
 _atom_site_type_symbol
 _atom_site_label
 _atom_site_symmetry_multiplicity
 _atom_site_fract_x
 _atom_site_fract_y
 _atom_site_fract_z
 _atom_site_occupancy
  C  C0  1  0.09268700  0.81551800  0.91288800  1
  C  C1  1  0.59268700  0.18448200  0.58711200  1
  C  C2  1  0.90731300  0.18448200  0.08711200  1
  C  C3  1  0.40731300  0.81551800  0.41288800  1
  Ni  Ni4  1  0.97491000  0.51413000  0.07116300  1
  Ni  Ni5  1  0.47491000  0.48587000  0.42883700  1
  Ni  Ni6  1  0.02509000  0.48587000  0.92883700  1
  Ni  Ni7  1  0.52509000  0.51413000  0.57116300  1
  Ni  Ni8  1  0.38047100  0.91943500  0.72610500  1
  Ni  Ni9  1  0.88047100  0.08056500  0.77389500  1
  Ni  Ni10  1  0.61952900  0.08056500  0.27389500  1
  Ni  Ni11  1  0.11952900  0.91943500  0.22610600  1
  Ni  Ni12  1  0.38249500  0.02774800  0.82573100  1
  Ni  Ni13  1  0.88249500  0.97225200  0.67426900  1
  Ni  Ni14  1  0.61750500  0.97225200  0.17426900  1
  Ni  Ni15  1  0.11750500  0.02774800  0.32573100  1
  Cu  Cu16  1  0.98418000  0.63891400  0.09516900  1
  Cu  Cu17  1  0.48418000  0.36108600  0.40483100  1
  Cu  Cu18  1  0.01582000  0.36108600  0.90483100  1
  Cu  Cu19  1  0.51582000  0.63891400  0.59516900  1
  Cu  Cu20  1  0.92713800  0.40933400  0.15396500  1
  Cu  Cu21  1  0.42713800  0.59066600  0.34603500  1
  Cu  Cu22  1  0.07286200  0.59066600  0.84603500  1
  Cu  Cu23  1  0.57286200  0.40933400  0.65396500  1
  Cu  Cu24  1  0.28867700  0.81486900  0.74713100  1
  Cu  Cu25  1  0.78867700  0.18513100  0.75286900  1
  Cu  Cu26  1  0.71132300  0.18513100  0.25286900  1
  Cu  Cu27  1  0.21132300  0.81486900  0.24713100  1
  Cu  Cu28  1  0.46991600  0.94606300  0.62437900  1
  Cu  Cu29  1  0.96991600  0.05393700  0.87562100  1
  Cu  Cu30  1  0.53008400  0.05393700  0.37562100  1
  Cu  Cu31  1  0.03008400  0.94606300  0.12437900  1
  Cu  Cu32  1  0.45850400  0.14233000  0.79035700  1
  Cu  Cu33  1  0.95850400  0.85767000  0.70964300  1
  Cu  Cu34  1  0.54149600  0.85767000  0.20964300  1
  Cu  Cu35  1  0.04149600  0.14233000  0.29035700  1
  Cu  Cu36  1  0.30560600  0.99724800  0.93209000  1
  Cu  Cu37  1  0.80560600  0.00275200  0.56791000  1
  Cu  Cu38  1  0.69439400  0.00275200  0.06791000  1
  Cu  Cu39  1  0.19439400  0.99724800  0.43209000  1
  Cu  Cu40  1  0.65254900  0.77442800  0.91204200  1
  Cu  Cu41  1  0.15254900  0.22557200  0.58795800  1
  Cu  Cu42  1  0.34745100  0.22557200  0.08795800  1
  Cu  Cu43  1  0.84745100  0.77442800  0.41204200  1
  Cu  Cu44  1  0.45103300  0.65206200  0.00550300  1
  Cu  Cu45  1  0.95103300  0.34793800  0.49449700  1
  Cu  Cu46  1  0.54896700  0.34793800  0.99449700  1
  Cu  Cu47  1  0.04896700  0.65206200  0.50550300  1
  Cu  Cu48  1  0.09941800  0.34073500  0.51987100  1
  Cu  Cu49  1  0.59941800  0.65926500  0.98012900  1
  Cu  Cu50  1  0.90058200  0.65926500  0.48012900  1
  Cu  Cu51  1  0.40058200  0.34073500  0.01987100  1
