# generated using pymatgen
data_CuNi12C11
_symmetry_space_group_name_H-M   'P 1'
_cell_length_a   12.37209200
_cell_length_b   12.42967700
_cell_length_c   12.53830700
_cell_angle_alpha   90.00000000
_cell_angle_beta   90.00000000
_cell_angle_gamma   90.00000000
_symmetry_Int_Tables_number   1
_chemical_formula_structural   CuNi12C11
_chemical_formula_sum   'Cu8 Ni96 C88'
_cell_volume   1928.15473506
_cell_formula_units_Z   8
loop_
 _symmetry_equiv_pos_site_id
 _symmetry_equiv_pos_as_xyz
  1  'x, y, z'
loop_
 _atom_site_type_symbol
 _atom_site_label
 _atom_site_symmetry_multiplicity
 _atom_site_fract_x
 _atom_site_fract_y
 _atom_site_fract_z
 _atom_site_occupancy
  C  C0  1  0.00000000  0.00000000  0.50000000  1
  C  C1  1  0.00000000  0.50000000  0.00000000  1
  C  C2  1  0.50000000  0.00000000  0.00000000  1
  C  C3  1  0.50000000  0.50000000  0.50000000  1
  C  C4  1  0.50000000  0.50000000  0.00000000  1
  C  C5  1  0.50000000  0.00000000  0.50000000  1
  C  C6  1  0.00000000  0.50000000  0.50000000  1
  C  C7  1  0.00000000  0.00000000  0.00000000  1
  Ni  Ni8  1  0.22934100  0.51489600  0.22738100  1
  Ni  Ni9  1  0.77065900  0.01489600  0.27261900  1
  Ni  Ni10  1  0.27065900  0.48510400  0.72738100  1
  Ni  Ni11  1  0.72934100  0.98510400  0.77261900  1
  Ni  Ni12  1  0.77065900  0.48510400  0.77261900  1
  Ni  Ni13  1  0.22934100  0.98510400  0.72738100  1
  Ni  Ni14  1  0.72934100  0.51489600  0.27261900  1
  Ni  Ni15  1  0.27065900  0.01489600  0.22738100  1
  Ni  Ni16  1  0.19169500  0.63340100  0.21468700  1
  Ni  Ni17  1  0.80830500  0.13340100  0.28531300  1
  Ni  Ni18  1  0.30830500  0.36659900  0.71468700  1
  Ni  Ni19  1  0.69169500  0.86659900  0.78531300  1
  Ni  Ni20  1  0.80830500  0.36659900  0.78531300  1
  Ni  Ni21  1  0.19169500  0.86659900  0.71468700  1
  Ni  Ni22  1  0.69169500  0.63340100  0.28531300  1
  Ni  Ni23  1  0.30830500  0.13340100  0.21468700  1
  Ni  Ni24  1  0.26908100  0.78507700  0.01176200  1
  Ni  Ni25  1  0.73091900  0.28507700  0.48823800  1
  Ni  Ni26  1  0.23091900  0.21492300  0.51176200  1
  Ni  Ni27  1  0.76908100  0.71492300  0.98823800  1
  Ni  Ni28  1  0.73091900  0.21492300  0.98823800  1
  Ni  Ni29  1  0.26908100  0.71492300  0.51176200  1
  Ni  Ni30  1  0.76908100  0.78507700  0.48823800  1
  Ni  Ni31  1  0.23091900  0.28507700  0.01176200  1
  Ni  Ni32  1  0.27928900  0.82592800  0.12946800  1
  Ni  Ni33  1  0.72071100  0.32592800  0.37053200  1
  Ni  Ni34  1  0.22071100  0.17407200  0.62946800  1
  Ni  Ni35  1  0.77928900  0.67407200  0.87053200  1
  Ni  Ni36  1  0.72071100  0.17407200  0.87053200  1
  Ni  Ni37  1  0.27928900  0.67407200  0.62946800  1
  Ni  Ni38  1  0.77928900  0.82592800  0.37053200  1
  Ni  Ni39  1  0.22071100  0.32592800  0.12946800  1
  Ni  Ni40  1  0.49948800  0.73232200  0.27978500  1
  Ni  Ni41  1  0.50051200  0.23232200  0.22021500  1
  Ni  Ni42  1  0.00051200  0.26767800  0.77978500  1
  Ni  Ni43  1  0.99948800  0.76767800  0.72021500  1
  Ni  Ni44  1  0.50051200  0.26767800  0.72021500  1
  Ni  Ni45  1  0.49948800  0.76767800  0.77978500  1
  Ni  Ni46  1  0.99948800  0.73232200  0.22021500  1
  Ni  Ni47  1  0.00051200  0.23232200  0.27978500  1
  Ni  Ni48  1  0.37986000  0.72921500  0.31893000  1
  Ni  Ni49  1  0.62014000  0.22921500  0.18107000  1
  Ni  Ni50  1  0.12014000  0.27078500  0.81893000  1
  Ni  Ni51  1  0.87986000  0.77078500  0.68107000  1
  Ni  Ni52  1  0.62014000  0.27078500  0.68107000  1
  Ni  Ni53  1  0.37986000  0.77078500  0.81893000  1
  Ni  Ni54  1  0.87986000  0.72921500  0.18107000  1
  Ni  Ni55  1  0.12014000  0.22921500  0.31893000  1
  Ni  Ni56  1  0.48355900  0.70423200  0.93326200  1
  Ni  Ni57  1  0.51644100  0.20423200  0.56673800  1
  Ni  Ni58  1  0.01644100  0.29576800  0.43326200  1
  Ni  Ni59  1  0.98355900  0.79576800  0.06673800  1
  Ni  Ni60  1  0.51644100  0.29576800  0.06673800  1
  Ni  Ni61  1  0.48355900  0.79576800  0.43326200  1
  Ni  Ni62  1  0.98355900  0.70423200  0.56673800  1
  Ni  Ni63  1  0.01644100  0.20423200  0.93326200  1
  Ni  Ni64  1  0.53002000  0.69968000  0.06026900  1
  Ni  Ni65  1  0.46998000  0.19968000  0.43973100  1
  Ni  Ni66  1  0.96998000  0.30032000  0.56026900  1
  Ni  Ni67  1  0.03002000  0.80032000  0.93973100  1
  Ni  Ni68  1  0.46998000  0.30032000  0.93973100  1
  Ni  Ni69  1  0.53002000  0.80032000  0.56026900  1
  Ni  Ni70  1  0.03002000  0.69968000  0.43973100  1
  Ni  Ni71  1  0.96998000  0.19968000  0.06026900  1
  Ni  Ni72  1  0.56782000  0.52417900  0.21766800  1
  Ni  Ni73  1  0.43218000  0.02417900  0.28233200  1
  Ni  Ni74  1  0.93218000  0.47582100  0.71766800  1
  Ni  Ni75  1  0.06782000  0.97582100  0.78233200  1
  Ni  Ni76  1  0.43218000  0.47582100  0.78233200  1
  Ni  Ni77  1  0.56782000  0.97582100  0.71766800  1
  Ni  Ni78  1  0.06782000  0.52417900  0.28233200  1
  Ni  Ni79  1  0.93218000  0.02417900  0.21766800  1
  Ni  Ni80  1  0.44475400  0.47848800  0.21604700  1
  Ni  Ni81  1  0.55524600  0.97848800  0.28395300  1
  Ni  Ni82  1  0.05524600  0.52151200  0.71604700  1
  Ni  Ni83  1  0.94475400  0.02151200  0.78395300  1
  Ni  Ni84  1  0.55524600  0.52151200  0.78395300  1
  Ni  Ni85  1  0.44475400  0.02151200  0.71604700  1
  Ni  Ni86  1  0.94475400  0.47848800  0.28395300  1
  Ni  Ni87  1  0.05524600  0.97848800  0.21604700  1
  Ni  Ni88  1  0.29379900  0.43978300  0.02587300  1
  Ni  Ni89  1  0.70620100  0.93978300  0.47412700  1
  Ni  Ni90  1  0.20620100  0.56021700  0.52587300  1
  Ni  Ni91  1  0.79379900  0.06021700  0.97412700  1
  Ni  Ni92  1  0.70620100  0.56021700  0.97412700  1
  Ni  Ni93  1  0.29379900  0.06021700  0.52587300  1
  Ni  Ni94  1  0.79379900  0.43978300  0.47412700  1
  Ni  Ni95  1  0.20620100  0.93978300  0.02587300  1
  Ni  Ni96  1  0.30041100  0.56736700  0.98073600  1
  Ni  Ni97  1  0.69958900  0.06736700  0.51926400  1
  Ni  Ni98  1  0.19958900  0.43263300  0.48073600  1
  Ni  Ni99  1  0.80041100  0.93263300  0.01926400  1
  Ni  Ni100  1  0.69958900  0.43263300  0.01926400  1
  Ni  Ni101  1  0.30041100  0.93263300  0.48073600  1
  Ni  Ni102  1  0.80041100  0.56736700  0.51926400  1
  Ni  Ni103  1  0.19958900  0.06736700  0.98073600  1
  Cu  Cu104  1  0.17766500  0.82759800  0.33332400  1
  Cu  Cu105  1  0.82233500  0.32759800  0.16667600  1
  Cu  Cu106  1  0.32233500  0.17240200  0.83332400  1
  Cu  Cu107  1  0.67766500  0.67240200  0.66667600  1
  Cu  Cu108  1  0.82233500  0.17240200  0.66667600  1
  Cu  Cu109  1  0.17766500  0.67240200  0.83332400  1
  Cu  Cu110  1  0.67766500  0.82759800  0.16667600  1
  Cu  Cu111  1  0.32233500  0.32759800  0.33332400  1
  C  C112  1  0.24992600  0.76547100  0.25930100  1
  C  C113  1  0.75007400  0.26547100  0.24069900  1
  C  C114  1  0.25007400  0.23452900  0.75930100  1
  C  C115  1  0.74992600  0.73452900  0.74069900  1
  C  C116  1  0.75007400  0.23452900  0.74069900  1
  C  C117  1  0.24992600  0.73452900  0.75930100  1
  C  C118  1  0.74992600  0.76547100  0.24069900  1
  C  C119  1  0.25007400  0.26547100  0.25930100  1
  C  C120  1  0.06969200  0.77387900  0.33952600  1
  C  C121  1  0.93030800  0.27387900  0.16047400  1
  C  C122  1  0.43030800  0.22612100  0.83952600  1
  C  C123  1  0.56969200  0.72612100  0.66047400  1
  C  C124  1  0.93030800  0.22612100  0.66047400  1
  C  C125  1  0.06969200  0.72612100  0.83952600  1
  C  C126  1  0.56969200  0.77387900  0.16047400  1
  C  C127  1  0.43030800  0.27387900  0.33952600  1
  C  C128  1  0.16392500  0.93974300  0.29366000  1
  C  C129  1  0.83607500  0.43974300  0.20634000  1
  C  C130  1  0.33607500  0.06025700  0.79366000  1
  C  C131  1  0.66392500  0.56025700  0.70634000  1
  C  C132  1  0.83607500  0.06025700  0.70634000  1
  C  C133  1  0.16392500  0.56025700  0.79366000  1
  C  C134  1  0.66392500  0.93974300  0.20634000  1
  C  C135  1  0.33607500  0.43974300  0.29366000  1
  C  C136  1  0.22686000  0.83040000  0.44224300  1
  C  C137  1  0.77314000  0.33040000  0.05775700  1
  C  C138  1  0.27314000  0.16960000  0.94224300  1
  C  C139  1  0.72686000  0.66960000  0.55775700  1
  C  C140  1  0.77314000  0.16960000  0.55775700  1
  C  C141  1  0.22686000  0.66960000  0.94224300  1
  C  C142  1  0.72686000  0.83040000  0.05775700  1
  C  C143  1  0.27314000  0.33040000  0.44224300  1
  C  C144  1  0.16867300  0.55886000  0.20030800  1
  C  C145  1  0.83132700  0.05886000  0.29969200  1
  C  C146  1  0.33132700  0.44114000  0.70030800  1
  C  C147  1  0.66867300  0.94114000  0.79969200  1
  C  C148  1  0.83132700  0.44114000  0.79969200  1
  C  C149  1  0.16867300  0.94114000  0.70030800  1
  C  C150  1  0.66867300  0.55886000  0.29969200  1
  C  C151  1  0.33132700  0.05886000  0.20030800  1
  C  C152  1  0.28787200  0.84968400  0.05471200  1
  C  C153  1  0.71212800  0.34968400  0.44528800  1
  C  C154  1  0.21212800  0.15031600  0.55471200  1
  C  C155  1  0.78787200  0.65031600  0.94528800  1
  C  C156  1  0.71212800  0.15031600  0.94528800  1
  C  C157  1  0.28787200  0.65031600  0.55471200  1
  C  C158  1  0.78787200  0.84968400  0.44528800  1
  C  C159  1  0.21212800  0.34968400  0.05471200  1
  C  C160  1  0.45477800  0.71608900  0.34344100  1
  C  C161  1  0.54522200  0.21608900  0.15655900  1
  C  C162  1  0.04522200  0.28391100  0.84344100  1
  C  C163  1  0.95477800  0.78391100  0.65655900  1
  C  C164  1  0.54522200  0.28391100  0.65655900  1
  C  C165  1  0.45477800  0.78391100  0.84344100  1
  C  C166  1  0.95477800  0.71608900  0.15655900  1
  C  C167  1  0.04522200  0.21608900  0.34344100  1
  C  C168  1  0.50450600  0.65681700  0.99732700  1
  C  C169  1  0.49549400  0.15681700  0.50267300  1
  C  C170  1  0.99549400  0.34318300  0.49732700  1
  C  C171  1  0.00450600  0.84318300  0.00267300  1
  C  C172  1  0.49549400  0.34318300  0.00267300  1
  C  C173  1  0.50450600  0.84318300  0.49732700  1
  C  C174  1  0.00450600  0.65681700  0.50267300  1
  C  C175  1  0.99549400  0.15681700  0.99732700  1
  C  C176  1  0.50699400  0.49880700  0.17095100  1
  C  C177  1  0.49300600  0.99880700  0.32904900  1
  C  C178  1  0.99300600  0.50119300  0.67095100  1
  C  C179  1  0.00699400  0.00119300  0.82904900  1
  C  C180  1  0.49300600  0.50119300  0.82904900  1
  C  C181  1  0.50699400  0.00119300  0.67095100  1
  C  C182  1  0.00699400  0.49880700  0.32904900  1
  C  C183  1  0.99300600  0.99880700  0.17095100  1
  C  C184  1  0.34275600  0.50262200  0.00378500  1
  C  C185  1  0.65724400  0.00262200  0.49621500  1
  C  C186  1  0.15724400  0.49737800  0.50378500  1
  C  C187  1  0.84275600  0.99737800  0.99621500  1
  C  C188  1  0.65724400  0.49737800  0.99621500  1
  C  C189  1  0.34275600  0.99737800  0.50378500  1
  C  C190  1  0.84275600  0.50262200  0.49621500  1
  C  C191  1  0.15724400  0.00262200  0.00378500  1
