# generated using pymatgen
data_Cu8Ni2C3
_symmetry_space_group_name_H-M   'P 1'
_cell_length_a   9.40920700
_cell_length_b   9.50235000
_cell_length_c   14.03736200
_cell_angle_alpha   90.00000000
_cell_angle_beta   90.00000000
_cell_angle_gamma   90.00000000
_symmetry_Int_Tables_number   1
_chemical_formula_structural   Cu8Ni2C3
_chemical_formula_sum   'Cu64 Ni16 C24'
_cell_volume   1255.07461457
_cell_formula_units_Z   8
loop_
 _symmetry_equiv_pos_site_id
 _symmetry_equiv_pos_as_xyz
  1  'x, y, z'
loop_
 _atom_site_type_symbol
 _atom_site_label
 _atom_site_symmetry_multiplicity
 _atom_site_fract_x
 _atom_site_fract_y
 _atom_site_fract_z
 _atom_site_occupancy
  C  C0  1  0.77971600  0.96668900  0.37412600  1
  C  C1  1  0.72028400  0.96668900  0.87412600  1
  C  C2  1  0.04598100  0.77617600  0.37257600  1
  C  C3  1  0.45401900  0.77617600  0.87257600  1
  C  C4  1  0.95401900  0.72382400  0.87257600  1
  C  C5  1  0.54598100  0.72382400  0.37257600  1
  C  C6  1  0.27971600  0.53331100  0.37412600  1
  C  C7  1  0.22028400  0.53331100  0.87412600  1
  C  C8  1  0.77971600  0.46668900  0.12587400  1
  C  C9  1  0.72028400  0.46668900  0.62587400  1
  C  C10  1  0.45401900  0.27617600  0.62742400  1
  C  C11  1  0.04598100  0.27617600  0.12742400  1
  C  C12  1  0.54598100  0.22382400  0.12742400  1
  C  C13  1  0.95401900  0.22382400  0.62742400  1
  C  C14  1  0.22028400  0.03331100  0.62587400  1
  C  C15  1  0.27971600  0.03331100  0.12587400  1
  C  C16  1  0.89761900  0.86034700  0.12361400  1
  C  C17  1  0.60238100  0.86034700  0.62361400  1
  C  C18  1  0.39761900  0.63965300  0.12361400  1
  C  C19  1  0.10238100  0.63965300  0.62361400  1
  C  C20  1  0.89761900  0.36034700  0.37638600  1
  C  C21  1  0.60238100  0.36034700  0.87638600  1
  C  C22  1  0.39761900  0.13965300  0.37638600  1
  C  C23  1  0.10238100  0.13965300  0.87638600  1
  Ni  Ni24  1  0.92981600  0.92585400  0.72871200  1
  Ni  Ni25  1  0.57018400  0.92585400  0.22871200  1
  Ni  Ni26  1  0.31218000  0.83893700  0.49042500  1
  Ni  Ni27  1  0.18782000  0.83893700  0.99042500  1
  Ni  Ni28  1  0.81218000  0.66106300  0.49042500  1
  Ni  Ni29  1  0.68782000  0.66106300  0.99042500  1
  Ni  Ni30  1  0.07018400  0.57414600  0.22871200  1
  Ni  Ni31  1  0.42981600  0.57414600  0.72871200  1
  Ni  Ni32  1  0.57018400  0.42585400  0.27128800  1
  Ni  Ni33  1  0.92981600  0.42585400  0.77128800  1
  Ni  Ni34  1  0.31218000  0.33893700  0.00957500  1
  Ni  Ni35  1  0.18782000  0.33893700  0.50957500  1
  Ni  Ni36  1  0.81218000  0.16106300  0.00957500  1
  Ni  Ni37  1  0.68782000  0.16106300  0.50957500  1
  Ni  Ni38  1  0.42981600  0.07414600  0.77128800  1
  Ni  Ni39  1  0.07018400  0.07414600  0.27128800  1
  Cu  Cu40  1  0.30000700  0.99386300  0.47717800  1
  Cu  Cu41  1  0.19999300  0.99386300  0.97717800  1
  Cu  Cu42  1  0.00282000  0.98320000  0.34421000  1
  Cu  Cu43  1  0.49718000  0.98320000  0.84421000  1
  Cu  Cu44  1  0.53820400  0.97498100  0.32838100  1
  Cu  Cu45  1  0.96179600  0.97498100  0.82838100  1
  Cu  Cu46  1  0.77135000  0.92792600  0.72277400  1
  Cu  Cu47  1  0.72865000  0.92792600  0.22277400  1
  Cu  Cu48  1  0.26692000  0.81156300  0.08094000  1
  Cu  Cu49  1  0.23308000  0.81156300  0.58094000  1
  Cu  Cu50  1  0.03618900  0.79477700  0.00100800  1
  Cu  Cu51  1  0.46381100  0.79477700  0.50100800  1
  Cu  Cu52  1  0.98446200  0.77866500  0.72292200  1
  Cu  Cu53  1  0.51553800  0.77866500  0.22292200  1
  Cu  Cu54  1  0.25291600  0.75915200  0.40827300  1
  Cu  Cu55  1  0.24708400  0.75915200  0.90827300  1
  Cu  Cu56  1  0.75291600  0.74084800  0.40827300  1
  Cu  Cu57  1  0.74708400  0.74084800  0.90827300  1
  Cu  Cu58  1  0.01553800  0.72133500  0.22292200  1
  Cu  Cu59  1  0.48446200  0.72133500  0.72292200  1
  Cu  Cu60  1  0.96381100  0.70522300  0.50100800  1
  Cu  Cu61  1  0.53618900  0.70522300  0.00100800  1
  Cu  Cu62  1  0.76692000  0.68843700  0.08094000  1
  Cu  Cu63  1  0.73308000  0.68843700  0.58094000  1
  Cu  Cu64  1  0.22865000  0.57207400  0.22277400  1
  Cu  Cu65  1  0.27135000  0.57207400  0.72277400  1
  Cu  Cu66  1  0.46179600  0.52501900  0.82838100  1
  Cu  Cu67  1  0.03820400  0.52501900  0.32838100  1
  Cu  Cu68  1  0.50282000  0.51680000  0.34421000  1
  Cu  Cu69  1  0.99718000  0.51680000  0.84421000  1
  Cu  Cu70  1  0.80000700  0.50613700  0.47717800  1
  Cu  Cu71  1  0.69999300  0.50613700  0.97717800  1
  Cu  Cu72  1  0.30000700  0.49386300  0.02282200  1
  Cu  Cu73  1  0.19999300  0.49386300  0.52282200  1
  Cu  Cu74  1  0.49718000  0.48320000  0.65579000  1
  Cu  Cu75  1  0.00282000  0.48320000  0.15579000  1
  Cu  Cu76  1  0.53820400  0.47498100  0.17161900  1
  Cu  Cu77  1  0.96179600  0.47498100  0.67161900  1
  Cu  Cu78  1  0.72865000  0.42792600  0.27722600  1
  Cu  Cu79  1  0.77135000  0.42792600  0.77722600  1
  Cu  Cu80  1  0.26692000  0.31156300  0.41906000  1
  Cu  Cu81  1  0.23308000  0.31156300  0.91906000  1
  Cu  Cu82  1  0.46381100  0.29477700  0.99899200  1
  Cu  Cu83  1  0.03618900  0.29477700  0.49899200  1
  Cu  Cu84  1  0.51553800  0.27866500  0.27707800  1
  Cu  Cu85  1  0.98446200  0.27866500  0.77707800  1
  Cu  Cu86  1  0.25291600  0.25915200  0.09172700  1
  Cu  Cu87  1  0.24708400  0.25915200  0.59172700  1
  Cu  Cu88  1  0.75291600  0.24084800  0.09172700  1
  Cu  Cu89  1  0.74708400  0.24084800  0.59172700  1
  Cu  Cu90  1  0.48446200  0.22133500  0.77707800  1
  Cu  Cu91  1  0.01553800  0.22133500  0.27707800  1
  Cu  Cu92  1  0.53618900  0.20522300  0.49899200  1
  Cu  Cu93  1  0.96381100  0.20522300  0.99899200  1
  Cu  Cu94  1  0.76692000  0.18843700  0.41906000  1
  Cu  Cu95  1  0.73308000  0.18843700  0.91906000  1
  Cu  Cu96  1  0.27135000  0.07207400  0.77722600  1
  Cu  Cu97  1  0.22865000  0.07207400  0.27722600  1
  Cu  Cu98  1  0.46179600  0.02501900  0.67161900  1
  Cu  Cu99  1  0.03820400  0.02501900  0.17161900  1
  Cu  Cu100  1  0.99718000  0.01680000  0.65579000  1
  Cu  Cu101  1  0.50282000  0.01680000  0.15579000  1
  Cu  Cu102  1  0.80000700  0.00613700  0.02282200  1
  Cu  Cu103  1  0.69999300  0.00613700  0.52282200  1
