# generated using pymatgen
data_Cu5Ni2C
_symmetry_space_group_name_H-M   'P 1'
_cell_length_a   14.80110700
_cell_length_b   6.30552400
_cell_length_c   9.92964714
_cell_angle_alpha   73.09822823
_cell_angle_beta   90.00000000
_cell_angle_gamma   90.00000000
_symmetry_Int_Tables_number   1
_chemical_formula_structural   Cu5Ni2C
_chemical_formula_sum   'Cu40 Ni16 C8'
_cell_volume   886.69130308
_cell_formula_units_Z   8
loop_
 _symmetry_equiv_pos_site_id
 _symmetry_equiv_pos_as_xyz
  1  'x, y, z'
loop_
 _atom_site_type_symbol
 _atom_site_label
 _atom_site_symmetry_multiplicity
 _atom_site_fract_x
 _atom_site_fract_y
 _atom_site_fract_z
 _atom_site_occupancy
  C  C0  1  0.62477300  0.99735000  0.43854700  1
  C  C1  1  0.12477300  0.00265000  0.06145300  1
  C  C2  1  0.37522700  0.00265000  0.56145300  1
  C  C3  1  0.87522700  0.99735000  0.93854700  1
  C  C4  1  0.62495400  0.01523600  0.05874000  1
  C  C5  1  0.12495400  0.98476400  0.44126000  1
  C  C6  1  0.37504600  0.98476400  0.94126000  1
  C  C7  1  0.87504600  0.01523600  0.55874000  1
  Ni  Ni8  1  0.82195300  0.01386300  0.24778000  1
  Ni  Ni9  1  0.32195300  0.98613700  0.25222000  1
  Ni  Ni10  1  0.17804700  0.98613700  0.75222000  1
  Ni  Ni11  1  0.67804700  0.01386300  0.74778000  1
  Ni  Ni12  1  0.92783500  0.00438200  0.25006200  1
  Ni  Ni13  1  0.42783500  0.99561800  0.24993800  1
  Ni  Ni14  1  0.07216500  0.99561800  0.74993800  1
  Ni  Ni15  1  0.57216500  0.00438200  0.75006200  1
  Ni  Ni16  1  0.62471300  0.55084000  0.31773200  1
  Ni  Ni17  1  0.12471300  0.44916000  0.18226800  1
  Ni  Ni18  1  0.37528700  0.44916000  0.68226800  1
  Ni  Ni19  1  0.87528700  0.55084000  0.81773200  1
  Ni  Ni20  1  0.62417700  0.46732700  0.18156600  1
  Ni  Ni21  1  0.12417700  0.53267300  0.31843400  1
  Ni  Ni22  1  0.37582300  0.53267300  0.81843400  1
  Ni  Ni23  1  0.87582300  0.46732700  0.68156600  1
  Cu  Cu24  1  0.78318200  0.02348200  0.35966700  1
  Cu  Cu25  1  0.28318200  0.97651800  0.14033300  1
  Cu  Cu26  1  0.21681800  0.97651800  0.64033300  1
  Cu  Cu27  1  0.71681800  0.02348200  0.85966700  1
  Cu  Cu28  1  0.96730900  0.00883200  0.36234400  1
  Cu  Cu29  1  0.46730900  0.99116800  0.13765600  1
  Cu  Cu30  1  0.03269100  0.99116800  0.63765600  1
  Cu  Cu31  1  0.53269100  0.00883200  0.86234400  1
  Cu  Cu32  1  0.78296800  0.00892100  0.13492200  1
  Cu  Cu33  1  0.28296800  0.99107900  0.36507800  1
  Cu  Cu34  1  0.21703200  0.99107900  0.86507800  1
  Cu  Cu35  1  0.71703200  0.00892100  0.63492200  1
  Cu  Cu36  1  0.96624900  0.99222200  0.13814400  1
  Cu  Cu37  1  0.46624900  0.00777800  0.36185600  1
  Cu  Cu38  1  0.03375100  0.00777800  0.86185600  1
  Cu  Cu39  1  0.53375100  0.99222200  0.63814400  1
  Cu  Cu40  1  0.62237800  0.40267400  0.43456100  1
  Cu  Cu41  1  0.12237800  0.59732600  0.06543900  1
  Cu  Cu42  1  0.37762200  0.59732600  0.56543900  1
  Cu  Cu43  1  0.87762200  0.40267400  0.93456100  1
  Cu  Cu44  1  0.62764600  0.75791000  0.29628200  1
  Cu  Cu45  1  0.12764600  0.24209000  0.20371800  1
  Cu  Cu46  1  0.37235400  0.24209000  0.70371800  1
  Cu  Cu47  1  0.87235400  0.75791000  0.79628200  1
  Cu  Cu48  1  0.62455200  0.26035600  0.20294800  1
  Cu  Cu49  1  0.12455200  0.73964400  0.29705200  1
  Cu  Cu50  1  0.37544800  0.73964400  0.79705200  1
  Cu  Cu51  1  0.87544800  0.26035600  0.70294800  1
  Cu  Cu52  1  0.62350500  0.61575100  0.06469300  1
  Cu  Cu53  1  0.12350500  0.38424900  0.43530700  1
  Cu  Cu54  1  0.37649500  0.38424900  0.93530700  1
  Cu  Cu55  1  0.87649500  0.61575100  0.56469300  1
  Cu  Cu56  1  0.89850700  0.41245000  0.39123500  1
  Cu  Cu57  1  0.39850700  0.58755000  0.10876500  1
  Cu  Cu58  1  0.10149300  0.58755000  0.60876500  1
  Cu  Cu59  1  0.60149300  0.41245000  0.89123500  1
  Cu  Cu60  1  0.85482200  0.59469100  0.10788800  1
  Cu  Cu61  1  0.35482200  0.40530900  0.39211200  1
  Cu  Cu62  1  0.14517800  0.40530900  0.89211200  1
  Cu  Cu63  1  0.64517800  0.59469100  0.60788800  1
