# generated using pymatgen
data_Cu(NiC6)4
_symmetry_space_group_name_H-M   'P 1'
_cell_length_a   9.99043594
_cell_length_b   9.99043594
_cell_length_c   9.99043594
_cell_angle_alpha   60.00000000
_cell_angle_beta   60.00000000
_cell_angle_gamma   60.00000000
_symmetry_Int_Tables_number   1
_chemical_formula_structural   Cu(NiC6)4
_chemical_formula_sum   'Cu2 Ni8 C48'
_cell_volume   705.07987741
_cell_formula_units_Z   2
loop_
 _symmetry_equiv_pos_site_id
 _symmetry_equiv_pos_as_xyz
  1  'x, y, z'
loop_
 _atom_site_type_symbol
 _atom_site_label
 _atom_site_symmetry_multiplicity
 _atom_site_fract_x
 _atom_site_fract_y
 _atom_site_fract_z
 _atom_site_occupancy
  C  C0  1  0.53742100  0.96257900  0.96257900  1
  C  C1  1  0.53742100  0.53742100  0.96257900  1
  C  C2  1  0.96257900  0.53742100  0.96257900  1
  C  C3  1  0.53742100  0.96257900  0.53742100  1
  C  C4  1  0.28742100  0.71257900  0.71257900  1
  C  C5  1  0.28742100  0.28742100  0.71257900  1
  C  C6  1  0.96257900  0.96257900  0.53742100  1
  C  C7  1  0.96257900  0.53742100  0.53742100  1
  C  C8  1  0.71257900  0.28742100  0.71257900  1
  C  C9  1  0.28742100  0.71257900  0.28742100  1
  C  C10  1  0.71257900  0.28742100  0.28742100  1
  C  C11  1  0.71257900  0.71257900  0.28742100  1
  C  C12  1  0.62500000  0.12500000  0.12500000  1
  C  C13  1  0.12500000  0.62500000  0.12500000  1
  C  C14  1  0.12500000  0.12500000  0.12500000  1
  C  C15  1  0.12500000  0.12500000  0.62500000  1
  Ni  Ni16  1  0.33765200  0.33765200  0.98704300  1
  Ni  Ni17  1  0.33765200  0.33765200  0.33765200  1
  Ni  Ni18  1  0.33765200  0.98704300  0.33765200  1
  Ni  Ni19  1  0.98704300  0.33765200  0.33765200  1
  Ni  Ni20  1  0.26295700  0.91234800  0.91234800  1
  Ni  Ni21  1  0.91234800  0.26295700  0.91234800  1
  Ni  Ni22  1  0.91234800  0.91234800  0.91234800  1
  Ni  Ni23  1  0.91234800  0.91234800  0.26295700  1
  Cu  Cu24  1  0.50000000  0.50000000  0.50000000  1
  Cu  Cu25  1  0.75000000  0.75000000  0.75000000  1
  C  C26  1  0.56348300  0.56348300  0.30955100  1
  C  C27  1  0.56348300  0.56348300  0.56348300  1
  C  C28  1  0.56348300  0.30955100  0.56348300  1
  C  C29  1  0.30955100  0.56348300  0.56348300  1
  C  C30  1  0.48881800  0.21677600  0.98313300  1
  C  C31  1  0.31127300  0.48881800  0.98313300  1
  C  C32  1  0.48881800  0.31127300  0.21677600  1
  C  C33  1  0.21677600  0.31127300  0.98313300  1
  C  C34  1  0.48881800  0.98313300  0.31127300  1
  C  C35  1  0.31127300  0.98313300  0.21677600  1
  C  C36  1  0.21677600  0.48881800  0.31127300  1
  C  C37  1  0.31127300  0.21677600  0.48881800  1
  C  C38  1  0.98313300  0.48881800  0.21677600  1
  C  C39  1  0.21677600  0.98313300  0.48881800  1
  C  C40  1  0.98313300  0.21677600  0.31127300  1
  C  C41  1  0.26686700  0.93872700  0.76118200  1
  C  C42  1  0.98313300  0.31127300  0.48881800  1
  C  C43  1  0.26686700  0.03322400  0.93872700  1
  C  C44  1  0.03322400  0.26686700  0.76118200  1
  C  C45  1  0.26686700  0.76118200  0.03322400  1
  C  C46  1  0.93872700  0.03322400  0.76118200  1
  C  C47  1  0.03322400  0.76118200  0.93872700  1
  C  C48  1  0.93872700  0.26686700  0.03322400  1
  C  C49  1  0.76118200  0.26686700  0.93872700  1
  C  C50  1  0.03322400  0.93872700  0.26686700  1
  C  C51  1  0.76118200  0.93872700  0.03322400  1
  C  C52  1  0.93872700  0.76118200  0.26686700  1
  C  C53  1  0.76118200  0.03322400  0.26686700  1
  C  C54  1  0.94044900  0.68651700  0.68651700  1
  C  C55  1  0.68651700  0.94044900  0.68651700  1
  C  C56  1  0.68651700  0.68651700  0.68651700  1
  C  C57  1  0.68651700  0.68651700  0.94044900  1
