# generated using pymatgen
data_Cu19Ni5C12
_symmetry_space_group_name_H-M   'P 1'
_cell_length_a   4.81270800
_cell_length_b   5.83095429
_cell_length_c   16.13350425
_cell_angle_alpha   90.19773443
_cell_angle_beta   90.10221867
_cell_angle_gamma   92.45923588
_symmetry_Int_Tables_number   1
_chemical_formula_structural   Cu19Ni5C12
_chemical_formula_sum   'Cu19 Ni5 C12'
_cell_volume   452.32885249
_cell_formula_units_Z   1
loop_
 _symmetry_equiv_pos_site_id
 _symmetry_equiv_pos_as_xyz
  1  'x, y, z'
loop_
 _atom_site_type_symbol
 _atom_site_label
 _atom_site_symmetry_multiplicity
 _atom_site_fract_x
 _atom_site_fract_y
 _atom_site_fract_z
 _atom_site_occupancy
  C  C0  1  0.00497000  0.16973000  0.58704100  1
  C  C1  1  0.97549100  0.83381600  0.75992100  1
  C  C2  1  0.00164000  0.15770500  0.91755800  1
  C  C3  1  0.99473400  0.17092700  0.26007500  1
  C  C4  1  0.99127200  0.85301600  0.41655000  1
  C  C5  1  0.99563100  0.84025400  0.08703100  1
  C  C6  1  0.50834200  0.32043100  0.40661500  1
  C  C7  1  0.47187700  0.33467100  0.07421400  1
  C  C8  1  0.48348800  0.33532900  0.74297500  1
  C  C9  1  0.50412300  0.65582700  0.91572900  1
  C  C10  1  0.47589800  0.64516600  0.58341000  1
  C  C11  1  0.48830900  0.64082400  0.25126000  1
  Ni  Ni12  1  0.78691700  0.12120600  0.36138100  1
  Ni  Ni13  1  0.77744300  0.88732600  0.87173700  1
  Ni  Ni14  1  0.27435200  0.39130400  0.96182500  1
  Ni  Ni15  1  0.27470900  0.40184500  0.63260000  1
  Ni  Ni16  1  0.28716500  0.36744900  0.30677900  1
  Cu  Cu17  1  0.77676200  0.11042300  0.69544600  1
  Cu  Cu18  1  0.79013800  0.12381000  0.02745600  1
  Cu  Cu19  1  0.75420300  0.87861100  0.53306300  1
  Cu  Cu20  1  0.76373600  0.89721600  0.19979600  1
  Cu  Cu21  1  0.74600900  0.39098500  0.85338200  1
  Cu  Cu22  1  0.72981100  0.61695700  0.68537900  1
  Cu  Cu23  1  0.72144800  0.38224900  0.51732200  1
  Cu  Cu24  1  0.73991800  0.61313000  0.35752300  1
  Cu  Cu25  1  0.73230100  0.38993700  0.18562400  1
  Cu  Cu26  1  0.72078700  0.61832200  0.02312100  1
  Cu  Cu27  1  0.29219300  0.62614000  0.80711100  1
  Cu  Cu28  1  0.27584800  0.61014300  0.46978000  1
  Cu  Cu29  1  0.27006200  0.61206200  0.13797400  1
  Cu  Cu30  1  0.22300300  0.11496800  0.81114200  1
  Cu  Cu31  1  0.24006100  0.10453000  0.47840300  1
  Cu  Cu32  1  0.22942700  0.88627500  0.64508000  1
  Cu  Cu33  1  0.25155700  0.89924700  0.97901400  1
  Cu  Cu34  1  0.21392900  0.12132600  0.14983200  1
  Cu  Cu35  1  0.23244800  0.87684500  0.30685400  1
