# generated using pymatgen
data_Cu2NiC14
_symmetry_space_group_name_H-M   'P 1'
_cell_length_a   7.83331200
_cell_length_b   9.21987478
_cell_length_c   14.26982297
_cell_angle_alpha   106.19719956
_cell_angle_beta   87.48946993
_cell_angle_gamma   108.43228014
_symmetry_Int_Tables_number   1
_chemical_formula_structural   Cu2NiC14
_chemical_formula_sum   'Cu8 Ni4 C56'
_cell_volume   937.80172406
_cell_formula_units_Z   4
loop_
 _symmetry_equiv_pos_site_id
 _symmetry_equiv_pos_as_xyz
  1  'x, y, z'
loop_
 _atom_site_type_symbol
 _atom_site_label
 _atom_site_symmetry_multiplicity
 _atom_site_fract_x
 _atom_site_fract_y
 _atom_site_fract_z
 _atom_site_occupancy
  Ni  Ni0  1  0.25152800  0.76971800  0.34500100  1
  Ni  Ni1  1  0.74847200  0.23028200  0.65499900  1
  Ni  Ni2  1  0.23614200  0.36643100  0.15125800  1
  Ni  Ni3  1  0.76385800  0.63356900  0.84874200  1
  Cu  Cu4  1  0.74202700  0.63574500  0.41254100  1
  Cu  Cu5  1  0.25797300  0.36425500  0.58745900  1
  Cu  Cu6  1  0.71699100  0.86380200  0.62165400  1
  Cu  Cu7  1  0.28300900  0.13619800  0.37834600  1
  Cu  Cu8  1  0.75900500  0.09317000  0.05086000  1
  Cu  Cu9  1  0.24099500  0.90683000  0.94914000  1
  Cu  Cu10  1  0.75495900  0.59043300  0.11141000  1
  Cu  Cu11  1  0.24504100  0.40956700  0.88859000  1
  C  C12  1  0.18116800  0.45663200  0.36594300  1
  C  C13  1  0.81883200  0.54336800  0.63405700  1
  C  C14  1  0.99389200  0.42363800  0.31438000  1
  C  C15  1  0.00610800  0.57636200  0.68562000  1
  C  C16  1  0.29287800  0.70490600  0.12867400  1
  C  C17  1  0.70712200  0.29509400  0.87132600  1
  C  C18  1  0.47660900  0.72743600  0.18171200  1
  C  C19  1  0.52339100  0.27256400  0.81828800  1
  C  C20  1  0.23691700  0.93459200  0.21055000  1
  C  C21  1  0.76308300  0.06540800  0.78945000  1
  C  C22  1  0.95929100  0.05046700  0.30988400  1
  C  C23  1  0.04070900  0.94953300  0.69011600  1
  C  C24  1  0.48549600  0.36558200  0.28787900  1
  C  C25  1  0.51450400  0.63441800  0.71212100  1
  C  C26  1  0.46816100  0.20516000  0.20594200  1
  C  C27  1  0.53183900  0.79484000  0.79405800  1
  C  C28  1  0.95064400  0.75495600  0.38830300  1
  C  C29  1  0.04935600  0.24504400  0.61169700  1
  C  C30  1  0.74685100  0.90094900  0.50415000  1
  C  C31  1  0.25314900  0.09905100  0.49585000  1
  C  C32  1  0.67980000  0.63842600  0.54248500  1
  C  C33  1  0.32020000  0.36157400  0.45751500  1
  C  C34  1  0.57082300  0.62868600  0.33566500  1
  C  C35  1  0.42917700  0.37131400  0.66433500  1
  C  C36  1  0.34183300  0.71854200  0.46214100  1
  C  C37  1  0.65816700  0.28145800  0.53785900  1
  C  C38  1  0.51967600  0.91067400  0.65396500  1
  C  C39  1  0.48032400  0.08932600  0.34603500  1
  C  C40  1  0.23862700  0.55482000  0.63100400  1
  C  C41  1  0.76137300  0.44518000  0.36899600  1
  C  C42  1  0.95298500  0.85397800  0.64817800  1
  C  C43  1  0.04701500  0.14602200  0.35182200  1
  C  C44  1  0.95140300  0.18258800  0.13173400  1
  C  C45  1  0.04859700  0.81741200  0.86826600  1
  C  C46  1  0.75717700  0.90369400  0.98086300  1
  C  C47  1  0.24282300  0.09630600  0.01913700  1
  C  C48  1  0.76443300  0.21130500  0.97295000  1
  C  C49  1  0.23556700  0.78869500  0.02705000  1
  C  C50  1  0.56591600  0.07899300  0.11998600  1
  C  C51  1  0.43408400  0.92100700  0.88001400  1
  C  C52  1  0.54703700  0.43880300  0.10599200  1
  C  C53  1  0.45296300  0.56119700  0.89400800  1
  C  C54  1  0.82523800  0.59626800  0.99283300  1
  C  C55  1  0.17476200  0.40373200  0.00716700  1
  C  C56  1  0.91946100  0.55891900  0.17423000  1
  C  C57  1  0.08053900  0.44108100  0.82577000  1
  C  C58  1  0.72314400  0.77208000  0.17229700  1
  C  C59  1  0.27685600  0.22792000  0.82770300  1
  C  C60  1  0.12527400  0.46066700  0.30639800  1
  C  C61  1  0.87472600  0.53933300  0.69360200  1
  C  C62  1  0.34416100  0.67734400  0.18100500  1
  C  C63  1  0.65583900  0.32265600  0.81899500  1
  C  C64  1  0.16661400  0.92553300  0.26852300  1
  C  C65  1  0.83338600  0.07446700  0.73147700  1
  C  C66  1  0.39525000  0.26912600  0.24749200  1
  C  C67  1  0.60475000  0.73087400  0.75250800  1
