# generated using pymatgen
data_CuNi2C7
_symmetry_space_group_name_H-M   'P 1'
_cell_length_a   6.58302865
_cell_length_b   2.90571161
_cell_length_c   5.93988782
_cell_angle_alpha   89.69866601
_cell_angle_beta   103.90831523
_cell_angle_gamma   102.55838813
_symmetry_Int_Tables_number   1
_chemical_formula_structural   CuNi2C7
_chemical_formula_sum   'Cu1 Ni2 C7'
_cell_volume   107.51803673
_cell_formula_units_Z   1
loop_
 _symmetry_equiv_pos_site_id
 _symmetry_equiv_pos_as_xyz
  1  'x, y, z'
loop_
 _atom_site_type_symbol
 _atom_site_label
 _atom_site_symmetry_multiplicity
 _atom_site_fract_x
 _atom_site_fract_y
 _atom_site_fract_z
 _atom_site_occupancy
  C  C0  1  0.65792500  0.32881100  0.16121700  1
  Ni  Ni1  1  0.01418600  0.01206700  0.99166800  1
  Ni  Ni2  1  0.66140000  0.32811100  0.66523500  1
  Cu  Cu3  1  0.32667000  0.66446400  0.34174600  1
  C  C4  1  0.02292900  0.51640500  0.21917100  1
  C  C5  1  0.34219400  0.17193200  0.54795100  1
  C  C6  1  0.32605600  0.16488200  0.12713000  1
  C  C7  1  0.69597100  0.84441100  0.90809700  1
  C  C8  1  0.63009800  0.81508200  0.42507500  1
  C  C9  1  0.98378800  0.48444400  0.77966500  1
