# generated using pymatgen
data_CuNi3C32
_symmetry_space_group_name_H-M   'P 1'
_cell_length_a   8.38852408
_cell_length_b   8.38852408
_cell_length_c   8.38852416
_cell_angle_alpha   61.84276622
_cell_angle_beta   61.84276622
_cell_angle_gamma   61.84276375
_symmetry_Int_Tables_number   1
_chemical_formula_structural   CuNi3C32
_chemical_formula_sum   'Cu1 Ni3 C32'
_cell_volume   434.61320844
_cell_formula_units_Z   1
loop_
 _symmetry_equiv_pos_site_id
 _symmetry_equiv_pos_as_xyz
  1  'x, y, z'
loop_
 _atom_site_type_symbol
 _atom_site_label
 _atom_site_symmetry_multiplicity
 _atom_site_fract_x
 _atom_site_fract_y
 _atom_site_fract_z
 _atom_site_occupancy
  C  C0  1  0.00082700  0.00082700  0.00082700  1
  C  C1  1  0.50053000  0.50053000  0.50053000  1
  Ni  Ni2  1  0.85484800  0.85484800  0.85484800  1
  Ni  Ni3  1  0.64654700  0.64654700  0.64654700  1
  Ni  Ni4  1  0.35424700  0.35424700  0.35424700  1
  Cu  Cu5  1  0.14588700  0.14588700  0.14588700  1
  C  C6  1  0.54667100  0.95155800  0.25005700  1
  C  C7  1  0.25005700  0.54667100  0.95155800  1
  C  C8  1  0.95155800  0.25005700  0.54667100  1
  C  C9  1  0.04945800  0.75131700  0.45172400  1
  C  C10  1  0.75131700  0.45172400  0.04945800  1
  C  C11  1  0.45172400  0.04945800  0.75131700  1
  C  C12  1  0.49523100  0.89484000  0.67604100  1
  C  C13  1  0.89484000  0.67604100  0.49523100  1
  C  C14  1  0.75061600  0.93969400  0.09499000  1
  C  C15  1  0.67604100  0.49523100  0.89484000  1
  C  C16  1  0.39276500  0.98298000  0.18064800  1
  C  C17  1  0.56694200  0.74666500  0.40454400  1
  C  C18  1  0.09499000  0.75061600  0.93969400  1
  C  C19  1  0.40454400  0.56694200  0.74666500  1
  C  C20  1  0.00623700  0.82560100  0.60620200  1
  C  C21  1  0.74666500  0.40454400  0.56694200  1
  C  C22  1  0.05937600  0.90545000  0.24900100  1
  C  C23  1  0.82560100  0.60620200  0.00623700  1
  C  C24  1  0.18064800  0.39276500  0.98298000  1
  C  C25  1  0.93969400  0.09499000  0.75061600  1
  C  C26  1  0.25273800  0.59614000  0.43654000  1
  C  C27  1  0.98298000  0.18064800  0.39276500  1
  C  C28  1  0.59614000  0.43654000  0.25273800  1
  C  C29  1  0.90545000  0.24900100  0.05937600  1
  C  C30  1  0.43654000  0.25273800  0.59614000  1
  C  C31  1  0.60620200  0.00623700  0.82560100  1
  C  C32  1  0.32525000  0.50172900  0.10610700  1
  C  C33  1  0.24900100  0.05937600  0.90545000  1
  C  C34  1  0.10610700  0.32525000  0.50172900  1
  C  C35  1  0.50172900  0.10610700  0.32525000  1
