# generated using pymatgen
data_Cu16Ni2C21
_symmetry_space_group_name_H-M   'P 1'
_cell_length_a   7.09101700
_cell_length_b   7.31979754
_cell_length_c   7.74405158
_cell_angle_alpha   98.32469334
_cell_angle_beta   108.71798554
_cell_angle_gamma   88.42980872
_symmetry_Int_Tables_number   1
_chemical_formula_structural   Cu16Ni2C21
_chemical_formula_sum   'Cu16 Ni2 C21'
_cell_volume   376.60491719
_cell_formula_units_Z   1
loop_
 _symmetry_equiv_pos_site_id
 _symmetry_equiv_pos_as_xyz
  1  'x, y, z'
loop_
 _atom_site_type_symbol
 _atom_site_label
 _atom_site_symmetry_multiplicity
 _atom_site_fract_x
 _atom_site_fract_y
 _atom_site_fract_z
 _atom_site_occupancy
  C  C0  1  0.00000000  0.50000000  0.00000000  1
  C  C1  1  0.84482800  0.26045500  0.26184000  1
  C  C2  1  0.74457800  0.78884100  0.74497100  1
  C  C3  1  0.25542200  0.21115900  0.25502900  1
  C  C4  1  0.15517200  0.73954500  0.73816000  1
  C  C5  1  0.75943700  0.02360200  0.03870800  1
  C  C6  1  0.88752600  0.30973100  0.65836300  1
  C  C7  1  0.67935900  0.61371600  0.16394100  1
  C  C8  1  0.88078300  0.17404500  0.80114400  1
  C  C9  1  0.62505900  0.84011700  0.19422700  1
  C  C10  1  0.58397000  0.70155500  0.33390100  1
  C  C11  1  0.43907700  0.67852500  0.10975800  1
  C  C12  1  0.57458100  0.27808800  0.42225200  1
  C  C13  1  0.42541900  0.72191200  0.57774800  1
  C  C14  1  0.56092300  0.32147500  0.89024200  1
  C  C15  1  0.41603000  0.29844500  0.66609900  1
  C  C16  1  0.37494100  0.15988300  0.80577300  1
  C  C17  1  0.11921700  0.82595500  0.19885600  1
  C  C18  1  0.32064100  0.38628400  0.83605900  1
  C  C19  1  0.11247400  0.69026900  0.34163700  1
  C  C20  1  0.24056300  0.97639800  0.96129200  1
  Ni  Ni21  1  0.58165000  0.70797100  0.19999600  1
  Ni  Ni22  1  0.41835000  0.29202900  0.80000400  1
  Cu  Cu23  1  0.80735100  0.38329400  0.11170100  1
  Cu  Cu24  1  0.91858000  0.76669600  0.64836300  1
  Cu  Cu25  1  0.75115500  0.06236200  0.17201200  1
  Cu  Cu26  1  0.94865400  0.28451000  0.78642500  1
  Cu  Cu27  1  0.77241200  0.33150300  0.42202900  1
  Cu  Cu28  1  0.76063300  0.98515600  0.84654600  1
  Cu  Cu29  1  0.75339700  0.63685800  0.85909100  1
  Cu  Cu30  1  0.55949800  0.76260100  0.56372400  1
  Cu  Cu31  1  0.44050200  0.23739900  0.43627600  1
  Cu  Cu32  1  0.24660300  0.36314200  0.14090900  1
  Cu  Cu33  1  0.23936700  0.01484400  0.15345400  1
  Cu  Cu34  1  0.22758800  0.66849700  0.57797100  1
  Cu  Cu35  1  0.05134600  0.71549000  0.21357500  1
  Cu  Cu36  1  0.24884500  0.93763800  0.82798800  1
  Cu  Cu37  1  0.08142000  0.23330400  0.35163700  1
  Cu  Cu38  1  0.19264900  0.61670600  0.88829900  1
