# generated using pymatgen
data_Cu2Ni3C23
_symmetry_space_group_name_H-M   'P 1'
_cell_length_a   5.87162100
_cell_length_b   5.96553191
_cell_length_c   9.70678808
_cell_angle_alpha   91.31807092
_cell_angle_beta   89.77522648
_cell_angle_gamma   119.28327601
_symmetry_Int_Tables_number   1
_chemical_formula_structural   Cu2Ni3C23
_chemical_formula_sum   'Cu2 Ni3 C23'
_cell_volume   296.46577823
_cell_formula_units_Z   1
loop_
 _symmetry_equiv_pos_site_id
 _symmetry_equiv_pos_as_xyz
  1  'x, y, z'
loop_
 _atom_site_type_symbol
 _atom_site_label
 _atom_site_symmetry_multiplicity
 _atom_site_fract_x
 _atom_site_fract_y
 _atom_site_fract_z
 _atom_site_occupancy
  C  C0  1  0.33972100  0.68420600  0.10000200  1
  C  C1  1  0.00447000  0.00916300  0.00716800  1
  C  C2  1  0.99506900  0.98403900  0.51006900  1
  C  C3  1  0.66121700  0.32594600  0.59719900  1
  Ni  Ni4  1  0.17450000  0.34597100  0.78463600  1
  Ni  Ni5  1  0.33643600  0.16674200  0.28341200  1
  Ni  Ni6  1  0.83078600  0.16619500  0.28400200  1
  Cu  Cu7  1  0.33114300  0.66269500  0.50875700  1
  Cu  Cu8  1  0.68792200  0.37175700  0.00627900  1
  C  C9  1  0.17586800  0.83745400  0.78645300  1
  C  C10  1  0.66159400  0.83959200  0.78473800  1
  C  C11  1  0.82696800  0.65313400  0.28525200  1
  C  C12  1  0.13602000  0.78973300  0.40763600  1
  C  C13  1  0.46508700  0.95534800  0.64743100  1
  C  C14  1  0.32340700  0.66873000  0.88642600  1
  C  C15  1  0.01463300  0.00743800  0.69965800  1
  C  C16  1  0.99229300  0.98229700  0.19613300  1
  C  C17  1  0.65463400  0.79277000  0.40989000  1
  C  C18  1  0.02890300  0.48984400  0.66194200  1
  C  C19  1  0.46072100  0.49284500  0.66066900  1
  C  C20  1  0.85215700  0.68368100  0.90336500  1
  C  C21  1  0.15301800  0.30726500  0.40497900  1
  C  C22  1  0.53810600  0.50844600  0.15605500  1
  C  C23  1  0.96953100  0.50623300  0.15676500  1
  C  C24  1  0.66690700  0.33503800  0.38458600  1
  C  C25  1  0.33982200  0.19391700  0.90880000  1
  C  C26  1  0.52367800  0.04561400  0.16021300  1
  C  C27  1  0.85509100  0.19391000  0.90964800  1
