# generated using pymatgen
data_Cu12Ni3C16
_symmetry_space_group_name_H-M   'P 1'
_cell_length_a   8.39274300
_cell_length_b   9.33865009
_cell_length_c   13.84468520
_cell_angle_alpha   82.57777598
_cell_angle_beta   80.40950159
_cell_angle_gamma   68.86393949
_symmetry_Int_Tables_number   1
_chemical_formula_structural   Cu12Ni3C16
_chemical_formula_sum   'Cu24 Ni6 C32'
_cell_volume   995.13826941
_cell_formula_units_Z   2
loop_
 _symmetry_equiv_pos_site_id
 _symmetry_equiv_pos_as_xyz
  1  'x, y, z'
loop_
 _atom_site_type_symbol
 _atom_site_label
 _atom_site_symmetry_multiplicity
 _atom_site_fract_x
 _atom_site_fract_y
 _atom_site_fract_z
 _atom_site_occupancy
  Ni  Ni0  1  0.61464800  0.85660800  0.38386700  1
  Ni  Ni1  1  0.38535200  0.14339200  0.61613300  1
  Ni  Ni2  1  0.80099200  0.57845300  0.36119800  1
  Ni  Ni3  1  0.19900800  0.42154700  0.63880200  1
  Ni  Ni4  1  0.49681400  0.68349900  0.30961300  1
  Ni  Ni5  1  0.50318600  0.31650100  0.69038700  1
  C  C6  1  0.48713900  0.87952200  0.28415700  1
  C  C7  1  0.51286100  0.12047800  0.71584300  1
  C  C8  1  0.83810400  0.75857600  0.34037900  1
  C  C9  1  0.16189600  0.24142400  0.65962100  1
  C  C10  1  0.70228700  0.55017500  0.26328700  1
  C  C11  1  0.29771300  0.44982500  0.73671300  1
  C  C12  1  0.78068700  0.78971800  0.14365700  1
  C  C13  1  0.21931300  0.21028200  0.85634300  1
  Cu  Cu14  1  0.80660000  0.98794700  0.11347200  1
  Cu  Cu15  1  0.19340000  0.01205300  0.88652800  1
  Cu  Cu16  1  0.65543200  0.79244600  0.03961600  1
  Cu  Cu17  1  0.34456800  0.20755400  0.96038400  1
  Cu  Cu18  1  0.00387400  0.65795400  0.09008400  1
  Cu  Cu19  1  0.99612600  0.34204600  0.90991600  1
  Cu  Cu20  1  0.47246000  0.08962100  0.26132300  1
  Cu  Cu21  1  0.52754000  0.91037900  0.73867700  1
  Cu  Cu22  1  0.34112500  0.89982000  0.18805600  1
  Cu  Cu23  1  0.65887500  0.10018000  0.81194400  1
  Cu  Cu24  1  0.30518900  0.90912900  0.39098700  1
  Cu  Cu25  1  0.69481100  0.09087100  0.60901300  1
  Cu  Cu26  1  0.85212200  0.72398000  0.47829800  1
  Cu  Cu27  1  0.14787800  0.27602000  0.52170200  1
  Cu  Cu28  1  0.07398400  0.64290100  0.30142300  1
  Cu  Cu29  1  0.92601600  0.35709900  0.69857700  1
  Cu  Cu30  1  0.87324500  0.95186400  0.32304600  1
  Cu  Cu31  1  0.12675500  0.04813600  0.67695400  1
  Cu  Cu32  1  0.59231500  0.51483100  0.16319500  1
  Cu  Cu33  1  0.40768500  0.48516900  0.83680500  1
  Cu  Cu34  1  0.62224700  0.42005500  0.36240300  1
  Cu  Cu35  1  0.37775300  0.57994500  0.63759700  1
  Cu  Cu36  1  0.91717300  0.39843800  0.21967300  1
  Cu  Cu37  1  0.08282700  0.60156200  0.78032700  1
  C  C38  1  0.82649100  0.10493200  0.09074200  1
  C  C39  1  0.17350900  0.89506800  0.90925800  1
  C  C40  1  0.58600300  0.79855600  0.97265300  1
  C  C41  1  0.41399700  0.20144400  0.02734700  1
  C  C42  1  0.13484500  0.58195000  0.05087500  1
  C  C43  1  0.86515500  0.41805000  0.94912500  1
  C  C44  1  0.46237700  0.21759600  0.25000200  1
  C  C45  1  0.53762300  0.78240400  0.74999800  1
  C  C46  1  0.24662200  0.91222400  0.13252900  1
  C  C47  1  0.75337800  0.08777600  0.86747100  1
  C  C48  1  0.19182900  0.92706500  0.45443200  1
  C  C49  1  0.80817100  0.07293500  0.54556800  1
  C  C50  1  0.86429500  0.70048600  0.56171600  1
  C  C51  1  0.13570500  0.29951400  0.43828400  1
  C  C52  1  0.21846300  0.57036400  0.28168300  1
  C  C53  1  0.78153700  0.42963600  0.71831700  1
  C  C54  1  0.89587000  0.06875900  0.31404300  1
  C  C55  1  0.10413000  0.93124100  0.68595700  1
  C  C56  1  0.52378900  0.49186800  0.10394500  1
  C  C57  1  0.47621100  0.50813200  0.89605500  1
  C  C58  1  0.56760400  0.34557700  0.42288900  1
  C  C59  1  0.43239600  0.65442300  0.57711100  1
  C  C60  1  0.04760200  0.30470300  0.19439100  1
  C  C61  1  0.95239800  0.69529700  0.80560900  1
