# generated using pymatgen
data_CuNiC8
_symmetry_space_group_name_H-M   'P 1'
_cell_length_a   6.01235800
_cell_length_b   7.36555300
_cell_length_c   9.06356800
_cell_angle_alpha   90.00000000
_cell_angle_beta   90.00000000
_cell_angle_gamma   90.00000000
_symmetry_Int_Tables_number   1
_chemical_formula_structural   CuNiC8
_chemical_formula_sum   'Cu4 Ni4 C32'
_cell_volume   401.37414056
_cell_formula_units_Z   4
loop_
 _symmetry_equiv_pos_site_id
 _symmetry_equiv_pos_as_xyz
  1  'x, y, z'
loop_
 _atom_site_type_symbol
 _atom_site_label
 _atom_site_symmetry_multiplicity
 _atom_site_fract_x
 _atom_site_fract_y
 _atom_site_fract_z
 _atom_site_occupancy
  C  C0  1  0.25000000  0.88460800  0.71559200  1
  C  C1  1  0.25000000  0.61539200  0.21559200  1
  C  C2  1  0.75000000  0.11539200  0.28440800  1
  C  C3  1  0.75000000  0.38460800  0.78440800  1
  C  C4  1  0.25000000  0.68653000  0.80935700  1
  C  C5  1  0.25000000  0.81347000  0.30935700  1
  C  C6  1  0.75000000  0.31347000  0.19064300  1
  C  C7  1  0.75000000  0.18653000  0.69064300  1
  C  C8  1  0.38944300  0.86639500  0.87621000  1
  C  C9  1  0.11055700  0.63360500  0.37621000  1
  C  C10  1  0.88944300  0.13360500  0.12379000  1
  C  C11  1  0.61055700  0.36639500  0.62379000  1
  C  C12  1  0.61055700  0.13360500  0.12379000  1
  C  C13  1  0.88944300  0.36639500  0.62379000  1
  C  C14  1  0.11055700  0.86639500  0.87621000  1
  C  C15  1  0.38944300  0.63360500  0.37621000  1
  Ni  Ni16  1  0.25000000  0.82666200  0.81873300  1
  Ni  Ni17  1  0.25000000  0.67333800  0.31873300  1
  Ni  Ni18  1  0.75000000  0.17333800  0.18126700  1
  Ni  Ni19  1  0.75000000  0.32666200  0.68126700  1
  Cu  Cu20  1  0.25000000  0.30712600  0.92534500  1
  Cu  Cu21  1  0.25000000  0.19287400  0.42534500  1
  Cu  Cu22  1  0.75000000  0.69287400  0.07465500  1
  Cu  Cu23  1  0.75000000  0.80712600  0.57465500  1
  C  C24  1  0.25000000  0.42491800  0.79455200  1
  C  C25  1  0.25000000  0.07508200  0.29455200  1
  C  C26  1  0.75000000  0.57508200  0.20544800  1
  C  C27  1  0.75000000  0.92491800  0.70544800  1
  C  C28  1  0.25000000  0.41615900  0.05856800  1
  C  C29  1  0.25000000  0.08384100  0.55856800  1
  C  C30  1  0.75000000  0.58384100  0.94143200  1
  C  C31  1  0.75000000  0.91615900  0.44143200  1
  C  C32  1  0.05168900  0.19191000  0.92173100  1
  C  C33  1  0.44831100  0.30809000  0.42173100  1
  C  C34  1  0.55168900  0.80809000  0.07826900  1
  C  C35  1  0.94831100  0.69191000  0.57826900  1
  C  C36  1  0.94831100  0.80809000  0.07826900  1
  C  C37  1  0.55168900  0.69191000  0.57826900  1
  C  C38  1  0.44831100  0.19191000  0.92173100  1
  C  C39  1  0.05168900  0.30809000  0.42173100  1
