# generated using pymatgen
data_Cu3Ni4C9
_symmetry_space_group_name_H-M   'P 1'
_cell_length_a   8.64996833
_cell_length_b   8.64982552
_cell_length_c   10.45814289
_cell_angle_alpha   89.99834971
_cell_angle_beta   89.99858977
_cell_angle_gamma   89.99063710
_symmetry_Int_Tables_number   1
_chemical_formula_structural   Cu3Ni4C9
_chemical_formula_sum   'Cu12 Ni16 C36'
_cell_volume   782.48573594
_cell_formula_units_Z   4
loop_
 _symmetry_equiv_pos_site_id
 _symmetry_equiv_pos_as_xyz
  1  'x, y, z'
loop_
 _atom_site_type_symbol
 _atom_site_label
 _atom_site_symmetry_multiplicity
 _atom_site_fract_x
 _atom_site_fract_y
 _atom_site_fract_z
 _atom_site_occupancy
  Ni  Ni0  1  0.24999100  0.25001000  0.00000000  1
  Ni  Ni1  1  0.74999100  0.75001000  0.00000000  1
  Ni  Ni2  1  0.99999100  0.50001000  0.50000000  1
  Ni  Ni3  1  0.49999100  0.00001000  0.50000000  1
  Ni  Ni4  1  0.00000400  0.99999600  0.50000000  1
  Ni  Ni5  1  0.50000400  0.49999600  0.50000000  1
  Ni  Ni6  1  0.75000400  0.24999600  0.00000000  1
  Ni  Ni7  1  0.25000400  0.74999600  0.00000000  1
  Ni  Ni8  1  0.50271100  0.25271300  0.74998900  1
  Ni  Ni9  1  0.00271100  0.75271300  0.74998900  1
  Ni  Ni10  1  0.25271100  0.50271300  0.24998900  1
  Ni  Ni11  1  0.75271100  0.00271300  0.24998900  1
  Ni  Ni12  1  0.24728900  0.99728800  0.25000900  1
  Ni  Ni13  1  0.74728900  0.49728800  0.25000900  1
  Ni  Ni14  1  0.99728900  0.24728800  0.75000900  1
  Ni  Ni15  1  0.49728900  0.74728800  0.75000900  1
  Cu  Cu16  1  0.49999200  0.00000800  0.99999900  1
  Cu  Cu17  1  0.99999200  0.50000800  0.99999900  1
  Cu  Cu18  1  0.24999200  0.25000800  0.49999900  1
  Cu  Cu19  1  0.74999200  0.75000800  0.49999900  1
  Cu  Cu20  1  0.25356700  0.50356500  0.74999800  1
  Cu  Cu21  1  0.75356700  0.00356500  0.74999800  1
  Cu  Cu22  1  0.00356700  0.75356500  0.24999800  1
  Cu  Cu23  1  0.50356700  0.25356500  0.24999800  1
  Cu  Cu24  1  0.99642800  0.24643600  0.25000500  1
  Cu  Cu25  1  0.49642800  0.74643600  0.25000500  1
  Cu  Cu26  1  0.74642800  0.49643600  0.75000500  1
  Cu  Cu27  1  0.24642800  0.99643600  0.75000500  1
  C  C28  1  0.50000800  0.50000600  0.00000700  1
  C  C29  1  0.25000800  0.75000600  0.50000700  1
  C  C30  1  0.00000800  0.00000600  0.00000700  1
  C  C31  1  0.75000800  0.25000600  0.50000700  1
  C  C32  1  0.24995800  0.24999300  0.71401000  1
  C  C33  1  0.74995800  0.74999300  0.71401000  1
  C  C34  1  0.99995800  0.49999300  0.21401000  1
  C  C35  1  0.49995800  0.99999300  0.21401000  1
  C  C36  1  0.25000400  0.25004200  0.28598400  1
  C  C37  1  0.75000400  0.75004200  0.28598400  1
  C  C38  1  0.00000400  0.50004200  0.78598400  1
  C  C39  1  0.50000400  0.00004200  0.78598400  1
  C  C40  1  0.00006200  0.00000200  0.22138400  1
  C  C41  1  0.50006200  0.50000200  0.22138400  1
  C  C42  1  0.75006200  0.25000200  0.72138400  1
  C  C43  1  0.25006200  0.75000200  0.72138400  1
  C  C44  1  0.49999500  0.49993800  0.77861000  1
  C  C45  1  0.99999500  0.99993800  0.77861000  1
  C  C46  1  0.24999500  0.74993800  0.27861000  1
  C  C47  1  0.74999500  0.24993800  0.27861000  1
  C  C48  1  0.24971500  0.51476000  0.51908400  1
  C  C49  1  0.74971500  0.01476000  0.51908400  1
  C  C50  1  0.99971500  0.76476000  0.01908400  1
  C  C51  1  0.49971500  0.26476000  0.01908400  1
  C  C52  1  0.26474900  0.49971400  0.98095300  1
  C  C53  1  0.76474900  0.99971400  0.98095300  1
  C  C54  1  0.01474900  0.74971400  0.48095300  1
  C  C55  1  0.51474900  0.24971400  0.48095300  1
  C  C56  1  0.00028400  0.23524700  0.01905000  1
  C  C57  1  0.50028400  0.73524700  0.01905000  1
  C  C58  1  0.75028400  0.48524700  0.51905000  1
  C  C59  1  0.25028400  0.98524700  0.51905000  1
  C  C60  1  0.98524300  0.25028300  0.48091600  1
  C  C61  1  0.48524300  0.75028300  0.48091600  1
  C  C62  1  0.73524300  0.50028300  0.98091600  1
  C  C63  1  0.23524300  0.00028300  0.98091600  1
