# generated using pymatgen
data_Cu7NiC4
_symmetry_space_group_name_H-M   'P 1'
_cell_length_a   4.81036900
_cell_length_b   6.48787020
_cell_length_c   10.15955766
_cell_angle_alpha   71.55222871
_cell_angle_beta   89.19567162
_cell_angle_gamma   89.73729691
_symmetry_Int_Tables_number   1
_chemical_formula_structural   Cu7NiC4
_chemical_formula_sum   'Cu14 Ni2 C8'
_cell_volume   300.74705906
_cell_formula_units_Z   2
loop_
 _symmetry_equiv_pos_site_id
 _symmetry_equiv_pos_as_xyz
  1  'x, y, z'
loop_
 _atom_site_type_symbol
 _atom_site_label
 _atom_site_symmetry_multiplicity
 _atom_site_fract_x
 _atom_site_fract_y
 _atom_site_fract_z
 _atom_site_occupancy
  C  C0  1  0.49181700  0.62155000  0.25808300  1
  C  C1  1  0.51153700  0.87832300  0.74501100  1
  C  C2  1  0.48143900  0.36995100  0.76052900  1
  C  C3  1  0.49854600  0.12808600  0.24985700  1
  C  C4  1  0.01871000  0.49118500  0.99247100  1
  C  C5  1  0.01000200  0.74366200  0.49624700  1
  C  C6  1  0.01100500  0.00902700  0.99559400  1
  C  C7  1  0.01752400  0.27541900  0.49249900  1
  Ni  Ni8  1  0.19554200  0.53287200  0.40647700  1
  Ni  Ni9  1  0.19018500  0.31185000  0.90709300  1
  Cu  Cu10  1  0.19837100  0.06606000  0.40170200  1
  Cu  Cu11  1  0.20266100  0.78361700  0.90108200  1
  Cu  Cu12  1  0.29415700  0.42895400  0.14755400  1
  Cu  Cu13  1  0.28974100  0.16874100  0.64944400  1
  Cu  Cu14  1  0.30295100  0.92691200  0.14977000  1
  Cu  Cu15  1  0.30354100  0.68254700  0.64915300  1
  Cu  Cu16  1  0.70348100  0.06887200  0.84984200  1
  Cu  Cu17  1  0.71117100  0.58228800  0.85255100  1
  Cu  Cu18  1  0.70453100  0.83260600  0.34937100  1
  Cu  Cu19  1  0.70994200  0.31835300  0.35365000  1
  Cu  Cu20  1  0.81432500  0.97277900  0.59229800  1
  Cu  Cu21  1  0.79954300  0.21938700  0.10070500  1
  Cu  Cu22  1  0.79067500  0.43097700  0.60441800  1
  Cu  Cu23  1  0.80970100  0.68473500  0.09655300  1
