# generated using pymatgen
data_Cu2Ni2C7
_symmetry_space_group_name_H-M   'P 1'
_cell_length_a   5.35220200
_cell_length_b   9.13241627
_cell_length_c   7.54686824
_cell_angle_alpha   94.94306972
_cell_angle_beta   107.79171402
_cell_angle_gamma   91.88735817
_symmetry_Int_Tables_number   1
_chemical_formula_structural   Cu2Ni2C7
_chemical_formula_sum   'Cu4 Ni4 C14'
_cell_volume   349.24783228
_cell_formula_units_Z   2
loop_
 _symmetry_equiv_pos_site_id
 _symmetry_equiv_pos_as_xyz
  1  'x, y, z'
loop_
 _atom_site_type_symbol
 _atom_site_label
 _atom_site_symmetry_multiplicity
 _atom_site_fract_x
 _atom_site_fract_y
 _atom_site_fract_z
 _atom_site_occupancy
  Ni  Ni0  1  0.17478600  0.54045300  0.48340300  1
  Ni  Ni1  1  0.92491600  0.29046800  0.48381000  1
  Ni  Ni2  1  0.67542200  0.04041500  0.48444700  1
  Ni  Ni3  1  0.42612500  0.78984600  0.48345600  1
  Cu  Cu4  1  0.00835000  0.33736600  0.08672700  1
  Cu  Cu5  1  0.50085700  0.17219600  0.08374800  1
  Cu  Cu6  1  0.50674600  0.83704800  0.08638400  1
  Cu  Cu7  1  0.99939600  0.67241500  0.08415200  1
  C  C8  1  0.10337600  0.35866600  0.31985500  1
  C  C9  1  0.10836700  0.69145400  0.31763100  1
  C  C10  1  0.00312900  0.49937400  0.01469800  1
  C  C11  1  0.20896900  0.23385500  0.01751600  1
  C  C12  1  0.20577000  0.76477400  0.01018000  1
  C  C13  1  0.60316900  0.85901700  0.31963000  1
  C  C14  1  0.60926500  0.19070800  0.31733400  1
  C  C15  1  0.50270000  0.99935600  0.01381700  1
  C  C16  1  0.70588700  0.73256100  0.01766700  1
  C  C17  1  0.70792800  0.26360300  0.00986600  1
  C  C18  1  0.97536500  0.13259100  0.59609300  1
  C  C19  1  0.47612000  0.63130300  0.59412800  1
  C  C20  1  0.46359100  0.96701200  0.58955400  1
  C  C21  1  0.96166500  0.46802100  0.58820300  1
