# generated using pymatgen
data_Cu6NiC8
_symmetry_space_group_name_H-M   'P 1'
_cell_length_a   9.41135000
_cell_length_b   9.41135000
_cell_length_c   11.52650265
_cell_angle_alpha   65.90515745
_cell_angle_beta   65.90515745
_cell_angle_gamma   90.00000000
_symmetry_Int_Tables_number   1
_chemical_formula_structural   Cu6NiC8
_chemical_formula_sum   'Cu24 Ni4 C32'
_cell_volume   833.59629226
_cell_formula_units_Z   4
loop_
 _symmetry_equiv_pos_site_id
 _symmetry_equiv_pos_as_xyz
  1  'x, y, z'
loop_
 _atom_site_type_symbol
 _atom_site_label
 _atom_site_symmetry_multiplicity
 _atom_site_fract_x
 _atom_site_fract_y
 _atom_site_fract_z
 _atom_site_occupancy
  Ni  Ni0  1  0.50000000  0.50000000  0.00000000  1
  Ni  Ni1  1  0.75000000  0.25000000  0.50000000  1
  Ni  Ni2  1  0.25000000  0.75000000  0.50000000  1
  Ni  Ni3  1  0.00000000  0.00000000  0.00000000  1
  Cu  Cu4  1  0.12500000  0.37500000  0.75000000  1
  Cu  Cu5  1  0.37500000  0.12500000  0.25000000  1
  Cu  Cu6  1  0.62500000  0.87500000  0.75000000  1
  Cu  Cu7  1  0.87500000  0.62500000  0.25000000  1
  Cu  Cu8  1  0.25000000  0.25000000  0.00000000  1
  Cu  Cu9  1  0.50000000  0.00000000  0.50000000  1
  Cu  Cu10  1  0.75000000  0.75000000  0.00000000  1
  Cu  Cu11  1  0.00000000  0.50000000  0.50000000  1
  Cu  Cu12  1  0.37500000  0.62500000  0.75000000  1
  Cu  Cu13  1  0.62500000  0.37500000  0.25000000  1
  Cu  Cu14  1  0.87500000  0.12500000  0.75000000  1
  Cu  Cu15  1  0.12500000  0.87500000  0.25000000  1
  Cu  Cu16  1  0.37500000  0.12500000  0.75000000  1
  Cu  Cu17  1  0.62500000  0.87500000  0.25000000  1
  Cu  Cu18  1  0.87500000  0.62500000  0.75000000  1
  Cu  Cu19  1  0.12500000  0.37500000  0.25000000  1
  Cu  Cu20  1  0.50000000  0.50000000  0.50000000  1
  Cu  Cu21  1  0.75000000  0.25000000  0.00000000  1
  Cu  Cu22  1  0.00000000  0.00000000  0.50000000  1
  Cu  Cu23  1  0.25000000  0.75000000  0.00000000  1
  Cu  Cu24  1  0.62500000  0.37500000  0.75000000  1
  Cu  Cu25  1  0.87500000  0.12500000  0.25000000  1
  Cu  Cu26  1  0.12500000  0.87500000  0.75000000  1
  Cu  Cu27  1  0.37500000  0.62500000  0.25000000  1
  C  C28  1  0.37500000  0.37500000  0.75000000  1
  C  C29  1  0.62500000  0.12500000  0.25000000  1
  C  C30  1  0.87500000  0.87500000  0.75000000  1
  C  C31  1  0.12500000  0.62500000  0.25000000  1
  C  C32  1  0.62500000  0.62500000  0.25000000  1
  C  C33  1  0.87500000  0.37500000  0.75000000  1
  C  C34  1  0.12500000  0.12500000  0.25000000  1
  C  C35  1  0.37500000  0.87500000  0.75000000  1
  C  C36  1  0.21007800  0.00000000  0.00000000  1
  C  C37  1  0.46007800  0.75000000  0.50000000  1
  C  C38  1  0.71007800  0.50000000  0.00000000  1
  C  C39  1  0.96007800  0.25000000  0.50000000  1
  C  C40  1  0.64496100  0.14496100  0.71007800  1
  C  C41  1  0.89496100  0.89496100  0.21007800  1
  C  C42  1  0.14496100  0.64496100  0.71007800  1
  C  C43  1  0.39496100  0.39496100  0.21007800  1
  C  C44  1  0.50000000  0.28992200  0.00000000  1
  C  C45  1  0.75000000  0.03992200  0.50000000  1
  C  C46  1  0.00000000  0.78992200  0.00000000  1
  C  C47  1  0.25000000  0.53992200  0.50000000  1
  C  C48  1  0.35503900  0.85503900  0.28992200  1
  C  C49  1  0.60503900  0.60503900  0.78992200  1
  C  C50  1  0.85503900  0.35503900  0.28992200  1
  C  C51  1  0.10503900  0.10503900  0.78992200  1
  C  C52  1  0.50000000  0.71007800  0.00000000  1
  C  C53  1  0.75000000  0.46007800  0.50000000  1
  C  C54  1  0.00000000  0.21007800  0.00000000  1
  C  C55  1  0.25000000  0.96007800  0.50000000  1
  C  C56  1  0.78992200  0.00000000  0.00000000  1
  C  C57  1  0.03992200  0.75000000  0.50000000  1
  C  C58  1  0.28992200  0.50000000  0.00000000  1
  C  C59  1  0.53992200  0.25000000  0.50000000  1
