# generated using pymatgen
data_CuNiC5
_symmetry_space_group_name_H-M   'P 1'
_cell_length_a   5.05892100
_cell_length_b   6.08987600
_cell_length_c   11.22970000
_cell_angle_alpha   90.00000000
_cell_angle_beta   90.00000000
_cell_angle_gamma   90.00000000
_symmetry_Int_Tables_number   1
_chemical_formula_structural   CuNiC5
_chemical_formula_sum   'Cu4 Ni4 C20'
_cell_volume   345.96686133
_cell_formula_units_Z   4
loop_
 _symmetry_equiv_pos_site_id
 _symmetry_equiv_pos_as_xyz
  1  'x, y, z'
loop_
 _atom_site_type_symbol
 _atom_site_label
 _atom_site_symmetry_multiplicity
 _atom_site_fract_x
 _atom_site_fract_y
 _atom_site_fract_z
 _atom_site_occupancy
  C  C0  1  0.83066100  0.50008800  0.92136700  1
  C  C1  1  0.66933900  0.50008800  0.42136700  1
  C  C2  1  0.33066100  0.00008800  0.57863300  1
  C  C3  1  0.16933900  0.00008800  0.07863300  1
  Ni  Ni4  1  0.17019000  0.24806400  0.33047000  1
  Ni  Ni5  1  0.32981000  0.24806400  0.83047000  1
  Ni  Ni6  1  0.82981000  0.74806400  0.66953000  1
  Ni  Ni7  1  0.67019000  0.74806400  0.16953000  1
  Cu  Cu8  1  0.83177100  0.25086800  0.66740000  1
  Cu  Cu9  1  0.66822900  0.25086800  0.16740000  1
  Cu  Cu10  1  0.16822900  0.75086800  0.33260000  1
  Cu  Cu11  1  0.33177100  0.75086800  0.83260000  1
  C  C12  1  0.78184200  0.02464400  0.10395700  1
  C  C13  1  0.71815800  0.02464400  0.60395700  1
  C  C14  1  0.34503500  0.23096200  0.18131600  1
  C  C15  1  0.80094200  0.27126200  0.30165300  1
  C  C16  1  0.69905800  0.27126200  0.80165300  1
  C  C17  1  0.15496500  0.23096200  0.68131600  1
  C  C18  1  0.73734800  0.47393400  0.08949100  1
  C  C19  1  0.76265200  0.47393400  0.58949100  1
  C  C20  1  0.21815800  0.52464400  0.89604300  1
  C  C21  1  0.28184200  0.52464400  0.39604300  1
  C  C22  1  0.30094200  0.77126200  0.19834700  1
  C  C23  1  0.84503500  0.73096200  0.31868400  1
  C  C24  1  0.19905800  0.77126200  0.69834700  1
  C  C25  1  0.65496500  0.73096200  0.81868400  1
  C  C26  1  0.23734800  0.97393400  0.41050900  1
  C  C27  1  0.26265200  0.97393400  0.91050900  1
