# generated using pymatgen
data_CuNiC3
_symmetry_space_group_name_H-M   'P 1'
_cell_length_a   5.97899072
_cell_length_b   5.97899072
_cell_length_c   5.97899023
_cell_angle_alpha   64.72337449
_cell_angle_beta   64.72337449
_cell_angle_gamma   64.72337334
_symmetry_Int_Tables_number   1
_chemical_formula_structural   CuNiC3
_chemical_formula_sum   'Cu2 Ni2 C6'
_cell_volume   166.76267335
_cell_formula_units_Z   2
loop_
 _symmetry_equiv_pos_site_id
 _symmetry_equiv_pos_as_xyz
  1  'x, y, z'
loop_
 _atom_site_type_symbol
 _atom_site_label
 _atom_site_symmetry_multiplicity
 _atom_site_fract_x
 _atom_site_fract_y
 _atom_site_fract_z
 _atom_site_occupancy
  Ni  Ni0  1  0.86683300  0.86683300  0.86683300  1
  Ni  Ni1  1  0.13316700  0.13316700  0.13316700  1
  Cu  Cu2  1  0.64774600  0.64774600  0.64774600  1
  Cu  Cu3  1  0.35225400  0.35225400  0.35225400  1
  C  C4  1  0.23112800  0.51037800  0.02278300  1
  C  C5  1  0.02278300  0.23112800  0.51037800  1
  C  C6  1  0.51037800  0.02278400  0.23112800  1
  C  C7  1  0.48962200  0.97721700  0.76887200  1
  C  C8  1  0.97721700  0.76887200  0.48962200  1
  C  C9  1  0.76887200  0.48962200  0.97721700  1
