# generated using pymatgen
data_Cu20(Ni4C11)3
_symmetry_space_group_name_H-M   'P 1'
_cell_length_a   7.57697300
_cell_length_b   7.91744091
_cell_length_c   11.13535548
_cell_angle_alpha   107.41684304
_cell_angle_beta   93.51607248
_cell_angle_gamma   92.14368580
_symmetry_Int_Tables_number   1
_chemical_formula_structural   Cu20(Ni4C11)3
_chemical_formula_sum   'Cu20 Ni12 C33'
_cell_volume   635.09454650
_cell_formula_units_Z   1
loop_
 _symmetry_equiv_pos_site_id
 _symmetry_equiv_pos_as_xyz
  1  'x, y, z'
loop_
 _atom_site_type_symbol
 _atom_site_label
 _atom_site_symmetry_multiplicity
 _atom_site_fract_x
 _atom_site_fract_y
 _atom_site_fract_z
 _atom_site_occupancy
  C  C0  1  0.23293200  0.36401600  0.40512600  1
  C  C1  1  0.76706800  0.63598400  0.59487400  1
  C  C2  1  0.50000000  0.00000000  0.00000000  1
  Ni  Ni3  1  0.04564400  0.24734900  0.95307500  1
  Ni  Ni4  1  0.17329400  0.99206800  0.79774100  1
  Ni  Ni5  1  0.15011800  0.86383000  0.56400100  1
  Ni  Ni6  1  0.34238400  0.30230500  0.88415500  1
  Ni  Ni7  1  0.38384400  0.11277700  0.65135000  1
  Ni  Ni8  1  0.39682700  0.43795700  0.71284100  1
  Ni  Ni9  1  0.60317300  0.56204300  0.28715900  1
  Ni  Ni10  1  0.61615600  0.88722300  0.34865000  1
  Ni  Ni11  1  0.65761600  0.69769500  0.11584500  1
  Ni  Ni12  1  0.84988200  0.13617000  0.43599900  1
  Ni  Ni13  1  0.82670600  0.00793200  0.20225900  1
  Ni  Ni14  1  0.95435600  0.75265100  0.04692500  1
  Cu  Cu15  1  0.11464700  0.57058200  0.94929400  1
  Cu  Cu16  1  0.10959900  0.71158000  0.37909200  1
  Cu  Cu17  1  0.20960400  0.81477800  0.89720100  1
  Cu  Cu18  1  0.22918600  0.55547000  0.16526900  1
  Cu  Cu19  1  0.19685800  0.01789600  0.12470000  1
  Cu  Cu20  1  0.28425300  0.75091500  0.24830900  1
  Cu  Cu21  1  0.36758800  0.69810100  0.74363000  1
  Cu  Cu22  1  0.36665100  0.01751800  0.21554500  1
  Cu  Cu23  1  0.37313300  0.95769000  0.40799400  1
  Cu  Cu24  1  0.49028100  0.64740100  0.95627600  1
  Cu  Cu25  1  0.50971900  0.35259900  0.04372400  1
  Cu  Cu26  1  0.62686700  0.04231000  0.59200600  1
  Cu  Cu27  1  0.63334900  0.98248200  0.78445500  1
  Cu  Cu28  1  0.63241200  0.30189900  0.25637000  1
  Cu  Cu29  1  0.71574700  0.24908500  0.75169100  1
  Cu  Cu30  1  0.80314200  0.98210400  0.87530000  1
  Cu  Cu31  1  0.77081400  0.44453000  0.83473100  1
  Cu  Cu32  1  0.79039600  0.18522200  0.10279900  1
  Cu  Cu33  1  0.89040100  0.28842000  0.62090800  1
  Cu  Cu34  1  0.88535300  0.42941800  0.05070600  1
  C  C35  1  0.04072000  0.07241600  0.88419600  1
  C  C36  1  0.08668700  0.69723100  0.96587600  1
  C  C37  1  0.08563200  0.88274600  0.67932900  1
  C  C38  1  0.06945700  0.72786000  0.46474900  1
  C  C39  1  0.18079900  0.36621400  0.94820100  1
  C  C40  1  0.29314100  0.13721900  0.77382100  1
  C  C41  1  0.28802400  0.88333500  0.85638300  1
  C  C42  1  0.18908100  0.65509700  0.23190800  1
  C  C43  1  0.28605600  0.97386900  0.54825400  1
  C  C44  1  0.38406800  0.27899300  0.61950700  1
  C  C45  1  0.32131800  0.06569300  0.14600300  1
  C  C46  1  0.39629700  0.58958400  0.67592300  1
  C  C47  1  0.46963100  0.25015500  0.96929600  1
  C  C48  1  0.58722900  0.55389200  0.16104400  1
  C  C49  1  0.43272900  0.93567400  0.32742000  1
  C  C50  1  0.56727100  0.06432600  0.67258000  1
  C  C51  1  0.41277100  0.44610800  0.83895600  1
  C  C52  1  0.53036900  0.74984500  0.03070400  1
  C  C53  1  0.60370300  0.41041600  0.32407700  1
  C  C54  1  0.67868200  0.93430700  0.85399700  1
  C  C55  1  0.61593200  0.72100700  0.38049300  1
  C  C56  1  0.71394400  0.02613100  0.45174600  1
  C  C57  1  0.81091900  0.34490300  0.76809200  1
  C  C58  1  0.71197600  0.11666500  0.14361700  1
  C  C59  1  0.70685900  0.86278100  0.22617900  1
  C  C60  1  0.81920100  0.63378600  0.05179900  1
  C  C61  1  0.93054300  0.27214000  0.53525100  1
  C  C62  1  0.91436800  0.11725400  0.32067100  1
  C  C63  1  0.91331300  0.30276900  0.03412400  1
  C  C64  1  0.95928000  0.92758400  0.11580400  1
