# generated using pymatgen
data_Cu15(Ni2C)2
_symmetry_space_group_name_H-M   'P 1'
_cell_length_a   11.83644600
_cell_length_b   10.87708300
_cell_length_c   13.29475527
_cell_angle_alpha   57.52810929
_cell_angle_beta   90.00000000
_cell_angle_gamma   90.00000000
_symmetry_Int_Tables_number   1
_chemical_formula_structural   Cu15(Ni2C)2
_chemical_formula_sum   'Cu60 Ni16 C8'
_cell_volume   1444.03914520
_cell_formula_units_Z   4
loop_
 _symmetry_equiv_pos_site_id
 _symmetry_equiv_pos_as_xyz
  1  'x, y, z'
loop_
 _atom_site_type_symbol
 _atom_site_label
 _atom_site_symmetry_multiplicity
 _atom_site_fract_x
 _atom_site_fract_y
 _atom_site_fract_z
 _atom_site_occupancy
  C  C0  1  0.68245200  0.29112200  0.06985200  1
  C  C1  1  0.18245200  0.70887800  0.43014800  1
  C  C2  1  0.31754800  0.70887800  0.93014800  1
  C  C3  1  0.81754800  0.29112200  0.56985200  1
  C  C4  1  0.62775200  0.69041900  0.59538800  1
  C  C5  1  0.12775200  0.30958100  0.90461200  1
  C  C6  1  0.37224800  0.30958100  0.40461200  1
  C  C7  1  0.87224800  0.69041900  0.09538800  1
  Ni  Ni8  1  0.07282900  0.60742600  0.73193700  1
  Ni  Ni9  1  0.57282900  0.39257400  0.76806300  1
  Ni  Ni10  1  0.92717100  0.39257400  0.26806300  1
  Ni  Ni11  1  0.42717100  0.60742600  0.23193700  1
  Ni  Ni12  1  0.33559700  0.30686100  0.01623700  1
  Ni  Ni13  1  0.83559700  0.69313900  0.48376300  1
  Ni  Ni14  1  0.66440300  0.69313900  0.98376300  1
  Ni  Ni15  1  0.16440300  0.30686100  0.51623700  1
  Ni  Ni16  1  0.25377100  0.12000800  0.35619600  1
  Ni  Ni17  1  0.75377100  0.87999200  0.14380400  1
  Ni  Ni18  1  0.74622900  0.87999200  0.64380400  1
  Ni  Ni19  1  0.24622900  0.12000800  0.85619600  1
  Ni  Ni20  1  0.39684400  0.72974600  0.63953300  1
  Ni  Ni21  1  0.89684400  0.27025400  0.86046700  1
  Ni  Ni22  1  0.60315600  0.27025400  0.36046700  1
  Ni  Ni23  1  0.10315600  0.72974600  0.13953300  1
  Cu  Cu24  1  0.08302600  0.56703500  0.84178100  1
  Cu  Cu25  1  0.58302600  0.43296500  0.65821900  1
  Cu  Cu26  1  0.91697400  0.43296500  0.15821900  1
  Cu  Cu27  1  0.41697400  0.56703500  0.34178100  1
  Cu  Cu28  1  0.59715700  0.49300800  0.79041500  1
  Cu  Cu29  1  0.09715700  0.50699200  0.70958500  1
  Cu  Cu30  1  0.40284300  0.50699200  0.20958500  1
  Cu  Cu31  1  0.90284300  0.49300800  0.29041500  1
  Cu  Cu32  1  0.04318700  0.72953100  0.65251300  1
  Cu  Cu33  1  0.54318700  0.27046900  0.84748700  1
  Cu  Cu34  1  0.95681300  0.27046900  0.34748700  1
  Cu  Cu35  1  0.45681300  0.72953100  0.15251300  1
  Cu  Cu36  1  0.28957500  0.42501800  0.92895900  1
  Cu  Cu37  1  0.78957500  0.57498200  0.57104100  1
  Cu  Cu38  1  0.71042500  0.57498200  0.07104100  1
  Cu  Cu39  1  0.21042500  0.42501800  0.42895900  1
  Cu  Cu40  1  0.78273400  0.81118300  0.45193600  1
  Cu  Cu41  1  0.28273400  0.18881700  0.04806400  1
  Cu  Cu42  1  0.21726600  0.18881700  0.54806400  1
  Cu  Cu43  1  0.71726600  0.81118300  0.95193600  1
  Cu  Cu44  1  0.42292400  0.31060700  0.06466100  1
  Cu  Cu45  1  0.92292400  0.68939300  0.43533900  1
  Cu  Cu46  1  0.57707600  0.68939300  0.93533900  1
  Cu  Cu47  1  0.07707600  0.31060700  0.56466100  1
  Cu  Cu48  1  0.75479900  0.73959000  0.70636300  1
  Cu  Cu49  1  0.25479900  0.26041000  0.79363700  1
  Cu  Cu50  1  0.24520100  0.26041000  0.29363700  1
  Cu  Cu51  1  0.74520100  0.73959000  0.20636300  1
  Cu  Cu52  1  0.67358500  0.93372500  0.55906400  1
  Cu  Cu53  1  0.17358500  0.06627500  0.94093600  1
  Cu  Cu54  1  0.32641500  0.06627500  0.44093600  1
  Cu  Cu55  1  0.82641500  0.93372500  0.05906400  1
  Cu  Cu56  1  0.19527100  0.04236600  0.33510300  1
  Cu  Cu57  1  0.69527100  0.95763400  0.16489700  1
  Cu  Cu58  1  0.80472900  0.95763400  0.66489700  1
  Cu  Cu59  1  0.30472900  0.04236600  0.83510300  1
  Cu  Cu60  1  0.47751600  0.77805900  0.67302500  1
  Cu  Cu61  1  0.97751600  0.22194100  0.82697500  1
  Cu  Cu62  1  0.52248400  0.22194100  0.32697500  1
  Cu  Cu63  1  0.02248400  0.77805900  0.17302500  1
  Cu  Cu64  1  0.29706100  0.73297000  0.66427500  1
  Cu  Cu65  1  0.79706100  0.26703000  0.83572500  1
  Cu  Cu66  1  0.70293900  0.26703000  0.33572500  1
  Cu  Cu67  1  0.20293900  0.73297000  0.16427500  1
  Cu  Cu68  1  0.42663200  0.67568000  0.57690700  1
  Cu  Cu69  1  0.92663200  0.32432000  0.92309300  1
  Cu  Cu70  1  0.57336800  0.32432000  0.42309300  1
  Cu  Cu71  1  0.07336800  0.67568000  0.07690700  1
  Cu  Cu72  1  0.50168700  0.86832000  0.35061000  1
  Cu  Cu73  1  0.00168700  0.13168000  0.14939000  1
  Cu  Cu74  1  0.49831300  0.13168000  0.64939000  1
  Cu  Cu75  1  0.99831300  0.86832000  0.85061000  1
  Cu  Cu76  1  0.07384900  0.24112900  0.11325100  1
  Cu  Cu77  1  0.57384900  0.75887100  0.38674900  1
  Cu  Cu78  1  0.92615100  0.75887100  0.88674900  1
  Cu  Cu79  1  0.42615100  0.24112900  0.61325100  1
  Cu  Cu80  1  0.96110000  0.07507000  0.25281100  1
  Cu  Cu81  1  0.46110000  0.92493000  0.24718900  1
  Cu  Cu82  1  0.03890000  0.92493000  0.74718900  1
  Cu  Cu83  1  0.53890000  0.07507000  0.75281100  1
