# generated using pymatgen
data_Cu11Ni25C48
_symmetry_space_group_name_H-M   'P 1'
_cell_length_a   9.95099650
_cell_length_b   9.95099650
_cell_length_c   9.92570129
_cell_angle_alpha   80.54132318
_cell_angle_beta   80.54132318
_cell_angle_gamma   120.17730687
_symmetry_Int_Tables_number   1
_chemical_formula_structural   Cu11Ni25C48
_chemical_formula_sum   'Cu11 Ni25 C48'
_cell_volume   802.19662022
_cell_formula_units_Z   1
loop_
 _symmetry_equiv_pos_site_id
 _symmetry_equiv_pos_as_xyz
  1  'x, y, z'
loop_
 _atom_site_type_symbol
 _atom_site_label
 _atom_site_symmetry_multiplicity
 _atom_site_fract_x
 _atom_site_fract_y
 _atom_site_fract_z
 _atom_site_occupancy
  Ni  Ni0  1  0.14617700  0.14617700  0.06231800  1
  Ni  Ni1  1  0.25103000  0.41782000  0.24869300  1
  Ni  Ni2  1  0.08475200  0.58470600  0.24982500  1
  Ni  Ni3  1  0.41782000  0.25103000  0.24869300  1
  Ni  Ni4  1  0.25165300  0.91729500  0.25032500  1
  Ni  Ni5  1  0.00078100  0.66683100  0.50028300  1
  Ni  Ni6  1  0.33205700  0.33205700  0.49932400  1
  Ni  Ni7  1  0.08141100  0.08141100  0.75017700  1
  Ni  Ni8  1  0.58373800  0.58373800  0.25068600  1
  Ni  Ni9  1  0.91743700  0.75057900  0.25173000  1
  Ni  Ni10  1  0.58470600  0.08475200  0.24982500  1
  Ni  Ni11  1  0.08290100  0.58339900  0.74994700  1
  Ni  Ni12  1  0.75057900  0.91743700  0.25173000  1
  Ni  Ni13  1  0.41618600  0.24890600  0.74895700  1
  Ni  Ni14  1  0.24890600  0.41618600  0.74895700  1
  Ni  Ni15  1  0.16672100  0.50148200  0.99923600  1
  Ni  Ni16  1  0.66683100  0.00078100  0.50028300  1
  Ni  Ni17  1  0.41548300  0.75007300  0.74931400  1
  Ni  Ni18  1  0.91729500  0.25165300  0.25032500  1
  Ni  Ni19  1  0.91453500  0.74815700  0.75100300  1
  Ni  Ni20  1  0.74815700  0.91453500  0.75100300  1
  Ni  Ni21  1  0.58339900  0.08290100  0.74994700  1
  Ni  Ni22  1  0.75007300  0.41548300  0.74931400  1
  Ni  Ni23  1  0.50148200  0.16672100  0.99923600  1
  Ni  Ni24  1  0.83200300  0.83200300  0.00169900  1
  Cu  Cu25  1  0.02080800  0.02080800  0.43957700  1
  Cu  Cu26  1  0.48127900  0.81357000  0.06229600  1
  Cu  Cu27  1  0.35520800  0.68727700  0.43707500  1
  Cu  Cu28  1  0.31169700  0.97874600  0.56172800  1
  Cu  Cu29  1  0.81357000  0.48127900  0.06229600  1
  Cu  Cu30  1  0.64467900  0.64467900  0.56413300  1
  Cu  Cu31  1  0.68727700  0.35520800  0.43707500  1
  Cu  Cu32  1  0.18699000  0.85419700  0.93775600  1
  Cu  Cu33  1  0.51948900  0.51948900  0.93479500  1
  Cu  Cu34  1  0.97874600  0.31169700  0.56172800  1
  Cu  Cu35  1  0.85419700  0.18699000  0.93775600  1
  C  C36  1  0.04664500  0.85983900  0.36987400  1
  C  C37  1  0.30921400  0.12230700  0.13070300  1
  C  C38  1  0.12230700  0.30921400  0.13070300  1
  C  C39  1  0.05086100  0.38393800  0.35338500  1
  C  C40  1  0.27201200  0.60529000  0.13130900  1
  C  C41  1  0.11838300  0.78516700  0.14639900  1
  C  C42  1  0.22911900  0.22911900  0.36545500  1
  C  C43  1  0.45248200  0.45248200  0.14429600  1
  C  C44  1  0.52503100  0.37791500  0.36768100  1
  C  C45  1  0.19318200  0.71188600  0.36874700  1
  C  C46  1  0.02309100  0.87542100  0.86946200  1
  C  C47  1  0.37791500  0.52503100  0.36768100  1
  C  C48  1  0.45719000  0.97549600  0.13151400  1
  C  C49  1  0.78987700  0.64185900  0.13388300  1
  C  C50  1  0.13943400  0.28670500  0.63177100  1
  C  C51  1  0.28670500  0.13943400  0.63177100  1
  C  C52  1  0.64185900  0.78987700  0.13388300  1
  C  C53  1  0.93733100  0.93733100  0.13372500  1
  C  C54  1  0.60529000  0.27201200  0.13130900  1
  C  C55  1  0.10285100  0.77061100  0.63347000  1
  C  C56  1  0.38393800  0.05086100  0.35338500  1
  C  C57  1  0.43608000  0.43608000  0.63256600  1
  C  C58  1  0.71689800  0.71689800  0.35570700  1
  C  C59  1  0.21518200  0.21518200  0.85314600  1
  C  C60  1  0.06190100  0.39645700  0.86698100  1
  C  C61  1  0.28298800  0.61729700  0.64558800  1
  C  C62  1  0.56332500  0.89724000  0.36781700  1
  C  C63  1  0.78516700  0.11838300  0.14639900  1
  C  C64  1  0.21076000  0.69295700  0.86768800  1
  C  C65  1  0.71188600  0.19318200  0.36874700  1
  C  C66  1  0.35812800  0.54479200  0.86686800  1
  C  C67  1  0.85983900  0.04664500  0.36987400  1
  C  C68  1  0.54479200  0.35812800  0.86686800  1
  C  C69  1  0.62064400  0.80740100  0.63141300  1
  C  C70  1  0.80740100  0.62064400  0.63141300  1
  C  C71  1  0.47424800  0.95603300  0.63133400  1
  C  C72  1  0.97549600  0.45719000  0.13151400  1
  C  C73  1  0.77061100  0.10285100  0.63347000  1
  C  C74  1  0.54783500  0.88154600  0.85392300  1
  C  C75  1  0.89724000  0.56332500  0.36781700  1
  C  C76  1  0.39645700  0.06190100  0.86698100  1
  C  C77  1  0.61729700  0.28298800  0.64558800  1
  C  C78  1  0.72725200  0.72725200  0.86907800  1
  C  C79  1  0.94786200  0.94786200  0.64736200  1
  C  C80  1  0.69295700  0.21076000  0.86768800  1
  C  C81  1  0.87542100  0.02309100  0.86946200  1
  C  C82  1  0.95603300  0.47424800  0.63133400  1
  C  C83  1  0.88154600  0.54783500  0.85392300  1
