# generated using pymatgen
data_Cu5Ni7C6
_symmetry_space_group_name_H-M   'P 1'
_cell_length_a   4.68149400
_cell_length_b   5.61602088
_cell_length_c   7.80288040
_cell_angle_alpha   86.38536456
_cell_angle_beta   89.46263127
_cell_angle_gamma   88.94065521
_symmetry_Int_Tables_number   1
_chemical_formula_structural   Cu5Ni7C6
_chemical_formula_sum   'Cu5 Ni7 C6'
_cell_volume   204.69836177
_cell_formula_units_Z   1
loop_
 _symmetry_equiv_pos_site_id
 _symmetry_equiv_pos_as_xyz
  1  'x, y, z'
loop_
 _atom_site_type_symbol
 _atom_site_label
 _atom_site_symmetry_multiplicity
 _atom_site_fract_x
 _atom_site_fract_y
 _atom_site_fract_z
 _atom_site_occupancy
  C  C0  1  0.52240800  0.16248500  0.33422400  1
  C  C1  1  0.46591300  0.47902600  0.98587000  1
  C  C2  1  0.52451400  0.82395100  0.66221400  1
  C  C3  1  0.99571700  0.67840700  0.32207800  1
  C  C4  1  0.97035500  0.34467000  0.67191800  1
  C  C5  1  0.01301800  0.01237200  0.01610500  1
  Ni  Ni6  1  0.80887700  0.63065600  0.55570800  1
  Ni  Ni7  1  0.78483400  0.30063900  0.91033500  1
  Ni  Ni8  1  0.80601200  0.96590900  0.23810000  1
  Ni  Ni9  1  0.69145300  0.12967600  0.56969500  1
  Ni  Ni10  1  0.30321600  0.53258100  0.76656300  1
  Ni  Ni11  1  0.30423500  0.20736700  0.10625100  1
  Ni  Ni12  1  0.21031300  0.69554100  0.09793200  1
  Cu  Cu13  1  0.70789400  0.79590900  0.90177500  1
  Cu  Cu14  1  0.69315000  0.47040800  0.22703500  1
  Cu  Cu15  1  0.30460400  0.86896900  0.43386300  1
  Cu  Cu16  1  0.19842600  0.03271100  0.77082700  1
  Cu  Cu17  1  0.19506400  0.36872400  0.42950500  1
