# generated using pymatgen
data_Cu4Ni2C17
_symmetry_space_group_name_H-M   'P 1'
_cell_length_a   7.20611900
_cell_length_b   9.88786900
_cell_length_c   10.01289928
_cell_angle_alpha   63.47486736
_cell_angle_beta   90.00000000
_cell_angle_gamma   90.00000000
_symmetry_Int_Tables_number   1
_chemical_formula_structural   Cu4Ni2C17
_chemical_formula_sum   'Cu8 Ni4 C34'
_cell_volume   638.35186497
_cell_formula_units_Z   2
loop_
 _symmetry_equiv_pos_site_id
 _symmetry_equiv_pos_as_xyz
  1  'x, y, z'
loop_
 _atom_site_type_symbol
 _atom_site_label
 _atom_site_symmetry_multiplicity
 _atom_site_fract_x
 _atom_site_fract_y
 _atom_site_fract_z
 _atom_site_occupancy
  C  C0  1  0.50000000  0.50000000  0.00000000  1
  C  C1  1  0.00000000  0.50000000  0.50000000  1
  C  C2  1  0.52596400  0.29452900  0.44526900  1
  C  C3  1  0.02596400  0.70547100  0.05473100  1
  C  C4  1  0.47403600  0.70547100  0.55473100  1
  C  C5  1  0.97403600  0.29452900  0.94526900  1
  Ni  Ni6  1  0.43130300  0.86913400  0.94552300  1
  Ni  Ni7  1  0.93130300  0.13086600  0.55447700  1
  Ni  Ni8  1  0.56869700  0.13086600  0.05447700  1
  Ni  Ni9  1  0.06869700  0.86913400  0.44552300  1
  Cu  Cu10  1  0.42612100  0.94459700  0.68879600  1
  Cu  Cu11  1  0.92612100  0.05540300  0.81120400  1
  Cu  Cu12  1  0.57387900  0.05540300  0.31120400  1
  Cu  Cu13  1  0.07387900  0.94459700  0.18879600  1
  Cu  Cu14  1  0.50518200  0.31516100  0.75108700  1
  Cu  Cu15  1  0.00518200  0.68483900  0.74891300  1
  Cu  Cu16  1  0.49481800  0.68483900  0.24891300  1
  Cu  Cu17  1  0.99481800  0.31516100  0.25108700  1
  C  C18  1  0.59021100  0.07331500  0.58067900  1
  C  C19  1  0.09021100  0.92668500  0.91932100  1
  C  C20  1  0.40978900  0.92668500  0.41932100  1
  C  C21  1  0.90978900  0.07331500  0.08067900  1
  C  C22  1  0.65270600  0.34785200  0.60115000  1
  C  C23  1  0.15270600  0.65214800  0.89885000  1
  C  C24  1  0.34729400  0.65214800  0.39885000  1
  C  C25  1  0.84729400  0.34785200  0.10115000  1
  C  C26  1  0.56599200  0.50397100  0.28143800  1
  C  C27  1  0.06599200  0.49602900  0.21856200  1
  C  C28  1  0.43400800  0.49602900  0.71856200  1
  C  C29  1  0.93400800  0.50397100  0.78143800  1
  C  C30  1  0.84609500  0.27733000  0.39967500  1
  C  C31  1  0.34609500  0.72267000  0.10032500  1
  C  C32  1  0.15390500  0.72267000  0.60032500  1
  C  C33  1  0.65390500  0.27733000  0.89967500  1
  C  C34  1  0.47991800  0.22876200  0.28236600  1
  C  C35  1  0.97991800  0.77123800  0.21763400  1
  C  C36  1  0.52008200  0.77123800  0.71763400  1
  C  C37  1  0.02008200  0.22876200  0.78236600  1
  C  C38  1  0.31042900  0.30429100  0.49623700  1
  C  C39  1  0.81042900  0.69570900  0.00376300  1
  C  C40  1  0.68957100  0.69570900  0.50376300  1
  C  C41  1  0.18957100  0.30429100  0.99623700  1
  C  C42  1  0.50294500  0.94603900  0.85715400  1
  C  C43  1  0.00294500  0.05396100  0.64284600  1
  C  C44  1  0.49705500  0.05396100  0.14284600  1
  C  C45  1  0.99705500  0.94603900  0.35715400  1
