# generated using pymatgen
data_Cu2Ni3C23
_symmetry_space_group_name_H-M   'P 1'
_cell_length_a   6.11949727
_cell_length_b   6.11949727
_cell_length_c   9.81478910
_cell_angle_alpha   89.89256686
_cell_angle_beta   89.89256686
_cell_angle_gamma   60.40578082
_symmetry_Int_Tables_number   1
_chemical_formula_structural   Cu2Ni3C23
_chemical_formula_sum   'Cu2 Ni3 C23'
_cell_volume   319.59750774
_cell_formula_units_Z   1
loop_
 _symmetry_equiv_pos_site_id
 _symmetry_equiv_pos_as_xyz
  1  'x, y, z'
loop_
 _atom_site_type_symbol
 _atom_site_label
 _atom_site_symmetry_multiplicity
 _atom_site_fract_x
 _atom_site_fract_y
 _atom_site_fract_z
 _atom_site_occupancy
  C  C0  1  0.33215200  0.33215200  0.10470800  1
  C  C1  1  0.01803100  0.01803100  0.02040500  1
  C  C2  1  0.01129900  0.01129900  0.50207000  1
  C  C3  1  0.66873400  0.66873400  0.58742600  1
  C  C4  1  0.17076200  0.17076200  0.78539900  1
  C  C5  1  0.82613700  0.34073900  0.28758600  1
  C  C6  1  0.34073900  0.82613700  0.28758600  1
  Ni  Ni7  1  0.66031400  0.16779300  0.78651200  1
  Ni  Ni8  1  0.16779300  0.66031400  0.78651200  1
  Ni  Ni9  1  0.82856200  0.82856200  0.28703000  1
  Cu  Cu10  1  0.32741100  0.32741100  0.50645300  1
  Cu  Cu11  1  0.65602100  0.65602100  0.02169600  1
  C  C12  1  0.66227800  0.16712300  0.41156900  1
  C  C13  1  0.48277100  0.48277100  0.65205600  1
  C  C14  1  0.33374500  0.33374500  0.89753800  1
  C  C15  1  0.00129900  0.00129900  0.69129200  1
  C  C16  1  0.99937700  0.99937700  0.20193400  1
  C  C17  1  0.16712300  0.66227800  0.41156900  1
  C  C18  1  0.48186800  0.03958800  0.65295300  1
  C  C19  1  0.03958800  0.48186800  0.65295300  1
  C  C20  1  0.83097600  0.83097600  0.90501900  1
  C  C21  1  0.16879300  0.16879300  0.40633600  1
  C  C22  1  0.96139300  0.51897100  0.14541000  1
  C  C23  1  0.51897100  0.96139300  0.14541000  1
  C  C24  1  0.66657700  0.66657700  0.39188100  1
  C  C25  1  0.82965400  0.33380300  0.90537000  1
  C  C26  1  0.51413000  0.51413000  0.15211700  1
  C  C27  1  0.33380300  0.82965400  0.90537000  1
