# generated using pymatgen
data_Cu5NiC30
_symmetry_space_group_name_H-M   'P 1'
_cell_length_a   8.47175355
_cell_length_b   8.65061705
_cell_length_c   8.65061684
_cell_angle_alpha   59.99999890
_cell_angle_beta   59.29909625
_cell_angle_gamma   59.29909962
_symmetry_Int_Tables_number   1
_chemical_formula_structural   Cu5NiC30
_chemical_formula_sum   'Cu5 Ni1 C30'
_cell_volume   443.47519069
_cell_formula_units_Z   1
loop_
 _symmetry_equiv_pos_site_id
 _symmetry_equiv_pos_as_xyz
  1  'x, y, z'
loop_
 _atom_site_type_symbol
 _atom_site_label
 _atom_site_symmetry_multiplicity
 _atom_site_fract_x
 _atom_site_fract_y
 _atom_site_fract_z
 _atom_site_occupancy
  Ni  Ni0  1  0.57104600  0.14298400  0.14298400  1
  Cu  Cu1  1  0.00393800  0.99868700  0.99868700  1
  Cu  Cu2  1  0.06017600  0.64660800  0.64660800  1
  Cu  Cu3  1  0.50255300  0.49914900  0.49914900  1
  Cu  Cu4  1  0.43262900  0.85579000  0.85579000  1
  Cu  Cu5  1  0.93896300  0.35367900  0.35367900  1
  C  C6  1  0.25116200  0.25145500  0.54452600  1
  C  C7  1  0.25116200  0.95285700  0.25145500  1
  C  C8  1  0.25116200  0.54452600  0.95285700  1
  C  C9  1  0.74648700  0.45620300  0.04749900  1
  C  C10  1  0.74648700  0.04749900  0.74981200  1
  C  C11  1  0.74648700  0.74981200  0.45620300  1
  C  C12  1  0.06783400  0.10605900  0.32516600  1
  C  C13  1  0.06783400  0.50094100  0.10605900  1
  C  C14  1  0.06783400  0.32516600  0.50094100  1
  C  C15  1  0.22684800  0.09494600  0.74107500  1
  C  C16  1  0.43234300  0.18045600  0.38198000  1
  C  C17  1  0.28788700  0.40860300  0.55102300  1
  C  C18  1  0.22684800  0.93713100  0.09494600  1
  C  C19  1  0.28788700  0.75248600  0.40860300  1
  C  C20  1  0.56335200  0.61112000  0.00562100  1
  C  C21  1  0.28788700  0.55102300  0.75248600  1
  C  C22  1  0.77051300  0.25646000  0.06573700  1
  C  C23  1  0.56335200  0.00562100  0.81990600  1
  C  C24  1  0.43234300  0.00522100  0.18045600  1
  C  C25  1  0.22684800  0.74107500  0.93713100  1
  C  C26  1  0.71810700  0.44141000  0.24896700  1
  C  C27  1  0.43234300  0.38198000  0.00522100  1
  C  C28  1  0.71810700  0.24896700  0.59151600  1
  C  C29  1  0.77051300  0.06573700  0.90729000  1
  C  C30  1  0.71810700  0.59151600  0.44141000  1
  C  C31  1  0.56335200  0.81990600  0.61112000  1
  C  C32  1  0.77051300  0.90729000  0.25646000  1
  C  C33  1  0.93236500  0.68117600  0.49470000  1
  C  C34  1  0.93236500  0.49470000  0.89175900  1
  C  C35  1  0.93236500  0.89175900  0.68117600  1
