# generated using pymatgen
data_CuNiC12
_symmetry_space_group_name_H-M   'P 1'
_cell_length_a   6.13058700
_cell_length_b   9.54164500
_cell_length_c   10.50547541
_cell_angle_alpha   89.93192990
_cell_angle_beta   90.00000000
_cell_angle_gamma   90.00000000
_symmetry_Int_Tables_number   1
_chemical_formula_structural   CuNiC12
_chemical_formula_sum   'Cu4 Ni4 C48'
_cell_volume   614.52664585
_cell_formula_units_Z   4
loop_
 _symmetry_equiv_pos_site_id
 _symmetry_equiv_pos_as_xyz
  1  'x, y, z'
loop_
 _atom_site_type_symbol
 _atom_site_label
 _atom_site_symmetry_multiplicity
 _atom_site_fract_x
 _atom_site_fract_y
 _atom_site_fract_z
 _atom_site_occupancy
  C  C0  1  0.24914500  0.00003400  0.99957900  1
  C  C1  1  0.75085500  0.00003400  0.99957900  1
  C  C2  1  0.75062400  0.75009000  0.49991100  1
  C  C3  1  0.24937600  0.75009000  0.49991100  1
  C  C4  1  0.24957400  0.49985500  0.00021900  1
  C  C5  1  0.75042600  0.49985500  0.00021900  1
  C  C6  1  0.24935200  0.24995800  0.49992800  1
  C  C7  1  0.75064800  0.24995800  0.49992800  1
  Ni  Ni8  1  0.50000000  0.98739100  0.28142500  1
  Ni  Ni9  1  0.50000000  0.76236900  0.78147800  1
  Ni  Ni10  1  0.00000000  0.73753700  0.21882500  1
  Ni  Ni11  1  0.50000000  0.26268800  0.78151500  1
  Cu  Cu12  1  0.00000000  0.51350800  0.71833900  1
  Cu  Cu13  1  0.50000000  0.48604300  0.28154200  1
  Cu  Cu14  1  0.00000000  0.23686500  0.21799700  1
  Cu  Cu15  1  0.00000000  0.01358700  0.71833700  1
  C  C16  1  0.00000000  0.95791600  0.40773600  1
  C  C17  1  0.00000000  0.79417900  0.90549500  1
  C  C18  1  0.50000000  0.70479800  0.09372800  1
  C  C19  1  0.50000000  0.54167100  0.59226700  1
  C  C20  1  0.00000000  0.45654800  0.40671300  1
  C  C21  1  0.00000000  0.29399200  0.90636600  1
  C  C22  1  0.50000000  0.20851300  0.09380800  1
  C  C23  1  0.50000000  0.04228100  0.59319500  1
  C  C24  1  0.00000000  0.89671000  0.54527300  1
  C  C25  1  0.20139000  0.89020300  0.33834100  1
  C  C26  1  0.79861000  0.89020300  0.33834100  1
  C  C27  1  0.50000000  0.88103400  0.59517800  1
  C  C28  1  0.50000000  0.86654200  0.09635500  1
  C  C29  1  0.20132800  0.86203700  0.83638900  1
  C  C30  1  0.79867200  0.86203700  0.83638900  1
  C  C31  1  0.00000000  0.85489800  0.04325800  1
  C  C32  1  0.50000000  0.64438700  0.95639700  1
  C  C33  1  0.70110000  0.63804400  0.16362600  1
  C  C34  1  0.29890000  0.63804400  0.16362600  1
  C  C35  1  0.00000000  0.63301700  0.90246300  1
  C  C36  1  0.00000000  0.61804100  0.40422500  1
  C  C37  1  0.70262000  0.60716200  0.66272700  1
  C  C38  1  0.29738000  0.60716200  0.66272700  1
  C  C39  1  0.50000000  0.60430700  0.45541200  1
  C  C40  1  0.00000000  0.39512000  0.54380000  1
  C  C41  1  0.20234200  0.39086600  0.33615100  1
  C  C42  1  0.79765800  0.39086600  0.33615100  1
  C  C43  1  0.50000000  0.38070600  0.59541000  1
  C  C44  1  0.50000000  0.36933600  0.09635500  1
  C  C45  1  0.20099700  0.36201400  0.83707400  1
  C  C46  1  0.79900300  0.36201400  0.83707400  1
  C  C47  1  0.00000000  0.35347100  0.04455000  1
  C  C48  1  0.50000000  0.14496700  0.95748800  1
  C  C49  1  0.70300100  0.14254700  0.16375800  1
  C  C50  1  0.29699900  0.14254700  0.16375800  1
  C  C51  1  0.00000000  0.13255000  0.90249700  1
  C  C52  1  0.00000000  0.11884200  0.40299300  1
  C  C53  1  0.70270200  0.10725200  0.66359600  1
  C  C54  1  0.29729800  0.10725200  0.66359600  1
  C  C55  1  0.50000000  0.10606400  0.45699000  1
