# generated using pymatgen
data_CuNiC4
_symmetry_space_group_name_H-M   'P 1'
_cell_length_a   5.39035500
_cell_length_b   6.02921300
_cell_length_c   9.97622400
_cell_angle_alpha   90.00000000
_cell_angle_beta   90.00000000
_cell_angle_gamma   90.00000000
_symmetry_Int_Tables_number   1
_chemical_formula_structural   CuNiC4
_chemical_formula_sum   'Cu4 Ni4 C16'
_cell_volume   324.22327395
_cell_formula_units_Z   4
loop_
 _symmetry_equiv_pos_site_id
 _symmetry_equiv_pos_as_xyz
  1  'x, y, z'
loop_
 _atom_site_type_symbol
 _atom_site_label
 _atom_site_symmetry_multiplicity
 _atom_site_fract_x
 _atom_site_fract_y
 _atom_site_fract_z
 _atom_site_occupancy
  Ni  Ni0  1  0.35878900  0.75000000  0.18353200  1
  Ni  Ni1  1  0.85878900  0.25000000  0.31646800  1
  Ni  Ni2  1  0.14121100  0.75000000  0.68353200  1
  Ni  Ni3  1  0.64121100  0.25000000  0.81646800  1
  Cu  Cu4  1  0.43889100  0.25000000  0.11059700  1
  Cu  Cu5  1  0.93889100  0.75000000  0.38940300  1
  Cu  Cu6  1  0.06110900  0.25000000  0.61059700  1
  Cu  Cu7  1  0.56110900  0.75000000  0.88940300  1
  C  C8  1  0.58497000  0.75000000  0.04487400  1
  C  C9  1  0.71798600  0.25000000  0.14470000  1
  C  C10  1  0.28785900  0.05307100  0.17025500  1
  C  C11  1  0.28785900  0.44692900  0.17025500  1
  C  C12  1  0.78785900  0.55307100  0.32974500  1
  C  C13  1  0.78785900  0.94692900  0.32974500  1
  C  C14  1  0.21798600  0.75000000  0.35530000  1
  C  C15  1  0.08497000  0.25000000  0.45512600  1
  C  C16  1  0.91503000  0.75000000  0.54487400  1
  C  C17  1  0.78201400  0.25000000  0.64470000  1
  C  C18  1  0.21214100  0.05307100  0.67025500  1
  C  C19  1  0.21214100  0.44692900  0.67025500  1
  C  C20  1  0.71214100  0.55307100  0.82974500  1
  C  C21  1  0.71214100  0.94692900  0.82974500  1
  C  C22  1  0.28201400  0.75000000  0.85530000  1
  C  C23  1  0.41503000  0.25000000  0.95512600  1
