# generated using pymatgen
data_CuNiC11
_symmetry_space_group_name_H-M   'P 1'
_cell_length_a   7.25700100
_cell_length_b   6.04563200
_cell_length_c   10.34140663
_cell_angle_alpha   85.44186793
_cell_angle_beta   90.00000000
_cell_angle_gamma   90.00000000
_symmetry_Int_Tables_number   1
_chemical_formula_structural   CuNiC11
_chemical_formula_sum   'Cu2 Ni2 C22'
_cell_volume   452.27517453
_cell_formula_units_Z   2
loop_
 _symmetry_equiv_pos_site_id
 _symmetry_equiv_pos_as_xyz
  1  'x, y, z'
loop_
 _atom_site_type_symbol
 _atom_site_label
 _atom_site_symmetry_multiplicity
 _atom_site_fract_x
 _atom_site_fract_y
 _atom_site_fract_z
 _atom_site_occupancy
  C  C0  1  0.75000000  0.24047700  0.92322900  1
  C  C1  1  0.99952100  0.77736300  0.73174200  1
  C  C2  1  0.50047900  0.77736300  0.73174200  1
  C  C3  1  0.49952100  0.22263700  0.26825800  1
  C  C4  1  0.00047900  0.22263700  0.26825800  1
  C  C5  1  0.25000000  0.75952300  0.07677100  1
  C  C6  1  0.25000000  0.27748800  0.64357500  1
  C  C7  1  0.75000000  0.72251200  0.35642500  1
  Ni  Ni8  1  0.75000000  0.32057600  0.59654200  1
  Ni  Ni9  1  0.25000000  0.67942400  0.40345800  1
  Cu  Cu10  1  0.25000000  0.27343100  0.94320900  1
  Cu  Cu11  1  0.75000000  0.72656900  0.05679100  1
  C  C12  1  0.75000000  0.76758300  0.93229700  1
  C  C13  1  0.25000000  0.10482300  0.86833500  1
  C  C14  1  0.25000000  0.47522300  0.88935800  1
  C  C15  1  0.92179400  0.24386400  0.68157400  1
  C  C16  1  0.57820600  0.24386400  0.68157400  1
  C  C17  1  0.75000000  0.58303200  0.58067100  1
  C  C18  1  0.25000000  0.77363800  0.53633000  1
  C  C19  1  0.75000000  0.22636200  0.46367000  1
  C  C20  1  0.25000000  0.41696800  0.41932900  1
  C  C21  1  0.42179400  0.75613600  0.31842600  1
  C  C22  1  0.07820600  0.75613600  0.31842600  1
  C  C23  1  0.75000000  0.52477700  0.11064200  1
  C  C24  1  0.75000000  0.89517700  0.13166500  1
  C  C25  1  0.25000000  0.23241700  0.06770300  1
