# generated using pymatgen
data_CuNiC9
_symmetry_space_group_name_H-M   'P 1'
_cell_length_a   6.71411900
_cell_length_b   5.86252100
_cell_length_c   10.05060284
_cell_angle_alpha   89.23286966
_cell_angle_beta   90.00000000
_cell_angle_gamma   90.00000000
_symmetry_Int_Tables_number   1
_chemical_formula_structural   CuNiC9
_chemical_formula_sum   'Cu2 Ni2 C18'
_cell_volume   395.57298975
_cell_formula_units_Z   2
loop_
 _symmetry_equiv_pos_site_id
 _symmetry_equiv_pos_as_xyz
  1  'x, y, z'
loop_
 _atom_site_type_symbol
 _atom_site_label
 _atom_site_symmetry_multiplicity
 _atom_site_fract_x
 _atom_site_fract_y
 _atom_site_fract_z
 _atom_site_occupancy
  C  C0  1  0.54874900  0.74660400  0.78223500  1
  C  C1  1  0.04874900  0.25339600  0.21776500  1
  C  C2  1  0.22399600  0.22219600  0.65231700  1
  C  C3  1  0.72399600  0.77780400  0.34768300  1
  Ni  Ni4  1  0.73022400  0.27136400  0.55020100  1
  Ni  Ni5  1  0.23022400  0.72863600  0.44979900  1
  Cu  Cu6  1  0.26939900  0.27774900  0.90570600  1
  Cu  Cu7  1  0.76939900  0.72225100  0.09429400  1
  C  C8  1  0.79298900  0.69508300  0.97449400  1
  C  C9  1  0.25873400  0.07435200  0.84510200  1
  C  C10  1  0.25121400  0.44828400  0.81496000  1
  C  C11  1  0.91500100  0.23152600  0.63962300  1
  C  C12  1  0.54328900  0.22919200  0.63570800  1
  C  C13  1  0.23804500  0.89603700  0.56773500  1
  C  C14  1  0.73051200  0.51971500  0.49530500  1
  C  C15  1  0.23051200  0.48028500  0.50469500  1
  C  C16  1  0.73804500  0.10396300  0.43226500  1
  C  C17  1  0.04328900  0.77080800  0.36429200  1
  C  C18  1  0.41500100  0.76847400  0.36037700  1
  C  C19  1  0.75121400  0.55171600  0.18504000  1
  C  C20  1  0.75873400  0.92564800  0.15489800  1
  C  C21  1  0.29298900  0.30491700  0.02550600  1
