# generated using pymatgen
data_Cu6NiC29
_symmetry_space_group_name_H-M   'P 1'
_cell_length_a   8.66091268
_cell_length_b   8.66091268
_cell_length_c   8.66091282
_cell_angle_alpha   60.35909784
_cell_angle_beta   60.35909784
_cell_angle_gamma   60.35910204
_symmetry_Int_Tables_number   1
_chemical_formula_structural   Cu6NiC29
_chemical_formula_sum   'Cu6 Ni1 C29'
_cell_volume   463.11572650
_cell_formula_units_Z   1
loop_
 _symmetry_equiv_pos_site_id
 _symmetry_equiv_pos_as_xyz
  1  'x, y, z'
loop_
 _atom_site_type_symbol
 _atom_site_label
 _atom_site_symmetry_multiplicity
 _atom_site_fract_x
 _atom_site_fract_y
 _atom_site_fract_z
 _atom_site_occupancy
  C  C0  1  0.00241300  0.00241300  0.00241300  1
  C  C1  1  0.35553700  0.35553700  0.35553700  1
  C  C2  1  0.49976300  0.49976300  0.49976300  1
  C  C3  1  0.14378100  0.14378100  0.14378100  1
  C  C4  1  0.64231400  0.64231400  0.64231400  1
  Ni  Ni5  1  0.85548500  0.85548500  0.85548500  1
  Cu  Cu6  1  0.45210000  0.74766700  0.04584400  1
  Cu  Cu7  1  0.74766700  0.04584400  0.45210000  1
  Cu  Cu8  1  0.04584400  0.45210000  0.74766700  1
  Cu  Cu9  1  0.95670700  0.54037400  0.25316000  1
  Cu  Cu10  1  0.25316000  0.95670700  0.54037400  1
  Cu  Cu11  1  0.54037400  0.25316000  0.95670700  1
  C  C12  1  0.68823400  0.88689400  0.49615300  1
  C  C13  1  0.88689400  0.49615300  0.68823400  1
  C  C14  1  0.49615300  0.68823400  0.88689400  1
  C  C15  1  0.25833800  0.91027600  0.06157900  1
  C  C16  1  0.60615200  0.81107000  0.01671200  1
  C  C17  1  0.43555100  0.58807000  0.24163500  1
  C  C18  1  0.91027600  0.06157900  0.25833800  1
  C  C19  1  0.58807000  0.24163500  0.43555100  1
  C  C20  1  0.99474100  0.38799700  0.18611000  1
  C  C21  1  0.24163500  0.43555100  0.58807000  1
  C  C22  1  0.94331200  0.73971900  0.09119400  1
  C  C23  1  0.18611000  0.99474100  0.38799700  1
  C  C24  1  0.81107000  0.01671200  0.60615200  1
  C  C25  1  0.06157900  0.25833800  0.91027600  1
  C  C26  1  0.75945900  0.56006100  0.41021100  1
  C  C27  1  0.01671200  0.60615200  0.81107000  1
  C  C28  1  0.41021100  0.75945900  0.56006100  1
  C  C29  1  0.09119400  0.94331200  0.73971900  1
  C  C30  1  0.56006100  0.41021100  0.75945900  1
  C  C31  1  0.38799700  0.18611000  0.99474100  1
  C  C32  1  0.73971900  0.09119400  0.94331200  1
  C  C33  1  0.50273500  0.31688700  0.11179100  1
  C  C34  1  0.11179100  0.50273500  0.31688700  1
  C  C35  1  0.31688700  0.11179100  0.50273500  1
