# generated using pymatgen
data_Cu10NiC17
_symmetry_space_group_name_H-M   'P 1'
_cell_length_a   10.19205259
_cell_length_b   10.19205259
_cell_length_c   10.19205269
_cell_angle_alpha   34.09471792
_cell_angle_beta   34.09471792
_cell_angle_gamma   34.09471667
_symmetry_Int_Tables_number   1
_chemical_formula_structural   Cu10NiC17
_chemical_formula_sum   'Cu10 Ni1 C17'
_cell_volume   296.59432074
_cell_formula_units_Z   1
loop_
 _symmetry_equiv_pos_site_id
 _symmetry_equiv_pos_as_xyz
  1  'x, y, z'
loop_
 _atom_site_type_symbol
 _atom_site_label
 _atom_site_symmetry_multiplicity
 _atom_site_fract_x
 _atom_site_fract_y
 _atom_site_fract_z
 _atom_site_occupancy
  C  C0  1  0.50341300  0.50341300  0.50341300  1
  Ni  Ni1  1  0.68997300  0.68997300  0.68997300  1
  Cu  Cu2  1  0.00169000  0.00169000  0.00169000  1
  Cu  Cu3  1  0.25545000  0.25545000  0.74819500  1
  Cu  Cu4  1  0.25545000  0.74819500  0.25545000  1
  Cu  Cu5  1  0.19453400  0.19453400  0.19453400  1
  Cu  Cu6  1  0.74819500  0.25545000  0.25545000  1
  Cu  Cu7  1  0.81434500  0.81434500  0.81434500  1
  Cu  Cu8  1  0.75187300  0.25310900  0.75187300  1
  Cu  Cu9  1  0.75187300  0.75187300  0.25310900  1
  Cu  Cu10  1  0.25310900  0.75187300  0.75187300  1
  Cu  Cu11  1  0.31128700  0.31128700  0.31128700  1
  C  C12  1  0.89622200  0.89622200  0.34089700  1
  C  C13  1  0.89622200  0.34089700  0.89622200  1
  C  C14  1  0.12619900  0.12619900  0.12619900  1
  C  C15  1  0.34089700  0.89622200  0.89622200  1
  C  C16  1  0.13411100  0.61940700  0.61940700  1
  C  C17  1  0.38286200  0.38286200  0.38286200  1
  C  C18  1  0.61940700  0.13411100  0.61940700  1
  C  C19  1  0.61940700  0.61940700  0.13411100  1
  C  C20  1  0.39159300  0.39159300  0.86683600  1
  C  C21  1  0.39159300  0.86683600  0.39159300  1
  C  C22  1  0.62050700  0.62050700  0.62050700  1
  C  C23  1  0.86683600  0.39159300  0.39159300  1
  C  C24  1  0.88250300  0.88250300  0.88250300  1
  C  C25  1  0.66589100  0.10388200  0.10388200  1
  C  C26  1  0.10388200  0.10388200  0.66589100  1
  C  C27  1  0.10388200  0.66589100  0.10388200  1
