# generated using pymatgen
data_Cu2NiC4
_symmetry_space_group_name_H-M   'P 1'
_cell_length_a   3.05906900
_cell_length_b   9.47654600
_cell_length_c   9.88509900
_cell_angle_alpha   90.00000000
_cell_angle_beta   90.00000000
_cell_angle_gamma   90.00000000
_symmetry_Int_Tables_number   1
_chemical_formula_structural   Cu2NiC4
_chemical_formula_sum   'Cu8 Ni4 C16'
_cell_volume   286.56316898
_cell_formula_units_Z   4
loop_
 _symmetry_equiv_pos_site_id
 _symmetry_equiv_pos_as_xyz
  1  'x, y, z'
loop_
 _atom_site_type_symbol
 _atom_site_label
 _atom_site_symmetry_multiplicity
 _atom_site_fract_x
 _atom_site_fract_y
 _atom_site_fract_z
 _atom_site_occupancy
  Ni  Ni0  1  0.25000000  0.66214400  0.62031800  1
  Ni  Ni1  1  0.75000000  0.83785600  0.12031800  1
  Ni  Ni2  1  0.25000000  0.16214400  0.87968200  1
  Ni  Ni3  1  0.75000000  0.33785600  0.37968200  1
  Cu  Cu4  1  0.25000000  0.61237100  0.30733800  1
  Cu  Cu5  1  0.25000000  0.62054400  0.92936900  1
  Cu  Cu6  1  0.75000000  0.87945600  0.42936900  1
  Cu  Cu7  1  0.75000000  0.88762900  0.80733800  1
  Cu  Cu8  1  0.25000000  0.11237100  0.19266200  1
  Cu  Cu9  1  0.25000000  0.12054400  0.57063100  1
  Cu  Cu10  1  0.75000000  0.37945600  0.07063100  1
  Cu  Cu11  1  0.75000000  0.38762900  0.69266200  1
  C  C12  1  0.25000000  0.51605000  0.11584100  1
  C  C13  1  0.25000000  0.50189300  0.63272700  1
  C  C14  1  0.75000000  0.75498200  0.25609200  1
  C  C15  1  0.25000000  0.74301800  0.48321200  1
  C  C16  1  0.75000000  0.75698200  0.98321200  1
  C  C17  1  0.25000000  0.74501800  0.75609200  1
  C  C18  1  0.75000000  0.99810700  0.13272700  1
  C  C19  1  0.75000000  0.98395000  0.61584100  1
  C  C20  1  0.25000000  0.01605000  0.38415900  1
  C  C21  1  0.25000000  0.00189300  0.86727300  1
  C  C22  1  0.75000000  0.25498200  0.24390800  1
  C  C23  1  0.25000000  0.24301800  0.01678800  1
  C  C24  1  0.75000000  0.25698200  0.51678800  1
  C  C25  1  0.25000000  0.24501800  0.74390800  1
  C  C26  1  0.75000000  0.49810700  0.36727300  1
  C  C27  1  0.75000000  0.48395000  0.88415900  1
