# generated using pymatgen
data_CuNi2C15
_symmetry_space_group_name_H-M   'P 1'
_cell_length_a   8.67012522
_cell_length_b   8.67012522
_cell_length_c   8.67012574
_cell_angle_alpha   60.05991985
_cell_angle_beta   60.05991985
_cell_angle_gamma   60.05991631
_symmetry_Int_Tables_number   1
_chemical_formula_structural   CuNi2C15
_chemical_formula_sum   'Cu2 Ni4 C30'
_cell_volume   461.47747319
_cell_formula_units_Z   2
loop_
 _symmetry_equiv_pos_site_id
 _symmetry_equiv_pos_as_xyz
  1  'x, y, z'
loop_
 _atom_site_type_symbol
 _atom_site_label
 _atom_site_symmetry_multiplicity
 _atom_site_fract_x
 _atom_site_fract_y
 _atom_site_fract_z
 _atom_site_occupancy
  Ni  Ni0  1  0.14543700  0.14543700  0.14543700  1
  Ni  Ni1  1  0.35456300  0.35456300  0.35456300  1
  Ni  Ni2  1  0.64543700  0.64543700  0.64543700  1
  Ni  Ni3  1  0.85456300  0.85456300  0.85456300  1
  Cu  Cu4  1  0.00000000  0.00000000  0.00000000  1
  Cu  Cu5  1  0.50000000  0.50000000  0.50000000  1
  C  C6  1  0.75000000  0.04336400  0.45663600  1
  C  C7  1  0.04336400  0.45663600  0.75000000  1
  C  C8  1  0.45663600  0.75000000  0.04336400  1
  C  C9  1  0.54336400  0.25000000  0.95663600  1
  C  C10  1  0.95663600  0.54336400  0.25000000  1
  C  C11  1  0.25000000  0.95663600  0.54336400  1
  C  C12  1  0.30928700  0.11701700  0.50297000  1
  C  C13  1  0.50297000  0.30928700  0.11701700  1
  C  C14  1  0.91376900  0.05865900  0.26401400  1
  C  C15  1  0.11701700  0.50297000  0.30928700  1
  C  C16  1  0.80928700  0.00297000  0.61701700  1
  C  C17  1  0.58623100  0.23598600  0.44134100  1
  C  C18  1  0.05865900  0.26401400  0.91376900  1
  C  C19  1  0.23598600  0.44134100  0.58623100  1
  C  C20  1  0.38298300  0.19071300  0.99703000  1
  C  C21  1  0.44134100  0.58623100  0.23598600  1
  C  C22  1  0.73598600  0.08623100  0.94134100  1
  C  C23  1  0.99703000  0.38298300  0.19071300  1
  C  C24  1  0.00297000  0.61701700  0.80928700  1
  C  C25  1  0.26401400  0.91376900  0.05865900  1
  C  C26  1  0.55865900  0.41376900  0.76401400  1
  C  C27  1  0.61701700  0.80928700  0.00297000  1
  C  C28  1  0.76401400  0.55865900  0.41376900  1
  C  C29  1  0.94134100  0.73598600  0.08623100  1
  C  C30  1  0.41376900  0.76401400  0.55865900  1
  C  C31  1  0.19071300  0.99703000  0.38298300  1
  C  C32  1  0.88298300  0.49703000  0.69071300  1
  C  C33  1  0.08623100  0.94134100  0.73598600  1
  C  C34  1  0.49703000  0.69071300  0.88298300  1
  C  C35  1  0.69071300  0.88298300  0.49703000  1
