# generated using pymatgen
data_Cu2Ni7C10
_symmetry_space_group_name_H-M   'P 1'
_cell_length_a   9.50478400
_cell_length_b   11.82372530
_cell_length_c   13.60462665
_cell_angle_alpha   72.62801813
_cell_angle_beta   78.89730680
_cell_angle_gamma   70.13016761
_symmetry_Int_Tables_number   1
_chemical_formula_structural   Cu2Ni7C10
_chemical_formula_sum   'Cu8 Ni28 C40'
_cell_volume   1365.22179902
_cell_formula_units_Z   4
loop_
 _symmetry_equiv_pos_site_id
 _symmetry_equiv_pos_as_xyz
  1  'x, y, z'
loop_
 _atom_site_type_symbol
 _atom_site_label
 _atom_site_symmetry_multiplicity
 _atom_site_fract_x
 _atom_site_fract_y
 _atom_site_fract_z
 _atom_site_occupancy
  C  C0  1  0.47112600  0.30740600  0.73129700  1
  C  C1  1  0.52887400  0.69259400  0.26870300  1
  C  C2  1  0.25488800  0.28620000  0.67137000  1
  C  C3  1  0.74511200  0.71380000  0.32863000  1
  C  C4  1  0.43189900  0.09610500  0.77993200  1
  C  C5  1  0.56810100  0.90389500  0.22006800  1
  C  C6  1  0.23150700  0.63871900  0.75860900  1
  C  C7  1  0.76849300  0.36128100  0.24139100  1
  C  C8  1  0.01366100  0.61712700  0.70148500  1
  C  C9  1  0.98633900  0.38287300  0.29851500  1
  C  C10  1  0.96989000  0.72700900  0.84408100  1
  C  C11  1  0.03011000  0.27299100  0.15591900  1
  Ni  Ni12  1  0.57685200  0.31177500  0.82342400  1
  Ni  Ni13  1  0.42314800  0.68822500  0.17657600  1
  Ni  Ni14  1  0.61237200  0.27654500  0.62930900  1
  Ni  Ni15  1  0.38762800  0.72345500  0.37069100  1
  Ni  Ni16  1  0.07861100  0.25944200  0.68922100  1
  Ni  Ni17  1  0.92138900  0.74055800  0.31077900  1
  Ni  Ni18  1  0.33076400  0.25986500  0.54806000  1
  Ni  Ni19  1  0.66923600  0.74013500  0.45194000  1
  Ni  Ni20  1  0.57074300  0.04275800  0.86622100  1
  Ni  Ni21  1  0.42925700  0.95724200  0.13377900  1
  Ni  Ni22  1  0.53602300  0.03469000  0.67427300  1
  Ni  Ni23  1  0.46397700  0.96531000  0.32572700  1
  Ni  Ni24  1  0.31077700  0.00205100  0.82739000  1
  Ni  Ni25  1  0.68922300  0.99794900  0.17261000  1
  Ni  Ni26  1  0.36137100  0.61201300  0.84609200  1
  Ni  Ni27  1  0.63862900  0.38798700  0.15390800  1
  Ni  Ni28  1  0.25105100  0.78013600  0.67315300  1
  Ni  Ni29  1  0.74894900  0.21986400  0.32684700  1
  Ni  Ni30  1  0.85650800  0.56466500  0.71224000  1
  Ni  Ni31  1  0.14349200  0.43533500  0.28776000  1
  Ni  Ni32  1  0.97445300  0.75052600  0.59569300  1
  Ni  Ni33  1  0.02554700  0.24947400  0.40430700  1
  Ni  Ni34  1  0.02385800  0.74459400  0.95522100  1
  Ni  Ni35  1  0.97614200  0.25540600  0.04477900  1
  Ni  Ni36  1  0.93786800  0.88017600  0.76365500  1
  Ni  Ni37  1  0.06213200  0.11982400  0.23634500  1
  Ni  Ni38  1  0.78303600  0.72260100  0.88325000  1
  Ni  Ni39  1  0.21696400  0.27739900  0.11675000  1
  Cu  Cu40  1  0.28524800  0.25852000  0.82962200  1
  Cu  Cu41  1  0.71475200  0.74148000  0.17037800  1
  Cu  Cu42  1  0.08815800  0.53378600  0.85287200  1
  Cu  Cu43  1  0.91184200  0.46621400  0.14712800  1
  Cu  Cu44  1  0.37123700  0.51058900  0.65939100  1
  Cu  Cu45  1  0.62876300  0.48941100  0.34060900  1
  Cu  Cu46  1  0.18960900  0.49413000  0.61168400  1
  Cu  Cu47  1  0.81039100  0.50587000  0.38831600  1
  C  C48  1  0.64535800  0.30955300  0.88583000  1
  C  C49  1  0.35464200  0.69044700  0.11417000  1
  C  C50  1  0.70682500  0.25234400  0.56433500  1
  C  C51  1  0.29317500  0.74765600  0.43566500  1
  C  C52  1  0.96357000  0.24083300  0.70404900  1
  C  C53  1  0.03643000  0.75916700  0.29595100  1
  C  C54  1  0.37889000  0.24493500  0.46635500  1
  C  C55  1  0.62111000  0.75506500  0.53364500  1
  C  C56  1  0.66188100  0.00704300  0.92305600  1
  C  C57  1  0.33811900  0.99295700  0.07694400  1
  C  C58  1  0.60594100  0.99022200  0.60846400  1
  C  C59  1  0.39405900  0.00977800  0.39153600  1
  C  C60  1  0.23091900  0.94151300  0.85998700  1
  C  C61  1  0.76908100  0.05848700  0.14001300  1
  C  C62  1  0.44453500  0.59578800  0.90415400  1
  C  C63  1  0.55546500  0.40421200  0.09584600  1
  C  C64  1  0.26385300  0.87445200  0.62207500  1
  C  C65  1  0.73614700  0.12554800  0.37792500  1
  C  C66  1  0.75126100  0.53265800  0.72122800  1
  C  C67  1  0.24873900  0.46734200  0.27877200  1
  C  C68  1  0.94645000  0.83692700  0.52652200  1
  C  C69  1  0.05355000  0.16307300  0.47347800  1
  C  C70  1  0.05326300  0.75691300  0.02907100  1
  C  C71  1  0.94673700  0.24308700  0.97092900  1
  C  C72  1  0.91380900  0.98120800  0.71315200  1
  C  C73  1  0.08619100  0.01879200  0.28684800  1
  C  C74  1  0.65960600  0.72392700  0.91023800  1
  C  C75  1  0.34039400  0.27607300  0.08976200  1
