# generated using pymatgen
data_Cu8Ni2C
_symmetry_space_group_name_H-M   'P 1'
_cell_length_a   8.87202793
_cell_length_b   8.87202793
_cell_length_c   8.87202778
_cell_angle_alpha   56.02783365
_cell_angle_beta   56.02783365
_cell_angle_gamma   56.02782755
_symmetry_Int_Tables_number   1
_chemical_formula_structural   Cu8Ni2C
_chemical_formula_sum   'Cu24 Ni6 C3'
_cell_volume   448.36721917
_cell_formula_units_Z   3
loop_
 _symmetry_equiv_pos_site_id
 _symmetry_equiv_pos_as_xyz
  1  'x, y, z'
loop_
 _atom_site_type_symbol
 _atom_site_label
 _atom_site_symmetry_multiplicity
 _atom_site_fract_x
 _atom_site_fract_y
 _atom_site_fract_z
 _atom_site_occupancy
  C  C0  1  0.14848100  0.14848100  0.14848100  1
  C  C1  1  0.64758100  0.64758100  0.64758100  1
  C  C2  1  0.84999600  0.84999600  0.84999600  1
  Ni  Ni3  1  0.75202400  0.04249700  0.45775800  1
  Ni  Ni4  1  0.04249700  0.45775800  0.75202400  1
  Ni  Ni5  1  0.45775800  0.75202400  0.04249700  1
  Ni  Ni6  1  0.53786000  0.25661100  0.95977800  1
  Ni  Ni7  1  0.95977800  0.53786000  0.25661100  1
  Ni  Ni8  1  0.25661100  0.95977800  0.53786000  1
  Cu  Cu9  1  0.27220800  0.11480200  0.53096600  1
  Cu  Cu10  1  0.53096600  0.27220800  0.11480200  1
  Cu  Cu11  1  0.96304900  0.99721300  0.33332800  1
  Cu  Cu12  1  0.11480200  0.53096600  0.27220800  1
  Cu  Cu13  1  0.73138200  0.00824400  0.65755800  1
  Cu  Cu14  1  0.62491900  0.23224500  0.38501600  1
  Cu  Cu15  1  0.23224500  0.38501600  0.62491900  1
  Cu  Cu16  1  0.99721300  0.33332800  0.96304900  1
  Cu  Cu17  1  0.38501600  0.62491900  0.23224500  1
  Cu  Cu18  1  0.68466200  0.05138200  0.95084200  1
  Cu  Cu19  1  0.35077100  0.27946600  0.97509200  1
  Cu  Cu20  1  0.97509200  0.35077100  0.27946600  1
  Cu  Cu21  1  0.00824400  0.65755800  0.73138200  1
  Cu  Cu22  1  0.65755800  0.73138200  0.00824400  1
  Cu  Cu23  1  0.33332800  0.96304900  0.99721300  1
  Cu  Cu24  1  0.61173700  0.39759600  0.76194100  1
  Cu  Cu25  1  0.95084200  0.68466200  0.05138200  1
  Cu  Cu26  1  0.76194100  0.61173700  0.39759600  1
  Cu  Cu27  1  0.39759600  0.76194100  0.61173700  1
  Cu  Cu28  1  0.27946600  0.97509200  0.35077100  1
  Cu  Cu29  1  0.88390300  0.49034000  0.70371200  1
  Cu  Cu30  1  0.05138200  0.95084200  0.68466200  1
  Cu  Cu31  1  0.49034000  0.70371200  0.88390300  1
  Cu  Cu32  1  0.70371200  0.88390300  0.49034000  1
