# generated using pymatgen
data_Cu2Ni4C17
_symmetry_space_group_name_H-M   'P 1'
_cell_length_a   8.70283900
_cell_length_b   8.71786911
_cell_length_c   10.05370316
_cell_angle_alpha   90.77324192
_cell_angle_beta   89.82371910
_cell_angle_gamma   119.85542520
_symmetry_Int_Tables_number   1
_chemical_formula_structural   Cu2Ni4C17
_chemical_formula_sum   'Cu6 Ni12 C51'
_cell_volume   661.47807929
_cell_formula_units_Z   3
loop_
 _symmetry_equiv_pos_site_id
 _symmetry_equiv_pos_as_xyz
  1  'x, y, z'
loop_
 _atom_site_type_symbol
 _atom_site_label
 _atom_site_symmetry_multiplicity
 _atom_site_fract_x
 _atom_site_fract_y
 _atom_site_fract_z
 _atom_site_occupancy
  C  C0  1  0.57741600  0.96292300  0.73304400  1
  C  C1  1  0.24168900  0.96225600  0.72725200  1
  C  C2  1  0.41498100  0.84172600  0.23786200  1
  C  C3  1  0.09804600  0.91851400  0.23778100  1
  C  C4  1  0.74285300  0.83687100  0.24439600  1
  C  C5  1  0.90885700  0.62528400  0.72936600  1
  C  C6  1  0.58515900  0.64503900  0.73703300  1
  C  C7  1  0.77990500  0.53927300  0.22858000  1
  C  C8  1  0.22484100  0.45610100  0.77132400  1
  C  C9  1  0.42961500  0.34546900  0.26969800  1
  C  C10  1  0.12370000  0.40886800  0.27694300  1
  C  C11  1  0.55938100  0.29776900  0.72968300  1
  C  C12  1  0.89571200  0.30745700  0.73005400  1
  C  C13  1  0.73203700  0.18405700  0.24426800  1
  C  C14  1  0.93706100  0.01837800  0.74645100  1
  Ni  Ni15  1  0.32891100  0.99057800  0.99993900  1
  Ni  Ni16  1  0.35459700  0.84625700  0.49947700  1
  Ni  Ni17  1  0.00936100  0.83657400  0.50006900  1
  Ni  Ni18  1  0.65334900  0.65434100  0.99836200  1
  Ni  Ni19  1  0.98543500  0.65905500  0.99685300  1
  Ni  Ni20  1  0.67866600  0.51254900  0.50291200  1
  Ni  Ni21  1  0.35122300  0.51541100  0.49750400  1
  Ni  Ni22  1  0.31159100  0.31509600  0.99790300  1
  Ni  Ni23  1  0.98025900  0.31820500  0.99437200  1
  Ni  Ni24  1  0.67991100  0.18149800  0.50188900  1
  Ni  Ni25  1  0.01441200  0.17089900  0.49543100  1
  Ni  Ni26  1  0.65427300  0.98839400  0.99717000  1
  Cu  Cu27  1  0.99007800  0.99125900  0.99890200  1
  Cu  Cu28  1  0.68548300  0.85028100  0.49849700  1
  Cu  Cu29  1  0.32041400  0.65845400  0.99768700  1
  Cu  Cu30  1  0.01462400  0.51427500  0.49725900  1
  Cu  Cu31  1  0.64839100  0.31909800  0.99693600  1
  Cu  Cu32  1  0.34368000  0.17438900  0.50191600  1
  C  C33  1  0.91876900  0.94605700  0.38988200  1
  C  C34  1  0.57635100  0.96756000  0.38581400  1
  C  C35  1  0.22184100  0.93409600  0.40143000  1
  C  C36  1  0.75196000  0.88363700  0.88791000  1
  C  C37  1  0.43792600  0.87933700  0.90074600  1
  C  C38  1  0.11988700  0.88519700  0.89524900  1
  C  C39  1  0.88477100  0.76282900  0.11467500  1
  C  C40  1  0.56355500  0.78434800  0.10430300  1
  C  C41  1  0.22446000  0.77878800  0.09678000  1
  C  C42  1  0.79804200  0.72790900  0.60514500  1
  C  C43  1  0.45387700  0.72724300  0.60568000  1
  C  C44  1  0.11201500  0.72810200  0.60071300  1
  C  C45  1  0.89303700  0.61646400  0.40324400  1
  C  C46  1  0.56828100  0.60700500  0.39734800  1
  C  C47  1  0.25212900  0.61829400  0.39180200  1
  C  C48  1  0.75568800  0.55413600  0.88444600  1
  C  C49  1  0.41823300  0.54353300  0.89552900  1
  C  C50  1  0.07000600  0.52306100  0.88809600  1
  C  C51  1  0.85744700  0.42242200  0.09975500  1
  C  C52  1  0.54784300  0.43107700  0.10305000  1
  C  C53  1  0.19811800  0.43941600  0.09491800  1
  C  C54  1  0.77967000  0.40738800  0.61599600  1
  C  C55  1  0.46865500  0.42206600  0.60550900  1
  C  C56  1  0.13173300  0.41207100  0.59616700  1
  C  C57  1  0.90761500  0.30015200  0.39578600  1
  C  C58  1  0.58152100  0.30603000  0.39733900  1
  C  C59  1  0.23893500  0.30361700  0.39530300  1
  C  C60  1  0.74970800  0.20093400  0.89474200  1
  C  C61  1  0.43191400  0.19955300  0.89848800  1
  C  C62  1  0.08829800  0.21948500  0.87984800  1
  C  C63  1  0.86491200  0.11062500  0.09974200  1
  C  C64  1  0.53734700  0.07811200  0.10357600  1
  C  C65  1  0.22691200  0.10403600  0.10327300  1
  C  C66  1  0.80671600  0.08563200  0.61449200  1
  C  C67  1  0.46453200  0.06658200  0.61839400  1
  C  C68  1  0.11050900  0.04296200  0.60668300  1
