# generated using pymatgen
data_CuNiC
_symmetry_space_group_name_H-M   'P 1'
_cell_length_a   3.10456200
_cell_length_b   4.74847300
_cell_length_c   18.89640919
_cell_angle_alpha   89.97970616
_cell_angle_beta   90.00000000
_cell_angle_gamma   90.00000000
_symmetry_Int_Tables_number   1
_chemical_formula_structural   CuNiC
_chemical_formula_sum   'Cu8 Ni8 C8'
_cell_volume   278.56950195
_cell_formula_units_Z   8
loop_
 _symmetry_equiv_pos_site_id
 _symmetry_equiv_pos_as_xyz
  1  'x, y, z'
loop_
 _atom_site_type_symbol
 _atom_site_label
 _atom_site_symmetry_multiplicity
 _atom_site_fract_x
 _atom_site_fract_y
 _atom_site_fract_z
 _atom_site_occupancy
  C  C0  1  0.00000000  0.96266500  0.12480300  1
  C  C1  1  0.00000000  0.03733500  0.87519700  1
  C  C2  1  0.00000000  0.96558900  0.37477100  1
  C  C3  1  0.00000000  0.03441100  0.62522900  1
  C  C4  1  0.50000000  0.50000000  0.00000000  1
  C  C5  1  0.50000000  0.59005100  0.74954000  1
  C  C6  1  0.50000000  0.40994900  0.25046000  1
  C  C7  1  0.50000000  0.50000000  0.50000000  1
  Ni  Ni8  1  0.50000000  0.77849300  0.07511700  1
  Ni  Ni9  1  0.50000000  0.84397700  0.82642900  1
  Ni  Ni10  1  0.00000000  0.74801900  0.69837700  1
  Ni  Ni11  1  0.00000000  0.68561100  0.44960500  1
  Ni  Ni12  1  0.00000000  0.25198100  0.30162300  1
  Ni  Ni13  1  0.00000000  0.31438900  0.55039500  1
  Ni  Ni14  1  0.50000000  0.22150700  0.92488300  1
  Ni  Ni15  1  0.50000000  0.15602300  0.17357100  1
  Cu  Cu16  1  0.50000000  0.76276900  0.32385700  1
  Cu  Cu17  1  0.50000000  0.82629700  0.57607700  1
  Cu  Cu18  1  0.00000000  0.70904800  0.95153600  1
  Cu  Cu19  1  0.00000000  0.65393300  0.20417500  1
  Cu  Cu20  1  0.00000000  0.29095200  0.04846400  1
  Cu  Cu21  1  0.00000000  0.34606700  0.79582500  1
  Cu  Cu22  1  0.50000000  0.17370300  0.42392300  1
  Cu  Cu23  1  0.50000000  0.23723100  0.67614300  1
