# generated using pymatgen
data_Cu8Ni2C5
_symmetry_space_group_name_H-M   'P 1'
_cell_length_a   4.88546700
_cell_length_b   6.71982100
_cell_length_c   11.33671171
_cell_angle_alpha   75.63727672
_cell_angle_beta   90.00000000
_cell_angle_gamma   90.00000000
_symmetry_Int_Tables_number   1
_chemical_formula_structural   Cu8Ni2C5
_chemical_formula_sum   'Cu16 Ni4 C10'
_cell_volume   360.54564600
_cell_formula_units_Z   2
loop_
 _symmetry_equiv_pos_site_id
 _symmetry_equiv_pos_as_xyz
  1  'x, y, z'
loop_
 _atom_site_type_symbol
 _atom_site_label
 _atom_site_symmetry_multiplicity
 _atom_site_fract_x
 _atom_site_fract_y
 _atom_site_fract_z
 _atom_site_occupancy
  C  C0  1  0.50000000  0.00000000  0.50000000  1
  C  C1  1  0.00000000  0.00000000  0.00000000  1
  C  C2  1  0.40871400  0.82157800  0.92638000  1
  C  C3  1  0.09128600  0.82157800  0.42638000  1
  C  C4  1  0.23399800  0.65949800  0.54037000  1
  C  C5  1  0.73399800  0.34050200  0.95963000  1
  C  C6  1  0.26600200  0.65949800  0.04037000  1
  C  C7  1  0.76600200  0.34050200  0.45963000  1
  C  C8  1  0.90871400  0.17842200  0.57362000  1
  C  C9  1  0.59128600  0.17842200  0.07362000  1
  Ni  Ni10  1  0.86110900  0.73963300  0.76806600  1
  Ni  Ni11  1  0.63889100  0.73963300  0.26806600  1
  Ni  Ni12  1  0.36110900  0.26036700  0.73193400  1
  Ni  Ni13  1  0.13889100  0.26036700  0.23193400  1
  Cu  Cu14  1  0.68774600  0.92908000  0.83631300  1
  Cu  Cu15  1  0.22781000  0.77552800  0.96675300  1
  Cu  Cu16  1  0.81225400  0.92908000  0.33631300  1
  Cu  Cu17  1  0.70994500  0.79081600  0.61493800  1
  Cu  Cu18  1  0.27219000  0.77552800  0.46675300  1
  Cu  Cu19  1  0.65110600  0.51665500  0.84113900  1
  Cu  Cu20  1  0.79005500  0.79081600  0.11493800  1
  Cu  Cu21  1  0.15110600  0.48334500  0.65886100  1
  Cu  Cu22  1  0.84889400  0.51665500  0.34113900  1
  Cu  Cu23  1  0.20994500  0.20918400  0.88506200  1
  Cu  Cu24  1  0.34889400  0.48334500  0.15886100  1
  Cu  Cu25  1  0.72781000  0.22447200  0.53324700  1
  Cu  Cu26  1  0.29005500  0.20918400  0.38506200  1
  Cu  Cu27  1  0.18774600  0.07092000  0.66368700  1
  Cu  Cu28  1  0.77219000  0.22447200  0.03324700  1
  Cu  Cu29  1  0.31225400  0.07092000  0.16368700  1
