# generated using pymatgen
data_Cu9Ni3C4
_symmetry_space_group_name_H-M   'P 1'
_cell_length_a   5.20720700
_cell_length_b   5.41086256
_cell_length_c   17.39592217
_cell_angle_alpha   89.34228338
_cell_angle_beta   98.28032163
_cell_angle_gamma   118.56166801
_symmetry_Int_Tables_number   1
_chemical_formula_structural   Cu9Ni3C4
_chemical_formula_sum   'Cu18 Ni6 C8'
_cell_volume   425.07315205
_cell_formula_units_Z   2
loop_
 _symmetry_equiv_pos_site_id
 _symmetry_equiv_pos_as_xyz
  1  'x, y, z'
loop_
 _atom_site_type_symbol
 _atom_site_label
 _atom_site_symmetry_multiplicity
 _atom_site_fract_x
 _atom_site_fract_y
 _atom_site_fract_z
 _atom_site_occupancy
  C  C0  1  0.74967400  0.37452100  0.12520200  1
  C  C1  1  0.74602000  0.89569400  0.63039400  1
  C  C2  1  0.52274600  0.73203900  0.24964600  1
  C  C3  1  0.51305600  0.25351100  0.75063000  1
  C  C4  1  0.21496800  0.09677200  0.37303100  1
  C  C5  1  0.21512400  0.61206700  0.87317300  1
  C  C6  1  0.97777200  0.01569000  0.00155100  1
  C  C7  1  0.97207600  0.47224100  0.50506500  1
  Ni  Ni8  1  0.79962300  0.19915200  0.55996300  1
  Ni  Ni9  1  0.84139200  0.20089600  0.03992200  1
  Ni  Ni10  1  0.85327400  0.91928200  0.33537600  1
  Ni  Ni11  1  0.85433300  0.42485900  0.83454600  1
  Ni  Ni12  1  0.65831800  0.54750700  0.20963200  1
  Ni  Ni13  1  0.67338000  0.04418600  0.70380800  1
  Cu  Cu14  1  0.32497300  0.15241100  0.08562900  1
  Cu  Cu15  1  0.77191800  0.67926700  0.05942400  1
  Cu  Cu16  1  0.72410900  0.06673000  0.18935000  1
  Cu  Cu17  1  0.34434500  0.95662900  0.29108200  1
  Cu  Cu18  1  0.32772200  0.66747900  0.58502200  1
  Cu  Cu19  1  0.34135400  0.47336200  0.78853200  1
  Cu  Cu20  1  0.17271000  0.59626000  0.16494000  1
  Cu  Cu21  1  0.17376900  0.08690100  0.66282300  1
  Cu  Cu22  1  0.18069400  0.29450800  0.46130700  1
  Cu  Cu23  1  0.28348500  0.43718900  0.31480600  1
  Cu  Cu24  1  0.72747100  0.56957900  0.68491900  1
  Cu  Cu25  1  0.82329800  0.71540700  0.53968600  1
  Cu  Cu26  1  0.16921000  0.79491500  0.96211200  1
  Cu  Cu27  1  0.66071900  0.32835100  0.41337700  1
  Cu  Cu28  1  0.28203400  0.94553600  0.81519700  1
  Cu  Cu29  1  0.22607500  0.31297400  0.93728300  1
  Cu  Cu30  1  0.21176100  0.80236800  0.44057000  1
  Cu  Cu31  1  0.66259400  0.83171500  0.91200300  1
