# generated using pymatgen
data_Cu11NiC16
_symmetry_space_group_name_H-M   'P 1'
_cell_length_a   6.07363600
_cell_length_b   8.61537000
_cell_length_c   12.13420300
_cell_angle_alpha   90.00000000
_cell_angle_beta   90.00000000
_cell_angle_gamma   90.00000000
_symmetry_Int_Tables_number   1
_chemical_formula_structural   Cu11NiC16
_chemical_formula_sum   'Cu22 Ni2 C32'
_cell_volume   634.94184619
_cell_formula_units_Z   2
loop_
 _symmetry_equiv_pos_site_id
 _symmetry_equiv_pos_as_xyz
  1  'x, y, z'
loop_
 _atom_site_type_symbol
 _atom_site_label
 _atom_site_symmetry_multiplicity
 _atom_site_fract_x
 _atom_site_fract_y
 _atom_site_fract_z
 _atom_site_occupancy
  Ni  Ni0  1  0.50000000  0.50000000  0.00000000  1
  Ni  Ni1  1  0.00000000  0.00000000  0.50000000  1
  Cu  Cu2  1  0.24931000  0.24954800  0.87474100  1
  Cu  Cu3  1  0.75069000  0.24954800  0.87474100  1
  Cu  Cu4  1  0.25069000  0.25045200  0.37474100  1
  Cu  Cu5  1  0.74931000  0.25045200  0.37474100  1
  Cu  Cu6  1  0.00000000  0.36990100  0.12525600  1
  Cu  Cu7  1  0.00000000  0.37196300  0.62502800  1
  Cu  Cu8  1  0.50000000  0.50302200  0.74386200  1
  Cu  Cu9  1  0.50000000  0.49697800  0.25613800  1
  Cu  Cu10  1  0.50000000  0.50000000  0.50000000  1
  Cu  Cu11  1  0.00000000  0.63009900  0.87474400  1
  Cu  Cu12  1  0.00000000  0.62803700  0.37497200  1
  Cu  Cu13  1  0.75069000  0.75045200  0.12525900  1
  Cu  Cu14  1  0.24931000  0.75045200  0.12525900  1
  Cu  Cu15  1  0.74931000  0.74954800  0.62525900  1
  Cu  Cu16  1  0.25069000  0.74954800  0.62525900  1
  Cu  Cu17  1  0.50000000  0.87196300  0.87497200  1
  Cu  Cu18  1  0.50000000  0.86990100  0.37474400  1
  Cu  Cu19  1  0.00000000  0.00000000  0.00000000  1
  Cu  Cu20  1  0.00000000  0.00302200  0.75613800  1
  Cu  Cu21  1  0.00000000  0.99697800  0.24386200  1
  Cu  Cu22  1  0.50000000  0.13009900  0.62525600  1
  Cu  Cu23  1  0.50000000  0.12803700  0.12502800  1
  C  C24  1  0.50000000  0.26178400  0.75392900  1
  C  C25  1  0.50000000  0.26971500  0.00038400  1
  C  C26  1  0.50000000  0.26159300  0.25125100  1
  C  C27  1  0.50000000  0.25299700  0.49523800  1
  C  C28  1  0.72944100  0.50284500  0.87914700  1
  C  C29  1  0.27055900  0.50284500  0.87914700  1
  C  C30  1  0.74152400  0.49968200  0.37028300  1
  C  C31  1  0.25847600  0.49968200  0.37028300  1
  C  C32  1  0.74152400  0.50031800  0.62971700  1
  C  C33  1  0.27055900  0.49715500  0.12085300  1
  C  C34  1  0.72944100  0.49715500  0.12085300  1
  C  C35  1  0.25847600  0.50031800  0.62971700  1
  C  C36  1  0.50000000  0.73028500  0.99961600  1
  C  C37  1  0.50000000  0.73840700  0.74874900  1
  C  C38  1  0.50000000  0.73821600  0.24607100  1
  C  C39  1  0.50000000  0.74700300  0.50476200  1
  C  C40  1  0.00000000  0.76178400  0.74607100  1
  C  C41  1  0.00000000  0.76159300  0.24874900  1
  C  C42  1  0.00000000  0.75299700  0.00476200  1
  C  C43  1  0.00000000  0.76971500  0.49961600  1
  C  C44  1  0.75847600  0.99968200  0.12971700  1
  C  C45  1  0.24152400  0.99968200  0.12971700  1
  C  C46  1  0.77055900  0.00284500  0.62085300  1
  C  C47  1  0.22944100  0.00284500  0.62085300  1
  C  C48  1  0.75847600  0.00031800  0.87028300  1
  C  C49  1  0.24152400  0.00031800  0.87028300  1
  C  C50  1  0.22944100  0.99715500  0.37914700  1
  C  C51  1  0.77055900  0.99715500  0.37914700  1
  C  C52  1  0.00000000  0.23028500  0.50038400  1
  C  C53  1  0.00000000  0.23840700  0.75125100  1
  C  C54  1  0.00000000  0.24700300  0.99523800  1
  C  C55  1  0.00000000  0.23821600  0.25392900  1
