# generated using pymatgen
data_CuNiC2
_symmetry_space_group_name_H-M   'P 1'
_cell_length_a   5.88411000
_cell_length_b   5.03280100
_cell_length_c   5.03639183
_cell_angle_alpha   71.91341910
_cell_angle_beta   90.00000000
_cell_angle_gamma   90.00000000
_symmetry_Int_Tables_number   1
_chemical_formula_structural   CuNiC2
_chemical_formula_sum   'Cu4 Ni4 C8'
_cell_volume   141.77595918
_cell_formula_units_Z   4
loop_
 _symmetry_equiv_pos_site_id
 _symmetry_equiv_pos_as_xyz
  1  'x, y, z'
loop_
 _atom_site_type_symbol
 _atom_site_label
 _atom_site_symmetry_multiplicity
 _atom_site_fract_x
 _atom_site_fract_y
 _atom_site_fract_z
 _atom_site_occupancy
  C  C0  1  0.11913800  0.25000000  0.50000000  1
  C  C1  1  0.63785800  0.25000000  0.50000000  1
  C  C2  1  0.37166100  0.25000000  0.00000000  1
  C  C3  1  0.36214200  0.75000000  0.50000000  1
  C  C4  1  0.88086200  0.75000000  0.50000000  1
  C  C5  1  0.62833900  0.75000000  0.00000000  1
  C  C6  1  0.89956800  0.25000000  0.00000000  1
  C  C7  1  0.10043200  0.75000000  0.00000000  1
  Ni  Ni8  1  0.88942400  0.01217200  0.77005400  1
  Ni  Ni9  1  0.88942400  0.48782800  0.22994600  1
  Ni  Ni10  1  0.11057600  0.51217200  0.77005400  1
  Ni  Ni11  1  0.11057600  0.98782800  0.22994600  1
  Cu  Cu12  1  0.62053700  0.00268500  0.24926200  1
  Cu  Cu13  1  0.37946300  0.50268500  0.24926200  1
  Cu  Cu14  1  0.62053700  0.49731500  0.75073800  1
  Cu  Cu15  1  0.37946300  0.99731500  0.75073800  1
