# generated using pymatgen
data_Cu6Ni2C
_symmetry_space_group_name_H-M   'P 1'
_cell_length_a   7.45483300
_cell_length_b   7.47836500
_cell_length_c   15.15329400
_cell_angle_alpha   90.00000000
_cell_angle_beta   90.00000000
_cell_angle_gamma   90.00000000
_symmetry_Int_Tables_number   1
_chemical_formula_structural   Cu6Ni2C
_chemical_formula_sum   'Cu48 Ni16 C8'
_cell_volume   844.79556752
_cell_formula_units_Z   8
loop_
 _symmetry_equiv_pos_site_id
 _symmetry_equiv_pos_as_xyz
  1  'x, y, z'
loop_
 _atom_site_type_symbol
 _atom_site_label
 _atom_site_symmetry_multiplicity
 _atom_site_fract_x
 _atom_site_fract_y
 _atom_site_fract_z
 _atom_site_occupancy
  C  C0  1  0.01799600  0.78638400  0.37718900  1
  C  C1  1  0.02351400  0.76014900  0.87354100  1
  C  C2  1  0.47648600  0.26014900  0.87354100  1
  C  C3  1  0.48200400  0.28638400  0.37718900  1
  C  C4  1  0.51799600  0.78638400  0.62281100  1
  C  C5  1  0.52351400  0.76014900  0.12645900  1
  C  C6  1  0.97648600  0.26014900  0.12645900  1
  C  C7  1  0.98200400  0.28638400  0.62281100  1
  Ni  Ni8  1  0.13555500  0.09371900  0.78629500  1
  Ni  Ni9  1  0.15948000  0.13039100  0.29380800  1
  Ni  Ni10  1  0.17073700  0.93656300  0.55161900  1
  Ni  Ni11  1  0.17418900  0.91948400  0.04608000  1
  Ni  Ni12  1  0.32581100  0.41948400  0.04608000  1
  Ni  Ni13  1  0.32926300  0.43656300  0.55161900  1
  Ni  Ni14  1  0.34052000  0.63039100  0.29380800  1
  Ni  Ni15  1  0.36444500  0.59371900  0.78629500  1
  Ni  Ni16  1  0.63555500  0.09371900  0.21370500  1
  Ni  Ni17  1  0.65948000  0.13039100  0.70619200  1
  Ni  Ni18  1  0.67073700  0.93656300  0.44838100  1
  Ni  Ni19  1  0.67418900  0.91948400  0.95392000  1
  Ni  Ni20  1  0.82581100  0.41948400  0.95392000  1
  Ni  Ni21  1  0.82926300  0.43656300  0.44838100  1
  Ni  Ni22  1  0.84052000  0.63039100  0.70619200  1
  Ni  Ni23  1  0.86444500  0.59371900  0.21370500  1
  Cu  Cu24  1  0.03461000  0.96198400  0.76775100  1
  Cu  Cu25  1  0.04337900  0.02589200  0.04576500  1
  Cu  Cu26  1  0.03506600  0.03835500  0.55286900  1
  Cu  Cu27  1  0.03542900  0.09922200  0.23885700  1
  Cu  Cu28  1  0.14370100  0.22906200  0.73650400  1
  Cu  Cu29  1  0.16432400  0.04633100  0.36571900  1
  Cu  Cu30  1  0.18044000  0.81040000  0.49601500  1
  Cu  Cu31  1  0.18644200  0.79891800  0.98768800  1
  Cu  Cu32  1  0.22881400  0.08853200  0.85564800  1
  Cu  Cu33  1  0.20309900  0.45969800  0.60632100  1
  Cu  Cu34  1  0.20472400  0.43179300  0.10488100  1
  Cu  Cu35  1  0.22012400  0.74499800  0.27685100  1
  Cu  Cu36  1  0.27987600  0.24499800  0.27685100  1
  Cu  Cu37  1  0.29527600  0.93179300  0.10488100  1
  Cu  Cu38  1  0.29690100  0.95969800  0.60632100  1
  Cu  Cu39  1  0.27118600  0.58853200  0.85564800  1
  Cu  Cu40  1  0.31355800  0.29891800  0.98768800  1
  Cu  Cu41  1  0.31956000  0.31040000  0.49601500  1
  Cu  Cu42  1  0.33567600  0.54633100  0.36571900  1
  Cu  Cu43  1  0.35629900  0.72906200  0.73650400  1
  Cu  Cu44  1  0.46457100  0.59922200  0.23885700  1
  Cu  Cu45  1  0.46493400  0.53835500  0.55286900  1
  Cu  Cu46  1  0.45662100  0.52589200  0.04576500  1
  Cu  Cu47  1  0.46539000  0.46198400  0.76775100  1
  Cu  Cu48  1  0.53461000  0.96198400  0.23224900  1
  Cu  Cu49  1  0.54337900  0.02589200  0.95423500  1
  Cu  Cu50  1  0.53506600  0.03835500  0.44713100  1
  Cu  Cu51  1  0.53542900  0.09922200  0.76114300  1
  Cu  Cu52  1  0.64370100  0.22906200  0.26349600  1
  Cu  Cu53  1  0.66432400  0.04633100  0.63428100  1
  Cu  Cu54  1  0.68044000  0.81040000  0.50398500  1
  Cu  Cu55  1  0.68644200  0.79891800  0.01231200  1
  Cu  Cu56  1  0.72881400  0.08853200  0.14435200  1
  Cu  Cu57  1  0.70309900  0.45969800  0.39367900  1
  Cu  Cu58  1  0.70472400  0.43179300  0.89511900  1
  Cu  Cu59  1  0.72012400  0.74499800  0.72314900  1
  Cu  Cu60  1  0.77987600  0.24499800  0.72314900  1
  Cu  Cu61  1  0.79527600  0.93179300  0.89511900  1
  Cu  Cu62  1  0.79690100  0.95969800  0.39367900  1
  Cu  Cu63  1  0.77118600  0.58853200  0.14435200  1
  Cu  Cu64  1  0.81355800  0.29891800  0.01231200  1
  Cu  Cu65  1  0.81956000  0.31040000  0.50398500  1
  Cu  Cu66  1  0.83567600  0.54633100  0.63428100  1
  Cu  Cu67  1  0.85629900  0.72906200  0.26349600  1
  Cu  Cu68  1  0.96457100  0.59922200  0.76114300  1
  Cu  Cu69  1  0.96493400  0.53835500  0.44713100  1
  Cu  Cu70  1  0.95662100  0.52589200  0.95423500  1
  Cu  Cu71  1  0.96539000  0.46198400  0.23224900  1
