# generated using pymatgen
data_Cu2NiC4
_symmetry_space_group_name_H-M   'P 1'
_cell_length_a   6.02339696
_cell_length_b   6.01606334
_cell_length_c   29.99296834
_cell_angle_alpha   60.22872707
_cell_angle_beta   60.04986140
_cell_angle_gamma   59.62799061
_symmetry_Int_Tables_number   1
_chemical_formula_structural   Cu2NiC4
_chemical_formula_sum   'Cu20 Ni10 C40'
_cell_volume   767.93843314
_cell_formula_units_Z   10
loop_
 _symmetry_equiv_pos_site_id
 _symmetry_equiv_pos_as_xyz
  1  'x, y, z'
loop_
 _atom_site_type_symbol
 _atom_site_label
 _atom_site_symmetry_multiplicity
 _atom_site_fract_x
 _atom_site_fract_y
 _atom_site_fract_z
 _atom_site_occupancy
  Ni  Ni0  1  0.13757100  0.12610700  0.02223700  1
  Ni  Ni1  1  0.13410300  0.12519200  0.22393300  1
  Ni  Ni2  1  0.13483900  0.12067900  0.42385700  1
  Ni  Ni3  1  0.00279800  0.50232800  0.09923400  1
  Ni  Ni4  1  0.00308600  0.49985100  0.29931400  1
  Ni  Ni5  1  0.49722200  0.99944200  0.70104100  1
  Ni  Ni6  1  0.99832400  0.49829500  0.50052700  1
  Ni  Ni7  1  0.99812800  0.49711400  0.70113600  1
  Ni  Ni8  1  0.49736600  0.00102200  0.90019400  1
  Ni  Ni9  1  0.00280100  0.49762600  0.89977700  1
  Cu  Cu10  1  0.49784500  0.49716500  0.99980700  1
  Cu  Cu11  1  0.49703200  0.50105100  0.09880600  1
  Cu  Cu12  1  0.49827800  0.00639300  0.09950800  1
  Cu  Cu13  1  0.49754500  0.49697600  0.20125500  1
  Cu  Cu14  1  0.50006800  0.49914900  0.29891900  1
  Cu  Cu15  1  0.86516700  0.88158500  0.17534600  1
  Cu  Cu16  1  0.49901700  0.00382400  0.29959500  1
  Cu  Cu17  1  0.49570400  0.49969500  0.40121800  1
  Cu  Cu18  1  0.12979600  0.12815800  0.62603500  1
  Cu  Cu19  1  0.49790800  0.49919800  0.50066900  1
  Cu  Cu20  1  0.86754100  0.87857400  0.37522500  1
  Cu  Cu21  1  0.49695300  0.00258800  0.50004600  1
  Cu  Cu22  1  0.49874500  0.50180700  0.60159900  1
  Cu  Cu23  1  0.13454000  0.13509200  0.82277800  1
  Cu  Cu24  1  0.49873300  0.49921700  0.70066700  1
  Cu  Cu25  1  0.86015400  0.87253000  0.57805500  1
  Cu  Cu26  1  0.50093500  0.50115500  0.79881400  1
  Cu  Cu27  1  0.49838900  0.49863800  0.89861100  1
  Cu  Cu28  1  0.86632200  0.86697400  0.77668100  1
  Cu  Cu29  1  0.86666500  0.86929700  0.97534700  1
  C  C30  1  0.27368700  0.25183400  0.05060000  1
  C  C31  1  0.27235600  0.72129100  0.04996800  1
  C  C32  1  0.27289500  0.25668000  0.14387200  1
  C  C33  1  0.26677000  0.74569400  0.14913600  1
  C  C34  1  0.26972100  0.25774700  0.25052800  1
  C  C35  1  0.72533400  0.25510600  0.05157200  1
  C  C36  1  0.73404600  0.27304900  0.14935600  1
  C  C37  1  0.73338100  0.74545300  0.05448200  1
  C  C38  1  0.27909800  0.24715000  0.34365500  1
  C  C39  1  0.26931600  0.72174100  0.25161200  1
  C  C40  1  0.26534700  0.73842800  0.35027800  1
  C  C41  1  0.26932100  0.25146000  0.45203800  1
  C  C42  1  0.72753600  0.26027900  0.25168500  1
  C  C43  1  0.73271300  0.74677800  0.15062600  1
  C  C44  1  0.73391800  0.27011700  0.35033200  1
  C  C45  1  0.72802800  0.75506700  0.25488300  1
  C  C46  1  0.26607100  0.24975400  0.54761800  1
  C  C47  1  0.26672400  0.71670100  0.45319500  1
  C  C48  1  0.26902200  0.74125000  0.55132800  1
  C  C49  1  0.26771800  0.27059900  0.64754800  1
  C  C50  1  0.72205500  0.25386300  0.45374800  1
  C  C51  1  0.73449400  0.74003200  0.35138300  1
  C  C52  1  0.72779300  0.27141600  0.55281200  1
  C  C53  1  0.73118400  0.74592700  0.45475100  1
  C  C54  1  0.27044600  0.27079400  0.74425900  1
  C  C55  1  0.27228600  0.72936000  0.65066800  1
  C  C56  1  0.27173600  0.72639200  0.74947600  1
  C  C57  1  0.27112300  0.27130100  0.84540600  1
  C  C58  1  0.72981200  0.27544400  0.64997000  1
  C  C59  1  0.72621700  0.74152500  0.55182600  1
  C  C60  1  0.72680600  0.27172200  0.74912300  1
  C  C61  1  0.73035700  0.73236300  0.65494400  1
  C  C62  1  0.26470000  0.26413700  0.94243600  1
  C  C63  1  0.27728300  0.73523900  0.84691900  1
  C  C64  1  0.26516400  0.72971800  0.94856100  1
  C  C65  1  0.73410800  0.27851700  0.84654000  1
  C  C66  1  0.73359200  0.73428800  0.75145600  1
  C  C67  1  0.74234700  0.74455000  0.85319900  1
  C  C68  1  0.73293400  0.26593900  0.94731200  1
  C  C69  1  0.73898600  0.73457200  0.95067200  1
