# generated using pymatgen
data_Cu5NiC3
_symmetry_space_group_name_H-M   'P 1'
_cell_length_a   4.73531875
_cell_length_b   4.73531875
_cell_length_c   18.44756911
_cell_angle_alpha   89.94018508
_cell_angle_beta   89.94018508
_cell_angle_gamma   90.00061601
_symmetry_Int_Tables_number   1
_chemical_formula_structural   Cu5NiC3
_chemical_formula_sum   'Cu20 Ni4 C12'
_cell_volume   413.65388642
_cell_formula_units_Z   4
loop_
 _symmetry_equiv_pos_site_id
 _symmetry_equiv_pos_as_xyz
  1  'x, y, z'
loop_
 _atom_site_type_symbol
 _atom_site_label
 _atom_site_symmetry_multiplicity
 _atom_site_fract_x
 _atom_site_fract_y
 _atom_site_fract_z
 _atom_site_occupancy
  C  C0  1  0.00842000  0.00033900  0.99825800  1
  C  C1  1  0.00033900  0.00842000  0.49825800  1
  C  C2  1  0.50801600  0.49978200  0.24821900  1
  C  C3  1  0.49978200  0.50801600  0.74821900  1
  C  C4  1  0.97689100  0.02099100  0.16634600  1
  C  C5  1  0.01378600  0.00982200  0.33888100  1
  C  C6  1  0.02099100  0.97689100  0.66634600  1
  C  C7  1  0.00982100  0.01378600  0.83888100  1
  C  C8  1  0.48869000  0.51208100  0.58888200  1
  C  C9  1  0.51208100  0.48869000  0.08888200  1
  C  C10  1  0.47958400  0.47634000  0.41631500  1
  C  C11  1  0.47634000  0.47958400  0.91631500  1
  Ni  Ni12  1  0.19972200  0.20005500  0.41316000  1
  Ni  Ni13  1  0.20005500  0.19972200  0.91316000  1
  Ni  Ni14  1  0.30140800  0.70112300  0.66317100  1
  Ni  Ni15  1  0.70112300  0.30140800  0.16317100  1
  Cu  Cu16  1  0.20025500  0.19907400  0.08455900  1
  Cu  Cu17  1  0.19907400  0.20025500  0.58455900  1
  Cu  Cu18  1  0.19346500  0.19010500  0.25042500  1
  Cu  Cu19  1  0.19010500  0.19346500  0.75042500  1
  Cu  Cu20  1  0.31550900  0.68691000  0.00205100  1
  Cu  Cu21  1  0.30958700  0.69285500  0.50040400  1
  Cu  Cu22  1  0.29070300  0.71111500  0.16249000  1
  Cu  Cu23  1  0.29989100  0.70095200  0.83443500  1
  Cu  Cu24  1  0.30292600  0.69807000  0.33398200  1
  Cu  Cu25  1  0.70095200  0.29989100  0.33443500  1
  Cu  Cu26  1  0.69807000  0.30292600  0.83398200  1
  Cu  Cu27  1  0.71111500  0.29070300  0.66249000  1
  Cu  Cu28  1  0.69285500  0.30958700  0.00040400  1
  Cu  Cu29  1  0.68691000  0.31550900  0.50205100  1
  Cu  Cu30  1  0.81595900  0.81287500  0.25204300  1
  Cu  Cu31  1  0.81287500  0.81595900  0.75204300  1
  Cu  Cu32  1  0.80178400  0.80148900  0.08388400  1
  Cu  Cu33  1  0.78947000  0.78995500  0.41249600  1
  Cu  Cu34  1  0.80148900  0.80178400  0.58388400  1
  Cu  Cu35  1  0.78995500  0.78947000  0.91249600  1
