# generated using pymatgen
data_Cu2Ni2C7
_symmetry_space_group_name_H-M   'P 1'
_cell_length_a   10.48744800
_cell_length_b   10.48744800
_cell_length_c   5.45720100
_cell_angle_alpha   90.00000000
_cell_angle_beta   90.00000000
_cell_angle_gamma   90.00000000
_symmetry_Int_Tables_number   1
_chemical_formula_structural   Cu2Ni2C7
_chemical_formula_sum   'Cu8 Ni8 C28'
_cell_volume   600.21879552
_cell_formula_units_Z   4
loop_
 _symmetry_equiv_pos_site_id
 _symmetry_equiv_pos_as_xyz
  1  'x, y, z'
loop_
 _atom_site_type_symbol
 _atom_site_label
 _atom_site_symmetry_multiplicity
 _atom_site_fract_x
 _atom_site_fract_y
 _atom_site_fract_z
 _atom_site_occupancy
  Ni  Ni0  1  0.37472100  0.37472100  0.25000000  1
  Ni  Ni1  1  0.62527900  0.37472100  0.75000000  1
  Ni  Ni2  1  0.37472100  0.62527900  0.75000000  1
  Ni  Ni3  1  0.62527900  0.62527900  0.25000000  1
  Ni  Ni4  1  0.87472100  0.87472100  0.25000000  1
  Ni  Ni5  1  0.12527900  0.87472100  0.75000000  1
  Ni  Ni6  1  0.87472100  0.12527900  0.75000000  1
  Ni  Ni7  1  0.12527900  0.12527900  0.25000000  1
  Cu  Cu8  1  0.86131400  0.36131400  0.23023800  1
  Cu  Cu9  1  0.13868600  0.36131400  0.73023800  1
  Cu  Cu10  1  0.86131400  0.63868600  0.73023800  1
  Cu  Cu11  1  0.13868600  0.63868600  0.23023800  1
  Cu  Cu12  1  0.36131400  0.86131400  0.26976200  1
  Cu  Cu13  1  0.63868600  0.86131400  0.76976200  1
  Cu  Cu14  1  0.36131400  0.13868600  0.76976200  1
  Cu  Cu15  1  0.63868600  0.13868600  0.26976200  1
  C  C16  1  0.49437000  0.21108300  0.03381300  1
  C  C17  1  0.50563000  0.21108300  0.53381300  1
  C  C18  1  0.75458000  0.25458000  0.48244900  1
  C  C19  1  0.24542000  0.25458000  0.98244900  1
  C  C20  1  0.21108300  0.49437000  0.46618700  1
  C  C21  1  0.78891700  0.49437000  0.96618700  1
  C  C22  1  0.50000000  0.50000000  0.00000000  1
  C  C23  1  0.50000000  0.50000000  0.50000000  1
  C  C24  1  0.21108300  0.50563000  0.96618700  1
  C  C25  1  0.78891700  0.50563000  0.46618700  1
  C  C26  1  0.75458000  0.74542000  0.98244900  1
  C  C27  1  0.24542000  0.74542000  0.48244900  1
  C  C28  1  0.49437000  0.78891700  0.53381300  1
  C  C29  1  0.50563000  0.78891700  0.03381300  1
  C  C30  1  0.99437000  0.71108300  0.46618700  1
  C  C31  1  0.00563000  0.71108300  0.96618700  1
  C  C32  1  0.74542000  0.75458000  0.51755100  1
  C  C33  1  0.25458000  0.75458000  0.01755100  1
  C  C34  1  0.71108300  0.99437000  0.03381300  1
  C  C35  1  0.28891700  0.99437000  0.53381300  1
  C  C36  1  0.00000000  0.00000000  0.00000000  1
  C  C37  1  0.00000000  0.00000000  0.50000000  1
  C  C38  1  0.71108300  0.00563000  0.53381300  1
  C  C39  1  0.28891700  0.00563000  0.03381300  1
  C  C40  1  0.74542000  0.24542000  0.01755100  1
  C  C41  1  0.25458000  0.24542000  0.51755100  1
  C  C42  1  0.99437000  0.28891700  0.96618700  1
  C  C43  1  0.00563000  0.28891700  0.46618700  1
