# generated using pymatgen
data_Cu6Ni7C30
_symmetry_space_group_name_H-M   'P 1'
_cell_length_a   5.21109000
_cell_length_b   5.22558013
_cell_length_c   23.27917283
_cell_angle_alpha   89.49318689
_cell_angle_beta   89.67583490
_cell_angle_gamma   60.09288688
_symmetry_Int_Tables_number   1
_chemical_formula_structural   Cu6Ni7C30
_chemical_formula_sum   'Cu6 Ni7 C30'
_cell_volume   549.47704754
_cell_formula_units_Z   1
loop_
 _symmetry_equiv_pos_site_id
 _symmetry_equiv_pos_as_xyz
  1  'x, y, z'
loop_
 _atom_site_type_symbol
 _atom_site_label
 _atom_site_symmetry_multiplicity
 _atom_site_fract_x
 _atom_site_fract_y
 _atom_site_fract_z
 _atom_site_occupancy
  Ni  Ni0  1  0.33624600  0.33932400  0.28652100  1
  Ni  Ni1  1  0.34376100  0.33481900  0.00947600  1
  Ni  Ni2  1  0.33814700  0.31957900  0.88909700  1
  Ni  Ni3  1  0.65845200  0.66185300  0.98385400  1
  Ni  Ni4  1  0.67418300  0.65701900  0.71664400  1
  Ni  Ni5  1  0.33119900  0.32762700  0.69996100  1
  Ni  Ni6  1  0.66467700  0.67034100  0.30354200  1
  Cu  Cu7  1  0.33599700  0.33216100  0.40576900  1
  Cu  Cu8  1  0.66927400  0.67211100  0.10804100  1
  Cu  Cu9  1  0.66267500  0.66496200  0.59787700  1
  Cu  Cu10  1  0.99696300  0.00976000  0.20376500  1
  Cu  Cu11  1  0.00046400  0.99810600  0.50186900  1
  Cu  Cu12  1  0.01303900  0.99208800  0.80461000  1
  C  C13  1  0.72966500  0.33545600  0.15187400  1
  C  C14  1  0.92215900  0.74619800  0.54916100  1
  C  C15  1  0.58039800  0.40300100  0.34916600  1
  C  C16  1  0.67506600  0.33572900  0.74553600  1
  C  C17  1  0.04158300  0.55901100  0.95359100  1
  C  C18  1  0.67627600  0.05267200  0.84231900  1
  C  C19  1  0.66599100  0.08044600  0.45252200  1
  C  C20  1  0.98098100  0.42356600  0.65209700  1
  C  C21  1  0.69265800  0.99431500  0.25051200  1
  C  C22  1  0.41594700  0.61673100  0.04961900  1
  C  C23  1  0.58973500  0.00445500  0.05458900  1
  C  C24  1  0.04904000  0.27622600  0.84456900  1
  C  C25  1  0.59765300  0.97076200  0.65151400  1
  C  C26  1  0.99139000  0.31090000  0.24941300  1
  C  C27  1  0.24854900  0.66895900  0.45097800  1
  C  C28  1  0.75293700  0.33012600  0.54902500  1
  C  C29  1  0.98783000  0.69328200  0.74659800  1
  C  C30  1  0.40239700  0.02561900  0.34862600  1
  C  C31  1  0.92710600  0.74339700  0.15297000  1
  C  C32  1  0.40182700  0.99643300  0.95140000  1
  C  C33  1  0.59160100  0.37349700  0.95112100  1
  C  C34  1  0.31606400  0.00428800  0.74627200  1
  C  C35  1  0.02448500  0.57198800  0.34693300  1
  C  C36  1  0.33740700  0.91755300  0.54765500  1
  C  C37  1  0.32134900  0.93649600  0.15285500  1
  C  C38  1  0.96886300  0.43574700  0.05254300  1
  C  C39  1  0.30533500  0.69804800  0.25109800  1
  C  C40  1  0.41944700  0.59208300  0.64984400  1
  C  C41  1  0.07800700  0.25184100  0.45103600  1
  C  C42  1  0.28347700  0.67142500  0.84353200  1
