# generated using pymatgen
data_Cu3(NiC6)2
_symmetry_space_group_name_H-M   'P 1'
_cell_length_a   9.43295203
_cell_length_b   9.43295203
_cell_length_c   9.43295247
_cell_angle_alpha   60.26616832
_cell_angle_beta   60.26616832
_cell_angle_gamma   60.26616434
_symmetry_Int_Tables_number   1
_chemical_formula_structural   Cu3(NiC6)2
_chemical_formula_sum   'Cu6 Ni4 C24'
_cell_volume   597.08538535
_cell_formula_units_Z   2
loop_
 _symmetry_equiv_pos_site_id
 _symmetry_equiv_pos_as_xyz
  1  'x, y, z'
loop_
 _atom_site_type_symbol
 _atom_site_label
 _atom_site_symmetry_multiplicity
 _atom_site_fract_x
 _atom_site_fract_y
 _atom_site_fract_z
 _atom_site_occupancy
  Ni  Ni0  1  0.36068400  0.36068400  0.36068400  1
  Ni  Ni1  1  0.13931600  0.13931600  0.13931600  1
  Ni  Ni2  1  0.63931600  0.63931600  0.63931600  1
  Ni  Ni3  1  0.86068400  0.86068400  0.86068400  1
  Cu  Cu4  1  0.75000000  0.04547300  0.45452700  1
  Cu  Cu5  1  0.95452700  0.54547300  0.25000000  1
  Cu  Cu6  1  0.54547300  0.25000000  0.95452700  1
  Cu  Cu7  1  0.45452700  0.75000000  0.04547300  1
  Cu  Cu8  1  0.04547300  0.45452700  0.75000000  1
  Cu  Cu9  1  0.25000000  0.95452700  0.54547300  1
  C  C10  1  0.89332000  0.05783300  0.28470400  1
  C  C11  1  0.71529600  0.10668000  0.94216700  1
  C  C12  1  0.90811100  0.49315900  0.68931800  1
  C  C13  1  0.00684100  0.59188900  0.81068200  1
  C  C14  1  0.60668000  0.21529600  0.44216700  1
  C  C15  1  0.78470400  0.55783300  0.39332000  1
  C  C16  1  0.94216700  0.71529600  0.10668000  1
  C  C17  1  0.18931800  0.99315900  0.40811100  1
  C  C18  1  0.50684100  0.31068200  0.09188900  1
  C  C19  1  0.31068200  0.09188900  0.50684100  1
  C  C20  1  0.40811100  0.18931800  0.99315900  1
  C  C21  1  0.55783300  0.39332000  0.78470400  1
  C  C22  1  0.44216700  0.60668000  0.21529600  1
  C  C23  1  0.68931800  0.90811100  0.49315900  1
  C  C24  1  0.59188900  0.81068200  0.00684100  1
  C  C25  1  0.81068200  0.00684100  0.59188900  1
  C  C26  1  0.49315900  0.68931800  0.90811100  1
  C  C27  1  0.05783300  0.28470400  0.89332000  1
  C  C28  1  0.21529600  0.44216700  0.60668000  1
  C  C29  1  0.39332000  0.78470400  0.55783300  1
  C  C30  1  0.09188900  0.50684100  0.31068200  1
  C  C31  1  0.99315900  0.40811100  0.18931800  1
  C  C32  1  0.28470400  0.89332000  0.05783300  1
  C  C33  1  0.10668000  0.94216700  0.71529600  1
