# generated using pymatgen
data_CuNiC18
_symmetry_space_group_name_H-M   'P 1'
_cell_length_a   6.78675485
_cell_length_b   6.78675485
_cell_length_c   12.22924922
_cell_angle_alpha   88.62148788
_cell_angle_beta   88.62148788
_cell_angle_gamma   62.99000648
_symmetry_Int_Tables_number   1
_chemical_formula_structural   CuNiC18
_chemical_formula_sum   'Cu2 Ni2 C36'
_cell_volume   501.64152608
_cell_formula_units_Z   2
loop_
 _symmetry_equiv_pos_site_id
 _symmetry_equiv_pos_as_xyz
  1  'x, y, z'
loop_
 _atom_site_type_symbol
 _atom_site_label
 _atom_site_symmetry_multiplicity
 _atom_site_fract_x
 _atom_site_fract_y
 _atom_site_fract_z
 _atom_site_occupancy
  Ni  Ni0  1  0.00000000  0.50000000  0.50000000  1
  Ni  Ni1  1  0.50000000  0.00000000  0.00000000  1
  Cu  Cu2  1  0.01372400  0.98627600  0.75000000  1
  Cu  Cu3  1  0.98627600  0.01372400  0.25000000  1
  C  C4  1  0.77463700  0.59115100  0.93846100  1
  C  C5  1  0.40884900  0.22536300  0.56153900  1
  C  C6  1  0.22536300  0.40884900  0.06153900  1
  C  C7  1  0.59115100  0.77463700  0.43846100  1
  C  C8  1  0.77040600  0.57944200  0.06716800  1
  C  C9  1  0.42055800  0.22959400  0.43283200  1
  C  C10  1  0.22959400  0.42055800  0.93283200  1
  C  C11  1  0.57944200  0.77040600  0.56716800  1
  C  C12  1  0.73292100  0.28605700  0.57928000  1
  C  C13  1  0.71394300  0.26707900  0.92072000  1
  C  C14  1  0.26707900  0.71394300  0.42072000  1
  C  C15  1  0.28605700  0.73292100  0.07928000  1
  C  C16  1  0.13264200  0.51056700  0.72875400  1
  C  C17  1  0.48943300  0.86735800  0.77124600  1
  C  C18  1  0.86735800  0.48943300  0.27124600  1
  C  C19  1  0.51056700  0.13264200  0.22875400  1
  C  C20  1  0.68474200  0.15991100  0.63901100  1
  C  C21  1  0.84008900  0.31525800  0.86098900  1
  C  C22  1  0.31525800  0.84008900  0.36098900  1
  C  C23  1  0.15991100  0.68474200  0.13901100  1
  C  C24  1  0.92434300  0.27172900  0.59823500  1
  C  C25  1  0.72827100  0.07565700  0.90176500  1
  C  C26  1  0.07565700  0.72827100  0.40176500  1
  C  C27  1  0.27172900  0.92434300  0.09823500  1
  C  C28  1  0.14655100  0.60692800  0.81328500  1
  C  C29  1  0.39307200  0.85344900  0.68671500  1
  C  C30  1  0.85344900  0.39307200  0.18671500  1
  C  C31  1  0.60692800  0.14655100  0.31328500  1
  C  C32  1  0.04977400  0.64204800  0.64729600  1
  C  C33  1  0.35795200  0.95022600  0.85270400  1
  C  C34  1  0.95022600  0.35795200  0.35270400  1
  C  C35  1  0.64204800  0.04977400  0.14729600  1
  C  C36  1  0.74600200  0.68176900  0.00421000  1
  C  C37  1  0.31823100  0.25399800  0.49579000  1
  C  C38  1  0.25399800  0.31823100  0.99579000  1
  C  C39  1  0.68176900  0.74600200  0.50421000  1
