# generated using pymatgen
data_Cu13NiC42
_symmetry_space_group_name_H-M   'P 1'
_cell_length_a   7.53255800
_cell_length_b   8.07944524
_cell_length_c   8.56664667
_cell_angle_alpha   103.15831076
_cell_angle_beta   104.55279921
_cell_angle_gamma   105.44522666
_symmetry_Int_Tables_number   1
_chemical_formula_structural   Cu13NiC42
_chemical_formula_sum   'Cu13 Ni1 C42'
_cell_volume   461.52568817
_cell_formula_units_Z   1
loop_
 _symmetry_equiv_pos_site_id
 _symmetry_equiv_pos_as_xyz
  1  'x, y, z'
loop_
 _atom_site_type_symbol
 _atom_site_label
 _atom_site_symmetry_multiplicity
 _atom_site_fract_x
 _atom_site_fract_y
 _atom_site_fract_z
 _atom_site_occupancy
  C  C0  1  0.93019500  0.28643600  0.21512000  1
  C  C1  1  0.85659700  0.07147400  0.42836500  1
  C  C2  1  0.64201400  0.42896300  0.07294700  1
  C  C3  1  0.78531300  0.85666100  0.64281500  1
  C  C4  1  0.57138900  0.21477300  0.28587400  1
  C  C5  1  0.28628900  0.35736200  0.14328300  1
  C  C6  1  0.50000000  0.00000000  0.50000000  1
  C  C7  1  0.71371100  0.64263800  0.85671700  1
  C  C8  1  0.21468700  0.14333900  0.35718500  1
  C  C9  1  0.42861100  0.78522700  0.71412600  1
  C  C10  1  0.00000000  0.50000000  0.00000000  1
  C  C11  1  0.35798600  0.57103700  0.92705300  1
  C  C12  1  0.14340300  0.92852600  0.57163500  1
  C  C13  1  0.06980500  0.71356400  0.78488000  1
  Ni  Ni14  1  0.50000000  0.50000000  0.50000000  1
  Cu  Cu15  1  0.92831900  0.78575400  0.21420500  1
  Cu  Cu16  1  0.64279800  0.92832300  0.07092500  1
  Cu  Cu17  1  0.85703200  0.57138600  0.42850600  1
  Cu  Cu18  1  0.78527400  0.35716700  0.64289500  1
  Cu  Cu19  1  0.57151400  0.71441700  0.28579200  1
  Cu  Cu20  1  0.71413600  0.14256300  0.85701800  1
  Cu  Cu21  1  0.28586400  0.85743700  0.14298200  1
  Cu  Cu22  1  0.21472600  0.64283300  0.35710500  1
  Cu  Cu23  1  0.00000000  0.00000000  0.00000000  1
  Cu  Cu24  1  0.42848600  0.28558300  0.71420800  1
  Cu  Cu25  1  0.14296800  0.42861400  0.57149400  1
  Cu  Cu26  1  0.35720200  0.07167700  0.92907500  1
  Cu  Cu27  1  0.07168100  0.21424600  0.78579500  1
  C  C28  1  0.93890600  0.55481200  0.23055300  1
  C  C29  1  0.91837400  0.01755000  0.19795300  1
  C  C30  1  0.86621400  0.33930000  0.44517800  1
  C  C31  1  0.63356400  0.16044800  0.05501000  1
  C  C32  1  0.65320200  0.69726000  0.08781400  1
  C  C33  1  0.84783900  0.80407300  0.41255900  1
  C  C34  1  0.79097900  0.59462400  0.63370400  1
  C  C35  1  0.98999700  0.23205700  0.98317800  1
  C  C36  1  0.58541000  0.48089600  0.29113500  1
  C  C37  1  0.79690200  0.12554800  0.65997800  1
  C  C38  1  0.56201200  0.94635000  0.26807600  1
  C  C39  1  0.27589500  0.08958800  0.12724200  1
  C  C40  1  0.70451900  0.37491900  0.84146800  1
  C  C41  1  0.49012100  0.74512200  0.48318800  1
  C  C42  1  0.50987900  0.25487800  0.51681200  1
  C  C43  1  0.72410500  0.91041200  0.87275800  1
  C  C44  1  0.29548100  0.62508100  0.15853200  1
  C  C45  1  0.43798800  0.05365000  0.73192400  1
  C  C46  1  0.41459000  0.51910400  0.70886500  1
  C  C47  1  0.01000300  0.76794300  0.01682200  1
  C  C48  1  0.20902100  0.40537600  0.36629600  1
  C  C49  1  0.20309800  0.87445200  0.34002200  1
  C  C50  1  0.34679800  0.30274000  0.91218600  1
  C  C51  1  0.36643600  0.83955200  0.94499000  1
  C  C52  1  0.15216100  0.19592700  0.58744100  1
  C  C53  1  0.13378600  0.66070000  0.55482200  1
  C  C54  1  0.06109400  0.44518800  0.76944700  1
  C  C55  1  0.08162600  0.98245000  0.80204700  1
