# generated using pymatgen
data_Cu2Ni4C3
_symmetry_space_group_name_H-M   'P 1'
_cell_length_a   4.71693252
_cell_length_b   4.71693252
_cell_length_c   9.02389834
_cell_angle_alpha   89.24057955
_cell_angle_beta   89.24057955
_cell_angle_gamma   90.10769023
_symmetry_Int_Tables_number   1
_chemical_formula_structural   Cu2Ni4C3
_chemical_formula_sum   'Cu4 Ni8 C6'
_cell_volume   200.74110248
_cell_formula_units_Z   2
loop_
 _symmetry_equiv_pos_site_id
 _symmetry_equiv_pos_as_xyz
  1  'x, y, z'
loop_
 _atom_site_type_symbol
 _atom_site_label
 _atom_site_symmetry_multiplicity
 _atom_site_fract_x
 _atom_site_fract_y
 _atom_site_fract_z
 _atom_site_occupancy
  C  C0  1  0.04084000  0.01517000  0.84647600  1
  C  C1  1  0.98483000  0.95916000  0.15352400  1
  C  C2  1  0.01068700  0.98931300  0.50000000  1
  C  C3  1  0.50905600  0.49094400  0.00000000  1
  C  C4  1  0.46544900  0.51561100  0.65423100  1
  C  C5  1  0.48438900  0.53455100  0.34576900  1
  Ni  Ni6  1  0.21316400  0.78683600  0.00000000  1
  Ni  Ni7  1  0.19085600  0.80528000  0.32797700  1
  Ni  Ni8  1  0.19472000  0.80914400  0.67202300  1
  Ni  Ni9  1  0.69289200  0.68324100  0.17036800  1
  Ni  Ni10  1  0.69824100  0.70930400  0.50277600  1
  Ni  Ni11  1  0.31675900  0.30710800  0.82963200  1
  Ni  Ni12  1  0.29069600  0.30175900  0.49722400  1
  Ni  Ni13  1  0.80847700  0.19152300  0.00000000  1
  Cu  Cu14  1  0.70705400  0.70551700  0.82892000  1
  Cu  Cu15  1  0.29448300  0.29294600  0.17108000  1
  Cu  Cu16  1  0.80418500  0.20677800  0.67016200  1
  Cu  Cu17  1  0.79322200  0.19581500  0.32983800  1
