# generated using pymatgen
data_Cu4Ni2C9
_symmetry_space_group_name_H-M   'P 1'
_cell_length_a   11.74848700
_cell_length_b   5.74123382
_cell_length_c   6.33385864
_cell_angle_alpha   103.01002530
_cell_angle_beta   93.77503730
_cell_angle_gamma   92.78967919
_symmetry_Int_Tables_number   1
_chemical_formula_structural   Cu4Ni2C9
_chemical_formula_sum   'Cu8 Ni4 C18'
_cell_volume   414.46751743
_cell_formula_units_Z   2
loop_
 _symmetry_equiv_pos_site_id
 _symmetry_equiv_pos_as_xyz
  1  'x, y, z'
loop_
 _atom_site_type_symbol
 _atom_site_label
 _atom_site_symmetry_multiplicity
 _atom_site_fract_x
 _atom_site_fract_y
 _atom_site_fract_z
 _atom_site_occupancy
  C  C0  1  0.72734800  0.95030100  0.39373900  1
  C  C1  1  0.27265200  0.04969900  0.60626100  1
  C  C2  1  0.72008800  0.43280800  0.89436900  1
  C  C3  1  0.27991200  0.56719200  0.10563100  1
  Ni  Ni4  1  0.94064900  0.13732500  0.95944700  1
  Ni  Ni5  1  0.05935100  0.86267500  0.04055300  1
  Ni  Ni6  1  0.99839700  0.63732300  0.54491800  1
  Ni  Ni7  1  0.00160300  0.36267700  0.45508200  1
  Cu  Cu8  1  0.59863600  0.18855100  0.41020200  1
  Cu  Cu9  1  0.40136400  0.81144900  0.58979800  1
  Cu  Cu10  1  0.59181300  0.86747000  0.79757500  1
  Cu  Cu11  1  0.40818700  0.13253000  0.20242500  1
  Cu  Cu12  1  0.65810300  0.68641800  0.94839800  1
  Cu  Cu13  1  0.34189700  0.31358200  0.05160200  1
  Cu  Cu14  1  0.53060600  0.36352400  0.26892200  1
  Cu  Cu15  1  0.46939400  0.63647600  0.73107800  1
  C  C16  1  0.99567300  0.94938100  0.76580900  1
  C  C17  1  0.00432700  0.05061900  0.23419100  1
  C  C18  1  0.94648200  0.49691700  0.27258700  1
  C  C19  1  0.05351800  0.50308300  0.72741300  1
  C  C20  1  0.89104600  0.28100400  0.11910400  1
  C  C21  1  0.10895400  0.71899600  0.88089600  1
  C  C22  1  0.77581200  0.82102600  0.07268600  1
  C  C23  1  0.22418800  0.17897400  0.92731400  1
  C  C24  1  0.73329400  0.32314600  0.52781800  1
  C  C25  1  0.26670600  0.67685400  0.47218200  1
  C  C26  1  0.57410000  0.61367700  0.87333100  1
  C  C27  1  0.42590000  0.38632300  0.12666900  1
  C  C28  1  0.50651200  0.11578200  0.35621100  1
  C  C29  1  0.49348800  0.88421800  0.64378900  1
