# generated using pymatgen
data_CuNi4C3
_symmetry_space_group_name_H-M   'P 1'
_cell_length_a   6.91230200
_cell_length_b   7.42397916
_cell_length_c   7.98124446
_cell_angle_alpha   87.10317879
_cell_angle_beta   88.37071626
_cell_angle_gamma   62.85340842
_symmetry_Int_Tables_number   1
_chemical_formula_structural   CuNi4C3
_chemical_formula_sum   'Cu4 Ni16 C12'
_cell_volume   363.98186392
_cell_formula_units_Z   4
loop_
 _symmetry_equiv_pos_site_id
 _symmetry_equiv_pos_as_xyz
  1  'x, y, z'
loop_
 _atom_site_type_symbol
 _atom_site_label
 _atom_site_symmetry_multiplicity
 _atom_site_fract_x
 _atom_site_fract_y
 _atom_site_fract_z
 _atom_site_occupancy
  C  C0  1  0.74406800  0.81228500  0.82592000  1
  C  C1  1  0.24622200  0.81175500  0.32545700  1
  C  C2  1  0.75377800  0.18824500  0.67454300  1
  C  C3  1  0.25593200  0.18771500  0.17408000  1
  C  C4  1  0.50000000  0.00000000  0.50000000  1
  C  C5  1  0.00000000  0.50000000  0.50000000  1
  C  C6  1  0.00000000  0.00000000  0.00000000  1
  C  C7  1  0.50000000  0.50000000  0.00000000  1
  C  C8  1  0.28187200  0.23871500  0.83738900  1
  C  C9  1  0.78117200  0.23558700  0.34025400  1
  C  C10  1  0.21882800  0.76441300  0.65974600  1
  C  C11  1  0.71812800  0.76128500  0.16261100  1
  Ni  Ni12  1  0.40779100  0.61249100  0.76717400  1
  Ni  Ni13  1  0.27806900  0.91847700  0.55884100  1
  Ni  Ni14  1  0.22123300  0.08719000  0.93951200  1
  Ni  Ni15  1  0.32895800  0.34561000  0.98214500  1
  Ni  Ni16  1  0.09224400  0.38852600  0.72811000  1
  Ni  Ni17  1  0.83791300  0.33843000  0.48256300  1
  Ni  Ni18  1  0.01043300  0.88810900  0.76780900  1
  Ni  Ni19  1  0.50828900  0.88362100  0.26775800  1
  Ni  Ni20  1  0.49171100  0.11637900  0.73224200  1
  Ni  Ni21  1  0.98956700  0.11189100  0.23219100  1
  Ni  Ni22  1  0.16208700  0.66157000  0.51743700  1
  Ni  Ni23  1  0.90775600  0.61147400  0.27189000  1
  Ni  Ni24  1  0.67104200  0.65439000  0.01785500  1
  Ni  Ni25  1  0.77876700  0.91281000  0.06048800  1
  Ni  Ni26  1  0.72193100  0.08152300  0.44115900  1
  Ni  Ni27  1  0.59220900  0.38750900  0.23282600  1
  Cu  Cu28  1  0.76579700  0.26213900  0.89967300  1
  Cu  Cu29  1  0.72972800  0.73703400  0.60941700  1
  Cu  Cu30  1  0.27027200  0.26296600  0.39058300  1
  Cu  Cu31  1  0.23420300  0.73786100  0.10032700  1
