# generated using pymatgen
data_Cu3Ni8C11
_symmetry_space_group_name_H-M   'P 1'
_cell_length_a   3.05519486
_cell_length_b   5.27416093
_cell_length_c   27.64111624
_cell_angle_alpha   91.83598651
_cell_angle_beta   93.16789856
_cell_angle_gamma   89.99973161
_symmetry_Int_Tables_number   1
_chemical_formula_structural   Cu3Ni8C11
_chemical_formula_sum   'Cu6 Ni16 C22'
_cell_volume   444.48797783
_cell_formula_units_Z   2
loop_
 _symmetry_equiv_pos_site_id
 _symmetry_equiv_pos_as_xyz
  1  'x, y, z'
loop_
 _atom_site_type_symbol
 _atom_site_label
 _atom_site_symmetry_multiplicity
 _atom_site_fract_x
 _atom_site_fract_y
 _atom_site_fract_z
 _atom_site_occupancy
  Ni  Ni0  1  0.09010000  0.36316400  0.18037500  1
  Ni  Ni1  1  0.59009600  0.86319000  0.18036500  1
  Ni  Ni2  1  0.68252700  0.22778500  0.36507000  1
  Ni  Ni3  1  0.18252800  0.72776600  0.36507800  1
  Ni  Ni4  1  0.54588400  0.18222000  0.09197100  1
  Ni  Ni5  1  0.04588200  0.68214500  0.09197000  1
  Ni  Ni6  1  0.22677500  0.40869800  0.45348200  1
  Ni  Ni7  1  0.72677200  0.90868400  0.45348500  1
  Ni  Ni8  1  0.31960300  0.77342300  0.63913700  1
  Ni  Ni9  1  0.81960000  0.27339900  0.63914000  1
  Ni  Ni10  1  0.45325100  0.81751100  0.90631500  1
  Ni  Ni11  1  0.95324700  0.31744900  0.90631400  1
  Ni  Ni12  1  0.36412200  0.45472500  0.72819700  1
  Ni  Ni13  1  0.86412300  0.95472100  0.72819800  1
  Ni  Ni14  1  0.90872000  0.63614700  0.81725300  1
  Ni  Ni15  1  0.40871900  0.13615200  0.81725200  1
  Cu  Cu16  1  0.63577200  0.54562400  0.27277000  1
  Cu  Cu17  1  0.49967400  0.50001500  0.99932400  1
  Cu  Cu18  1  0.77314600  0.59093700  0.54613600  1
  Cu  Cu19  1  0.13633300  0.04543300  0.27271100  1
  Cu  Cu20  1  0.99997500  0.99985300  0.99934600  1
  Cu  Cu21  1  0.27299600  0.09109500  0.54611700  1
  C  C22  1  0.38643900  0.79541100  0.77272600  1
  C  C23  1  0.88643800  0.29541500  0.77272600  1
  C  C24  1  0.02431400  0.34203900  0.04875600  1
  C  C25  1  0.52434300  0.84200900  0.04876700  1
  C  C26  1  0.74833100  0.24884500  0.49669400  1
  C  C27  1  0.24835400  0.74882600  0.49670200  1
  C  C28  1  0.56799400  0.52267800  0.13621100  1
  C  C29  1  0.06799500  0.02267700  0.13620700  1
  C  C30  1  0.70463600  0.56823100  0.40924100  1
  C  C31  1  0.20463500  0.06823100  0.40924000  1
  C  C32  1  0.16086700  0.38758500  0.32189400  1
  C  C33  1  0.66090000  0.88758800  0.32190000  1
  C  C34  1  0.61167100  0.20333700  0.22355600  1
  C  C35  1  0.11164000  0.70333600  0.22355000  1
  C  C36  1  0.29782700  0.43324600  0.59555100  1
  C  C37  1  0.79780500  0.93325800  0.59554300  1
  C  C38  1  0.97504400  0.65770500  0.94990600  1
  C  C39  1  0.47506800  0.15767600  0.94991700  1
  C  C40  1  0.84189100  0.61400500  0.68363800  1
  C  C41  1  0.34189000  0.11400400  0.68363900  1
  C  C42  1  0.43103500  0.47688000  0.86181400  1
  C  C43  1  0.93103600  0.97688000  0.86181100  1
