# generated using pymatgen
data_Cu18NiC20
_symmetry_space_group_name_H-M   'P 1'
_cell_length_a   5.95305845
_cell_length_b   5.95305845
_cell_length_c   21.39607227
_cell_angle_alpha   97.99667792
_cell_angle_beta   97.99667792
_cell_angle_gamma   90.00000000
_symmetry_Int_Tables_number   1
_chemical_formula_structural   Cu18NiC20
_chemical_formula_sum   'Cu36 Ni2 C40'
_cell_volume   743.43394547
_cell_formula_units_Z   2
loop_
 _symmetry_equiv_pos_site_id
 _symmetry_equiv_pos_as_xyz
  1  'x, y, z'
loop_
 _atom_site_type_symbol
 _atom_site_label
 _atom_site_symmetry_multiplicity
 _atom_site_fract_x
 _atom_site_fract_y
 _atom_site_fract_z
 _atom_site_occupancy
  Ni  Ni0  1  0.59968200  0.59968200  0.19936400  1
  Ni  Ni1  1  0.20031800  0.20031800  0.40063600  1
  Cu  Cu2  1  0.99959800  0.99959800  0.99919500  1
  Cu  Cu3  1  0.50035700  0.00035700  0.00071400  1
  Cu  Cu4  1  0.49998800  0.49998800  0.99997700  1
  Cu  Cu5  1  0.00035700  0.50035700  0.00071400  1
  Cu  Cu6  1  0.80740200  0.80740200  0.10114200  1
  Cu  Cu7  1  0.29373900  0.80740200  0.10114200  1
  Cu  Cu8  1  0.29373900  0.29373900  0.10114200  1
  Cu  Cu9  1  0.80740200  0.29373900  0.10114200  1
  Cu  Cu10  1  0.10011300  0.60011300  0.20022700  1
  Cu  Cu11  1  0.60011300  0.10011300  0.20022700  1
  Cu  Cu12  1  0.90000000  0.40000000  0.30000000  1
  Cu  Cu13  1  0.40000000  0.40000000  0.30000000  1
  Cu  Cu14  1  0.90000000  0.90000000  0.30000000  1
  Cu  Cu15  1  0.40000000  0.90000000  0.30000000  1
  Cu  Cu16  1  0.69988700  0.19988700  0.39977300  1
  Cu  Cu17  1  0.19988700  0.69988700  0.39977300  1
  Cu  Cu18  1  0.99259800  0.99259800  0.49885800  1
  Cu  Cu19  1  0.50626100  0.50626100  0.49885800  1
  Cu  Cu20  1  0.99259800  0.50626100  0.49885800  1
  Cu  Cu21  1  0.50626100  0.99259800  0.49885800  1
  Cu  Cu22  1  0.29964300  0.79964300  0.59928600  1
  Cu  Cu23  1  0.80040200  0.80040200  0.60080500  1
  Cu  Cu24  1  0.30001200  0.30001200  0.60002300  1
  Cu  Cu25  1  0.79964300  0.29964300  0.59928600  1
  Cu  Cu26  1  0.10009400  0.59974100  0.69983600  1
  Cu  Cu27  1  0.59974100  0.59974100  0.69983600  1
  Cu  Cu28  1  0.59974100  0.10009400  0.69983600  1
  Cu  Cu29  1  0.10009400  0.10009400  0.69983600  1
  Cu  Cu30  1  0.90000000  0.40000000  0.80000000  1
  Cu  Cu31  1  0.40000000  0.40000000  0.80000000  1
  Cu  Cu32  1  0.40000000  0.90000000  0.80000000  1
  Cu  Cu33  1  0.90000000  0.90000000  0.80000000  1
  Cu  Cu34  1  0.20025900  0.20025900  0.90016400  1
  Cu  Cu35  1  0.69990600  0.69990600  0.90016400  1
  Cu  Cu36  1  0.20025900  0.69990600  0.90016400  1
  Cu  Cu37  1  0.69990600  0.20025900  0.90016400  1
  C  C38  1  0.25248300  0.25248300  0.00048400  1
  C  C39  1  0.74800100  0.25248300  0.00048400  1
  C  C40  1  0.74800100  0.74800100  0.00048400  1
  C  C41  1  0.25248300  0.74800100  0.00048400  1
  C  C42  1  0.04731900  0.04731900  0.09463800  1
  C  C43  1  0.05069000  0.55069000  0.10137900  1
  C  C44  1  0.55069000  0.05069000  0.10137900  1
  C  C45  1  0.55253100  0.55253100  0.10506200  1
  C  C46  1  0.37179100  0.82857300  0.20036400  1
  C  C47  1  0.82857300  0.37179100  0.20036400  1
  C  C48  1  0.37179100  0.37179100  0.20036400  1
  C  C49  1  0.82857300  0.82857300  0.20036400  1
  C  C50  1  0.64532200  0.64532200  0.29064400  1
  C  C51  1  0.15000000  0.65000000  0.30000000  1
  C  C52  1  0.65000000  0.15000000  0.30000000  1
  C  C53  1  0.15467800  0.15467800  0.30935600  1
  C  C54  1  0.97142700  0.42820900  0.39963600  1
  C  C55  1  0.42820900  0.42820900  0.39963600  1
  C  C56  1  0.42820900  0.97142700  0.39963600  1
  C  C57  1  0.97142700  0.97142700  0.39963600  1
  C  C58  1  0.24746900  0.24746900  0.49493800  1
  C  C59  1  0.74931000  0.24931000  0.49862100  1
  C  C60  1  0.24931000  0.74931000  0.49862100  1
  C  C61  1  0.75268100  0.75268100  0.50536200  1
  C  C62  1  0.54751700  0.54751700  0.59951600  1
  C  C63  1  0.05199900  0.54751700  0.59951600  1
  C  C64  1  0.05199900  0.05199900  0.59951600  1
  C  C65  1  0.54751700  0.05199900  0.59951600  1
  C  C66  1  0.84992200  0.84992200  0.69984400  1
  C  C67  1  0.84979100  0.34979100  0.69958100  1
  C  C68  1  0.34979100  0.84979100  0.69958100  1
  C  C69  1  0.35000300  0.35000300  0.70000600  1
  C  C70  1  0.65016100  0.14983900  0.80000000  1
  C  C71  1  0.14983900  0.14983900  0.80000000  1
  C  C72  1  0.65016100  0.65016100  0.80000000  1
  C  C73  1  0.14983900  0.65016100  0.80000000  1
  C  C74  1  0.44999700  0.44999700  0.89999400  1
  C  C75  1  0.95020900  0.45020900  0.90041900  1
  C  C76  1  0.45020900  0.95020900  0.90041900  1
  C  C77  1  0.95007800  0.95007800  0.90015600  1
