# generated using pymatgen
data_CuNiC5
_symmetry_space_group_name_H-M   'P 1'
_cell_length_a   4.47242100
_cell_length_b   8.65464800
_cell_length_c   14.08298544
_cell_angle_alpha   87.19989245
_cell_angle_beta   90.00000000
_cell_angle_gamma   90.00000000
_symmetry_Int_Tables_number   1
_chemical_formula_structural   CuNiC5
_chemical_formula_sum   'Cu2 Ni2 C10'
_cell_volume   544.46250856
_cell_formula_units_Z   2
loop_
 _symmetry_equiv_pos_site_id
 _symmetry_equiv_pos_as_xyz
  1  'x, y, z'
loop_
 _atom_site_type_symbol
 _atom_site_label
 _atom_site_symmetry_multiplicity
 _atom_site_fract_x
 _atom_site_fract_y
 _atom_site_fract_z
 _atom_site_occupancy
  Ni  Ni0  1  0.75000000  0.07769700  0.85768400  1
  Ni  Ni1  1  0.25000000  0.92230300  0.14231600  1
  Cu  Cu2  1  0.25000000  0.42330100  0.65227400  1
  Cu  Cu3  1  0.75000000  0.57669900  0.34772600  1
  C  C4  1  0.25000000  0.08060400  0.67985300  1
  C  C5  1  0.75000000  0.14268500  0.07284200  1
  C  C6  1  0.75000000  0.32376600  0.51814800  1
  C  C7  1  0.25000000  0.34690200  0.86069800  1
  C  C8  1  0.25000000  0.37596600  0.29121100  1
  C  C9  1  0.75000000  0.62403400  0.70878900  1
  C  C10  1  0.75000000  0.65309800  0.13930200  1
  C  C11  1  0.25000000  0.67623400  0.48185200  1
  C  C12  1  0.25000000  0.85731500  0.92715800  1
  C  C13  1  0.75000000  0.91939600  0.32014700  1
