# generated using pymatgen
data_CuNiC19
_symmetry_space_group_name_H-M   'P 1'
_cell_length_a   4.88695370
_cell_length_b   8.07423918
_cell_length_c   7.00852136
_cell_angle_alpha   90.05237566
_cell_angle_beta   107.61050303
_cell_angle_gamma   89.61704687
_symmetry_Int_Tables_number   1
_chemical_formula_structural   CuNiC19
_chemical_formula_sum   'Cu1 Ni1 C19'
_cell_volume   263.57897278
_cell_formula_units_Z   1
loop_
 _symmetry_equiv_pos_site_id
 _symmetry_equiv_pos_as_xyz
  1  'x, y, z'
loop_
 _atom_site_type_symbol
 _atom_site_label
 _atom_site_symmetry_multiplicity
 _atom_site_fract_x
 _atom_site_fract_y
 _atom_site_fract_z
 _atom_site_occupancy
  C  C0  1  0.16683600  0.86738800  0.67547600  1
  Ni  Ni1  1  0.20437000  0.49528100  0.72431300  1
  Cu  Cu2  1  0.78561200  0.00496700  0.27214300  1
  C  C3  1  0.39801000  0.18277000  0.51692700  1
  C  C4  1  0.23072800  0.77974800  0.09309300  1
  C  C5  1  0.77404900  0.27987800  0.91103600  1
  C  C6  1  0.60100800  0.67924600  0.48030100  1
  C  C7  1  0.04108600  0.33461600  0.85208800  1
  C  C8  1  0.14692800  0.68714900  0.89046200  1
  C  C9  1  0.16983900  0.04791100  0.48845300  1
  C  C10  1  0.26561300  0.35662500  0.52026100  1
  C  C11  1  0.38816500  0.67859100  0.60508200  1
  C  C12  1  0.57919900  0.43209200  0.90438400  1
  C  C13  1  0.60405200  0.14835400  0.74409900  1
  C  C14  1  0.42132300  0.64485300  0.25162400  1
  C  C15  1  0.41715600  0.92798400  0.07938300  1
  C  C16  1  0.57866800  0.17862900  0.37710800  1
  C  C17  1  0.74430500  0.84911500  0.49113600  1
  C  C18  1  0.82161800  0.53950500  0.53979300  1
  C  C19  1  0.86804000  0.18454800  0.10356600  1
  C  C20  1  0.96929800  0.82342800  0.15606800  1
