# generated using pymatgen
data_Cu4Ni2C3
_symmetry_space_group_name_H-M   'P 1'
_cell_length_a   10.86820875
_cell_length_b   10.86820875
_cell_length_c   3.10776000
_cell_angle_alpha   90.00000000
_cell_angle_beta   90.00000000
_cell_angle_gamma   144.25425370
_symmetry_Int_Tables_number   1
_chemical_formula_structural   Cu4Ni2C3
_chemical_formula_sum   'Cu8 Ni4 C6'
_cell_volume   214.44557894
_cell_formula_units_Z   2
loop_
 _symmetry_equiv_pos_site_id
 _symmetry_equiv_pos_as_xyz
  1  'x, y, z'
loop_
 _atom_site_type_symbol
 _atom_site_label
 _atom_site_symmetry_multiplicity
 _atom_site_fract_x
 _atom_site_fract_y
 _atom_site_fract_z
 _atom_site_occupancy
  C  C0  1  0.67498400  0.32501600  0.00000000  1
  C  C1  1  0.17150500  0.82849500  0.50000000  1
  C  C2  1  0.32501600  0.67498400  0.00000000  1
  C  C3  1  0.50000000  0.50000000  0.50000000  1
  C  C4  1  0.82849500  0.17150500  0.50000000  1
  C  C5  1  0.00000000  0.00000000  0.00000000  1
  Ni  Ni6  1  0.27020300  0.72979700  0.50000000  1
  Ni  Ni7  1  0.72979700  0.27020300  0.50000000  1
  Ni  Ni8  1  0.70155400  0.70155400  0.00000000  1
  Ni  Ni9  1  0.29844600  0.29844600  0.00000000  1
  Cu  Cu10  1  0.95599100  0.63413700  0.00000000  1
  Cu  Cu11  1  0.04400900  0.36586300  0.00000000  1
  Cu  Cu12  1  0.36586300  0.04400900  0.00000000  1
  Cu  Cu13  1  0.39523900  0.60476100  0.50000000  1
  Cu  Cu14  1  0.63413700  0.95599100  0.00000000  1
  Cu  Cu15  1  0.60476100  0.39523900  0.50000000  1
  Cu  Cu16  1  0.93468600  0.06531400  0.50000000  1
  Cu  Cu17  1  0.06531400  0.93468600  0.50000000  1
