# generated using pymatgen
data_Cu(NiC2)4
_symmetry_space_group_name_H-M   'P 1'
_cell_length_a   5.99791011
_cell_length_b   5.99791011
_cell_length_c   6.16614249
_cell_angle_alpha   61.11779486
_cell_angle_beta   61.11779486
_cell_angle_gamma   58.21049787
_symmetry_Int_Tables_number   1
_chemical_formula_structural   Cu(NiC2)4
_chemical_formula_sum   'Cu1 Ni4 C8'
_cell_volume   157.11949707
_cell_formula_units_Z   1
loop_
 _symmetry_equiv_pos_site_id
 _symmetry_equiv_pos_as_xyz
  1  'x, y, z'
loop_
 _atom_site_type_symbol
 _atom_site_label
 _atom_site_symmetry_multiplicity
 _atom_site_fract_x
 _atom_site_fract_y
 _atom_site_fract_z
 _atom_site_occupancy
  Ni  Ni0  1  0.50000000  0.50000000  0.50000000  1
  Ni  Ni1  1  0.00000000  0.00000000  0.00000000  1
  Ni  Ni2  1  0.00000000  0.50000000  0.00000000  1
  Ni  Ni3  1  0.50000000  0.00000000  0.00000000  1
  Cu  Cu4  1  0.50000000  0.50000000  0.00000000  1
  C  C5  1  0.73241100  0.73241100  0.80919500  1
  C  C6  1  0.72184900  0.22324400  0.80509400  1
  C  C7  1  0.22324400  0.72184900  0.80509400  1
  C  C8  1  0.25683800  0.25683800  0.78599800  1
  C  C9  1  0.74316200  0.74316200  0.21400200  1
  C  C10  1  0.77675600  0.27815100  0.19490600  1
  C  C11  1  0.27815100  0.77675600  0.19490600  1
  C  C12  1  0.26758900  0.26758900  0.19080500  1
