# generated using pymatgen
data_Cu(Ni3C7)2
_symmetry_space_group_name_H-M   'P 1'
_cell_length_a   15.86017671
_cell_length_b   15.86017671
_cell_length_c   8.83508900
_cell_angle_alpha   90.00000000
_cell_angle_beta   90.00000000
_cell_angle_gamma   99.03611860
_symmetry_Int_Tables_number   1
_chemical_formula_structural   Cu(Ni3C7)2
_chemical_formula_sum   'Cu2 Ni12 C28'
_cell_volume   2194.84294543
_cell_formula_units_Z   2
loop_
 _symmetry_equiv_pos_site_id
 _symmetry_equiv_pos_as_xyz
  1  'x, y, z'
loop_
 _atom_site_type_symbol
 _atom_site_label
 _atom_site_symmetry_multiplicity
 _atom_site_fract_x
 _atom_site_fract_y
 _atom_site_fract_z
 _atom_site_occupancy
  Ni  Ni0  1  0.75147700  0.05171400  0.32848100  1
  Ni  Ni1  1  0.94828600  0.24852300  0.67151900  1
  Ni  Ni2  1  0.55171400  0.25147700  0.17151900  1
  Ni  Ni3  1  0.74852300  0.44828600  0.82848100  1
  Ni  Ni4  1  0.69793400  0.69793400  0.24521500  1
  Ni  Ni5  1  0.19793400  0.19793400  0.25478500  1
  Ni  Ni6  1  0.30206600  0.30206600  0.75478500  1
  Ni  Ni7  1  0.80206600  0.80206600  0.74521500  1
  Ni  Ni8  1  0.44828600  0.74852300  0.82848100  1
  Ni  Ni9  1  0.25147700  0.55171400  0.17151900  1
  Ni  Ni10  1  0.05171400  0.75147700  0.32848100  1
  Ni  Ni11  1  0.24852300  0.94828600  0.67151900  1
  Cu  Cu12  1  0.00000000  0.00000000  0.00000000  1
  Cu  Cu13  1  0.50000000  0.50000000  0.50000000  1
  C  C14  1  0.96652500  0.15566800  0.23253600  1
  C  C15  1  0.84433200  0.03347500  0.76746400  1
  C  C16  1  0.74765700  0.25234300  0.00000000  1
  C  C17  1  0.95369600  0.45369600  0.75000000  1
  C  C18  1  0.54630400  0.04630400  0.25000000  1
  C  C19  1  0.75234300  0.24765700  0.50000000  1
  C  C20  1  0.35794900  0.15716900  0.00963400  1
  C  C21  1  0.34283100  0.14205100  0.50963400  1
  C  C22  1  0.84283100  0.64205100  0.99036600  1
  C  C23  1  0.85794900  0.65716900  0.49036600  1
  C  C24  1  0.65566800  0.46652500  0.26746400  1
  C  C25  1  0.53347500  0.34433200  0.73253600  1
  C  C26  1  0.12188200  0.12188200  0.77312900  1
  C  C27  1  0.37811800  0.37811800  0.27312900  1
  C  C28  1  0.62188200  0.62188200  0.72687100  1
  C  C29  1  0.87811800  0.87811800  0.22687100  1
  C  C30  1  0.34433200  0.53347500  0.73253600  1
  C  C31  1  0.46652500  0.65566800  0.26746400  1
  C  C32  1  0.64205100  0.84283100  0.99036600  1
  C  C33  1  0.14205100  0.34283100  0.50963400  1
  C  C34  1  0.15716900  0.35794900  0.00963400  1
  C  C35  1  0.65716900  0.85794900  0.49036600  1
  C  C36  1  0.24765700  0.75234300  0.50000000  1
  C  C37  1  0.04630400  0.54630400  0.25000000  1
  C  C38  1  0.45369600  0.95369600  0.75000000  1
  C  C39  1  0.25234300  0.74765700  0.00000000  1
  C  C40  1  0.15566800  0.96652500  0.23253600  1
  C  C41  1  0.03347500  0.84433200  0.76746400  1
