# generated using pymatgen
data_Cu3Ni4C13
_symmetry_space_group_name_H-M   'P 1'
_cell_length_a   7.31619900
_cell_length_b   10.69417100
_cell_length_c   15.90011600
_cell_angle_alpha   90.00000000
_cell_angle_beta   90.00000000
_cell_angle_gamma   90.00000000
_symmetry_Int_Tables_number   1
_chemical_formula_structural   Cu3Ni4C13
_chemical_formula_sum   'Cu12 Ni16 C52'
_cell_volume   1244.03593842
_cell_formula_units_Z   4
loop_
 _symmetry_equiv_pos_site_id
 _symmetry_equiv_pos_as_xyz
  1  'x, y, z'
loop_
 _atom_site_type_symbol
 _atom_site_label
 _atom_site_symmetry_multiplicity
 _atom_site_fract_x
 _atom_site_fract_y
 _atom_site_fract_z
 _atom_site_occupancy
  C  C0  1  0.01632800  0.73547200  0.25000000  1
  C  C1  1  0.48367200  0.23547200  0.75000000  1
  C  C2  1  0.51632800  0.76452800  0.25000000  1
  C  C3  1  0.98367200  0.26452800  0.75000000  1
  Ni  Ni4  1  0.13800100  0.43189300  0.59954800  1
  Ni  Ni5  1  0.13800100  0.43189300  0.90045200  1
  Ni  Ni6  1  0.16113800  0.84557900  0.60546000  1
  Ni  Ni7  1  0.16113800  0.84557900  0.89454000  1
  Ni  Ni8  1  0.33886200  0.34557900  0.10546000  1
  Ni  Ni9  1  0.33886200  0.34557900  0.39454000  1
  Ni  Ni10  1  0.36199900  0.93189300  0.09954800  1
  Ni  Ni11  1  0.36199900  0.93189300  0.40045200  1
  Ni  Ni12  1  0.63800100  0.06810700  0.59954800  1
  Ni  Ni13  1  0.63800100  0.06810700  0.90045200  1
  Ni  Ni14  1  0.66113800  0.65442100  0.60546000  1
  Ni  Ni15  1  0.66113800  0.65442100  0.89454000  1
  Ni  Ni16  1  0.83886200  0.15442100  0.10546000  1
  Ni  Ni17  1  0.83886200  0.15442100  0.39454000  1
  Ni  Ni18  1  0.86199900  0.56810700  0.40045200  1
  Ni  Ni19  1  0.86199900  0.56810700  0.09954800  1
  Cu  Cu20  1  0.02647500  0.40258100  0.25000000  1
  Cu  Cu21  1  0.14517700  0.13720900  0.58870400  1
  Cu  Cu22  1  0.14517700  0.13720900  0.91129600  1
  Cu  Cu23  1  0.35482300  0.63720900  0.08870400  1
  Cu  Cu24  1  0.35482300  0.63720900  0.41129600  1
  Cu  Cu25  1  0.47352500  0.90258100  0.75000000  1
  Cu  Cu26  1  0.52647500  0.09741900  0.25000000  1
  Cu  Cu27  1  0.64517700  0.36279100  0.58870400  1
  Cu  Cu28  1  0.64517700  0.36279100  0.91129600  1
  Cu  Cu29  1  0.85482300  0.86279100  0.41129600  1
  Cu  Cu30  1  0.85482300  0.86279100  0.08870400  1
  Cu  Cu31  1  0.97352500  0.59741900  0.75000000  1
  C  C32  1  0.99482600  0.96408600  0.11752000  1
  C  C33  1  0.99482600  0.96408600  0.38248000  1
  C  C34  1  0.04065100  0.45650800  0.75000000  1
  C  C35  1  0.04781700  0.65688700  0.66756500  1
  C  C36  1  0.04781700  0.65688700  0.83243500  1
  C  C37  1  0.08763300  0.20543200  0.99296900  1
  C  C38  1  0.08763300  0.20543200  0.50703100  1
  C  C39  1  0.16826600  0.56766500  0.07837100  1
  C  C40  1  0.16826600  0.56766500  0.42162900  1
  C  C41  1  0.16186200  0.24032800  0.65928000  1
  C  C42  1  0.16186200  0.24032800  0.84072000  1
  C  C43  1  0.23911300  0.39227200  0.25000000  1
  C  C44  1  0.26088700  0.89227200  0.75000000  1
  C  C45  1  0.33813800  0.74032800  0.34072000  1
  C  C46  1  0.33813800  0.74032800  0.15928000  1
  C  C47  1  0.33173400  0.06766500  0.57837100  1
  C  C48  1  0.33173400  0.06766500  0.92162900  1
  C  C49  1  0.41236700  0.70543200  0.49296900  1
  C  C50  1  0.41236700  0.70543200  0.00703100  1
  C  C51  1  0.45218300  0.15688700  0.16756500  1
  C  C52  1  0.45218300  0.15688700  0.33243500  1
  C  C53  1  0.45934900  0.95650800  0.25000000  1
  C  C54  1  0.50517400  0.46408600  0.61752000  1
  C  C55  1  0.50517400  0.46408600  0.88248000  1
  C  C56  1  0.49482600  0.53591400  0.11752000  1
  C  C57  1  0.49482600  0.53591400  0.38248000  1
  C  C58  1  0.54065100  0.04349200  0.75000000  1
  C  C59  1  0.54781700  0.84311300  0.66756500  1
  C  C60  1  0.54781700  0.84311300  0.83243500  1
  C  C61  1  0.58763300  0.29456800  0.99296900  1
  C  C62  1  0.58763300  0.29456800  0.50703100  1
  C  C63  1  0.66826600  0.93233500  0.07837100  1
  C  C64  1  0.66826600  0.93233500  0.42162900  1
  C  C65  1  0.66186200  0.25967200  0.65928000  1
  C  C66  1  0.66186200  0.25967200  0.84072000  1
  C  C67  1  0.73911300  0.10772800  0.25000000  1
  C  C68  1  0.76088700  0.60772800  0.75000000  1
  C  C69  1  0.83813800  0.75967200  0.15928000  1
  C  C70  1  0.83813800  0.75967200  0.34072000  1
  C  C71  1  0.83173400  0.43233500  0.57837100  1
  C  C72  1  0.83173400  0.43233500  0.92162900  1
  C  C73  1  0.91236700  0.79456800  0.49296900  1
  C  C74  1  0.91236700  0.79456800  0.00703100  1
  C  C75  1  0.95218300  0.34311300  0.16756500  1
  C  C76  1  0.95218300  0.34311300  0.33243500  1
  C  C77  1  0.95934900  0.54349200  0.25000000  1
  C  C78  1  0.00517400  0.03591400  0.61752000  1
  C  C79  1  0.00517400  0.03591400  0.88248000  1
