# generated using pymatgen
data_Cu5Ni7C6
_symmetry_space_group_name_H-M   'P 1'
_cell_length_a   4.65724400
_cell_length_b   5.62058713
_cell_length_c   7.81130627
_cell_angle_alpha   86.32027299
_cell_angle_beta   88.84276946
_cell_angle_gamma   89.00992803
_symmetry_Int_Tables_number   1
_chemical_formula_structural   Cu5Ni7C6
_chemical_formula_sum   'Cu5 Ni7 C6'
_cell_volume   203.98289583
_cell_formula_units_Z   1
loop_
 _symmetry_equiv_pos_site_id
 _symmetry_equiv_pos_as_xyz
  1  'x, y, z'
loop_
 _atom_site_type_symbol
 _atom_site_label
 _atom_site_symmetry_multiplicity
 _atom_site_fract_x
 _atom_site_fract_y
 _atom_site_fract_z
 _atom_site_occupancy
  C  C0  1  0.52245200  0.82841700  0.64470700  1
  C  C1  1  0.49439000  0.49791400  0.99599700  1
  C  C2  1  0.50220100  0.18258300  0.35812400  1
  C  C3  1  0.00288500  0.33801700  0.67285000  1
  C  C4  1  0.97480700  0.64389600  0.31647900  1
  C  C5  1  0.00518000  0.00357000  0.00309900  1
  Ni  Ni6  1  0.80683200  0.37402700  0.43699700  1
  Ni  Ni7  1  0.80677300  0.70452700  0.09842600  1
  Ni  Ni8  1  0.68787300  0.53997900  0.76886700  1
  Ni  Ni9  1  0.71772100  0.86346500  0.42566800  1
  Ni  Ni10  1  0.30587900  0.12832400  0.57656500  1
  Ni  Ni11  1  0.29224700  0.47107900  0.23539700  1
  Ni  Ni12  1  0.18618700  0.29186100  0.90740900  1
  Cu  Cu13  1  0.79832600  0.03482200  0.77252300  1
  Cu  Cu14  1  0.69269600  0.19537300  0.11016700  1
  Cu  Cu15  1  0.29653500  0.80289400  0.88727600  1
  Cu  Cu16  1  0.21070900  0.96373100  0.23338700  1
  Cu  Cu17  1  0.19630700  0.63551500  0.55605900  1
