# generated using pymatgen
data_Cu3NiC2
_symmetry_space_group_name_H-M   'P 1'
_cell_length_a   10.26602834
_cell_length_b   10.26602834
_cell_length_c   4.87715722
_cell_angle_alpha   88.29123947
_cell_angle_beta   88.29123947
_cell_angle_gamma   34.90444715
_symmetry_Int_Tables_number   1
_chemical_formula_structural   Cu3NiC2
_chemical_formula_sum   'Cu12 Ni4 C8'
_cell_volume   293.97776938
_cell_formula_units_Z   4
loop_
 _symmetry_equiv_pos_site_id
 _symmetry_equiv_pos_as_xyz
  1  'x, y, z'
loop_
 _atom_site_type_symbol
 _atom_site_label
 _atom_site_symmetry_multiplicity
 _atom_site_fract_x
 _atom_site_fract_y
 _atom_site_fract_z
 _atom_site_occupancy
  C  C0  1  0.87037000  0.37770100  0.50015900  1
  C  C1  1  0.62229900  0.12963000  0.49984100  1
  C  C2  1  0.12963000  0.62229900  0.49984100  1
  C  C3  1  0.37770100  0.87037000  0.50015900  1
  C  C4  1  0.50000000  0.50000000  0.00000000  1
  C  C5  1  0.24039400  0.24039400  0.03308100  1
  C  C6  1  0.00000000  0.00000000  0.00000000  1
  C  C7  1  0.75960600  0.75960600  0.96691900  1
  Ni  Ni8  1  0.57926700  0.57926700  0.68176100  1
  Ni  Ni9  1  0.83295200  0.83295200  0.66698900  1
  Ni  Ni10  1  0.42073300  0.42073300  0.31823900  1
  Ni  Ni11  1  0.16704800  0.16704800  0.33301100  1
  Cu  Cu12  1  0.94798700  0.44871800  0.79526600  1
  Cu  Cu13  1  0.44871800  0.94798700  0.79526600  1
  Cu  Cu14  1  0.70356900  0.19292300  0.79042700  1
  Cu  Cu15  1  0.19292300  0.70356900  0.79042700  1
  Cu  Cu16  1  0.07376100  0.07376100  0.69860200  1
  Cu  Cu17  1  0.32187600  0.32187600  0.70653200  1
  Cu  Cu18  1  0.92623900  0.92623900  0.30139800  1
  Cu  Cu19  1  0.67812400  0.67812400  0.29346800  1
  Cu  Cu20  1  0.55128200  0.05201300  0.20473400  1
  Cu  Cu21  1  0.29643100  0.80707700  0.20957300  1
  Cu  Cu22  1  0.05201300  0.55128200  0.20473400  1
  Cu  Cu23  1  0.80707700  0.29643100  0.20957300  1
