# generated using pymatgen
data_Cu2Ni5C13
_symmetry_space_group_name_H-M   'P 1'
_cell_length_a   22.40921799
_cell_length_b   22.40921799
_cell_length_c   22.40921819
_cell_angle_alpha   9.80681800
_cell_angle_beta   9.80681800
_cell_angle_gamma   9.80681859
_symmetry_Int_Tables_number   1
_chemical_formula_structural   Cu2Ni5C13
_chemical_formula_sum   'Cu2 Ni5 C13'
_cell_volume   283.42324963
_cell_formula_units_Z   1
loop_
 _symmetry_equiv_pos_site_id
 _symmetry_equiv_pos_as_xyz
  1  'x, y, z'
loop_
 _atom_site_type_symbol
 _atom_site_label
 _atom_site_symmetry_multiplicity
 _atom_site_fract_x
 _atom_site_fract_y
 _atom_site_fract_z
 _atom_site_occupancy
  Ni  Ni0  1  0.57208900  0.57208900  0.57208900  1
  Ni  Ni1  1  0.85775600  0.85775600  0.85775600  1
  Ni  Ni2  1  0.14345300  0.14345300  0.14345300  1
  Ni  Ni3  1  0.42913500  0.42913500  0.42913500  1
  Ni  Ni4  1  0.71503100  0.71503100  0.71503100  1
  Cu  Cu5  1  0.00106600  0.00106600  0.00106600  1
  Cu  Cu6  1  0.28373600  0.28373600  0.28373600  1
  C  C7  1  0.60704300  0.60704300  0.60704300  1
  C  C8  1  0.96921600  0.96921600  0.96921600  1
  C  C9  1  0.89250100  0.89250100  0.89250100  1
  C  C10  1  0.53547800  0.53547800  0.53547800  1
  C  C11  1  0.24969600  0.24969600  0.24969600  1
  C  C12  1  0.17823600  0.17823600  0.17823600  1
  C  C13  1  0.82116700  0.82116700  0.82116700  1
  C  C14  1  0.74959300  0.74959300  0.74959300  1
  C  C15  1  0.10685000  0.10685000  0.10685000  1
  C  C16  1  0.46392300  0.46392300  0.46392300  1
  C  C17  1  0.03598100  0.03598100  0.03598100  1
  C  C18  1  0.39280700  0.39280700  0.39280700  1
  C  C19  1  0.67380800  0.67380800  0.67380800  1
