# generated using pymatgen
data_Cu2Ni5C14
_symmetry_space_group_name_H-M   'P 1'
_cell_length_a   4.73160816
_cell_length_b   4.73160816
_cell_length_c   21.06625400
_cell_angle_alpha   90.00000000
_cell_angle_beta   90.00000000
_cell_angle_gamma   90.56534768
_symmetry_Int_Tables_number   1
_chemical_formula_structural   Cu2Ni5C14
_chemical_formula_sum   'Cu4 Ni10 C28'
_cell_volume   471.61077504
_cell_formula_units_Z   2
loop_
 _symmetry_equiv_pos_site_id
 _symmetry_equiv_pos_as_xyz
  1  'x, y, z'
loop_
 _atom_site_type_symbol
 _atom_site_label
 _atom_site_symmetry_multiplicity
 _atom_site_fract_x
 _atom_site_fract_y
 _atom_site_fract_z
 _atom_site_occupancy
  Ni  Ni0  1  0.00000000  0.00000000  0.93028700  1
  Ni  Ni1  1  0.00000000  0.00000000  0.78460900  1
  Ni  Ni2  1  0.00000000  0.00000000  0.64550100  1
  Ni  Ni3  1  0.00000000  0.00000000  0.06971300  1
  Ni  Ni4  1  0.00000000  0.00000000  0.21539100  1
  Ni  Ni5  1  0.00000000  0.00000000  0.35449900  1
  Ni  Ni6  1  0.00000000  0.00000000  0.50000000  1
  Ni  Ni7  1  0.50000000  0.50000000  0.00000000  1
  Ni  Ni8  1  0.50000000  0.50000000  0.71552400  1
  Ni  Ni9  1  0.50000000  0.50000000  0.28447600  1
  Cu  Cu10  1  0.50000000  0.50000000  0.14261700  1
  Cu  Cu11  1  0.50000000  0.50000000  0.42612100  1
  Cu  Cu12  1  0.50000000  0.50000000  0.85738300  1
  Cu  Cu13  1  0.50000000  0.50000000  0.57387900  1
  C  C14  1  0.19491800  0.19491800  0.00000000  1
  C  C15  1  0.19530000  0.19530000  0.71419900  1
  C  C16  1  0.19308400  0.19308400  0.85715600  1
  C  C17  1  0.19308400  0.19308400  0.14284400  1
  C  C18  1  0.19530000  0.19530000  0.28580100  1
  C  C19  1  0.19366400  0.19366400  0.42869100  1
  C  C20  1  0.19366400  0.19366400  0.57130900  1
  C  C21  1  0.69935900  0.30064100  0.64397200  1
  C  C22  1  0.69861900  0.30138100  0.78481300  1
  C  C23  1  0.69809700  0.30190300  0.07040000  1
  C  C24  1  0.69861900  0.30138100  0.21518700  1
  C  C25  1  0.69935900  0.30064100  0.35602800  1
  C  C26  1  0.69809700  0.30190300  0.92960000  1
  C  C27  1  0.70069300  0.29930700  0.50000000  1
  C  C28  1  0.30064100  0.69935900  0.64397200  1
  C  C29  1  0.30138100  0.69861900  0.78481300  1
  C  C30  1  0.30190300  0.69809700  0.92960000  1
  C  C31  1  0.30190300  0.69809700  0.07040000  1
  C  C32  1  0.30064100  0.69935900  0.35602800  1
  C  C33  1  0.29930700  0.70069300  0.50000000  1
  C  C34  1  0.30138100  0.69861900  0.21518700  1
  C  C35  1  0.80470000  0.80470000  0.71419900  1
  C  C36  1  0.80691600  0.80691600  0.85715600  1
  C  C37  1  0.80508200  0.80508200  0.00000000  1
  C  C38  1  0.80691600  0.80691600  0.14284400  1
  C  C39  1  0.80470000  0.80470000  0.28580100  1
  C  C40  1  0.80633600  0.80633600  0.42869100  1
  C  C41  1  0.80633600  0.80633600  0.57130900  1
