# generated using pymatgen
data_Cu2Ni2C35
_symmetry_space_group_name_H-M   'P 1'
_cell_length_a   12.59622500
_cell_length_b   6.28291900
_cell_length_c   9.26680105
_cell_angle_alpha   73.35919616
_cell_angle_beta   90.00000000
_cell_angle_gamma   90.00000000
_symmetry_Int_Tables_number   1
_chemical_formula_structural   Cu2Ni2C35
_chemical_formula_sum   'Cu4 Ni4 C70'
_cell_volume   702.66950426
_cell_formula_units_Z   2
loop_
 _symmetry_equiv_pos_site_id
 _symmetry_equiv_pos_as_xyz
  1  'x, y, z'
loop_
 _atom_site_type_symbol
 _atom_site_label
 _atom_site_symmetry_multiplicity
 _atom_site_fract_x
 _atom_site_fract_y
 _atom_site_fract_z
 _atom_site_occupancy
  C  C0  1  0.50000000  0.00000000  0.50000000  1
  C  C1  1  0.00000000  0.00000000  0.00000000  1
  C  C2  1  0.16608800  0.80328900  0.56040100  1
  C  C3  1  0.66608800  0.19671100  0.93959900  1
  C  C4  1  0.83391200  0.19671100  0.43959900  1
  C  C5  1  0.33391200  0.80328900  0.06040100  1
  C  C6  1  0.19671500  0.60685500  0.72606000  1
  C  C7  1  0.69671500  0.39314500  0.77394000  1
  C  C8  1  0.80328500  0.39314500  0.27394000  1
  C  C9  1  0.30328500  0.60685500  0.22606000  1
  C  C10  1  0.16375600  0.53406600  0.57095000  1
  C  C11  1  0.66375600  0.46593400  0.92905000  1
  C  C12  1  0.83624400  0.46593400  0.42905000  1
  C  C13  1  0.33624400  0.53406600  0.07095000  1
  C  C14  1  0.06969800  0.63876900  0.66413800  1
  C  C15  1  0.56969800  0.36123100  0.83586200  1
  C  C16  1  0.93030200  0.36123100  0.33586200  1
  C  C17  1  0.43030200  0.63876900  0.16413800  1
  C  C18  1  0.40822000  0.68007500  0.71547300  1
  C  C19  1  0.90822000  0.31992500  0.78452700  1
  C  C20  1  0.59178000  0.31992500  0.28452700  1
  C  C21  1  0.09178000  0.68007500  0.21547300  1
  C  C22  1  0.37477500  0.91011000  0.74581800  1
  C  C23  1  0.87477500  0.08989000  0.75418200  1
  C  C24  1  0.62522500  0.08989000  0.25418200  1
  C  C25  1  0.12522500  0.91011000  0.24581800  1
  C  C26  1  0.40277700  0.05531100  0.22988100  1
  C  C27  1  0.90277700  0.94468900  0.27011900  1
  C  C28  1  0.59722300  0.94468900  0.77011900  1
  C  C29  1  0.09722300  0.05531100  0.72988100  1
  C  C30  1  0.31659000  0.98900900  0.35873800  1
  C  C31  1  0.81659000  0.01099100  0.14126200  1
  C  C32  1  0.68341000  0.01099100  0.64126200  1
  C  C33  1  0.18341000  0.98900900  0.85873800  1
  C  C34  1  0.56012700  0.65658500  0.41058000  1
  C  C35  1  0.06012700  0.34341500  0.08942000  1
  C  C36  1  0.43987300  0.34341500  0.58942000  1
  C  C37  1  0.93987300  0.65658500  0.91058000  1
  C  C38  1  0.64525000  0.67126100  0.53222600  1
  C  C39  1  0.14525000  0.32873900  0.96777400  1
  C  C40  1  0.35475000  0.32873900  0.46777400  1
  C  C41  1  0.85475000  0.67126100  0.03222600  1
  Ni  Ni42  1  0.36215600  0.26035800  0.90712900  1
  Ni  Ni43  1  0.86215600  0.73964200  0.59287100  1
  Ni  Ni44  1  0.63784400  0.73964200  0.09287100  1
  Ni  Ni45  1  0.13784400  0.26035800  0.40712900  1
  Cu  Cu46  1  0.14939200  0.64633500  0.63119000  1
  Cu  Cu47  1  0.64939200  0.35366500  0.86881000  1
  Cu  Cu48  1  0.85060800  0.35366500  0.36881000  1
  Cu  Cu49  1  0.35060800  0.64633500  0.13119000  1
  C  C50  1  0.26998100  0.41057400  0.91111200  1
  C  C51  1  0.76998100  0.58942600  0.58888800  1
  C  C52  1  0.73001900  0.58942600  0.08888800  1
  C  C53  1  0.23001900  0.41057400  0.41111200  1
  C  C54  1  0.42255000  0.21459900  0.04935100  1
  C  C55  1  0.92255000  0.78540100  0.45064900  1
  C  C56  1  0.57745000  0.78540100  0.95064900  1
  C  C57  1  0.07745000  0.21459900  0.54935100  1
  C  C58  1  0.43287600  0.37865200  0.77859800  1
  C  C59  1  0.93287600  0.62134800  0.72140200  1
  C  C60  1  0.56712400  0.62134800  0.22140200  1
  C  C61  1  0.06712400  0.37865200  0.27859800  1
  C  C62  1  0.32183100  0.04798400  0.88262400  1
  C  C63  1  0.82183100  0.95201600  0.61737600  1
  C  C64  1  0.67816900  0.95201600  0.11737600  1
  C  C65  1  0.17816900  0.04798400  0.38262400  1
  C  C66  1  0.38826400  0.83672900  0.66652700  1
  C  C67  1  0.88826400  0.16327100  0.83347300  1
  C  C68  1  0.61173600  0.16327100  0.33347300  1
  C  C69  1  0.11173600  0.83672900  0.16652700  1
  C  C70  1  0.39047500  0.95858700  0.33431300  1
  C  C71  1  0.89047500  0.04141300  0.16568700  1
  C  C72  1  0.60952500  0.04141300  0.66568700  1
  C  C73  1  0.10952500  0.95858700  0.83431300  1
  C  C74  1  0.56822600  0.69096500  0.50757100  1
  C  C75  1  0.06822600  0.30903500  0.99242900  1
  C  C76  1  0.43177400  0.30903500  0.49242900  1
  C  C77  1  0.93177400  0.69096500  0.00757100  1
