# generated using pymatgen
data_Cu2NiC4
_symmetry_space_group_name_H-M   'P 1'
_cell_length_a   3.34598800
_cell_length_b   10.01134600
_cell_length_c   11.78099900
_cell_angle_alpha   90.00000000
_cell_angle_beta   90.00000000
_cell_angle_gamma   90.00000000
_symmetry_Int_Tables_number   1
_chemical_formula_structural   Cu2NiC4
_chemical_formula_sum   'Cu8 Ni4 C16'
_cell_volume   394.63806172
_cell_formula_units_Z   4
loop_
 _symmetry_equiv_pos_site_id
 _symmetry_equiv_pos_as_xyz
  1  'x, y, z'
loop_
 _atom_site_type_symbol
 _atom_site_label
 _atom_site_symmetry_multiplicity
 _atom_site_fract_x
 _atom_site_fract_y
 _atom_site_fract_z
 _atom_site_occupancy
  Ni  Ni0  1  0.75000000  0.24584100  0.64972000  1
  Ni  Ni1  1  0.25000000  0.25415900  0.14972000  1
  Ni  Ni2  1  0.75000000  0.74584100  0.85028000  1
  Ni  Ni3  1  0.25000000  0.75415900  0.35028000  1
  Cu  Cu4  1  0.75000000  0.07304200  0.88769900  1
  Cu  Cu5  1  0.75000000  0.07884700  0.39079200  1
  Cu  Cu6  1  0.25000000  0.42115300  0.89079200  1
  Cu  Cu7  1  0.25000000  0.42695800  0.38769900  1
  Cu  Cu8  1  0.75000000  0.57304200  0.61230100  1
  Cu  Cu9  1  0.75000000  0.57884700  0.10920800  1
  Cu  Cu10  1  0.25000000  0.92115300  0.60920800  1
  Cu  Cu11  1  0.25000000  0.92695800  0.11230100  1
  C  C12  1  0.25000000  0.01929500  0.28298200  1
  C  C13  1  0.75000000  0.07480000  0.07538700  1
  C  C14  1  0.25000000  0.12132800  0.51965900  1
  C  C15  1  0.25000000  0.20924200  0.83036600  1
  C  C16  1  0.75000000  0.29075800  0.33036600  1
  C  C17  1  0.75000000  0.37867200  0.01965900  1
  C  C18  1  0.25000000  0.42520000  0.57538700  1
  C  C19  1  0.75000000  0.48070500  0.78298200  1
  C  C20  1  0.25000000  0.51929500  0.21701800  1
  C  C21  1  0.75000000  0.57480000  0.42461300  1
  C  C22  1  0.25000000  0.62132800  0.98034100  1
  C  C23  1  0.25000000  0.70924200  0.66963400  1
  C  C24  1  0.75000000  0.79075800  0.16963400  1
  C  C25  1  0.75000000  0.87867200  0.48034100  1
  C  C26  1  0.25000000  0.92520000  0.92461300  1
  C  C27  1  0.75000000  0.98070500  0.71701800  1
