# generated using pymatgen
data_Cu3Ni13C80
_symmetry_space_group_name_H-M   'P 1'
_cell_length_a   5.08636300
_cell_length_b   8.82100230
_cell_length_c   19.60869799
_cell_angle_alpha   98.36024036
_cell_angle_beta   94.82437159
_cell_angle_gamma   89.88016011
_symmetry_Int_Tables_number   1
_chemical_formula_structural   Cu3Ni13C80
_chemical_formula_sum   'Cu3 Ni13 C80'
_cell_volume   867.30127582
_cell_formula_units_Z   1
loop_
 _symmetry_equiv_pos_site_id
 _symmetry_equiv_pos_as_xyz
  1  'x, y, z'
loop_
 _atom_site_type_symbol
 _atom_site_label
 _atom_site_symmetry_multiplicity
 _atom_site_fract_x
 _atom_site_fract_y
 _atom_site_fract_z
 _atom_site_occupancy
  C  C0  1  0.99181600  0.17000800  0.24971800  1
  C  C1  1  0.87508800  0.37433400  0.37503200  1
  C  C2  1  0.75023700  0.24990500  0.99992100  1
  C  C3  1  0.74325800  0.91852700  0.99947100  1
  C  C4  1  0.99255500  0.16933400  0.74970900  1
  C  C5  1  0.76102900  0.58074800  0.49993600  1
  C  C6  1  0.87478500  0.37703700  0.87481900  1
  C  C7  1  0.75255400  0.25131800  0.50001900  1
  C  C8  1  0.74090500  0.91822600  0.50012000  1
  C  C9  1  0.62511700  0.12496200  0.12497200  1
  C  C10  1  0.75966800  0.58066900  0.99919600  1
  C  C11  1  0.50992100  0.33019700  0.25063000  1
  C  C12  1  0.62311700  0.12541900  0.62523800  1
  C  C13  1  0.50087900  0.00079200  0.25034200  1
  C  C14  1  0.49100300  0.66877800  0.25002900  1
  C  C15  1  0.50505600  0.32956200  0.74972400  1
  C  C16  1  0.37486400  0.87453000  0.37501600  1
  C  C17  1  0.49989000  0.00055300  0.75003300  1
  C  C18  1  0.24482800  0.75099300  0.99963000  1
  C  C19  1  0.49590800  0.67035800  0.75060600  1
  C  C20  1  0.24196000  0.41988500  0.00029300  1
  C  C21  1  0.37446200  0.87414300  0.87512200  1
  C  C22  1  0.25672800  0.08160100  0.49971100  1
  C  C23  1  0.24936000  0.75028300  0.49997000  1
  C  C24  1  0.12491200  0.62501300  0.12492600  1
  C  C25  1  0.23851700  0.41787400  0.50007600  1
  C  C26  1  0.00823600  0.82938500  0.24960500  1
  C  C27  1  0.25940600  0.07983400  0.99996200  1
  C  C28  1  0.12413600  0.62295700  0.62485300  1
  C  C29  1  0.99784600  0.50088100  0.24966000  1
  C  C30  1  0.00798800  0.83006900  0.75079600  1
  C  C31  1  0.99903900  0.50052100  0.75038000  1
  Ni  Ni32  1  0.87385600  0.70973300  0.37497000  1
  Ni  Ni33  1  0.87589500  0.04585800  0.37507300  1
  Ni  Ni34  1  0.87863700  0.04017600  0.87590500  1
  Ni  Ni35  1  0.62609200  0.79118500  0.12478800  1
  Ni  Ni36  1  0.62381600  0.45880300  0.12486400  1
  Ni  Ni37  1  0.63120100  0.79099300  0.62468400  1
  Ni  Ni38  1  0.62038900  0.45769500  0.62348300  1
  Ni  Ni39  1  0.37628200  0.53879900  0.37518600  1
  Ni  Ni40  1  0.37600200  0.54155500  0.87409600  1
  Ni  Ni41  1  0.37462800  0.20854400  0.87486900  1
  Ni  Ni42  1  0.12379200  0.95869000  0.12495500  1
  Ni  Ni43  1  0.12664600  0.29117800  0.12496200  1
  Ni  Ni44  1  0.13069400  0.96074700  0.62720800  1
  Cu  Cu45  1  0.87128200  0.70953500  0.87501900  1
  Cu  Cu46  1  0.37368000  0.20685700  0.37494100  1
  Cu  Cu47  1  0.12016500  0.29028900  0.62505300  1
  C  C48  1  0.96260800  0.10626900  0.06824900  1
  C  C49  1  0.92868500  0.78435800  0.06841900  1
  C  C50  1  0.92787600  0.42753200  0.06712500  1
  C  C51  1  0.96381600  0.11223500  0.56908500  1
  C  C52  1  0.82197500  0.96573600  0.18186700  1
  C  C53  1  0.82277500  0.32248300  0.18279700  1
  C  C54  1  0.92758300  0.78599500  0.56826300  1
  C  C55  1  0.92410600  0.42870600  0.56700900  1
  C  C56  1  0.78775900  0.64350100  0.18165000  1
  C  C57  1  0.71417700  0.85720700  0.31824600  1
  C  C58  1  0.82116300  0.96602700  0.68183900  1
  C  C59  1  0.83129700  0.32095300  0.68210700  1
  C  C60  1  0.67822200  0.53445700  0.31829600  1
  C  C61  1  0.68004000  0.17805900  0.31707400  1
  C  C62  1  0.78479700  0.64315900  0.68168400  1
  C  C63  1  0.71303200  0.85236600  0.81889400  1
  C  C64  1  0.46234600  0.60641800  0.06816500  1
  C  C65  1  0.57104900  0.71448700  0.43180300  1
  C  C66  1  0.56725800  0.07577800  0.43221700  1
  C  C67  1  0.67651700  0.53394600  0.81824400  1
  C  C68  1  0.67703600  0.17620400  0.81724700  1
  C  C69  1  0.42768800  0.92731200  0.06717400  1
  C  C70  1  0.42883200  0.28437100  0.06830400  1
  C  C71  1  0.53656700  0.38978400  0.43099300  1
  C  C72  1  0.46307100  0.60582300  0.56786200  1
  C  C73  1  0.57942100  0.71670300  0.93091500  1
  C  C74  1  0.57235500  0.07221700  0.93273900  1
  C  C75  1  0.32248500  0.82253300  0.18286700  1
  C  C76  1  0.32153300  0.46554900  0.18173800  1
  C  C77  1  0.42725000  0.92783500  0.56713000  1
  C  C78  1  0.42399900  0.28292100  0.56942900  1
  C  C79  1  0.53595500  0.39464900  0.93188600  1
  C  C80  1  0.28773200  0.14354300  0.18157600  1
  C  C81  1  0.21350200  0.35312100  0.31928900  1
  C  C82  1  0.32159700  0.82331200  0.68302100  1
  C  C83  1  0.31900100  0.46259100  0.68085000  1
  C  C84  1  0.17785500  0.67625200  0.31715900  1
  C  C85  1  0.18440100  0.03811900  0.31915100  1
  C  C86  1  0.29093700  0.14232700  0.68197800  1
  C  C87  1  0.21383100  0.35701200  0.81831100  1
  C  C88  1  0.07247800  0.57268700  0.43286000  1
  C  C89  1  0.06891100  0.21616300  0.43178200  1
  C  C90  1  0.17336100  0.67950300  0.81810100  1
  C  C91  1  0.17842300  0.03403700  0.81818900  1
  C  C92  1  0.03549900  0.89462300  0.43191500  1
  C  C93  1  0.06999400  0.57410800  0.93191800  1
  C  C94  1  0.07138500  0.21444400  0.93166200  1
  C  C95  1  0.03969700  0.89325500  0.93135300  1
