# generated using pymatgen
data_Cu7NiC4
_symmetry_space_group_name_H-M   'P 1'
_cell_length_a   4.85432075
_cell_length_b   4.85432075
_cell_length_c   6.36789500
_cell_angle_alpha   90.00000000
_cell_angle_beta   90.00000000
_cell_angle_gamma   90.62538671
_symmetry_Int_Tables_number   1
_chemical_formula_structural   Cu7NiC4
_chemical_formula_sum   'Cu7 Ni1 C4'
_cell_volume   150.04687679
_cell_formula_units_Z   1
loop_
 _symmetry_equiv_pos_site_id
 _symmetry_equiv_pos_as_xyz
  1  'x, y, z'
loop_
 _atom_site_type_symbol
 _atom_site_label
 _atom_site_symmetry_multiplicity
 _atom_site_fract_x
 _atom_site_fract_y
 _atom_site_fract_z
 _atom_site_occupancy
  C  C0  1  0.00919500  0.00919500  0.73047000  1
  C  C1  1  0.00919500  0.00919500  0.26953000  1
  C  C2  1  0.48024900  0.48024900  0.50000000  1
  C  C3  1  0.50653500  0.50653500  0.00000000  1
  Ni  Ni4  1  0.19462600  0.19462600  0.50000000  1
  Cu  Cu5  1  0.19916700  0.19916700  0.00000000  1
  Cu  Cu6  1  0.70764300  0.29397700  0.75554700  1
  Cu  Cu7  1  0.70764300  0.29397700  0.24445300  1
  Cu  Cu8  1  0.29397700  0.70764300  0.75554700  1
  Cu  Cu9  1  0.29397700  0.70764300  0.24445300  1
  Cu  Cu10  1  0.78520200  0.78520200  0.50000000  1
  Cu  Cu11  1  0.81259300  0.81259300  0.00000000  1
