# generated using pymatgen
data_CuNiC
_symmetry_space_group_name_H-M   'P 1'
_cell_length_a   3.08698500
_cell_length_b   9.55187000
_cell_length_c   9.61327807
_cell_angle_alpha   89.51312820
_cell_angle_beta   90.00000000
_cell_angle_gamma   90.00000000
_symmetry_Int_Tables_number   1
_chemical_formula_structural   CuNiC
_chemical_formula_sum   'Cu8 Ni8 C8'
_cell_volume   283.45149202
_cell_formula_units_Z   8
loop_
 _symmetry_equiv_pos_site_id
 _symmetry_equiv_pos_as_xyz
  1  'x, y, z'
loop_
 _atom_site_type_symbol
 _atom_site_label
 _atom_site_symmetry_multiplicity
 _atom_site_fract_x
 _atom_site_fract_y
 _atom_site_fract_z
 _atom_site_occupancy
  C  C0  1  0.00000000  0.97879900  0.00037000  1
  C  C1  1  0.00000000  0.99259800  0.50730500  1
  C  C2  1  0.50000000  0.74049300  0.22052100  1
  C  C3  1  0.50000000  0.77080000  0.74736700  1
  C  C4  1  0.00000000  0.47871100  0.50085400  1
  C  C5  1  0.00000000  0.48988300  0.01128300  1
  C  C6  1  0.50000000  0.26963000  0.24951400  1
  C  C7  1  0.50000000  0.28172900  0.76198400  1
  Ni  Ni8  1  0.50000000  0.90296500  0.90047900  1
  Ni  Ni9  1  0.00000000  0.84766300  0.15590000  1
  Ni  Ni10  1  0.00000000  0.85266900  0.64506500  1
  Ni  Ni11  1  0.50000000  0.59409800  0.09365200  1
  Ni  Ni12  1  0.50000000  0.40040900  0.40578600  1
  Ni  Ni13  1  0.50000000  0.40906600  0.90703600  1
  Ni  Ni14  1  0.00000000  0.33680600  0.15541600  1
  Ni  Ni15  1  0.00000000  0.34783500  0.65652100  1
  Cu  Cu16  1  0.50000000  0.90577700  0.40258400  1
  Cu  Cu17  1  0.00000000  0.65567200  0.35119400  1
  Cu  Cu18  1  0.00000000  0.65886300  0.83365500  1
  Cu  Cu19  1  0.50000000  0.60067200  0.59596700  1
  Cu  Cu20  1  0.00000000  0.14072800  0.35521800  1
  Cu  Cu21  1  0.00000000  0.15275700  0.84942200  1
  Cu  Cu22  1  0.50000000  0.09322300  0.09864100  1
  Cu  Cu23  1  0.50000000  0.09815000  0.59426500  1
