# generated using pymatgen
data_Cu2Ni2C3
_symmetry_space_group_name_H-M   'P 1'
_cell_length_a   15.39719700
_cell_length_b   6.01896700
_cell_length_c   8.65030357
_cell_angle_alpha   74.34404950
_cell_angle_beta   90.00000000
_cell_angle_gamma   90.00000000
_symmetry_Int_Tables_number   1
_chemical_formula_structural   Cu2Ni2C3
_chemical_formula_sum   'Cu8 Ni8 C12'
_cell_volume   771.92648053
_cell_formula_units_Z   4
loop_
 _symmetry_equiv_pos_site_id
 _symmetry_equiv_pos_as_xyz
  1  'x, y, z'
loop_
 _atom_site_type_symbol
 _atom_site_label
 _atom_site_symmetry_multiplicity
 _atom_site_fract_x
 _atom_site_fract_y
 _atom_site_fract_z
 _atom_site_occupancy
  C  C0  1  0.75592700  0.10474800  0.12872000  1
  C  C1  1  0.25592700  0.89525200  0.37128000  1
  C  C2  1  0.24407300  0.89525200  0.87128000  1
  C  C3  1  0.74407300  0.10474800  0.62872000  1
  C  C4  1  0.55127700  0.27184700  0.30261800  1
  C  C5  1  0.05127700  0.72815300  0.19738200  1
  C  C6  1  0.44872300  0.72815300  0.69738200  1
  C  C7  1  0.94872300  0.27184700  0.80261800  1
  C  C8  1  0.60439600  0.04024500  0.38308500  1
  C  C9  1  0.10439600  0.95975500  0.11691500  1
  C  C10  1  0.39560400  0.95975500  0.61691500  1
  C  C11  1  0.89560400  0.04024500  0.88308500  1
  Ni  Ni12  1  0.48185400  0.38513500  0.21035600  1
  Ni  Ni13  1  0.98185400  0.61486500  0.28964400  1
  Ni  Ni14  1  0.51814600  0.61486500  0.78964400  1
  Ni  Ni15  1  0.01814600  0.38513500  0.71035600  1
  Ni  Ni16  1  0.53684100  0.50893500  0.26629300  1
  Ni  Ni17  1  0.03684100  0.49106500  0.23370700  1
  Ni  Ni18  1  0.46315900  0.49106500  0.73370700  1
  Ni  Ni19  1  0.96315900  0.50893500  0.76629300  1
  Cu  Cu20  1  0.63773900  0.11072300  0.91826400  1
  Cu  Cu21  1  0.13773900  0.88927700  0.58173600  1
  Cu  Cu22  1  0.36226100  0.88927700  0.08173600  1
  Cu  Cu23  1  0.86226100  0.11072300  0.41826400  1
  Cu  Cu24  1  0.76366000  0.53025200  0.05325500  1
  Cu  Cu25  1  0.26366000  0.46974800  0.44674500  1
  Cu  Cu26  1  0.23634000  0.46974800  0.94674500  1
  Cu  Cu27  1  0.73634000  0.53025200  0.55325500  1
