# generated using pymatgen
data_Cu3NiC4
_symmetry_space_group_name_H-M   'P 1'
_cell_length_a   5.94262863
_cell_length_b   5.95333705
_cell_length_c   8.63390968
_cell_angle_alpha   89.99833207
_cell_angle_beta   89.82794376
_cell_angle_gamma   90.00027778
_symmetry_Int_Tables_number   1
_chemical_formula_structural   Cu3NiC4
_chemical_formula_sum   'Cu12 Ni4 C16'
_cell_volume   305.45314760
_cell_formula_units_Z   4
loop_
 _symmetry_equiv_pos_site_id
 _symmetry_equiv_pos_as_xyz
  1  'x, y, z'
loop_
 _atom_site_type_symbol
 _atom_site_label
 _atom_site_symmetry_multiplicity
 _atom_site_fract_x
 _atom_site_fract_y
 _atom_site_fract_z
 _atom_site_occupancy
  C  C0  1  0.74999900  0.24999700  0.25000000  1
  C  C1  1  0.25000100  0.75000300  0.75000000  1
  C  C2  1  0.25000000  0.75000100  0.24999900  1
  C  C3  1  0.75000100  0.24999900  0.75000100  1
  C  C4  1  0.75000100  0.75000200  0.25000000  1
  C  C5  1  0.24999900  0.24999700  0.75000000  1
  C  C6  1  0.25000000  0.24999800  0.25000000  1
  C  C7  1  0.75000000  0.75000300  0.75000000  1
  C  C8  1  0.00000000  0.50000000  0.50000000  1
  C  C9  1  0.50000000  0.00000000  0.00000000  1
  C  C10  1  0.00000000  0.00000000  0.50000000  1
  C  C11  1  0.50000000  0.50000000  0.00000000  1
  C  C12  1  0.49999900  0.50000100  0.50000300  1
  C  C13  1  0.00000000  0.49999600  0.99999900  1
  C  C14  1  0.99999700  0.99999500  0.99999900  1
  C  C15  1  0.49999900  0.00000300  0.50000100  1
  Ni  Ni16  1  0.71917100  0.24999800  0.50115200  1
  Ni  Ni17  1  0.21918600  0.75000700  0.00113700  1
  Ni  Ni18  1  0.28082700  0.75000300  0.49884700  1
  Ni  Ni19  1  0.78081800  0.24999600  0.99886400  1
  Cu  Cu20  1  0.77725900  0.75001100  0.50505600  1
  Cu  Cu21  1  0.27726200  0.24998700  0.00505300  1
  Cu  Cu22  1  0.22274000  0.24998700  0.49494300  1
  Cu  Cu23  1  0.72273800  0.75001200  0.99494700  1
  Cu  Cu24  1  0.99745400  0.50087100  0.25914300  1
  Cu  Cu25  1  0.49744200  0.00089100  0.75913500  1
  Cu  Cu26  1  0.00255300  0.00089100  0.74086600  1
  Cu  Cu27  1  0.50253500  0.50088000  0.24085300  1
  Cu  Cu28  1  0.99744900  0.99911100  0.25913400  1
  Cu  Cu29  1  0.49746400  0.49912000  0.75914600  1
  Cu  Cu30  1  0.00254700  0.49912700  0.74085700  1
  Cu  Cu31  1  0.50255700  0.99910900  0.24086600  1
