# generated using pymatgen
data_Cu4NiC
_symmetry_space_group_name_H-M   'P 1'
_cell_length_a   8.74351981
_cell_length_b   8.74351981
_cell_length_c   8.74351948
_cell_angle_alpha   59.44531763
_cell_angle_beta   59.44531763
_cell_angle_gamma   59.44531910
_symmetry_Int_Tables_number   1
_chemical_formula_structural   Cu4NiC
_chemical_formula_sum   'Cu24 Ni6 C6'
_cell_volume   466.69010028
_cell_formula_units_Z   6
loop_
 _symmetry_equiv_pos_site_id
 _symmetry_equiv_pos_as_xyz
  1  'x, y, z'
loop_
 _atom_site_type_symbol
 _atom_site_label
 _atom_site_symmetry_multiplicity
 _atom_site_fract_x
 _atom_site_fract_y
 _atom_site_fract_z
 _atom_site_occupancy
  C  C0  1  0.50000000  0.50000000  0.50000000  1
  C  C1  1  0.00000000  0.00000000  0.00000000  1
  C  C2  1  0.85667400  0.85667400  0.85667400  1
  C  C3  1  0.64332600  0.64332600  0.64332600  1
  C  C4  1  0.14332600  0.14332600  0.14332600  1
  C  C5  1  0.35667400  0.35667400  0.35667400  1
  Ni  Ni6  1  0.25000000  0.54451900  0.95548100  1
  Ni  Ni7  1  0.45548100  0.04451900  0.75000000  1
  Ni  Ni8  1  0.04451900  0.75000000  0.45548100  1
  Ni  Ni9  1  0.95548100  0.25000000  0.54451900  1
  Ni  Ni10  1  0.54451900  0.95548100  0.25000000  1
  Ni  Ni11  1  0.75000000  0.45548100  0.04451900  1
  Cu  Cu12  1  0.40870400  0.55923400  0.77082700  1
  Cu  Cu13  1  0.22917300  0.59129600  0.44076600  1
  Cu  Cu14  1  0.39385000  0.99163300  0.19335400  1
  Cu  Cu15  1  0.50836700  0.10615000  0.30664600  1
  Cu  Cu16  1  0.09129600  0.72917300  0.94076600  1
  Cu  Cu17  1  0.27082700  0.05923400  0.90870400  1
  Cu  Cu18  1  0.44076600  0.22917300  0.59129600  1
  Cu  Cu19  1  0.69335400  0.49163300  0.89385000  1
  Cu  Cu20  1  0.00836700  0.80664600  0.60615000  1
  Cu  Cu21  1  0.80664600  0.60615000  0.00836700  1
  Cu  Cu22  1  0.89385000  0.69335400  0.49163300  1
  Cu  Cu23  1  0.05923400  0.90870400  0.27082700  1
  Cu  Cu24  1  0.94076600  0.09129600  0.72917300  1
  Cu  Cu25  1  0.19335400  0.39385000  0.99163300  1
  Cu  Cu26  1  0.10615000  0.30664600  0.50836700  1
  Cu  Cu27  1  0.30664600  0.50836700  0.10615000  1
  Cu  Cu28  1  0.99163300  0.19335400  0.39385000  1
  Cu  Cu29  1  0.55923400  0.77082700  0.40870400  1
  Cu  Cu30  1  0.72917300  0.94076600  0.09129600  1
  Cu  Cu31  1  0.90870400  0.27082700  0.05923400  1
  Cu  Cu32  1  0.60615000  0.00836700  0.80664600  1
  Cu  Cu33  1  0.49163300  0.89385000  0.69335400  1
  Cu  Cu34  1  0.77082700  0.40870400  0.55923400  1
  Cu  Cu35  1  0.59129600  0.44076600  0.22917300  1
