# generated using pymatgen
data_Cu4Ni4C15
_symmetry_space_group_name_H-M   'P 1'
_cell_length_a   6.75040000
_cell_length_b   7.86777462
_cell_length_c   10.13407446
_cell_angle_alpha   67.27710292
_cell_angle_beta   80.71925007
_cell_angle_gamma   77.73449269
_symmetry_Int_Tables_number   1
_chemical_formula_structural   Cu4Ni4C15
_chemical_formula_sum   'Cu8 Ni8 C30'
_cell_volume   483.24269995
_cell_formula_units_Z   2
loop_
 _symmetry_equiv_pos_site_id
 _symmetry_equiv_pos_as_xyz
  1  'x, y, z'
loop_
 _atom_site_type_symbol
 _atom_site_label
 _atom_site_symmetry_multiplicity
 _atom_site_fract_x
 _atom_site_fract_y
 _atom_site_fract_z
 _atom_site_occupancy
  C  C0  1  0.77878800  0.50076500  0.88229600  1
  C  C1  1  0.24861900  0.96824600  0.57553800  1
  C  C2  1  0.75138100  0.03175400  0.42446200  1
  C  C3  1  0.22121200  0.49923500  0.11770400  1
  Ni  Ni4  1  0.27100900  0.58288600  0.82135600  1
  Ni  Ni5  1  0.72755900  0.86085200  0.71399900  1
  Ni  Ni6  1  0.37981000  0.15957100  0.71608400  1
  Ni  Ni7  1  0.92164600  0.17048700  0.71506400  1
  Ni  Ni8  1  0.07835400  0.82951300  0.28493600  1
  Ni  Ni9  1  0.62019000  0.84042900  0.28391600  1
  Ni  Ni10  1  0.27244100  0.13914800  0.28600100  1
  Ni  Ni11  1  0.72899100  0.41711400  0.17864400  1
  Cu  Cu12  1  0.08708900  0.19081600  0.99245800  1
  Cu  Cu13  1  0.57142800  0.19431800  0.98813200  1
  Cu  Cu14  1  0.57824900  0.55557600  0.61531400  1
  Cu  Cu15  1  0.07987700  0.55898600  0.61311500  1
  Cu  Cu16  1  0.92012300  0.44101400  0.38688500  1
  Cu  Cu17  1  0.42175100  0.44442400  0.38468600  1
  Cu  Cu18  1  0.42857200  0.80568200  0.01186800  1
  Cu  Cu19  1  0.91291100  0.80918400  0.00754200  1
  C  C20  1  0.85843700  0.11684800  0.88672500  1
  C  C21  1  0.20913000  0.70510000  0.92634300  1
  C  C22  1  0.50746900  0.46527200  0.84143400  1
  C  C23  1  0.09223200  0.45505900  0.83714200  1
  C  C24  1  0.71649900  0.76074200  0.88805600  1
  C  C25  1  0.39027200  0.10145300  0.88752400  1
  C  C26  1  0.86133700  0.38710500  0.60800900  1
  C  C27  1  0.40564900  0.36893900  0.60721400  1
  C  C28  1  0.28017300  0.70626000  0.64565100  1
  C  C29  1  0.79105100  0.72453800  0.62351000  1
  C  C30  1  0.16455100  0.12314000  0.69357000  1
  C  C31  1  0.51226700  0.99538400  0.65686600  1
  C  C32  1  0.87572900  0.02111100  0.65142000  1
  C  C33  1  0.12427100  0.97888900  0.34858000  1
  C  C34  1  0.48773300  0.00461600  0.34313400  1
  C  C35  1  0.83544900  0.87686000  0.30643000  1
  C  C36  1  0.20894900  0.27546200  0.37649000  1
  C  C37  1  0.71982700  0.29374000  0.35434900  1
  C  C38  1  0.59435100  0.63106100  0.39278600  1
  C  C39  1  0.13866300  0.61289500  0.39199100  1
  C  C40  1  0.60972800  0.89854700  0.11247600  1
  C  C41  1  0.28350100  0.23925800  0.11194400  1
  C  C42  1  0.90776800  0.54494100  0.16285800  1
  C  C43  1  0.49253100  0.53472800  0.15856600  1
  C  C44  1  0.79087000  0.29490000  0.07365700  1
  C  C45  1  0.14156300  0.88315200  0.11327500  1
