# generated using pymatgen
data_Cu2Ni3C31
_symmetry_space_group_name_H-M   'P 1'
_cell_length_a   8.46129023
_cell_length_b   8.46129023
_cell_length_c   8.46129031
_cell_angle_alpha   61.12618370
_cell_angle_beta   61.12618370
_cell_angle_gamma   61.12618697
_symmetry_Int_Tables_number   1
_chemical_formula_structural   Cu2Ni3C31
_chemical_formula_sum   'Cu2 Ni3 C31'
_cell_volume   439.20267636
_cell_formula_units_Z   1
loop_
 _symmetry_equiv_pos_site_id
 _symmetry_equiv_pos_as_xyz
  1  'x, y, z'
loop_
 _atom_site_type_symbol
 _atom_site_label
 _atom_site_symmetry_multiplicity
 _atom_site_fract_x
 _atom_site_fract_y
 _atom_site_fract_z
 _atom_site_occupancy
  Ni  Ni0  1  0.35498900  0.35498900  0.35498900  1
  Ni  Ni1  1  0.14295600  0.14295600  0.14295600  1
  Ni  Ni2  1  0.64396500  0.64396500  0.64396500  1
  Cu  Cu3  1  0.99858500  0.99858500  0.99858500  1
  Cu  Cu4  1  0.49889200  0.49889200  0.49889200  1
  C  C5  1  0.85621700  0.85621700  0.85621700  1
  C  C6  1  0.45450800  0.75199900  0.04426900  1
  C  C7  1  0.75199900  0.04426900  0.45450800  1
  C  C8  1  0.04426900  0.45450800  0.75199900  1
  C  C9  1  0.95582200  0.54555700  0.24972300  1
  C  C10  1  0.24972300  0.95582200  0.54555700  1
  C  C11  1  0.54555700  0.24972300  0.95582200  1
  C  C12  1  0.68342000  0.88626900  0.49593100  1
  C  C13  1  0.88626900  0.49593100  0.68342000  1
  C  C14  1  0.49593100  0.68342000  0.88626900  1
  C  C15  1  0.25029900  0.90773000  0.05801100  1
  C  C16  1  0.60429200  0.81762000  0.01545900  1
  C  C17  1  0.43013600  0.58939400  0.24588300  1
  C  C18  1  0.90773000  0.05801100  0.25029900  1
  C  C19  1  0.58939400  0.24588300  0.43013600  1
  C  C20  1  0.99532800  0.38990400  0.18299700  1
  C  C21  1  0.24588300  0.43013600  0.58939400  1
  C  C22  1  0.94861500  0.74504100  0.09540800  1
  C  C23  1  0.18299700  0.99532800  0.38990400  1
  C  C24  1  0.81762000  0.01545900  0.60429200  1
  C  C25  1  0.05801100  0.25029900  0.90773000  1
  C  C26  1  0.75600900  0.56042900  0.41052400  1
  C  C27  1  0.01545900  0.60429200  0.81762000  1
  C  C28  1  0.41052400  0.75600900  0.56042900  1
  C  C29  1  0.09540800  0.94861500  0.74504100  1
  C  C30  1  0.56042900  0.41052400  0.75600900  1
  C  C31  1  0.38990400  0.18299700  0.99532800  1
  C  C32  1  0.74504100  0.09540800  0.94861500  1
  C  C33  1  0.49436700  0.32695700  0.11249600  1
  C  C34  1  0.11249600  0.49436700  0.32695700  1
  C  C35  1  0.32695700  0.11249600  0.49436700  1
