# generated using pymatgen
data_Cu(NiC)2
_symmetry_space_group_name_H-M   'P 1'
_cell_length_a   8.20324700
_cell_length_b   8.22238649
_cell_length_c   8.22644276
_cell_angle_alpha   109.44350725
_cell_angle_beta   109.42355293
_cell_angle_gamma   109.40780751
_symmetry_Int_Tables_number   1
_chemical_formula_structural   Cu(NiC)2
_chemical_formula_sum   'Cu8 Ni16 C16'
_cell_volume   427.87362352
_cell_formula_units_Z   8
loop_
 _symmetry_equiv_pos_site_id
 _symmetry_equiv_pos_as_xyz
  1  'x, y, z'
loop_
 _atom_site_type_symbol
 _atom_site_label
 _atom_site_symmetry_multiplicity
 _atom_site_fract_x
 _atom_site_fract_y
 _atom_site_fract_z
 _atom_site_occupancy
  C  C0  1  0.01101300  0.49932900  0.99707600  1
  C  C1  1  0.74766900  0.53933100  0.30326000  1
  C  C2  1  0.21395000  0.75083400  0.46440600  1
  C  C3  1  0.71121000  0.75111200  0.95394400  1
  C  C4  1  0.26513400  0.96180100  0.20765100  1
  C  C5  1  0.96154800  0.70721300  0.74224400  1
  C  C6  1  0.44850900  0.21068800  0.74592400  1
  C  C7  1  0.04079500  0.29351100  0.24920500  1
  C  C8  1  0.99370300  0.00506600  0.50686900  1
  C  C9  1  0.49727800  0.99731300  0.99459600  1
  C  C10  1  0.54184900  0.79515100  0.25984100  1
  C  C11  1  0.50931900  0.51112700  0.51074300  1
  C  C12  1  0.74836100  0.03815800  0.79814000  1
  C  C13  1  0.79590500  0.24901300  0.54066500  1
  C  C14  1  0.28633500  0.25062200  0.03980800  1
  C  C15  1  0.24239000  0.45255900  0.69796600  1
  Ni  Ni16  1  0.04285200  0.27112600  0.99483100  1
  Ni  Ni17  1  0.27026400  0.72430000  0.23251600  1
  Ni  Ni18  1  0.77497400  0.03894300  0.05125500  1
  Ni  Ni19  1  0.45825200  0.95354900  0.72634200  1
  Ni  Ni20  1  0.49143000  0.53731400  0.26301200  1
  Ni  Ni21  1  0.00873300  0.77215600  0.54398300  1
  Ni  Ni22  1  0.51158000  0.46008000  0.73746000  1
  Ni  Ni23  1  0.73417000  0.77443900  0.72469900  1
  Ni  Ni24  1  0.22382400  0.22724500  0.77218800  1
  Ni  Ni25  1  0.22657600  0.96138900  0.95348600  1
  Ni  Ni26  1  0.53817500  0.04926100  0.27487400  1
  Ni  Ni27  1  0.76432200  0.98783000  0.53910200  1
  Ni  Ni28  1  0.98897700  0.22418800  0.44989900  1
  Ni  Ni29  1  0.27147500  0.54711000  0.50544100  1
  Ni  Ni30  1  0.72448300  0.44723700  0.48700000  1
  Ni  Ni31  1  0.05252700  0.51085700  0.77927900  1
  Cu  Cu32  1  0.95277800  0.73039000  0.00764000  1
  Cu  Cu33  1  0.55325700  0.27590700  0.04065200  1
  Cu  Cu34  1  0.94377600  0.48609000  0.22140600  1
  Cu  Cu35  1  0.25946500  0.22023600  0.27305800  1
  Cu  Cu36  1  0.24030100  0.01588900  0.45983700  1
  Cu  Cu37  1  0.45289200  0.72758300  0.95876100  1
  Cu  Cu38  1  0.77353800  0.76946700  0.22279600  1
  Cu  Cu39  1  0.72641300  0.27458700  0.76814800  1
