# generated using pymatgen
data_Cu2NiC20
_symmetry_space_group_name_H-M   'P 1'
_cell_length_a   9.00665500
_cell_length_b   5.29164700
_cell_length_c   9.95652407
_cell_angle_alpha   89.10302316
_cell_angle_beta   90.00000000
_cell_angle_gamma   90.00000000
_symmetry_Int_Tables_number   1
_chemical_formula_structural   Cu2NiC20
_chemical_formula_sum   'Cu4 Ni2 C40'
_cell_volume   474.47017601
_cell_formula_units_Z   2
loop_
 _symmetry_equiv_pos_site_id
 _symmetry_equiv_pos_as_xyz
  1  'x, y, z'
loop_
 _atom_site_type_symbol
 _atom_site_label
 _atom_site_symmetry_multiplicity
 _atom_site_fract_x
 _atom_site_fract_y
 _atom_site_fract_z
 _atom_site_occupancy
  C  C0  1  0.39468300  0.83195900  0.60235800  1
  C  C1  1  0.73529000  0.84165300  0.08702700  1
  C  C2  1  0.90837200  0.64915300  0.88775800  1
  C  C3  1  0.22940600  0.65382900  0.83689800  1
  C  C4  1  0.26471000  0.34165300  0.58702700  1
  C  C5  1  0.60531700  0.33195900  0.10235800  1
  C  C6  1  0.09162800  0.14915300  0.38775800  1
  C  C7  1  0.77059400  0.15382900  0.33689800  1
  Ni  Ni8  1  0.72222300  0.85444000  0.66874800  1
  Ni  Ni9  1  0.27777700  0.35444000  0.16874800  1
  Cu  Cu10  1  0.06450600  0.84815900  0.12616600  1
  Cu  Cu11  1  0.57358700  0.64992800  0.36905700  1
  Cu  Cu12  1  0.93549400  0.34815900  0.62616600  1
  Cu  Cu13  1  0.42641300  0.14992800  0.86905700  1
  C  C14  1  0.08047200  0.83177700  0.62346400  1
  C  C15  1  0.41564400  0.84382900  0.12827200  1
  C  C16  1  0.56709500  0.65993500  0.88065600  1
  C  C17  1  0.91004300  0.65871800  0.37212600  1
  C  C18  1  0.58435600  0.34382900  0.62827200  1
  C  C19  1  0.91952800  0.33177700  0.12346400  1
  C  C20  1  0.08995700  0.15871800  0.87212600  1
  C  C21  1  0.43290500  0.15993500  0.38065600  1
  C  C22  1  0.07502700  0.91049000  0.92000100  1
  C  C23  1  0.43461800  0.90473500  0.41043600  1
  C  C24  1  0.70045700  0.78801500  0.87529900  1
  C  C25  1  0.43350800  0.78655300  0.85523100  1
  C  C26  1  0.02753900  0.79913200  0.32034600  1
  C  C27  1  0.77105200  0.78023900  0.37382600  1
  C  C28  1  0.93845300  0.72305900  0.64603300  1
  C  C29  1  0.27403700  0.73659900  0.13164200  1
  C  C30  1  0.53848100  0.69712700  0.16379900  1
  C  C31  1  0.20231900  0.68301700  0.63870200  1
  C  C32  1  0.56883700  0.59586000  0.58913700  1
  C  C33  1  0.91237400  0.58900800  0.08874300  1
  C  C34  1  0.56538200  0.40473500  0.91043600  1
  C  C35  1  0.92497300  0.41049000  0.42000100  1
  C  C36  1  0.97246100  0.29913200  0.82034600  1
  C  C37  1  0.29954300  0.28801500  0.37529900  1
  C  C38  1  0.22894800  0.28023900  0.87382600  1
  C  C39  1  0.56649200  0.28655300  0.35523100  1
  C  C40  1  0.72596300  0.23659900  0.63164200  1
  C  C41  1  0.06154700  0.22305900  0.14603300  1
  C  C42  1  0.46151900  0.19712700  0.66379900  1
  C  C43  1  0.79768100  0.18301700  0.13870200  1
  C  C44  1  0.08762600  0.08900800  0.58874300  1
  C  C45  1  0.43116300  0.09586000  0.08913700  1
