# generated using pymatgen
data_CuNi4C31
_symmetry_space_group_name_H-M   'P 1'
_cell_length_a   8.63910141
_cell_length_b   8.63910141
_cell_length_c   8.63910155
_cell_angle_alpha   60.14057012
_cell_angle_beta   60.14057012
_cell_angle_gamma   60.14056592
_symmetry_Int_Tables_number   1
_chemical_formula_structural   CuNi4C31
_chemical_formula_sum   'Cu1 Ni4 C31'
_cell_volume   457.37393629
_cell_formula_units_Z   1
loop_
 _symmetry_equiv_pos_site_id
 _symmetry_equiv_pos_as_xyz
  1  'x, y, z'
loop_
 _atom_site_type_symbol
 _atom_site_label
 _atom_site_symmetry_multiplicity
 _atom_site_fract_x
 _atom_site_fract_y
 _atom_site_fract_z
 _atom_site_occupancy
  C  C0  1  0.50000000  0.50000000  0.50000000  1
  Ni  Ni1  1  0.85469900  0.85469900  0.85469900  1
  Ni  Ni2  1  0.64195700  0.64195700  0.64195700  1
  Ni  Ni3  1  0.35804300  0.35804300  0.35804300  1
  Ni  Ni4  1  0.14530100  0.14530100  0.14530100  1
  Cu  Cu5  1  0.00000000  0.00000000  0.00000000  1
  C  C6  1  0.95848300  0.25128200  0.54260500  1
  C  C7  1  0.54260500  0.95848300  0.25128200  1
  C  C8  1  0.25128200  0.54260500  0.95848300  1
  C  C9  1  0.74871800  0.45739500  0.04151700  1
  C  C10  1  0.45739500  0.04151700  0.74871800  1
  C  C11  1  0.04151700  0.74871800  0.45739500  1
  C  C12  1  0.87695400  0.69309300  0.49994500  1
  C  C13  1  0.69309300  0.49994500  0.87695400  1
  C  C14  1  0.94402800  0.08528600  0.73460900  1
  C  C15  1  0.49994500  0.87695400  0.69309300  1
  C  C16  1  0.99885400  0.19154200  0.38099300  1
  C  C17  1  0.76810900  0.41489700  0.55938900  1
  C  C18  1  0.73460900  0.94402800  0.08528600  1
  C  C19  1  0.55938900  0.76810900  0.41489700  1
  C  C20  1  0.80845800  0.61900700  0.00114600  1
  C  C21  1  0.41489700  0.55938900  0.76810900  1
  C  C22  1  0.91471400  0.26539100  0.05597200  1
  C  C23  1  0.61900700  0.00114600  0.80845800  1
  C  C24  1  0.38099300  0.99885400  0.19154200  1
  C  C25  1  0.08528600  0.73460900  0.94402800  1
  C  C26  1  0.58510300  0.44061100  0.23189100  1
  C  C27  1  0.19154200  0.38099300  0.99885400  1
  C  C28  1  0.44061100  0.23189100  0.58510300  1
  C  C29  1  0.26539100  0.05597200  0.91471400  1
  C  C30  1  0.23189100  0.58510300  0.44061100  1
  C  C31  1  0.00114600  0.80845800  0.61900700  1
  C  C32  1  0.50005500  0.12304600  0.30690700  1
  C  C33  1  0.05597200  0.91471400  0.26539100  1
  C  C34  1  0.30690700  0.50005500  0.12304600  1
  C  C35  1  0.12304600  0.30690700  0.50005500  1
