# generated using pymatgen
data_CuNi2C5
_symmetry_space_group_name_H-M   'P 1'
_cell_length_a   5.70907300
_cell_length_b   7.45038500
_cell_length_c   8.34657700
_cell_angle_alpha   90.00000000
_cell_angle_beta   90.00000000
_cell_angle_gamma   90.00000000
_symmetry_Int_Tables_number   1
_chemical_formula_structural   CuNi2C5
_chemical_formula_sum   'Cu4 Ni8 C20'
_cell_volume   355.01991530
_cell_formula_units_Z   4
loop_
 _symmetry_equiv_pos_site_id
 _symmetry_equiv_pos_as_xyz
  1  'x, y, z'
loop_
 _atom_site_type_symbol
 _atom_site_label
 _atom_site_symmetry_multiplicity
 _atom_site_fract_x
 _atom_site_fract_y
 _atom_site_fract_z
 _atom_site_occupancy
  Ni  Ni0  1  0.25315000  0.00000000  0.50000000  1
  Ni  Ni1  1  0.74685000  0.00000000  0.50000000  1
  Ni  Ni2  1  0.50000000  0.09720800  0.84687600  1
  Ni  Ni3  1  0.50000000  0.40279200  0.34687600  1
  Ni  Ni4  1  0.25315000  0.50000000  0.00000000  1
  Ni  Ni5  1  0.74685000  0.50000000  0.00000000  1
  Ni  Ni6  1  0.50000000  0.59720800  0.65312400  1
  Ni  Ni7  1  0.50000000  0.90279200  0.15312400  1
  Cu  Cu8  1  0.00000000  0.14533300  0.16208500  1
  Cu  Cu9  1  0.00000000  0.35466700  0.66208500  1
  Cu  Cu10  1  0.00000000  0.64533300  0.33791500  1
  Cu  Cu11  1  0.00000000  0.85466700  0.83791500  1
  C  C12  1  0.26256300  0.00000000  0.00000000  1
  C  C13  1  0.73743700  0.00000000  0.00000000  1
  C  C14  1  0.24138700  0.12394200  0.70057800  1
  C  C15  1  0.75861300  0.12394200  0.70057800  1
  C  C16  1  0.00000000  0.15507300  0.42990000  1
  C  C17  1  0.50000000  0.14123600  0.41609300  1
  C  C18  1  0.50000000  0.35876400  0.91609300  1
  C  C19  1  0.00000000  0.34492700  0.92990000  1
  C  C20  1  0.24138700  0.37605800  0.20057800  1
  C  C21  1  0.75861300  0.37605800  0.20057800  1
  C  C22  1  0.73743700  0.50000000  0.50000000  1
  C  C23  1  0.26256300  0.50000000  0.50000000  1
  C  C24  1  0.24138700  0.62394200  0.79942200  1
  C  C25  1  0.75861300  0.62394200  0.79942200  1
  C  C26  1  0.00000000  0.65507300  0.07010000  1
  C  C27  1  0.50000000  0.64123600  0.08390700  1
  C  C28  1  0.50000000  0.85876400  0.58390700  1
  C  C29  1  0.00000000  0.84492700  0.57010000  1
  C  C30  1  0.24138700  0.87605800  0.29942200  1
  C  C31  1  0.75861300  0.87605800  0.29942200  1
