# generated using pymatgen
data_Cu(Ni5C8)3
_symmetry_space_group_name_H-M   'P 1'
_cell_length_a   8.93057280
_cell_length_b   8.93057280
_cell_length_c   10.32253334
_cell_angle_alpha   54.81121896
_cell_angle_beta   54.81121896
_cell_angle_gamma   70.58650184
_symmetry_Int_Tables_number   1
_chemical_formula_structural   Cu(Ni5C8)3
_chemical_formula_sum   'Cu1 Ni15 C24'
_cell_volume   549.87374118
_cell_formula_units_Z   1
loop_
 _symmetry_equiv_pos_site_id
 _symmetry_equiv_pos_as_xyz
  1  'x, y, z'
loop_
 _atom_site_type_symbol
 _atom_site_label
 _atom_site_symmetry_multiplicity
 _atom_site_fract_x
 _atom_site_fract_y
 _atom_site_fract_z
 _atom_site_occupancy
  Ni  Ni0  1  0.50124600  0.99993800  0.24951100  1
  Ni  Ni1  1  0.21735000  0.71523000  0.78453800  1
  Ni  Ni2  1  0.28477000  0.78265000  0.21546200  1
  Ni  Ni3  1  0.24885500  0.25035900  0.96638200  1
  Ni  Ni4  1  0.25158300  0.25074500  0.46522200  1
  Ni  Ni5  1  0.53376500  0.46623500  0.50000000  1
  Ni  Ni6  1  0.00006200  0.49875400  0.75048900  1
  Ni  Ni7  1  0.00017400  0.49944100  0.24890000  1
  Ni  Ni8  1  0.50055900  0.99982600  0.75110000  1
  Ni  Ni9  1  0.46643700  0.53356300  0.00000000  1
  Ni  Ni10  1  0.74925500  0.74841700  0.53477800  1
  Ni  Ni11  1  0.74964100  0.75114500  0.03361800  1
  Ni  Ni12  1  0.78324800  0.28297400  0.71713000  1
  Ni  Ni13  1  0.71702600  0.21675200  0.28287000  1
  Ni  Ni14  1  0.96640400  0.03359600  0.00000000  1
  Cu  Cu15  1  0.03535400  0.96464600  0.50000000  1
  C  C16  1  0.23641000  0.45553500  0.02196200  1
  C  C17  1  0.25211500  0.04481000  0.22405300  1
  C  C18  1  0.03892600  0.73509400  0.47847400  1
  C  C19  1  0.72702600  0.03681400  0.97896900  1
  C  C20  1  0.53542700  0.22812300  0.75871200  1
  C  C21  1  0.22507900  0.53516800  0.26031000  1
  C  C22  1  0.54446500  0.76359000  0.97803800  1
  C  C23  1  0.95519000  0.74788500  0.77594700  1
  C  C24  1  0.27061900  0.50887600  0.70608000  1
  C  C25  1  0.99339100  0.21790900  0.48592400  1
  C  C26  1  0.22798400  0.99212300  0.98780500  1
  C  C27  1  0.50595600  0.27069500  0.20721200  1
  C  C28  1  0.78209100  0.00660900  0.51407600  1
  C  C29  1  0.49112400  0.72938100  0.29392000  1
  C  C30  1  0.72930500  0.49404400  0.79278800  1
  C  C31  1  0.00787700  0.77201600  0.01219500  1
  C  C32  1  0.04402200  0.26460100  0.71115600  1
  C  C33  1  0.45915500  0.23209300  0.52200700  1
  C  C34  1  0.77187700  0.46457300  0.24128800  1
  C  C35  1  0.46483200  0.77492100  0.73969000  1
  C  C36  1  0.26490600  0.96107400  0.52152600  1
  C  C37  1  0.96318600  0.27297400  0.02103100  1
  C  C38  1  0.76790700  0.54084500  0.47799300  1
  C  C39  1  0.73539900  0.95597800  0.28884400  1
