# generated using pymatgen
data_Cu3NiC10
_symmetry_space_group_name_H-M   'P 1'
_cell_length_a   6.00715043
_cell_length_b   6.00715043
_cell_length_c   9.81189600
_cell_angle_alpha   90.00000000
_cell_angle_beta   90.00000000
_cell_angle_gamma   120.00000473
_symmetry_Int_Tables_number   1
_chemical_formula_structural   Cu3NiC10
_chemical_formula_sum   'Cu6 Ni2 C20'
_cell_volume   306.63417938
_cell_formula_units_Z   2
loop_
 _symmetry_equiv_pos_site_id
 _symmetry_equiv_pos_as_xyz
  1  'x, y, z'
loop_
 _atom_site_type_symbol
 _atom_site_label
 _atom_site_symmetry_multiplicity
 _atom_site_fract_x
 _atom_site_fract_y
 _atom_site_fract_z
 _atom_site_occupancy
  C  C0  1  0.33333300  0.66666700  0.90201900  1
  C  C1  1  0.00000000  0.00000000  0.99049900  1
  C  C2  1  0.00000000  0.00000000  0.49049900  1
  C  C3  1  0.66666700  0.33333300  0.40201900  1
  Ni  Ni4  1  0.33333300  0.66666700  0.49350000  1
  Ni  Ni5  1  0.66666700  0.33333300  0.99350000  1
  Cu  Cu6  1  0.17124900  0.82875100  0.21705900  1
  Cu  Cu7  1  0.17124900  0.34249900  0.21705900  1
  Cu  Cu8  1  0.65750100  0.82875100  0.21705900  1
  Cu  Cu9  1  0.34249900  0.17124900  0.71705900  1
  Cu  Cu10  1  0.82875100  0.65750100  0.71705900  1
  Cu  Cu11  1  0.82875100  0.17124900  0.71705900  1
  C  C12  1  0.16762700  0.83237300  0.59140000  1
  C  C13  1  0.03678700  0.51839300  0.34371800  1
  C  C14  1  0.33333300  0.66666700  0.10782200  1
  C  C15  1  0.00000000  0.00000000  0.30374200  1
  C  C16  1  0.00000000  0.00000000  0.80374200  1
  C  C17  1  0.16762700  0.33525300  0.59140000  1
  C  C18  1  0.48160700  0.96321300  0.34371800  1
  C  C19  1  0.48160700  0.51839300  0.34371800  1
  C  C20  1  0.33525300  0.16762700  0.09140000  1
  C  C21  1  0.66474700  0.83237300  0.59140000  1
  C  C22  1  0.51839300  0.48160700  0.84371800  1
  C  C23  1  0.51839300  0.03678700  0.84371800  1
  C  C24  1  0.66666700  0.33333300  0.60782200  1
  C  C25  1  0.83237300  0.66474700  0.09140000  1
  C  C26  1  0.96321300  0.48160700  0.84371800  1
  C  C27  1  0.83237300  0.16762700  0.09140000  1
