# generated using pymatgen
data_Cu2NiC11
_symmetry_space_group_name_H-M   'P 1'
_cell_length_a   5.39379900
_cell_length_b   14.12780700
_cell_length_c   20.12593783
_cell_angle_alpha   69.57077283
_cell_angle_beta   90.00000000
_cell_angle_gamma   90.00000000
_symmetry_Int_Tables_number   1
_chemical_formula_structural   Cu2NiC11
_chemical_formula_sum   'Cu16 Ni8 C88'
_cell_volume   1437.18758478
_cell_formula_units_Z   8
loop_
 _symmetry_equiv_pos_site_id
 _symmetry_equiv_pos_as_xyz
  1  'x, y, z'
loop_
 _atom_site_type_symbol
 _atom_site_label
 _atom_site_symmetry_multiplicity
 _atom_site_fract_x
 _atom_site_fract_y
 _atom_site_fract_z
 _atom_site_occupancy
  C  C0  1  0.74349700  0.68862700  0.96491600  1
  C  C1  1  0.24920600  0.79880200  0.86387000  1
  C  C2  1  0.70473700  0.94601900  0.80028900  1
  C  C3  1  0.75650300  0.18862700  0.96491600  1
  C  C4  1  0.25079400  0.29880200  0.86387000  1
  C  C5  1  0.79526300  0.44601900  0.80028900  1
  C  C6  1  0.24319000  0.74970900  0.69772800  1
  C  C7  1  0.75473500  0.66073500  0.63828600  1
  C  C8  1  0.25681000  0.24970900  0.69772800  1
  C  C9  1  0.24511500  0.65511500  0.53458900  1
  C  C10  1  0.74526500  0.16073500  0.63828600  1
  C  C11  1  0.74511500  0.84488500  0.46541100  1
  C  C12  1  0.25488500  0.15511500  0.53458900  1
  C  C13  1  0.25473500  0.83926500  0.36171400  1
  C  C14  1  0.75488500  0.34488500  0.46541100  1
  C  C15  1  0.74319000  0.75029100  0.30227200  1
  C  C16  1  0.24526500  0.33926500  0.36171400  1
  C  C17  1  0.75681000  0.25029100  0.30227200  1
  C  C18  1  0.20473700  0.55398100  0.19971100  1
  C  C19  1  0.74920600  0.70119800  0.13613000  1
  C  C20  1  0.24349700  0.81137300  0.03508400  1
  C  C21  1  0.29526300  0.05398100  0.19971100  1
  C  C22  1  0.75079400  0.20119800  0.13613000  1
  C  C23  1  0.25650300  0.31137300  0.03508400  1
  Ni  Ni24  1  0.31205200  0.53653400  0.87497800  1
  Ni  Ni25  1  0.18794800  0.03653400  0.87497800  1
  Ni  Ni26  1  0.70299600  0.91264500  0.62328200  1
  Ni  Ni27  1  0.79700400  0.41264500  0.62328200  1
  Ni  Ni28  1  0.20299600  0.58735500  0.37671800  1
  Ni  Ni29  1  0.29700400  0.08735500  0.37671800  1
  Ni  Ni30  1  0.81205200  0.96346600  0.12502200  1
  Ni  Ni31  1  0.68794800  0.46346600  0.12502200  1
  Cu  Cu32  1  0.72589100  0.92104200  0.95841800  1
  Cu  Cu33  1  0.77410900  0.42104200  0.95841800  1
  Cu  Cu34  1  0.77045800  0.71220300  0.79140300  1
  Cu  Cu35  1  0.72954200  0.21220300  0.79140300  1
  Cu  Cu36  1  0.27882700  0.50373000  0.70811600  1
  Cu  Cu37  1  0.23139100  0.88118000  0.53972500  1
  Cu  Cu38  1  0.22117300  0.00373000  0.70811600  1
  Cu  Cu39  1  0.26860900  0.38118000  0.53972500  1
  Cu  Cu40  1  0.73139100  0.61882000  0.46027500  1
  Cu  Cu41  1  0.77882700  0.99627000  0.29188400  1
  Cu  Cu42  1  0.76860900  0.11882000  0.46027500  1
  Cu  Cu43  1  0.72117300  0.49627000  0.29188400  1
  Cu  Cu44  1  0.27045800  0.78779700  0.20859700  1
  Cu  Cu45  1  0.22954200  0.28779700  0.20859700  1
  Cu  Cu46  1  0.22589100  0.57895800  0.04158200  1
  Cu  Cu47  1  0.27410900  0.07895800  0.04158200  1
  C  C48  1  0.48368300  0.91657200  0.91569600  1
  C  C49  1  0.95364800  0.90913600  0.90895000  1
  C  C50  1  0.23309200  0.67499700  0.97514600  1
  C  C51  1  0.74181900  0.52217800  0.96806800  1
  C  C52  1  0.26577600  0.98445100  0.79066300  1
  C  C53  1  0.65708900  0.76859700  0.83646700  1
  C  C54  1  0.01631700  0.41657200  0.91569600  1
  C  C55  1  0.54635200  0.40913600  0.90895000  1
  C  C56  1  0.26690800  0.17499700  0.97514600  1
  C  C57  1  0.05127400  0.69432000  0.80576900  1
  C  C58  1  0.75818100  0.02217800  0.96806800  1
  C  C59  1  0.63296500  0.61080100  0.80111700  1
  C  C60  1  0.94015400  0.99324200  0.69703000  1
  C  C61  1  0.36857500  0.91638900  0.69604500  1
  C  C62  1  0.23422400  0.48445100  0.79066300  1
  C  C63  1  0.84291100  0.26859700  0.83646700  1
  C  C64  1  0.74149200  0.77383100  0.70812500  1
  C  C65  1  0.44872600  0.19432000  0.80576900  1
  C  C66  1  0.86703500  0.11080100  0.80111700  1
  C  C67  1  0.55984600  0.49324200  0.69703000  1
  C  C68  1  0.17901200  0.60798200  0.66284900  1
  C  C69  1  0.13142500  0.41638900  0.69604500  1
  C  C70  1  0.99562500  0.83159400  0.58560100  1
  C  C71  1  0.46495800  0.82207700  0.58621800  1
  C  C72  1  0.75850800  0.27383100  0.70812500  1
  C  C73  1  0.25493900  0.99253900  0.52936400  1
  C  C74  1  0.73003500  0.64836900  0.52688900  1
  C  C75  1  0.32098800  0.10798200  0.66284900  1
  C  C76  1  0.23003500  0.85163100  0.47311100  1
  C  C77  1  0.50437500  0.33159400  0.58560100  1
  C  C78  1  0.03504200  0.32207700  0.58621800  1
  C  C79  1  0.24506100  0.49253900  0.52936400  1
  C  C80  1  0.75493900  0.50746100  0.47063600  1
  C  C81  1  0.96495800  0.67792300  0.41378200  1
  C  C82  1  0.49562500  0.66840600  0.41439900  1
  C  C83  1  0.76996500  0.14836900  0.52688900  1
  C  C84  1  0.67901200  0.89201800  0.33715100  1
  C  C85  1  0.26996500  0.35163100  0.47311100  1
  C  C86  1  0.74506100  0.00746100  0.47063600  1
  C  C87  1  0.24149200  0.72616900  0.29187500  1
  C  C88  1  0.53504200  0.17792300  0.41378200  1
  C  C89  1  0.00437500  0.16840600  0.41439900  1
  C  C90  1  0.86857500  0.58361100  0.30395500  1
  C  C91  1  0.82098800  0.39201800  0.33715100  1
  C  C92  1  0.44015400  0.50675800  0.30297000  1
  C  C93  1  0.13296500  0.88919900  0.19888300  1
  C  C94  1  0.55127400  0.80568000  0.19423100  1
  C  C95  1  0.25850800  0.22616900  0.29187500  1
  C  C96  1  0.15708900  0.73140300  0.16353300  1
  C  C97  1  0.76577600  0.51554900  0.20933700  1
  C  C98  1  0.63142500  0.08361100  0.30395500  1
  C  C99  1  0.05984600  0.00675800  0.30297000  1
  C  C100  1  0.36703500  0.38919900  0.19888300  1
  C  C101  1  0.24181900  0.97782200  0.03193200  1
  C  C102  1  0.94872600  0.30568000  0.19423100  1
  C  C103  1  0.73309200  0.82500300  0.02485400  1
  C  C104  1  0.45364800  0.59086400  0.09105000  1
  C  C105  1  0.98368300  0.58342800  0.08430400  1
  C  C106  1  0.34291100  0.23140300  0.16353300  1
  C  C107  1  0.73422400  0.01554900  0.20933700  1
  C  C108  1  0.25818100  0.47782200  0.03193200  1
  C  C109  1  0.76690800  0.32500300  0.02485400  1
  C  C110  1  0.04635200  0.09086400  0.09105000  1
  C  C111  1  0.51631700  0.08342800  0.08430400  1
