# generated using pymatgen
data_Cu(NiC)4
_symmetry_space_group_name_H-M   'P 1'
_cell_length_a   5.14087100
_cell_length_b   13.17634600
_cell_length_c   13.18498818
_cell_angle_alpha   60.45596281
_cell_angle_beta   90.00000000
_cell_angle_gamma   90.00000000
_symmetry_Int_Tables_number   1
_chemical_formula_structural   Cu(NiC)4
_chemical_formula_sum   'Cu8 Ni32 C32'
_cell_volume   776.99673738
_cell_formula_units_Z   8
loop_
 _symmetry_equiv_pos_site_id
 _symmetry_equiv_pos_as_xyz
  1  'x, y, z'
loop_
 _atom_site_type_symbol
 _atom_site_label
 _atom_site_symmetry_multiplicity
 _atom_site_fract_x
 _atom_site_fract_y
 _atom_site_fract_z
 _atom_site_occupancy
  C  C0  1  0.73332500  0.17257400  0.64870800  1
  C  C1  1  0.73083800  0.40141600  0.42097800  1
  C  C2  1  0.23083800  0.09858400  0.57902200  1
  C  C3  1  0.71874700  0.67800000  0.14934200  1
  C  C4  1  0.23332500  0.32742600  0.35129200  1
  C  C5  1  0.27417000  0.82583100  0.08188900  1
  C  C6  1  0.77417000  0.67416900  0.91811100  1
  C  C7  1  0.78125300  0.17800000  0.14934200  1
  C  C8  1  0.21874700  0.82200000  0.85065800  1
  C  C9  1  0.22583000  0.32583100  0.08188900  1
  C  C10  1  0.72583000  0.17416900  0.91811100  1
  C  C11  1  0.76667500  0.67257400  0.64870800  1
  C  C12  1  0.28125300  0.32200000  0.85065800  1
  C  C13  1  0.76916200  0.90141600  0.42097800  1
  C  C14  1  0.26916200  0.59858400  0.57902200  1
  C  C15  1  0.26667500  0.82742600  0.35129200  1
  C  C16  1  0.27424500  0.32961300  0.57891000  1
  C  C17  1  0.77424500  0.17038700  0.42109000  1
  C  C18  1  0.22936900  0.59360900  0.07726800  1
  C  C19  1  0.72936900  0.90639100  0.92273200  1
  C  C20  1  0.27063100  0.09360900  0.07726800  1
  C  C21  1  0.77063100  0.40639100  0.92273200  1
  C  C22  1  0.22575500  0.82961300  0.57891000  1
  C  C23  1  0.72575500  0.67038700  0.42109000  1
  C  C24  1  0.21785900  0.08115700  0.83321900  1
  C  C25  1  0.21488000  0.58355100  0.33275300  1
  C  C26  1  0.28512000  0.08355100  0.33275300  1
  C  C27  1  0.71785900  0.41884300  0.16678100  1
  C  C28  1  0.28214100  0.58115700  0.83321900  1
  C  C29  1  0.71488000  0.91644900  0.66724700  1
  C  C30  1  0.78512000  0.41644900  0.66724700  1
  C  C31  1  0.78214100  0.91884300  0.16678100  1
  Ni  Ni32  1  0.91245000  0.07798800  0.84241800  1
  Ni  Ni33  1  0.67574500  0.35350100  0.60310600  1
  Ni  Ni34  1  0.30333500  0.14460900  0.70387900  1
  Ni  Ni35  1  0.90945100  0.58589500  0.33663000  1
  Ni  Ni36  1  0.31315900  0.45560500  0.39307800  1
  Ni  Ni37  1  0.81315900  0.04439500  0.60692200  1
  Ni  Ni38  1  0.31283600  0.64693500  0.20465300  1
  Ni  Ni39  1  0.66719700  0.85356800  0.10572300  1
  Ni  Ni40  1  0.80333500  0.35539100  0.29612100  1
  Ni  Ni41  1  0.17574500  0.14649900  0.39689400  1
  Ni  Ni42  1  0.59054900  0.08589500  0.33663000  1
  Ni  Ni43  1  0.82317300  0.54607500  0.10680400  1
  Ni  Ni44  1  0.41245000  0.42201200  0.15758200  1
  Ni  Ni45  1  0.32317300  0.95392500  0.89319600  1
  Ni  Ni46  1  0.18716400  0.14693500  0.20465300  1
  Ni  Ni47  1  0.83280300  0.35356800  0.10572300  1
  Ni  Ni48  1  0.16719700  0.64643200  0.89427700  1
  Ni  Ni49  1  0.81283600  0.85306500  0.79534700  1
  Ni  Ni50  1  0.67682700  0.04607500  0.10680400  1
  Ni  Ni51  1  0.58755000  0.57798800  0.84241800  1
  Ni  Ni52  1  0.17682700  0.45392500  0.89319600  1
  Ni  Ni53  1  0.40945100  0.91410500  0.66337000  1
  Ni  Ni54  1  0.82425500  0.85350100  0.60310600  1
  Ni  Ni55  1  0.19666500  0.64460900  0.70387900  1
  Ni  Ni56  1  0.33280300  0.14643200  0.89427700  1
  Ni  Ni57  1  0.68716400  0.35306500  0.79534700  1
  Ni  Ni58  1  0.18684100  0.95560500  0.39307800  1
  Ni  Ni59  1  0.68684100  0.54439500  0.60692200  1
  Ni  Ni60  1  0.09054900  0.41410500  0.66337000  1
  Ni  Ni61  1  0.69666500  0.85539100  0.29612100  1
  Ni  Ni62  1  0.32425500  0.64649900  0.39689400  1
  Ni  Ni63  1  0.08755000  0.92201200  0.15758200  1
  Cu  Cu64  1  0.98917800  0.26309500  0.50943700  1
  Cu  Cu65  1  0.48917800  0.23690500  0.49056300  1
  Cu  Cu66  1  0.01368800  0.76703200  0.01211100  1
  Cu  Cu67  1  0.51368800  0.73296800  0.98788900  1
  Cu  Cu68  1  0.48631200  0.26703200  0.01211100  1
  Cu  Cu69  1  0.98631200  0.23296800  0.98788900  1
  Cu  Cu70  1  0.51082200  0.76309500  0.50943700  1
  Cu  Cu71  1  0.01082200  0.73690500  0.49056300  1
