# generated using pymatgen
data_Cu9(NiC3)8
_symmetry_space_group_name_H-M   'P 1'
_cell_length_a   14.87309100
_cell_length_b   9.42091900
_cell_length_c   11.37356142
_cell_angle_alpha   86.71095982
_cell_angle_beta   90.00000000
_cell_angle_gamma   90.00000000
_symmetry_Int_Tables_number   1
_chemical_formula_structural   Cu9(NiC3)8
_chemical_formula_sum   'Cu36 Ni32 C96'
_cell_volume   1591.01775694
_cell_formula_units_Z   4
loop_
 _symmetry_equiv_pos_site_id
 _symmetry_equiv_pos_as_xyz
  1  'x, y, z'
loop_
 _atom_site_type_symbol
 _atom_site_label
 _atom_site_symmetry_multiplicity
 _atom_site_fract_x
 _atom_site_fract_y
 _atom_site_fract_z
 _atom_site_occupancy
  C  C0  1  0.17571700  0.87839300  0.83899300  1
  C  C1  1  0.32428300  0.37839300  0.33899300  1
  C  C2  1  0.82428300  0.12160700  0.16100700  1
  C  C3  1  0.67571700  0.62160700  0.66100700  1
  C  C4  1  0.00443100  0.93177400  0.88870800  1
  C  C5  1  0.49556900  0.43177400  0.38870800  1
  C  C6  1  0.99556900  0.06822600  0.11129200  1
  C  C7  1  0.50443100  0.56822600  0.61129200  1
  C  C8  1  0.02119000  0.80137900  0.98042400  1
  C  C9  1  0.47881000  0.30137900  0.48042400  1
  C  C10  1  0.97881000  0.19862100  0.01957600  1
  C  C11  1  0.52119000  0.69862100  0.51957600  1
  C  C12  1  0.33596500  0.59367800  0.08860400  1
  C  C13  1  0.16403500  0.09367800  0.58860400  1
  C  C14  1  0.66403500  0.40632200  0.91139600  1
  C  C15  1  0.83596500  0.90632200  0.41139600  1
  C  C16  1  0.31045100  0.75206100  0.01511200  1
  C  C17  1  0.18954900  0.25206100  0.51511200  1
  C  C18  1  0.68954900  0.24793900  0.98488800  1
  C  C19  1  0.81045100  0.74793900  0.48488800  1
  C  C20  1  0.26181800  0.39148500  0.03828700  1
  C  C21  1  0.23818200  0.89148500  0.53828700  1
  C  C22  1  0.73818200  0.60851500  0.96171300  1
  C  C23  1  0.76181800  0.10851500  0.46171300  1
  C  C24  1  0.17374100  0.40317900  0.93465700  1
  C  C25  1  0.32625900  0.90317900  0.43465700  1
  C  C26  1  0.82625900  0.59682100  0.06534300  1
  C  C27  1  0.67374100  0.09682100  0.56534300  1
  C  C28  1  0.92975100  0.86992500  0.57958200  1
  C  C29  1  0.57024900  0.36992500  0.07958200  1
  C  C30  1  0.07024900  0.13007500  0.42041800  1
  C  C31  1  0.42975100  0.63007500  0.92041800  1
  C  C32  1  0.98258100  0.95189300  0.69510900  1
  C  C33  1  0.51741900  0.45189300  0.19510900  1
  C  C34  1  0.01741900  0.04810700  0.30489100  1
  C  C35  1  0.48258100  0.54810700  0.80489100  1
  C  C36  1  0.01439200  0.72742600  0.45309900  1
  C  C37  1  0.48560800  0.22742600  0.95309900  1
  C  C38  1  0.98560800  0.27257400  0.54690100  1
  C  C39  1  0.51439200  0.77257400  0.04690100  1
  C  C40  1  0.12253500  0.68085900  0.49657000  1
  C  C41  1  0.37746500  0.18085900  0.99657000  1
  C  C42  1  0.87746500  0.31914100  0.50343000  1
  C  C43  1  0.62253500  0.81914100  0.00343000  1
  C  C44  1  0.19021900  0.19942900  0.15257200  1
  C  C45  1  0.30978100  0.69942900  0.65257200  1
  C  C46  1  0.80978100  0.80057100  0.84742800  1
  C  C47  1  0.69021900  0.30057100  0.34742800  1
  C  C48  1  0.14357400  0.16063500  0.01743300  1
  C  C49  1  0.35642600  0.66063500  0.51743300  1
  C  C50  1  0.85642600  0.83936500  0.98256700  1
  C  C51  1  0.64357400  0.33936500  0.48256700  1
  C  C52  1  0.30232300  0.05879600  0.23690700  1
  C  C53  1  0.19767700  0.55879600  0.73690700  1
  C  C54  1  0.69767700  0.94120400  0.76309300  1
  C  C55  1  0.80232300  0.44120400  0.26309300  1
  C  C56  1  0.34067000  0.90852000  0.16911500  1
  C  C57  1  0.15933000  0.40852000  0.66911500  1
  C  C58  1  0.65933000  0.09148000  0.83088500  1
  C  C59  1  0.84067000  0.59148000  0.33088500  1
  C  C60  1  0.38903100  0.20551600  0.74578300  1
  C  C61  1  0.11096900  0.70551600  0.24578300  1
  C  C62  1  0.61096900  0.79448400  0.25421700  1
  C  C63  1  0.88903100  0.29448400  0.75421700  1
  C  C64  1  0.27945900  0.15004700  0.78154500  1
  C  C65  1  0.22054100  0.65004700  0.28154500  1
  C  C66  1  0.72054100  0.84995300  0.21845500  1
  C  C67  1  0.77945900  0.34995300  0.71845500  1
  C  C68  1  0.49339900  0.03285100  0.69097600  1
  C  C69  1  0.00660100  0.53285100  0.19097600  1
  C  C70  1  0.50660100  0.96714900  0.30902400  1
  C  C71  1  0.99339900  0.46714900  0.80902400  1
  C  C72  1  0.46167600  0.85370900  0.69515900  1
  C  C73  1  0.03832400  0.35370900  0.19515900  1
  C  C74  1  0.53832400  0.14629100  0.30484100  1
  C  C75  1  0.96167600  0.64629100  0.80484100  1
  C  C76  1  0.24384000  0.58758800  0.95427300  1
  C  C77  1  0.25616000  0.08758800  0.45427300  1
  C  C78  1  0.75616000  0.41241200  0.04572700  1
  C  C79  1  0.74384000  0.91241200  0.54572700  1
  C  C80  1  0.06308600  0.81469100  0.60723800  1
  C  C81  1  0.43691400  0.31469100  0.10723800  1
  C  C82  1  0.93691400  0.18530900  0.39276200  1
  C  C83  1  0.56308600  0.68530900  0.89276200  1
  C  C84  1  0.23713500  0.01480100  0.08239400  1
  C  C85  1  0.26286500  0.51480100  0.58239400  1
  C  C86  1  0.76286500  0.98519900  0.91760600  1
  C  C87  1  0.73713500  0.48519900  0.41760600  1
  C  C88  1  0.36288100  0.98812300  0.74598800  1
  C  C89  1  0.13711900  0.48812300  0.24598800  1
  C  C90  1  0.63711900  0.01187700  0.25401200  1
  C  C91  1  0.86288100  0.51187700  0.75401200  1
  C  C92  1  0.06244400  0.18842500  0.79526400  1
  C  C93  1  0.43755600  0.68842500  0.29526400  1
  C  C94  1  0.93755600  0.81157500  0.20473600  1
  C  C95  1  0.56244400  0.31157500  0.70473600  1
  Ni  Ni96  1  0.31553700  0.64423100  0.01123300  1
  Ni  Ni97  1  0.18446300  0.14423100  0.51123300  1
  Ni  Ni98  1  0.68446300  0.35576900  0.98876700  1
  Ni  Ni99  1  0.81553700  0.85576900  0.48876700  1
  Ni  Ni100  1  0.22795800  0.44816000  0.97308600  1
  Ni  Ni101  1  0.27204200  0.94816000  0.47308600  1
  Ni  Ni102  1  0.77204200  0.55184000  0.02691400  1
  Ni  Ni103  1  0.72795800  0.05184000  0.52691400  1
  Ni  Ni104  1  0.98495300  0.87824100  0.63257400  1
  Ni  Ni105  1  0.51504700  0.37824100  0.13257400  1
  Ni  Ni106  1  0.01504700  0.12175900  0.36742600  1
  Ni  Ni107  1  0.48495300  0.62175900  0.86742600  1
  Ni  Ni108  1  0.06463700  0.73152400  0.51430000  1
  Ni  Ni109  1  0.43536300  0.23152400  0.01430000  1
  Ni  Ni110  1  0.93536300  0.26847600  0.48570000  1
  Ni  Ni111  1  0.56463700  0.76847600  0.98570000  1
  Ni  Ni112  1  0.18358500  0.13050900  0.08688000  1
  Ni  Ni113  1  0.31641500  0.63050900  0.58688000  1
  Ni  Ni114  1  0.81641500  0.86949100  0.91312000  1
  Ni  Ni115  1  0.68358500  0.36949100  0.41312000  1
  Ni  Ni116  1  0.29390900  0.98764500  0.17306100  1
  Ni  Ni117  1  0.20609100  0.48764500  0.67306100  1
  Ni  Ni118  1  0.70609100  0.01235500  0.82693900  1
  Ni  Ni119  1  0.79390900  0.51235500  0.32693900  1
  Ni  Ni120  1  0.34515600  0.12549600  0.76795600  1
  Ni  Ni121  1  0.15484400  0.62549600  0.26795600  1
  Ni  Ni122  1  0.65484400  0.87450400  0.23204400  1
  Ni  Ni123  1  0.84515600  0.37450400  0.73204400  1
  Ni  Ni124  1  0.44620400  0.95652200  0.70803300  1
  Ni  Ni125  1  0.05379600  0.45652200  0.20803300  1
  Ni  Ni126  1  0.55379600  0.04347800  0.29196700  1
  Ni  Ni127  1  0.94620400  0.54347800  0.79196700  1
  Cu  Cu128  1  0.06185300  0.27935100  0.68422700  1
  Cu  Cu129  1  0.43814700  0.77935100  0.18422700  1
  Cu  Cu130  1  0.93814700  0.72064900  0.31577300  1
  Cu  Cu131  1  0.56185300  0.22064900  0.81577300  1
  Cu  Cu132  1  0.14376000  0.09332600  0.79665700  1
  Cu  Cu133  1  0.35624000  0.59332600  0.29665700  1
  Cu  Cu134  1  0.85624000  0.90667400  0.20334300  1
  Cu  Cu135  1  0.64376000  0.40667400  0.70334300  1
  Cu  Cu136  1  0.06672000  0.28021500  0.89862800  1
  Cu  Cu137  1  0.43328000  0.78021500  0.39862800  1
  Cu  Cu138  1  0.93328000  0.71978500  0.10137200  1
  Cu  Cu139  1  0.56672000  0.21978500  0.60137200  1
  Cu  Cu140  1  0.97907200  0.09993300  0.80468700  1
  Cu  Cu141  1  0.52092800  0.59993300  0.30468700  1
  Cu  Cu142  1  0.02092800  0.90006700  0.19531300  1
  Cu  Cu143  1  0.47907200  0.40006700  0.69531300  1
  Cu  Cu144  1  0.04046300  0.84435000  0.90376500  1
  Cu  Cu145  1  0.45953700  0.34435000  0.40376500  1
  Cu  Cu146  1  0.95953700  0.15565000  0.09623500  1
  Cu  Cu147  1  0.54046300  0.65565000  0.59623500  1
  Cu  Cu148  1  0.19704600  0.66340600  0.88123200  1
  Cu  Cu149  1  0.30295400  0.16340600  0.38123200  1
  Cu  Cu150  1  0.80295400  0.33659400  0.11876800  1
  Cu  Cu151  1  0.69704600  0.83659400  0.61876800  1
  Cu  Cu152  1  0.13435500  0.82968000  0.66811100  1
  Cu  Cu153  1  0.36564500  0.32968000  0.16811100  1
  Cu  Cu154  1  0.86564500  0.17032000  0.33188900  1
  Cu  Cu155  1  0.63435500  0.67032000  0.83188900  1
  Cu  Cu156  1  0.23445600  0.93313200  0.99680800  1
  Cu  Cu157  1  0.26554400  0.43313200  0.49680800  1
  Cu  Cu158  1  0.76554400  0.06686800  0.00319200  1
  Cu  Cu159  1  0.73445600  0.56686800  0.50319200  1
  Cu  Cu160  1  0.30355200  0.89224800  0.76114400  1
  Cu  Cu161  1  0.19644800  0.39224800  0.26114400  1
  Cu  Cu162  1  0.69644800  0.10775200  0.23885600  1
  Cu  Cu163  1  0.80355200  0.60775200  0.73885600  1
