# generated using pymatgen
data_Cu12NiC48
_symmetry_space_group_name_H-M   'P 1'
_cell_length_a   13.62731663
_cell_length_b   13.62731663
_cell_length_c   13.62731663
_cell_angle_alpha   60.00000000
_cell_angle_beta   60.00000000
_cell_angle_gamma   60.00000000
_symmetry_Int_Tables_number   1
_chemical_formula_structural   Cu12NiC48
_chemical_formula_sum   'Cu24 Ni2 C96'
_cell_volume   1789.43547529
_cell_formula_units_Z   2
loop_
 _symmetry_equiv_pos_site_id
 _symmetry_equiv_pos_as_xyz
  1  'x, y, z'
loop_
 _atom_site_type_symbol
 _atom_site_label
 _atom_site_symmetry_multiplicity
 _atom_site_fract_x
 _atom_site_fract_y
 _atom_site_fract_z
 _atom_site_occupancy
  Ni  Ni0  1  0.25000000  0.25000000  0.25000000  1
  Ni  Ni1  1  0.00000000  0.00000000  0.00000000  1
  Cu  Cu2  1  0.87061700  0.77893100  0.62907900  1
  Cu  Cu3  1  0.72137300  0.87061700  0.62907900  1
  Cu  Cu4  1  0.77893100  0.72137300  0.62907900  1
  Cu  Cu5  1  0.47106900  0.37938300  0.62092100  1
  Cu  Cu6  1  0.52862700  0.47106900  0.62092100  1
  Cu  Cu7  1  0.37938300  0.52862700  0.62092100  1
  Cu  Cu8  1  0.62907900  0.72137300  0.87061700  1
  Cu  Cu9  1  0.62907900  0.77893100  0.72137300  1
  Cu  Cu10  1  0.62907900  0.87061700  0.77893100  1
  Cu  Cu11  1  0.62092100  0.52862700  0.47106900  1
  Cu  Cu12  1  0.62092100  0.37938300  0.52862700  1
  Cu  Cu13  1  0.62092100  0.47106900  0.37938300  1
  Cu  Cu14  1  0.72137300  0.62907900  0.77893100  1
  Cu  Cu15  1  0.77893100  0.62907900  0.87061700  1
  Cu  Cu16  1  0.87061700  0.62907900  0.72137300  1
  Cu  Cu17  1  0.52862700  0.62092100  0.37938300  1
  Cu  Cu18  1  0.37938300  0.62092100  0.47106900  1
  Cu  Cu19  1  0.47106900  0.62092100  0.52862700  1
  Cu  Cu20  1  0.77893100  0.87061700  0.72137300  1
  Cu  Cu21  1  0.87061700  0.72137300  0.77893100  1
  Cu  Cu22  1  0.72137300  0.77893100  0.87061700  1
  Cu  Cu23  1  0.37938300  0.47106900  0.52862700  1
  Cu  Cu24  1  0.47106900  0.52862700  0.37938300  1
  Cu  Cu25  1  0.52862700  0.37938300  0.47106900  1
  C  C26  1  0.06157500  0.15396800  0.42599000  1
  C  C27  1  0.35846800  0.06157500  0.42599000  1
  C  C28  1  0.15396800  0.35846800  0.42599000  1
  C  C29  1  0.09603200  0.18842500  0.82401000  1
  C  C30  1  0.89153200  0.09603200  0.82401000  1
  C  C31  1  0.18842500  0.89153200  0.82401000  1
  C  C32  1  0.42599000  0.35846800  0.06157500  1
  C  C33  1  0.42599000  0.15396800  0.35846800  1
  C  C34  1  0.42599000  0.06157500  0.15396800  1
  C  C35  1  0.82401000  0.89153200  0.09603200  1
  C  C36  1  0.82401000  0.18842500  0.89153200  1
  C  C37  1  0.82401000  0.09603200  0.18842500  1
  C  C38  1  0.35846800  0.42599000  0.15396800  1
  C  C39  1  0.15396800  0.42599000  0.06157500  1
  C  C40  1  0.06157500  0.42599000  0.35846800  1
  C  C41  1  0.89153200  0.82401000  0.18842500  1
  C  C42  1  0.18842500  0.82401000  0.09603200  1
  C  C43  1  0.09603200  0.82401000  0.89153200  1
  C  C44  1  0.15396800  0.06157500  0.35846800  1
  C  C45  1  0.06157500  0.35846800  0.15396800  1
  C  C46  1  0.35846800  0.15396800  0.06157500  1
  C  C47  1  0.18842500  0.09603200  0.89153200  1
  C  C48  1  0.09603200  0.89153200  0.18842500  1
  C  C49  1  0.89153200  0.18842500  0.09603200  1
  C  C50  1  0.15906500  0.35424200  0.61461400  1
  C  C51  1  0.87207800  0.15906500  0.61461400  1
  C  C52  1  0.35424200  0.87207800  0.61461400  1
  C  C53  1  0.89575800  0.09093500  0.63538600  1
  C  C54  1  0.37792200  0.89575800  0.63538600  1
  C  C55  1  0.09093500  0.37792200  0.63538600  1
  C  C56  1  0.61461400  0.87207800  0.15906500  1
  C  C57  1  0.61461400  0.35424200  0.87207800  1
  C  C58  1  0.61461400  0.15906500  0.35424200  1
  C  C59  1  0.63538600  0.37792200  0.89575800  1
  C  C60  1  0.63538600  0.09093500  0.37792200  1
  C  C61  1  0.63538600  0.89575800  0.09093500  1
  C  C62  1  0.87207800  0.61461400  0.35424200  1
  C  C63  1  0.35424200  0.61461400  0.15906500  1
  C  C64  1  0.15906500  0.61461400  0.87207800  1
  C  C65  1  0.37792200  0.63538600  0.09093500  1
  C  C66  1  0.09093500  0.63538600  0.89575800  1
  C  C67  1  0.89575800  0.63538600  0.37792200  1
  C  C68  1  0.35424200  0.15906500  0.87207800  1
  C  C69  1  0.15906500  0.87207800  0.35424200  1
  C  C70  1  0.87207800  0.35424200  0.15906500  1
  C  C71  1  0.09093500  0.89575800  0.37792200  1
  C  C72  1  0.89575800  0.37792200  0.09093500  1
  C  C73  1  0.37792200  0.09093500  0.89575800  1
  C  C74  1  0.95447300  0.80214100  0.54140600  1
  C  C75  1  0.70198000  0.95447300  0.54140600  1
  C  C76  1  0.80214100  0.70198000  0.54140600  1
  C  C77  1  0.44785900  0.29552700  0.70859400  1
  C  C78  1  0.54802000  0.44785900  0.70859400  1
  C  C79  1  0.29552700  0.54802000  0.70859400  1
  C  C80  1  0.54140600  0.70198000  0.95447300  1
  C  C81  1  0.54140600  0.80214100  0.70198000  1
  C  C82  1  0.54140600  0.95447300  0.80214100  1
  C  C83  1  0.70859400  0.54802000  0.44785900  1
  C  C84  1  0.70859400  0.29552700  0.54802000  1
  C  C85  1  0.70859400  0.44785900  0.29552700  1
  C  C86  1  0.70198000  0.54140600  0.80214100  1
  C  C87  1  0.80214100  0.54140600  0.95447300  1
  C  C88  1  0.95447300  0.54140600  0.70198000  1
  C  C89  1  0.54802000  0.70859400  0.29552700  1
  C  C90  1  0.29552700  0.70859400  0.44785900  1
  C  C91  1  0.44785900  0.70859400  0.54802000  1
  C  C92  1  0.80214100  0.95447300  0.70198000  1
  C  C93  1  0.95447300  0.70198000  0.80214100  1
  C  C94  1  0.70198000  0.80214100  0.95447300  1
  C  C95  1  0.29552700  0.44785900  0.54802000  1
  C  C96  1  0.44785900  0.54802000  0.29552700  1
  C  C97  1  0.54802000  0.29552700  0.44785900  1
  C  C98  1  0.13817000  0.13817000  0.36183000  1
  C  C99  1  0.36183000  0.13817000  0.36183000  1
  C  C100  1  0.13817000  0.36183000  0.36183000  1
  C  C101  1  0.11183000  0.11183000  0.88817000  1
  C  C102  1  0.88817000  0.11183000  0.88817000  1
  C  C103  1  0.11183000  0.88817000  0.88817000  1
  C  C104  1  0.36183000  0.36183000  0.13817000  1
  C  C105  1  0.36183000  0.13817000  0.13817000  1
  C  C106  1  0.88817000  0.88817000  0.11183000  1
  C  C107  1  0.88817000  0.11183000  0.11183000  1
  C  C108  1  0.13817000  0.36183000  0.13817000  1
  C  C109  1  0.11183000  0.88817000  0.11183000  1
  C  C110  1  0.68623400  0.56376600  0.62500000  1
  C  C111  1  0.12500000  0.68623400  0.62500000  1
  C  C112  1  0.56376600  0.12500000  0.62500000  1
  C  C113  1  0.62500000  0.12500000  0.68623400  1
  C  C114  1  0.62500000  0.56376600  0.12500000  1
  C  C115  1  0.62500000  0.68623400  0.56376600  1
  C  C116  1  0.12500000  0.62500000  0.56376600  1
  C  C117  1  0.56376600  0.62500000  0.68623400  1
  C  C118  1  0.68623400  0.62500000  0.12500000  1
  C  C119  1  0.56376600  0.68623400  0.12500000  1
  C  C120  1  0.68623400  0.12500000  0.56376600  1
  C  C121  1  0.12500000  0.56376600  0.68623400  1
