# generated using pymatgen
data_Cu2NiC2
_symmetry_space_group_name_H-M   'P 1'
_cell_length_a   8.83524500
_cell_length_b   8.90951456
_cell_length_c   8.92245250
_cell_angle_alpha   109.55191024
_cell_angle_beta   109.41352192
_cell_angle_gamma   109.19499379
_symmetry_Int_Tables_number   1
_chemical_formula_structural   Cu2NiC2
_chemical_formula_sum   'Cu16 Ni8 C16'
_cell_volume   542.35254102
_cell_formula_units_Z   8
loop_
 _symmetry_equiv_pos_site_id
 _symmetry_equiv_pos_as_xyz
  1  'x, y, z'
loop_
 _atom_site_type_symbol
 _atom_site_label
 _atom_site_symmetry_multiplicity
 _atom_site_fract_x
 _atom_site_fract_y
 _atom_site_fract_z
 _atom_site_occupancy
  C  C0  1  0.72708800  0.18961300  0.95457800  1
  C  C1  1  0.96693100  0.96204400  0.96125200  1
  C  C2  1  0.98839800  0.48188700  0.50866600  1
  C  C3  1  0.48898500  0.51604700  0.00323200  1
  C  C4  1  0.72237800  0.47740000  0.73646900  1
  C  C5  1  0.79408600  0.04172600  0.24991500  1
  C  C6  1  0.53518300  0.26158800  0.31126600  1
  C  C7  1  0.03900100  0.24821800  0.76834100  1
  C  C8  1  0.77789400  0.72986400  0.49744400  1
  C  C9  1  0.24980800  0.28186200  0.52581900  1
  C  C10  1  0.95541500  0.73484600  0.19206500  1
  C  C11  1  0.48140600  0.77591800  0.73084500  1
  C  C12  1  0.48392000  0.02268000  0.51754300  1
  C  C13  1  0.22273000  0.97428100  0.75169500  1
  C  C14  1  0.27943600  0.53120200  0.23527000  1
  C  C15  1  0.22837300  0.75883600  0.02106400  1
  Ni  Ni16  1  0.00095100  0.25554500  0.52145600  1
  Ni  Ni17  1  0.96074100  0.71656200  0.95622900  1
  Ni  Ni18  1  0.45449700  0.00078800  0.73148600  1
  Ni  Ni19  1  0.77595400  0.51324200  0.53603900  1
  Ni  Ni20  1  0.73174100  0.95768900  0.97636400  1
  Ni  Ni21  1  0.46229700  0.24483700  0.50826700  1
  Ni  Ni22  1  0.25478400  0.52787100  0.99101700  1
  Ni  Ni23  1  0.98117500  0.97927900  0.73326500  1
  Cu  Cu24  1  0.78027800  0.24150400  0.73862900  1
  Cu  Cu25  1  0.30219500  0.24363700  0.77209600  1
  Cu  Cu26  1  0.50466900  0.56095400  0.78086200  1
  Cu  Cu27  1  0.74772300  0.27258700  0.22067600  1
  Cu  Cu28  1  0.05487300  0.02244400  0.26686600  1
  Cu  Cu29  1  0.71516800  0.45341500  0.00942700  1
  Cu  Cu30  1  0.54755600  0.77144100  0.49841100  1
  Cu  Cu31  1  0.22831700  0.72020200  0.76731100  1
  Cu  Cu32  1  0.48596000  0.45068900  0.22230100  1
  Cu  Cu33  1  0.28880100  0.04386300  0.04554500  1
  Cu  Cu34  1  0.23951700  0.50890100  0.45624400  1
  Cu  Cu35  1  0.73301200  0.77310100  0.24458800  1
  Cu  Cu36  1  0.53480300  0.98489900  0.26900200  1
  Cu  Cu37  1  0.02881900  0.27511400  0.05994300  1
  Cu  Cu38  1  0.01267900  0.72521900  0.44273700  1
  Cu  Cu39  1  0.23245600  0.76820400  0.28577700  1
