# generated using pymatgen
data_Cu(NiC6)2
_symmetry_space_group_name_H-M   'P 1'
_cell_length_a   5.55451600
_cell_length_b   5.47594500
_cell_length_c   23.41397227
_cell_angle_alpha   89.98113549
_cell_angle_beta   90.00000000
_cell_angle_gamma   90.00000000
_symmetry_Int_Tables_number   1
_chemical_formula_structural   Cu(NiC6)2
_chemical_formula_sum   'Cu4 Ni8 C48'
_cell_volume   712.16458942
_cell_formula_units_Z   4
loop_
 _symmetry_equiv_pos_site_id
 _symmetry_equiv_pos_as_xyz
  1  'x, y, z'
loop_
 _atom_site_type_symbol
 _atom_site_label
 _atom_site_symmetry_multiplicity
 _atom_site_fract_x
 _atom_site_fract_y
 _atom_site_fract_z
 _atom_site_occupancy
  C  C0  1  0.41894900  0.75015100  0.49971500  1
  C  C1  1  0.43765600  0.75886900  0.16773700  1
  C  C2  1  0.93765600  0.24113100  0.83226300  1
  C  C3  1  0.91894900  0.24984900  0.50028500  1
  C  C4  1  0.53289600  0.75853800  0.83248700  1
  C  C5  1  0.03289600  0.24146200  0.16751300  1
  C  C6  1  0.97068800  0.25572100  0.66656100  1
  C  C7  1  0.97165100  0.25656900  0.99768700  1
  C  C8  1  0.97326000  0.25586400  0.33604700  1
  C  C9  1  0.47326000  0.74413600  0.66395300  1
  C  C10  1  0.47068800  0.74427900  0.33343900  1
  C  C11  1  0.47165100  0.74343100  0.00231300  1
  Ni  Ni12  1  0.98479800  0.75357400  0.42367600  1
  Ni  Ni13  1  0.98413400  0.75346000  0.57631200  1
  Ni  Ni14  1  0.00885900  0.74981800  0.91091200  1
  Ni  Ni15  1  0.99594200  0.75040900  0.24721000  1
  Ni  Ni16  1  0.48413400  0.24654000  0.42368800  1
  Ni  Ni17  1  0.50885900  0.25018200  0.08908800  1
  Ni  Ni18  1  0.49594200  0.24959100  0.75279000  1
  Ni  Ni19  1  0.48479800  0.24642600  0.57632400  1
  Cu  Cu20  1  0.00516500  0.74912600  0.75002500  1
  Cu  Cu21  1  0.00012100  0.74961500  0.08448800  1
  Cu  Cu22  1  0.50012100  0.25038500  0.91551200  1
  Cu  Cu23  1  0.50516500  0.25087400  0.24997500  1
  C  C24  1  0.00940300  0.64578400  0.50001500  1
  C  C25  1  0.99518400  0.65805000  0.83341500  1
  C  C26  1  0.99165900  0.68239800  0.16843500  1
  C  C27  1  0.30581200  0.96156600  0.43092100  1
  C  C28  1  0.30671200  0.95756600  0.56996700  1
  C  C29  1  0.29943900  0.96070900  0.75718100  1
  C  C30  1  0.29327800  0.95470000  0.90665400  1
  C  C31  1  0.29320500  0.96855600  0.09891400  1
  C  C32  1  0.28725900  0.96340500  0.23577700  1
  C  C33  1  0.80671200  0.04243400  0.43003300  1
  C  C34  1  0.80581200  0.03843400  0.56907900  1
  C  C35  1  0.78725900  0.03659500  0.76422300  1
  C  C36  1  0.79320500  0.03144400  0.90108600  1
  C  C37  1  0.79327800  0.04530000  0.09334600  1
  C  C38  1  0.79943900  0.03929100  0.24281900  1
  C  C39  1  0.50940300  0.35421600  0.49998500  1
  C  C40  1  0.49165900  0.31760200  0.83156500  1
  C  C41  1  0.49518400  0.34195000  0.16658500  1
  C  C42  1  0.52542200  0.18020500  0.66448300  1
  C  C43  1  0.51380900  0.17867400  0.33567200  1
  C  C44  1  0.51404200  0.18009400  0.00019600  1
  C  C45  1  0.23836900  0.46747700  0.59825900  1
  C  C46  1  0.21837200  0.46734800  0.26316000  1
  C  C47  1  0.22806000  0.47921400  0.93215800  1
  C  C48  1  0.22151900  0.46128000  0.07129400  1
  C  C49  1  0.23459800  0.47157600  0.73320900  1
  C  C50  1  0.23973900  0.47372000  0.40236600  1
  C  C51  1  0.73973900  0.52628000  0.59763400  1
  C  C52  1  0.73459800  0.52842400  0.26679100  1
  C  C53  1  0.72151900  0.53872000  0.92870600  1
  C  C54  1  0.71837200  0.53265200  0.73684000  1
  C  C55  1  0.72806000  0.52078600  0.06784200  1
  C  C56  1  0.73836900  0.53252300  0.40174100  1
  C  C57  1  0.01380900  0.82132600  0.66432800  1
  C  C58  1  0.01404200  0.81990600  0.99980400  1
  C  C59  1  0.02542200  0.81979500  0.33551700  1
