# generated using pymatgen
data_Cu11NiC6
_symmetry_space_group_name_H-M   'P 1'
_cell_length_a   5.90234500
_cell_length_b   4.94857100
_cell_length_c   16.23636364
_cell_angle_alpha   89.41591844
_cell_angle_beta   90.00000000
_cell_angle_gamma   90.00000000
_symmetry_Int_Tables_number   1
_chemical_formula_structural   Cu11NiC6
_chemical_formula_sum   'Cu22 Ni2 C12'
_cell_volume   474.20988176
_cell_formula_units_Z   2
loop_
 _symmetry_equiv_pos_site_id
 _symmetry_equiv_pos_as_xyz
  1  'x, y, z'
loop_
 _atom_site_type_symbol
 _atom_site_label
 _atom_site_symmetry_multiplicity
 _atom_site_fract_x
 _atom_site_fract_y
 _atom_site_fract_z
 _atom_site_occupancy
  C  C0  1  0.18479000  0.02600800  0.17115200  1
  C  C1  1  0.83261700  0.00000000  0.00000000  1
  C  C2  1  0.18479000  0.97399200  0.82884800  1
  C  C3  1  0.17112500  0.00000000  0.50000000  1
  C  C4  1  0.83232200  0.00362000  0.33302400  1
  C  C5  1  0.83232200  0.99638000  0.66697600  1
  C  C6  1  0.33344900  0.48351300  0.32714600  1
  C  C7  1  0.33344900  0.51648700  0.67285400  1
  C  C8  1  0.32841400  0.50000000  0.00000000  1
  C  C9  1  0.64519700  0.50483800  0.83159900  1
  C  C10  1  0.64519700  0.49516200  0.16840100  1
  C  C11  1  0.66032600  0.50000000  0.50000000  1
  Ni  Ni12  1  0.41029100  0.29587400  0.21680800  1
  Ni  Ni13  1  0.41029100  0.70412600  0.78319200  1
  Cu  Cu14  1  0.10588100  0.22080200  0.05559100  1
  Cu  Cu15  1  0.10480400  0.23256100  0.38981500  1
  Cu  Cu16  1  0.11710500  0.21124800  0.72319100  1
  Cu  Cu17  1  0.87299900  0.24402800  0.88493700  1
  Cu  Cu18  1  0.89278900  0.24259300  0.22109400  1
  Cu  Cu19  1  0.88963900  0.22646000  0.55635500  1
  Cu  Cu20  1  0.39144500  0.25933500  0.89314800  1
  Cu  Cu21  1  0.61368900  0.28009700  0.05785200  1
  Cu  Cu22  1  0.60390900  0.26306900  0.39233900  1
  Cu  Cu23  1  0.38486300  0.27828500  0.56242800  1
  Cu  Cu24  1  0.62058700  0.27164100  0.72697400  1
  Cu  Cu25  1  0.61368900  0.71990300  0.94214800  1
  Cu  Cu26  1  0.39144500  0.74066500  0.10685200  1
  Cu  Cu27  1  0.62058700  0.72835900  0.27302600  1
  Cu  Cu28  1  0.60390900  0.73693100  0.60766100  1
  Cu  Cu29  1  0.38486300  0.72171500  0.43757200  1
  Cu  Cu30  1  0.10588100  0.77919800  0.94440900  1
  Cu  Cu31  1  0.11710500  0.78875200  0.27680900  1
  Cu  Cu32  1  0.87299900  0.75597200  0.11506300  1
  Cu  Cu33  1  0.89278900  0.75740700  0.77890600  1
  Cu  Cu34  1  0.10480400  0.76743900  0.61018500  1
  Cu  Cu35  1  0.88963900  0.77354000  0.44364500  1
