# generated using pymatgen
data_Cu4Ni2C19
_symmetry_space_group_name_H-M   'P 1'
_cell_length_a   7.32437400
_cell_length_b   8.86563660
_cell_length_c   9.32656427
_cell_angle_alpha   88.00648815
_cell_angle_beta   76.43822987
_cell_angle_gamma   81.48430735
_symmetry_Int_Tables_number   1
_chemical_formula_structural   Cu4Ni2C19
_chemical_formula_sum   'Cu8 Ni4 C38'
_cell_volume   582.24588816
_cell_formula_units_Z   2
loop_
 _symmetry_equiv_pos_site_id
 _symmetry_equiv_pos_as_xyz
  1  'x, y, z'
loop_
 _atom_site_type_symbol
 _atom_site_label
 _atom_site_symmetry_multiplicity
 _atom_site_fract_x
 _atom_site_fract_y
 _atom_site_fract_z
 _atom_site_occupancy
  C  C0  1  0.24591700  0.39197400  0.67034300  1
  C  C1  1  0.75408300  0.60802600  0.32965700  1
  C  C2  1  0.83369000  0.10520600  0.91008100  1
  C  C3  1  0.16631000  0.89479400  0.08991900  1
  C  C4  1  0.23262200  0.11834400  0.40165200  1
  C  C5  1  0.76737800  0.88165600  0.59834800  1
  Ni  Ni6  1  0.94985700  0.25868900  0.18041500  1
  Ni  Ni7  1  0.05014300  0.74131100  0.81958500  1
  Ni  Ni8  1  0.65651100  0.41735800  0.06052900  1
  Ni  Ni9  1  0.34348900  0.58264200  0.93947100  1
  Cu  Cu10  1  0.78439300  0.22335500  0.54704600  1
  Cu  Cu11  1  0.21560700  0.77664500  0.45295400  1
  Cu  Cu12  1  0.77750900  0.51828800  0.72553800  1
  Cu  Cu13  1  0.22249100  0.48171200  0.27446200  1
  Cu  Cu14  1  0.30304400  0.01331900  0.74072300  1
  Cu  Cu15  1  0.69695600  0.98668100  0.25927700  1
  Cu  Cu16  1  0.35932800  0.22921200  0.97977300  1
  Cu  Cu17  1  0.64067200  0.77078800  0.02022700  1
  C  C18  1  0.53600400  0.28968400  0.36822100  1
  C  C19  1  0.46399600  0.71031600  0.63177900  1
  C  C20  1  0.94694400  0.17073900  0.39936400  1
  C  C21  1  0.05305600  0.82926100  0.60063600  1
  C  C22  1  0.57782200  0.30362500  0.51853400  1
  C  C23  1  0.42217800  0.69637500  0.48146600  1
  C  C24  1  0.85294800  0.34592700  0.64563000  1
  C  C25  1  0.14705200  0.65407300  0.35437000  1
  C  C26  1  0.97471900  0.57171800  0.73816800  1
  C  C27  1  0.02528100  0.42828200  0.26183200  1
  C  C28  1  0.67239800  0.63624800  0.61334900  1
  C  C29  1  0.32760200  0.36375200  0.38665100  1
  C  C30  1  0.61780100  0.49783200  0.87368000  1
  C  C31  1  0.38219900  0.50216800  0.12632000  1
  C  C32  1  0.47074300  0.87594700  0.65717800  1
  C  C33  1  0.52925700  0.12405300  0.34282200  1
  C  C34  1  0.12461100  0.94106300  0.84383700  1
  C  C35  1  0.87538900  0.05893700  0.15616300  1
  C  C36  1  0.23044600  0.13582900  0.62534000  1
  C  C37  1  0.76955400  0.86417100  0.37466000  1
  C  C38  1  0.40830200  0.09561600  0.84808500  1
  C  C39  1  0.59169800  0.90438400  0.15191500  1
  C  C40  1  0.55878400  0.23626400  0.02391700  1
  C  C41  1  0.44121600  0.76373600  0.97608300  1
  C  C42  1  0.29056400  0.38652000  0.89986300  1
  C  C43  1  0.70943600  0.61348000  0.10013700  1
  C  C44  1  0.20547500  0.16629000  0.12204800  1
  C  C45  1  0.79452500  0.83371000  0.87795200  1
  C  C46  1  0.67306600  0.35715700  0.26116900  1
  C  C47  1  0.32693400  0.64284300  0.73883100  1
  C  C48  1  0.89678000  0.31641000  0.00543000  1
  C  C49  1  0.10322000  0.68359000  0.99457000  1
