# generated using pymatgen
data_Cu15(NiC6)4
_symmetry_space_group_name_H-M   'P 1'
_cell_length_a   5.95184254
_cell_length_b   5.95184254
_cell_length_c   14.50415800
_cell_angle_alpha   90.00000000
_cell_angle_beta   90.00000000
_cell_angle_gamma   120.00000605
_symmetry_Int_Tables_number   1
_chemical_formula_structural   Cu15(NiC6)4
_chemical_formula_sum   'Cu15 Ni4 C24'
_cell_volume   444.96514606
_cell_formula_units_Z   1
loop_
 _symmetry_equiv_pos_site_id
 _symmetry_equiv_pos_as_xyz
  1  'x, y, z'
loop_
 _atom_site_type_symbol
 _atom_site_label
 _atom_site_symmetry_multiplicity
 _atom_site_fract_x
 _atom_site_fract_y
 _atom_site_fract_z
 _atom_site_occupancy
  Ni  Ni0  1  0.33333300  0.66666700  0.28931600  1
  Ni  Ni1  1  0.00000000  0.00000000  0.62395700  1
  Ni  Ni2  1  0.00000000  0.00000000  0.37604300  1
  Ni  Ni3  1  0.66666700  0.33333300  0.71068400  1
  Cu  Cu4  1  0.83523300  0.67046600  0.16741400  1
  Cu  Cu5  1  0.50000000  0.50000000  0.00000000  1
  Cu  Cu6  1  0.67046600  0.83523300  0.83258600  1
  Cu  Cu7  1  0.66666700  0.33333300  0.33308500  1
  Cu  Cu8  1  0.32953400  0.16476700  0.16741400  1
  Cu  Cu9  1  0.00000000  0.50000000  0.00000000  1
  Cu  Cu10  1  0.00000000  0.00000000  0.00000000  1
  Cu  Cu11  1  0.16476700  0.32953400  0.83258600  1
  Cu  Cu12  1  0.50000000  0.00000000  0.00000000  1
  Cu  Cu13  1  0.83523300  0.16476700  0.16741400  1
  Cu  Cu14  1  0.50000000  0.50000000  0.50000000  1
  Cu  Cu15  1  0.16476700  0.83523300  0.83258600  1
  Cu  Cu16  1  0.33333300  0.66666700  0.66691500  1
  Cu  Cu17  1  0.00000000  0.50000000  0.50000000  1
  Cu  Cu18  1  0.50000000  0.00000000  0.50000000  1
  C  C19  1  0.50293100  0.49706900  0.24825000  1
  C  C20  1  0.99413800  0.49706900  0.24825000  1
  C  C21  1  0.70006500  0.85003200  0.07498000  1
  C  C22  1  0.00000000  0.00000000  0.24916400  1
  C  C23  1  0.49706900  0.50293100  0.75175000  1
  C  C24  1  0.14996800  0.85003200  0.07498000  1
  C  C25  1  0.14996800  0.29993500  0.07498000  1
  C  C26  1  0.85003200  0.70006500  0.92502000  1
  C  C27  1  0.50293100  0.00586200  0.24825000  1
  C  C28  1  0.66666700  0.33333300  0.08393400  1
  C  C29  1  0.29993500  0.14996800  0.92502000  1
  C  C30  1  0.00000000  0.00000000  0.75083600  1
  C  C31  1  0.00586200  0.50293100  0.75175000  1
  C  C32  1  0.33333300  0.66666700  0.91606600  1
  C  C33  1  0.83039400  0.66078800  0.41756700  1
  C  C34  1  0.49706900  0.99413800  0.75175000  1
  C  C35  1  0.16960600  0.83039400  0.58243300  1
  C  C36  1  0.16960600  0.33921200  0.58243300  1
  C  C37  1  0.85003200  0.14996800  0.92502000  1
  C  C38  1  0.33333300  0.66666700  0.41704600  1
  C  C39  1  0.66078800  0.83039400  0.58243300  1
  C  C40  1  0.66666700  0.33333300  0.58295400  1
  C  C41  1  0.33921200  0.16960600  0.41756700  1
  C  C42  1  0.83039400  0.16960600  0.41756700  1
