# generated using pymatgen
data_Cu7Ni2C11
_symmetry_space_group_name_H-M   'P 1'
_cell_length_a   8.28229800
_cell_length_b   9.77417000
_cell_length_c   11.00334300
_cell_angle_alpha   90.00000000
_cell_angle_beta   90.00000000
_cell_angle_gamma   90.00000000
_symmetry_Int_Tables_number   1
_chemical_formula_structural   Cu7Ni2C11
_chemical_formula_sum   'Cu28 Ni8 C44'
_cell_volume   890.74909957
_cell_formula_units_Z   4
loop_
 _symmetry_equiv_pos_site_id
 _symmetry_equiv_pos_as_xyz
  1  'x, y, z'
loop_
 _atom_site_type_symbol
 _atom_site_label
 _atom_site_symmetry_multiplicity
 _atom_site_fract_x
 _atom_site_fract_y
 _atom_site_fract_z
 _atom_site_occupancy
  C  C0  1  0.75000000  0.23822300  0.25000000  1
  C  C1  1  0.75000000  0.26177700  0.75000000  1
  C  C2  1  0.25000000  0.76177700  0.75000000  1
  C  C3  1  0.25000000  0.73822300  0.25000000  1
  Ni  Ni4  1  0.87174500  0.58021500  0.45101700  1
  Ni  Ni5  1  0.87174500  0.91978500  0.54898300  1
  Ni  Ni6  1  0.62825500  0.58021500  0.04898300  1
  Ni  Ni7  1  0.62825500  0.91978500  0.95101700  1
  Ni  Ni8  1  0.12825500  0.41978500  0.54898300  1
  Ni  Ni9  1  0.12825500  0.08021500  0.45101700  1
  Ni  Ni10  1  0.37174500  0.41978500  0.95101700  1
  Ni  Ni11  1  0.37174500  0.08021500  0.04898300  1
  Cu  Cu12  1  0.37600400  0.61278800  0.48625200  1
  Cu  Cu13  1  0.37600400  0.88721200  0.51374800  1
  Cu  Cu14  1  0.12399600  0.61278800  0.01374800  1
  Cu  Cu15  1  0.12399600  0.88721200  0.98625200  1
  Cu  Cu16  1  0.62399600  0.38721200  0.51374800  1
  Cu  Cu17  1  0.62399600  0.11278800  0.48625200  1
  Cu  Cu18  1  0.87600400  0.38721200  0.98625200  1
  Cu  Cu19  1  0.87600400  0.11278800  0.01374800  1
  Cu  Cu20  1  0.70137600  0.75000000  0.50000000  1
  Cu  Cu21  1  0.79862400  0.75000000  0.00000000  1
  Cu  Cu22  1  0.29862400  0.25000000  0.50000000  1
  Cu  Cu23  1  0.20137600  0.25000000  0.00000000  1
  Cu  Cu24  1  0.91360100  0.71329900  0.29711400  1
  Cu  Cu25  1  0.91360100  0.78670100  0.70288600  1
  Cu  Cu26  1  0.58639900  0.71329900  0.20288600  1
  Cu  Cu27  1  0.58639900  0.78670100  0.79711400  1
  Cu  Cu28  1  0.08639900  0.28670100  0.70288600  1
  Cu  Cu29  1  0.08639900  0.21329900  0.29711400  1
  Cu  Cu30  1  0.41360100  0.28670100  0.79711400  1
  Cu  Cu31  1  0.41360100  0.21329900  0.20288600  1
  Cu  Cu32  1  0.49562800  0.58050800  0.37863200  1
  Cu  Cu33  1  0.49562800  0.91949200  0.62136800  1
  Cu  Cu34  1  0.00437200  0.58050800  0.12136800  1
  Cu  Cu35  1  0.00437200  0.91949200  0.87863200  1
  Cu  Cu36  1  0.50437200  0.41949200  0.62136800  1
  Cu  Cu37  1  0.50437200  0.08050800  0.37863200  1
  Cu  Cu38  1  0.99562800  0.41949200  0.87863200  1
  Cu  Cu39  1  0.99562800  0.08050800  0.12136800  1
  C  C40  1  0.50627500  0.65567600  0.16045300  1
  C  C41  1  0.50627500  0.84432400  0.83954700  1
  C  C42  1  0.99372500  0.65567600  0.33954700  1
  C  C43  1  0.99372500  0.84432400  0.66045300  1
  C  C44  1  0.49372500  0.34432400  0.83954700  1
  C  C45  1  0.49372500  0.15567600  0.16045300  1
  C  C46  1  0.00627500  0.34432400  0.66045300  1
  C  C47  1  0.00627500  0.15567600  0.33954700  1
  C  C48  1  0.78779500  0.66273800  0.07786900  1
  C  C49  1  0.78779500  0.83726200  0.92213100  1
  C  C50  1  0.71220500  0.66273800  0.42213100  1
  C  C51  1  0.71220500  0.83726200  0.57786900  1
  C  C52  1  0.21220500  0.33726200  0.92213100  1
  C  C53  1  0.21220500  0.16273800  0.07786900  1
  C  C54  1  0.28779500  0.33726200  0.57786900  1
  C  C55  1  0.28779500  0.16273800  0.42213100  1
  C  C56  1  0.35050900  0.89939800  0.37278300  1
  C  C57  1  0.35050900  0.60060200  0.62721700  1
  C  C58  1  0.14949100  0.89939800  0.12721700  1
  C  C59  1  0.14949100  0.60060200  0.87278300  1
  C  C60  1  0.64949100  0.10060200  0.62721700  1
  C  C61  1  0.64949100  0.39939800  0.37278300  1
  C  C62  1  0.85050900  0.10060200  0.87278300  1
  C  C63  1  0.85050900  0.39939800  0.12721700  1
  C  C64  1  0.17308200  0.92304800  0.39135000  1
  C  C65  1  0.17308200  0.57695200  0.60865000  1
  C  C66  1  0.32691800  0.92304800  0.10865000  1
  C  C67  1  0.32691800  0.57695200  0.89135000  1
  C  C68  1  0.82691800  0.07695200  0.60865000  1
  C  C69  1  0.82691800  0.42304800  0.39135000  1
  C  C70  1  0.67308200  0.07695200  0.89135000  1
  C  C71  1  0.67308200  0.42304800  0.10865000  1
  C  C72  1  0.38101300  0.60378500  0.39333900  1
  C  C73  1  0.38101300  0.89621500  0.60666100  1
  C  C74  1  0.11898700  0.60378500  0.10666100  1
  C  C75  1  0.11898700  0.89621500  0.89333900  1
  C  C76  1  0.61898700  0.39621500  0.60666100  1
  C  C77  1  0.61898700  0.10378500  0.39333900  1
  C  C78  1  0.88101300  0.39621500  0.89333900  1
  C  C79  1  0.88101300  0.10378500  0.10666100  1
