# generated using pymatgen
data_Cu2NiC33
_symmetry_space_group_name_H-M   'P 1'
_cell_length_a   8.43322428
_cell_length_b   8.43322428
_cell_length_c   8.43322435
_cell_angle_alpha   61.02737787
_cell_angle_beta   61.02737787
_cell_angle_gamma   61.02738154
_symmetry_Int_Tables_number   1
_chemical_formula_structural   Cu2NiC33
_chemical_formula_sum   'Cu2 Ni1 C33'
_cell_volume   433.91021241
_cell_formula_units_Z   1
loop_
 _symmetry_equiv_pos_site_id
 _symmetry_equiv_pos_as_xyz
  1  'x, y, z'
loop_
 _atom_site_type_symbol
 _atom_site_label
 _atom_site_symmetry_multiplicity
 _atom_site_fract_x
 _atom_site_fract_y
 _atom_site_fract_z
 _atom_site_occupancy
  C  C0  1  0.14287100  0.14287100  0.14287100  1
  C  C1  1  0.35600100  0.35600100  0.35600100  1
  C  C2  1  0.64305100  0.64305100  0.64305100  1
  Ni  Ni3  1  0.85830800  0.85830800  0.85830800  1
  Cu  Cu4  1  0.00023400  0.00023400  0.00023400  1
  Cu  Cu5  1  0.50044300  0.50044300  0.50044300  1
  C  C6  1  0.75055600  0.04215000  0.45878000  1
  C  C7  1  0.04215000  0.45878000  0.75055600  1
  C  C8  1  0.45878000  0.75055600  0.04215000  1
  C  C9  1  0.54596900  0.24735800  0.95117900  1
  C  C10  1  0.95117900  0.54596900  0.24735800  1
  C  C11  1  0.24735800  0.95117900  0.54596900  1
  C  C12  1  0.31148400  0.10929800  0.51163300  1
  C  C13  1  0.51163300  0.31148400  0.10929800  1
  C  C14  1  0.90915500  0.05714100  0.25969700  1
  C  C15  1  0.10929800  0.51163300  0.31148400  1
  C  C16  1  0.81987800  0.00469800  0.61900000  1
  C  C17  1  0.59262900  0.24240000  0.44676700  1
  C  C18  1  0.05714100  0.25969700  0.90915500  1
  C  C19  1  0.24240000  0.44676700  0.59262900  1
  C  C20  1  0.39007600  0.17774900  0.99354300  1
  C  C21  1  0.44676700  0.59262900  0.24240000  1
  C  C22  1  0.74776700  0.08191000  0.93898000  1
  C  C23  1  0.99354300  0.39007600  0.17774900  1
  C  C24  1  0.00469800  0.61900000  0.81987800  1
  C  C25  1  0.25969700  0.90915500  0.05714100  1
  C  C26  1  0.56361200  0.40508800  0.75250600  1
  C  C27  1  0.61900000  0.81987800  0.00469800  1
  C  C28  1  0.75250600  0.56361200  0.40508800  1
  C  C29  1  0.93898000  0.74776700  0.08191000  1
  C  C30  1  0.40508800  0.75250600  0.56361200  1
  C  C31  1  0.17774900  0.99354300  0.39007600  1
  C  C32  1  0.88820000  0.50015400  0.67973400  1
  C  C33  1  0.08191000  0.93898000  0.74776700  1
  C  C34  1  0.50015400  0.67973400  0.88820000  1
  C  C35  1  0.67973400  0.88820000  0.50015400  1
