# generated using pymatgen
data_Cu2Ni3C23
_symmetry_space_group_name_H-M   'P 1'
_cell_length_a   6.07457547
_cell_length_b   6.07457547
_cell_length_c   9.65281091
_cell_angle_alpha   89.81355120
_cell_angle_beta   89.81355120
_cell_angle_gamma   61.10099736
_symmetry_Int_Tables_number   1
_chemical_formula_structural   Cu2Ni3C23
_chemical_formula_sum   'Cu2 Ni3 C23'
_cell_volume   311.83530939
_cell_formula_units_Z   1
loop_
 _symmetry_equiv_pos_site_id
 _symmetry_equiv_pos_as_xyz
  1  'x, y, z'
loop_
 _atom_site_type_symbol
 _atom_site_label
 _atom_site_symmetry_multiplicity
 _atom_site_fract_x
 _atom_site_fract_y
 _atom_site_fract_z
 _atom_site_occupancy
  C  C0  1  0.67356300  0.67356300  0.88583300  1
  C  C1  1  0.98865500  0.98865500  0.99198600  1
  C  C2  1  0.98368500  0.98368500  0.49995600  1
  C  C3  1  0.33212700  0.33212700  0.39723100  1
  Ni  Ni4  1  0.83105000  0.83105000  0.21273700  1
  Ni  Ni5  1  0.65899500  0.17266200  0.71454900  1
  Ni  Ni6  1  0.17266200  0.65899500  0.71454900  1
  Cu  Cu7  1  0.66653800  0.66653800  0.48995600  1
  Cu  Cu8  1  0.34244600  0.34244600  0.98167200  1
  C  C9  1  0.83218300  0.33830900  0.21438100  1
  C  C10  1  0.33830900  0.83218300  0.21438100  1
  C  C11  1  0.16826700  0.16826700  0.71084200  1
  C  C12  1  0.82949300  0.31804100  0.59931300  1
  C  C13  1  0.51645500  0.51645500  0.34546000  1
  C  C14  1  0.67801900  0.67801900  0.10038500  1
  C  C15  1  0.98956900  0.98956900  0.31297000  1
  C  C16  1  0.99110600  0.99110600  0.80664700  1
  C  C17  1  0.31804100  0.82949300  0.59931300  1
  C  C18  1  0.95904200  0.51672200  0.35052800  1
  C  C19  1  0.51672200  0.95904200  0.35052800  1
  C  C20  1  0.16445100  0.16445100  0.09553300  1
  C  C21  1  0.82789600  0.82789600  0.60558300  1
  C  C22  1  0.48827000  0.04735600  0.83990500  1
  C  C23  1  0.04735600  0.48827000  0.83990500  1
  C  C24  1  0.34039500  0.34039500  0.60442800  1
  C  C25  1  0.67180700  0.17001300  0.09469200  1
  C  C26  1  0.48484600  0.48484600  0.84006500  1
  C  C27  1  0.17001300  0.67180700  0.09469200  1
