# generated using pymatgen
data_Cu2Ni3C23
_symmetry_space_group_name_H-M   'P 1'
_cell_length_a   5.94818918
_cell_length_b   5.94818918
_cell_length_c   9.70643671
_cell_angle_alpha   89.81588944
_cell_angle_beta   89.81588944
_cell_angle_gamma   59.84488687
_symmetry_Int_Tables_number   1
_chemical_formula_structural   Cu2Ni3C23
_chemical_formula_sum   'Cu2 Ni3 C23'
_cell_volume   296.94504486
_cell_formula_units_Z   1
loop_
 _symmetry_equiv_pos_site_id
 _symmetry_equiv_pos_as_xyz
  1  'x, y, z'
loop_
 _atom_site_type_symbol
 _atom_site_label
 _atom_site_symmetry_multiplicity
 _atom_site_fract_x
 _atom_site_fract_y
 _atom_site_fract_z
 _atom_site_occupancy
  C  C0  1  0.66559200  0.66559200  0.90639700  1
  C  C1  1  0.00026500  0.00026500  0.98610300  1
  C  C2  1  0.99976100  0.99976100  0.48954000  1
  C  C3  1  0.33282400  0.33282400  0.40824200  1
  Ni  Ni4  1  0.83422600  0.34323500  0.21698100  1
  Ni  Ni5  1  0.34323500  0.83422600  0.21698100  1
  Ni  Ni6  1  0.17249000  0.17249000  0.71800100  1
  C  C7  1  0.83009300  0.83009300  0.21141100  1
  C  C8  1  0.66037400  0.16953500  0.71304800  1
  C  C9  1  0.16953500  0.66037400  0.71304800  1
  Cu  Cu10  1  0.67064100  0.67064100  0.48832900  1
  Cu  Cu11  1  0.33851700  0.33851700  0.98504500  1
  C  C12  1  0.82999800  0.34604800  0.58814400  1
  C  C13  1  0.51971900  0.51971900  0.34950900  1
  C  C14  1  0.66011200  0.66011200  0.10988400  1
  C  C15  1  0.00315500  0.00315500  0.30088700  1
  C  C16  1  0.00355500  0.00355500  0.79868600  1
  C  C17  1  0.34604800  0.82999800  0.58814400  1
  C  C18  1  0.96079100  0.51590500  0.35193500  1
  C  C19  1  0.51590500  0.96079100  0.35193500  1
  C  C20  1  0.17235400  0.17235400  0.08997600  1
  C  C21  1  0.82828200  0.82828200  0.58735400  1
  C  C22  1  0.47500500  0.03710200  0.85068700  1
  C  C23  1  0.03710200  0.47500500  0.85068700  1
  C  C24  1  0.32946600  0.32946600  0.61202600  1
  C  C25  1  0.65535800  0.17247100  0.08658000  1
  C  C26  1  0.47950800  0.47950800  0.85217800  1
  C  C27  1  0.17247100  0.65535800  0.08658000  1
