# generated using pymatgen
data_CuNiC8
_symmetry_space_group_name_H-M   'P 1'
_cell_length_a   8.09607600
_cell_length_b   8.09607600
_cell_length_c   8.16243600
_cell_angle_alpha   90.00000000
_cell_angle_beta   90.00000000
_cell_angle_gamma   90.00000000
_symmetry_Int_Tables_number   1
_chemical_formula_structural   CuNiC8
_chemical_formula_sum   'Cu4 Ni4 C32'
_cell_volume   535.01867538
_cell_formula_units_Z   4
loop_
 _symmetry_equiv_pos_site_id
 _symmetry_equiv_pos_as_xyz
  1  'x, y, z'
loop_
 _atom_site_type_symbol
 _atom_site_label
 _atom_site_symmetry_multiplicity
 _atom_site_fract_x
 _atom_site_fract_y
 _atom_site_fract_z
 _atom_site_occupancy
  C  C0  1  0.00000000  0.00000000  0.00000000  1
  C  C1  1  0.50000000  0.00000000  0.01274200  1
  C  C2  1  0.00000000  0.50000000  0.48725800  1
  C  C3  1  0.50000000  0.50000000  0.00000000  1
  C  C4  1  0.00000000  0.00000000  0.50000000  1
  C  C5  1  0.00000000  0.50000000  0.98725800  1
  C  C6  1  0.50000000  0.50000000  0.50000000  1
  C  C7  1  0.50000000  0.00000000  0.51274200  1
  Ni  Ni8  1  0.25000000  0.75000000  0.25000000  1
  Ni  Ni9  1  0.75000000  0.75000000  0.75000000  1
  Ni  Ni10  1  0.75000000  0.25000000  0.25000000  1
  Ni  Ni11  1  0.25000000  0.25000000  0.75000000  1
  Cu  Cu12  1  0.25000000  0.25000000  0.25000000  1
  Cu  Cu13  1  0.75000000  0.75000000  0.25000000  1
  Cu  Cu14  1  0.25000000  0.75000000  0.75000000  1
  Cu  Cu15  1  0.75000000  0.25000000  0.75000000  1
  C  C16  1  0.48613900  0.29291000  0.22846700  1
  C  C17  1  0.72754200  0.26950500  0.51280400  1
  C  C18  1  0.01386100  0.20709000  0.27153300  1
  C  C19  1  0.29291000  0.51386100  0.77153300  1
  C  C20  1  0.20386000  0.48599600  0.23180900  1
  C  C21  1  0.51386100  0.70709000  0.22846700  1
  C  C22  1  0.76950500  0.77245800  0.01280400  1
  C  C23  1  0.79291000  0.01386100  0.72846700  1
  C  C24  1  0.29614000  0.01400400  0.26819100  1
  C  C25  1  0.77245800  0.23049500  0.98719600  1
  C  C26  1  0.79614000  0.51400400  0.23180900  1
  C  C27  1  0.98613900  0.79291000  0.27153300  1
  C  C28  1  0.01400400  0.70386000  0.73180900  1
  C  C29  1  0.51400400  0.20386000  0.76819100  1
  C  C30  1  0.23049500  0.22754200  0.01280400  1
  C  C31  1  0.73049500  0.72754200  0.48719600  1
  C  C32  1  0.70386000  0.98599600  0.26819100  1
  C  C33  1  0.48599600  0.79614000  0.76819100  1
  C  C34  1  0.70709000  0.48613900  0.77153300  1
  C  C35  1  0.98599600  0.29614000  0.73180900  1
  C  C36  1  0.27245800  0.73049500  0.51280400  1
  C  C37  1  0.20709000  0.98613900  0.72846700  1
  C  C38  1  0.22754200  0.76950500  0.98719600  1
  C  C39  1  0.26950500  0.27245800  0.48719600  1
