# generated using pymatgen
data_Cu16Ni4C7
_symmetry_space_group_name_H-M   'P 1'
_cell_length_a   9.64812287
_cell_length_b   9.51096985
_cell_length_c   9.48717733
_cell_angle_alpha   61.04069447
_cell_angle_beta   59.60136946
_cell_angle_gamma   59.35793607
_symmetry_Int_Tables_number   1
_chemical_formula_structural   Cu16Ni4C7
_chemical_formula_sum   'Cu32 Ni8 C14'
_cell_volume   615.27403377
_cell_formula_units_Z   2
loop_
 _symmetry_equiv_pos_site_id
 _symmetry_equiv_pos_as_xyz
  1  'x, y, z'
loop_
 _atom_site_type_symbol
 _atom_site_label
 _atom_site_symmetry_multiplicity
 _atom_site_fract_x
 _atom_site_fract_y
 _atom_site_fract_z
 _atom_site_occupancy
  C  C0  1  0.78681700  0.21318300  0.21318300  1
  C  C1  1  0.05942700  0.44057300  0.44057300  1
  C  C2  1  0.78638800  0.78638800  0.21361200  1
  C  C3  1  0.21361200  0.21361200  0.78638800  1
  C  C4  1  0.21272000  0.78728000  0.21272000  1
  C  C5  1  0.21318300  0.78681700  0.78681700  1
  C  C6  1  0.78728000  0.21272000  0.78728000  1
  C  C7  1  0.44057300  0.05942700  0.05942700  1
  C  C8  1  0.62276100  0.62438600  0.62728600  1
  C  C9  1  0.62728600  0.12556700  0.62276100  1
  C  C10  1  0.12556700  0.62728600  0.62438600  1
  C  C11  1  0.62438600  0.62276100  0.12556700  1
  Ni  Ni12  1  0.77611600  0.40284900  0.40727900  1
  Ni  Ni13  1  0.41375600  0.40727900  0.40284900  1
  Ni  Ni14  1  0.40727900  0.41375600  0.77611600  1
  Ni  Ni15  1  0.40284900  0.77611600  0.41375600  1
  Ni  Ni16  1  0.85244400  0.46701900  0.83433800  1
  Ni  Ni17  1  0.84619900  0.83433800  0.46701900  1
  Ni  Ni18  1  0.83433800  0.84619900  0.85244400  1
  Ni  Ni19  1  0.46701900  0.85244400  0.84619900  1
  C  C20  1  0.00000000  0.00000000  0.00000000  1
  C  C21  1  0.25000000  0.25000000  0.25000000  1
  Cu  Cu22  1  0.72700200  0.80892400  0.46560700  1
  Cu  Cu23  1  0.77180900  0.41621100  0.26885800  1
  Cu  Cu24  1  0.54312300  0.26885800  0.41621100  1
  Cu  Cu25  1  0.46560700  0.99846700  0.72700200  1
  Cu  Cu26  1  0.42580200  0.53715500  0.26354800  1
  Cu  Cu27  1  0.06528700  0.06132100  0.80772300  1
  Cu  Cu28  1  0.06566900  0.80772300  0.06132100  1
  Cu  Cu29  1  0.78165600  0.52914000  0.42217700  1
  Cu  Cu30  1  0.26702700  0.42217700  0.52914000  1
  Cu  Cu31  1  0.42217700  0.26702700  0.78165600  1
  Cu  Cu32  1  0.52914000  0.78165600  0.26702700  1
  Cu  Cu33  1  0.06132100  0.06528700  0.06566900  1
  Cu  Cu34  1  0.80772300  0.06566900  0.06528700  1
  Cu  Cu35  1  0.99554300  0.71405600  0.45913200  1
  Cu  Cu36  1  0.83126900  0.45913200  0.71405600  1
  Cu  Cu37  1  0.26354800  0.77349500  0.42580200  1
  Cu  Cu38  1  0.99846700  0.46560700  0.80892300  1
  Cu  Cu39  1  0.26885800  0.54312300  0.77180900  1
  Cu  Cu40  1  0.41621100  0.77180900  0.54312300  1
  Cu  Cu41  1  0.44259300  0.18128900  0.18088200  1
  Cu  Cu42  1  0.19523600  0.18088200  0.18128900  1
  Cu  Cu43  1  0.73215900  0.46967400  0.98120400  1
  Cu  Cu44  1  0.81696200  0.98120400  0.46967400  1
  Cu  Cu45  1  0.46967400  0.73215900  0.81696200  1
  Cu  Cu46  1  0.98120400  0.81696200  0.73215900  1
  Cu  Cu47  1  0.18128900  0.44259300  0.19523600  1
  Cu  Cu48  1  0.18088200  0.19523600  0.44259300  1
  Cu  Cu49  1  0.80892300  0.72700200  0.99846700  1
  Cu  Cu50  1  0.77349500  0.26354800  0.53715500  1
  Cu  Cu51  1  0.71405600  0.99554300  0.83126900  1
  Cu  Cu52  1  0.45913200  0.83126900  0.99554200  1
  Cu  Cu53  1  0.53715500  0.42580200  0.77349500  1
