# generated using pymatgen
data_Cu21Ni11
_symmetry_space_group_name_H-M   'P 1'
_cell_length_a   8.09659900
_cell_length_b   8.09659900
_cell_length_c   7.43755400
_cell_angle_alpha   90.00000000
_cell_angle_beta   90.00000000
_cell_angle_gamma   90.00000000
_symmetry_Int_Tables_number   1
_chemical_formula_structural   Cu21Ni11
_chemical_formula_sum   'Cu21 Ni11'
_cell_volume   487.56822301
_cell_formula_units_Z   1
loop_
 _symmetry_equiv_pos_site_id
 _symmetry_equiv_pos_as_xyz
  1  'x, y, z'
loop_
 _atom_site_type_symbol
 _atom_site_label
 _atom_site_symmetry_multiplicity
 _atom_site_fract_x
 _atom_site_fract_y
 _atom_site_fract_z
 _atom_site_occupancy
  Ni  Ni0  1  0.50000000  0.00000000  0.50000000  1
  Ni  Ni1  1  0.24295800  0.24295800  0.00000000  1
  Ni  Ni2  1  0.25067800  0.25067800  0.50000000  1
  Ni  Ni3  1  0.75704200  0.24295800  0.00000000  1
  Ni  Ni4  1  0.74932200  0.25067800  0.50000000  1
  Ni  Ni5  1  0.00000000  0.50000000  0.50000000  1
  Ni  Ni6  1  0.50000000  0.50000000  0.00000000  1
  Ni  Ni7  1  0.24295800  0.75704200  0.00000000  1
  Ni  Ni8  1  0.25067800  0.74932200  0.50000000  1
  Ni  Ni9  1  0.75704200  0.75704200  0.00000000  1
  Ni  Ni10  1  0.74932200  0.74932200  0.50000000  1
  Cu  Cu11  1  0.00000000  0.00000000  0.00000000  1
  Cu  Cu12  1  0.00000000  0.00000000  0.50000000  1
  Cu  Cu13  1  0.25320100  0.00000000  0.25703100  1
  Cu  Cu14  1  0.50000000  0.00000000  0.00000000  1
  Cu  Cu15  1  0.25320100  0.00000000  0.74296900  1
  Cu  Cu16  1  0.74679900  0.00000000  0.25703100  1
  Cu  Cu17  1  0.74679900  0.00000000  0.74296900  1
  Cu  Cu18  1  0.00000000  0.25320100  0.25703100  1
  Cu  Cu19  1  0.00000000  0.25320100  0.74296900  1
  Cu  Cu20  1  0.50000000  0.25069300  0.24794000  1
  Cu  Cu21  1  0.50000000  0.25069300  0.75206000  1
  Cu  Cu22  1  0.00000000  0.50000000  0.00000000  1
  Cu  Cu23  1  0.25069300  0.50000000  0.24794000  1
  Cu  Cu24  1  0.25069300  0.50000000  0.75206000  1
  Cu  Cu25  1  0.50000000  0.50000000  0.50000000  1
  Cu  Cu26  1  0.74930700  0.50000000  0.24794000  1
  Cu  Cu27  1  0.74930700  0.50000000  0.75206000  1
  Cu  Cu28  1  0.00000000  0.74679900  0.25703100  1
  Cu  Cu29  1  0.00000000  0.74679900  0.74296900  1
  Cu  Cu30  1  0.50000000  0.74930700  0.24794000  1
  Cu  Cu31  1  0.50000000  0.74930700  0.75206000  1
