# generated using pymatgen
data_CuNiC3
_symmetry_space_group_name_H-M   'P 1'
_cell_length_a   5.00810100
_cell_length_b   5.22758900
_cell_length_c   7.30440500
_cell_angle_alpha   90.00000000
_cell_angle_beta   90.00000000
_cell_angle_gamma   90.00000000
_symmetry_Int_Tables_number   1
_chemical_formula_structural   CuNiC3
_chemical_formula_sum   'Cu4 Ni4 C12'
_cell_volume   191.23146819
_cell_formula_units_Z   4
loop_
 _symmetry_equiv_pos_site_id
 _symmetry_equiv_pos_as_xyz
  1  'x, y, z'
loop_
 _atom_site_type_symbol
 _atom_site_label
 _atom_site_symmetry_multiplicity
 _atom_site_fract_x
 _atom_site_fract_y
 _atom_site_fract_z
 _atom_site_occupancy
  Ni  Ni0  1  0.01751100  0.93514400  0.75000000  1
  Ni  Ni1  1  0.48248900  0.43514400  0.75000000  1
  Ni  Ni2  1  0.51751100  0.56485600  0.25000000  1
  Ni  Ni3  1  0.98248900  0.06485600  0.25000000  1
  Cu  Cu4  1  0.00000000  0.50000000  0.00000000  1
  Cu  Cu5  1  0.00000000  0.50000000  0.50000000  1
  Cu  Cu6  1  0.50000000  0.00000000  0.50000000  1
  Cu  Cu7  1  0.50000000  0.00000000  0.00000000  1
  C  C8  1  0.12682200  0.44321500  0.25000000  1
  C  C9  1  0.18706600  0.19299300  0.56640400  1
  C  C10  1  0.18706600  0.19299300  0.93359600  1
  C  C11  1  0.31293400  0.69299300  0.56640400  1
  C  C12  1  0.31293400  0.69299300  0.93359600  1
  C  C13  1  0.37317800  0.94321500  0.25000000  1
  C  C14  1  0.62682200  0.05678500  0.75000000  1
  C  C15  1  0.68706600  0.30700700  0.06640400  1
  C  C16  1  0.68706600  0.30700700  0.43359600  1
  C  C17  1  0.81293400  0.80700700  0.06640400  1
  C  C18  1  0.81293400  0.80700700  0.43359600  1
  C  C19  1  0.87317800  0.55678500  0.75000000  1
