# generated using pymatgen
data_CuNiC5
_symmetry_space_group_name_H-M   'P 1'
_cell_length_a   6.28749500
_cell_length_b   6.28749500
_cell_length_c   8.40819200
_cell_angle_alpha   90.00000000
_cell_angle_beta   90.00000000
_cell_angle_gamma   90.00000000
_symmetry_Int_Tables_number   1
_chemical_formula_structural   CuNiC5
_chemical_formula_sum   'Cu4 Ni4 C20'
_cell_volume   332.39763536
_cell_formula_units_Z   4
loop_
 _symmetry_equiv_pos_site_id
 _symmetry_equiv_pos_as_xyz
  1  'x, y, z'
loop_
 _atom_site_type_symbol
 _atom_site_label
 _atom_site_symmetry_multiplicity
 _atom_site_fract_x
 _atom_site_fract_y
 _atom_site_fract_z
 _atom_site_occupancy
  C  C0  1  0.50000000  0.72021300  0.00000000  1
  C  C1  1  0.50000000  0.27978700  0.50000000  1
  C  C2  1  0.72021300  0.50000000  0.25000000  1
  C  C3  1  0.27978700  0.50000000  0.75000000  1
  Ni  Ni4  1  0.71475000  0.00000000  0.25000000  1
  Ni  Ni5  1  0.00000000  0.71475000  0.00000000  1
  Ni  Ni6  1  0.00000000  0.28525000  0.50000000  1
  Ni  Ni7  1  0.28525000  0.00000000  0.75000000  1
  Cu  Cu8  1  0.75978200  0.75978200  0.62500000  1
  Cu  Cu9  1  0.75978200  0.24021800  0.87500000  1
  Cu  Cu10  1  0.24021800  0.75978200  0.37500000  1
  Cu  Cu11  1  0.24021800  0.24021800  0.12500000  1
  C  C12  1  0.52394900  0.76556200  0.25684900  1
  C  C13  1  0.52394900  0.23443800  0.24315100  1
  C  C14  1  0.76556200  0.52394900  0.99315100  1
  C  C15  1  0.76556200  0.47605100  0.50684900  1
  C  C16  1  0.76806300  0.97906400  0.01500900  1
  C  C17  1  0.76806300  0.02093600  0.48499100  1
  C  C18  1  0.97906400  0.76806300  0.23499100  1
  C  C19  1  0.97906400  0.23193700  0.26500900  1
  C  C20  1  0.02093600  0.76806300  0.76500900  1
  C  C21  1  0.02093600  0.23193700  0.73499100  1
  C  C22  1  0.23193700  0.02093600  0.51500900  1
  C  C23  1  0.23193700  0.97906400  0.98499100  1
  C  C24  1  0.23443800  0.52394900  0.00684900  1
  C  C25  1  0.23443800  0.47605100  0.49315100  1
  C  C26  1  0.47605100  0.76556200  0.74315100  1
  C  C27  1  0.47605100  0.23443800  0.75684900  1
