# generated using pymatgen
data_Cu12Ni2C13
_symmetry_space_group_name_H-M   'P 1'
_cell_length_a   10.56587300
_cell_length_b   10.56587300
_cell_length_c   10.56587300
_cell_angle_alpha   90.00000000
_cell_angle_beta   90.00000000
_cell_angle_gamma   90.00000000
_symmetry_Int_Tables_number   1
_chemical_formula_structural   Cu12Ni2C13
_chemical_formula_sum   'Cu48 Ni8 C52'
_cell_volume   1179.54946703
_cell_formula_units_Z   4
loop_
 _symmetry_equiv_pos_site_id
 _symmetry_equiv_pos_as_xyz
  1  'x, y, z'
loop_
 _atom_site_type_symbol
 _atom_site_label
 _atom_site_symmetry_multiplicity
 _atom_site_fract_x
 _atom_site_fract_y
 _atom_site_fract_z
 _atom_site_occupancy
  C  C0  1  0.50000000  0.50000000  0.00000000  1
  C  C1  1  0.50000000  0.00000000  0.50000000  1
  C  C2  1  0.00000000  0.50000000  0.50000000  1
  C  C3  1  0.00000000  0.00000000  0.00000000  1
  C  C4  1  0.11301700  0.60899900  0.22728900  1
  C  C5  1  0.88698300  0.10899900  0.27271100  1
  C  C6  1  0.38698300  0.39100100  0.72728900  1
  C  C7  1  0.61301700  0.89100100  0.77271100  1
  C  C8  1  0.22728900  0.11301700  0.60899900  1
  C  C9  1  0.27271100  0.88698300  0.10899900  1
  C  C10  1  0.72728900  0.38698300  0.39100100  1
  C  C11  1  0.77271100  0.61301700  0.89100100  1
  C  C12  1  0.60899900  0.22728900  0.11301700  1
  C  C13  1  0.10899900  0.27271100  0.88698300  1
  C  C14  1  0.39100100  0.72728900  0.38698300  1
  C  C15  1  0.89100100  0.77271100  0.61301700  1
  C  C16  1  0.88698300  0.39100100  0.77271100  1
  C  C17  1  0.11301700  0.89100100  0.72728900  1
  C  C18  1  0.61301700  0.60899900  0.27271100  1
  C  C19  1  0.38698300  0.10899900  0.22728900  1
  C  C20  1  0.77271100  0.88698300  0.39100100  1
  C  C21  1  0.72728900  0.11301700  0.89100100  1
  C  C22  1  0.27271100  0.61301700  0.60899900  1
  C  C23  1  0.22728900  0.38698300  0.10899900  1
  C  C24  1  0.39100100  0.77271100  0.88698300  1
  C  C25  1  0.89100100  0.72728900  0.11301700  1
  C  C26  1  0.60899900  0.27271100  0.61301700  1
  C  C27  1  0.10899900  0.22728900  0.38698300  1
  C  C28  1  0.18621600  0.39556500  0.90394900  1
  C  C29  1  0.81378400  0.89556500  0.59605100  1
  C  C30  1  0.31378400  0.60443500  0.40394900  1
  C  C31  1  0.68621600  0.10443500  0.09605100  1
  C  C32  1  0.90394900  0.18621600  0.39556500  1
  C  C33  1  0.59605100  0.81378400  0.89556500  1
  C  C34  1  0.40394900  0.31378400  0.60443500  1
  C  C35  1  0.09605100  0.68621600  0.10443500  1
  C  C36  1  0.39556500  0.90394900  0.18621600  1
  C  C37  1  0.89556500  0.59605100  0.81378400  1
  C  C38  1  0.60443500  0.40394900  0.31378400  1
  C  C39  1  0.10443500  0.09605100  0.68621600  1
  C  C40  1  0.81378400  0.60443500  0.09605100  1
  C  C41  1  0.18621600  0.10443500  0.40394900  1
  C  C42  1  0.68621600  0.39556500  0.59605100  1
  C  C43  1  0.31378400  0.89556500  0.90394900  1
  C  C44  1  0.09605100  0.81378400  0.60443500  1
  C  C45  1  0.40394900  0.18621600  0.10443500  1
  C  C46  1  0.59605100  0.68621600  0.39556500  1
  C  C47  1  0.90394900  0.31378400  0.89556500  1
  C  C48  1  0.60443500  0.09605100  0.81378400  1
  C  C49  1  0.10443500  0.40394900  0.18621600  1
  C  C50  1  0.39556500  0.59605100  0.68621600  1
  C  C51  1  0.89556500  0.90394900  0.31378400  1
  Ni  Ni52  1  0.15868000  0.84132000  0.34132000  1
  Ni  Ni53  1  0.84132000  0.34132000  0.15868000  1
  Ni  Ni54  1  0.34132000  0.15868000  0.84132000  1
  Ni  Ni55  1  0.65868000  0.65868000  0.65868000  1
  Ni  Ni56  1  0.84132000  0.15868000  0.65868000  1
  Ni  Ni57  1  0.15868000  0.65868000  0.84132000  1
  Ni  Ni58  1  0.65868000  0.84132000  0.15868000  1
  Ni  Ni59  1  0.34132000  0.34132000  0.34132000  1
  Cu  Cu60  1  0.15655500  0.63264800  0.14959400  1
  Cu  Cu61  1  0.84344500  0.13264800  0.35040600  1
  Cu  Cu62  1  0.34344500  0.36735200  0.64959400  1
  Cu  Cu63  1  0.65655500  0.86735200  0.85040600  1
  Cu  Cu64  1  0.14959400  0.15655500  0.63264800  1
  Cu  Cu65  1  0.35040600  0.84344500  0.13264800  1
  Cu  Cu66  1  0.64959400  0.34344500  0.36735200  1
  Cu  Cu67  1  0.85040600  0.65655500  0.86735200  1
  Cu  Cu68  1  0.63264800  0.14959400  0.15655500  1
  Cu  Cu69  1  0.13264800  0.35040600  0.84344500  1
  Cu  Cu70  1  0.36735200  0.64959400  0.34344500  1
  Cu  Cu71  1  0.86735200  0.85040600  0.65655500  1
  Cu  Cu72  1  0.84344500  0.36735200  0.85040600  1
  Cu  Cu73  1  0.15655500  0.86735200  0.64959400  1
  Cu  Cu74  1  0.65655500  0.63264800  0.35040600  1
  Cu  Cu75  1  0.34344500  0.13264800  0.14959400  1
  Cu  Cu76  1  0.85040600  0.84344500  0.36735200  1
  Cu  Cu77  1  0.64959400  0.15655500  0.86735200  1
  Cu  Cu78  1  0.35040600  0.65655500  0.63264800  1
  Cu  Cu79  1  0.14959400  0.34344500  0.13264800  1
  Cu  Cu80  1  0.36735200  0.85040600  0.84344500  1
  Cu  Cu81  1  0.86735200  0.64959400  0.15655500  1
  Cu  Cu82  1  0.63264800  0.35040600  0.65655500  1
  Cu  Cu83  1  0.13264800  0.14959400  0.34344500  1
  Cu  Cu84  1  0.51561500  0.60461100  0.85707600  1
  Cu  Cu85  1  0.48438500  0.10461100  0.64292400  1
  Cu  Cu86  1  0.98438500  0.39538900  0.35707600  1
  Cu  Cu87  1  0.01561500  0.89538900  0.14292400  1
  Cu  Cu88  1  0.85707600  0.51561500  0.60461100  1
  Cu  Cu89  1  0.64292400  0.48438500  0.10461100  1
  Cu  Cu90  1  0.35707600  0.98438500  0.39538900  1
  Cu  Cu91  1  0.14292400  0.01561500  0.89538900  1
  Cu  Cu92  1  0.60461100  0.85707600  0.51561500  1
  Cu  Cu93  1  0.10461100  0.64292400  0.48438500  1
  Cu  Cu94  1  0.39538900  0.35707600  0.98438500  1
  Cu  Cu95  1  0.89538900  0.14292400  0.01561500  1
  Cu  Cu96  1  0.48438500  0.39538900  0.14292400  1
  Cu  Cu97  1  0.51561500  0.89538900  0.35707600  1
  Cu  Cu98  1  0.01561500  0.60461100  0.64292400  1
  Cu  Cu99  1  0.98438500  0.10461100  0.85707600  1
  Cu  Cu100  1  0.14292400  0.48438500  0.39538900  1
  Cu  Cu101  1  0.35707600  0.51561500  0.89538900  1
  Cu  Cu102  1  0.64292400  0.01561500  0.60461100  1
  Cu  Cu103  1  0.85707600  0.98438500  0.10461100  1
  Cu  Cu104  1  0.39538900  0.14292400  0.48438500  1
  Cu  Cu105  1  0.89538900  0.35707600  0.51561500  1
  Cu  Cu106  1  0.60461100  0.64292400  0.01561500  1
  Cu  Cu107  1  0.10461100  0.85707600  0.98438500  1
