# generated using pymatgen
data_Cu11NiC5
_symmetry_space_group_name_H-M   'P 1'
_cell_length_a   5.26605800
_cell_length_b   5.49829707
_cell_length_c   17.42365209
_cell_angle_alpha   88.28214570
_cell_angle_beta   98.49641325
_cell_angle_gamma   118.10180449
_symmetry_Int_Tables_number   1
_chemical_formula_structural   Cu11NiC5
_chemical_formula_sum   'Cu22 Ni2 C10'
_cell_volume   439.67913605
_cell_formula_units_Z   2
loop_
 _symmetry_equiv_pos_site_id
 _symmetry_equiv_pos_as_xyz
  1  'x, y, z'
loop_
 _atom_site_type_symbol
 _atom_site_label
 _atom_site_symmetry_multiplicity
 _atom_site_fract_x
 _atom_site_fract_y
 _atom_site_fract_z
 _atom_site_occupancy
  C  C0  1  0.44750900  0.79460600  0.07129300  1
  C  C1  1  0.70020000  0.92725800  0.44860300  1
  C  C2  1  0.98339400  0.98027200  0.00180600  1
  C  C3  1  0.75087600  0.40557200  0.12109800  1
  C  C4  1  0.75424000  0.87151500  0.62744200  1
  C  C5  1  0.50034900  0.24506500  0.75123700  1
  C  C6  1  0.49758600  0.75658100  0.25025300  1
  C  C7  1  0.24937500  0.14229800  0.37889600  1
  C  C8  1  0.02491200  0.49791400  0.49901300  1
  C  C9  1  0.25159200  0.61605900  0.87530200  1
  Ni  Ni10  1  0.75776900  0.69269300  0.06192900  1
  Ni  Ni11  1  0.15314100  0.27653400  0.45905000  1
  Cu  Cu12  1  0.78984700  0.19300300  0.03832200  1
  Cu  Cu13  1  0.71319300  0.06244300  0.18437900  1
  Cu  Cu14  1  0.76347800  0.16822800  0.55938800  1
  Cu  Cu15  1  0.67981900  0.03423900  0.71587400  1
  Cu  Cu16  1  0.68498600  0.35324900  0.41320200  1
  Cu  Cu17  1  0.68649200  0.55197400  0.21585300  1
  Cu  Cu18  1  0.82583700  0.72411700  0.53130700  1
  Cu  Cu19  1  0.80022000  0.89799200  0.34612200  1
  Cu  Cu20  1  0.82792200  0.41506100  0.83972500  1
  Cu  Cu21  1  0.31600100  0.15574900  0.08683900  1
  Cu  Cu22  1  0.72791800  0.55366000  0.68630000  1
  Cu  Cu23  1  0.25767000  0.43068400  0.30644600  1
  Cu  Cu24  1  0.67416400  0.83018000  0.90856100  1
  Cu  Cu25  1  0.17487100  0.08158400  0.66186700  1
  Cu  Cu26  1  0.20189900  0.60628900  0.15346900  1
  Cu  Cu27  1  0.33047000  0.66370500  0.59101100  1
  Cu  Cu28  1  0.32159300  0.45606000  0.78444500  1
  Cu  Cu29  1  0.32351700  0.96543000  0.28774100  1
  Cu  Cu30  1  0.28090400  0.83137900  0.43739800  1
  Cu  Cu31  1  0.22031300  0.30280100  0.93709800  1
  Cu  Cu32  1  0.27400200  0.93339100  0.81394900  1
  Cu  Cu33  1  0.19946200  0.77517500  0.97113200  1
