# generated using pymatgen
data_Cu(NiC)2
_symmetry_space_group_name_H-M   'P 1'
_cell_length_a   8.71738700
_cell_length_b   8.72681682
_cell_length_c   8.73169289
_cell_angle_alpha   109.37308384
_cell_angle_beta   109.31684568
_cell_angle_gamma   109.41618892
_symmetry_Int_Tables_number   1
_chemical_formula_structural   Cu(NiC)2
_chemical_formula_sum   'Cu8 Ni16 C16'
_cell_volume   513.28193956
_cell_formula_units_Z   8
loop_
 _symmetry_equiv_pos_site_id
 _symmetry_equiv_pos_as_xyz
  1  'x, y, z'
loop_
 _atom_site_type_symbol
 _atom_site_label
 _atom_site_symmetry_multiplicity
 _atom_site_fract_x
 _atom_site_fract_y
 _atom_site_fract_z
 _atom_site_occupancy
  C  C0  1  0.74418300  0.78215400  0.03184700  1
  C  C1  1  0.50933200  0.00429800  0.99948000  1
  C  C2  1  0.02931400  0.24858900  0.27409700  1
  C  C3  1  0.46913700  0.75829100  0.21899100  1
  C  C4  1  0.71035100  0.96672900  0.74603400  1
  C  C5  1  0.22038600  0.47195300  0.75746700  1
  C  C6  1  0.01093600  0.00431800  0.52020500  1
  C  C7  1  0.98185800  0.48997100  0.98716800  1
  C  C8  1  0.74394800  0.28490800  0.53481300  1
  C  C9  1  0.50051100  0.49366400  0.48883300  1
  C  C10  1  0.25325300  0.71557100  0.46551000  1
  C  C11  1  0.78946700  0.53088900  0.24688200  1
  C  C12  1  0.29418700  0.04544300  0.25971800  1
  C  C13  1  0.96218600  0.74203100  0.70310600  1
  C  C14  1  0.53225000  0.24901700  0.78810300  1
  C  C15  1  0.25077700  0.21326600  0.96589600  1
  Ni  Ni16  1  0.46763700  0.72214100  0.95419900  1
  Ni  Ni17  1  0.50921000  0.73525100  0.46165600  1
  Ni  Ni18  1  0.01758200  0.54844900  0.77568400  1
  Ni  Ni19  1  0.45052000  0.96266600  0.72754800  1
  Ni  Ni20  1  0.25820200  0.27127500  0.22698300  1
  Ni  Ni21  1  0.76442200  0.53889800  0.99137500  1
  Ni  Ni22  1  0.54391900  0.03184300  0.27395200  1
  Ni  Ni23  1  0.04560900  0.77504900  0.50880400  1
  Ni  Ni24  1  0.96608600  0.00694700  0.73963100  1
  Ni  Ni25  1  0.77394500  0.22756900  0.76209300  1
  Ni  Ni26  1  0.48569500  0.26160300  0.53347900  1
  Ni  Ni27  1  0.99300800  0.45589900  0.22857600  1
  Ni  Ni28  1  0.26862700  0.24176700  0.72779200  1
  Ni  Ni29  1  0.77516000  0.04193400  0.03360500  1
  Ni  Ni30  1  0.72685900  0.49256500  0.45719900  1
  Ni  Ni31  1  0.53312100  0.27196600  0.04909000  1
  Cu  Cu32  1  0.27087800  0.51276600  0.54876100  1
  Cu  Cu33  1  0.22665100  0.95506000  0.96784100  1
  Cu  Cu34  1  0.73043000  0.77040500  0.27417400  1
  Cu  Cu35  1  0.22705600  0.77390500  0.23742800  1
  Cu  Cu36  1  0.03518000  0.98341100  0.26323500  1
  Cu  Cu37  1  0.73367800  0.72316500  0.77189500  1
  Cu  Cu38  1  0.95394000  0.22605800  0.48042100  1
  Cu  Cu39  1  0.24050700  0.46831600  0.01643000  1
