# generated using pymatgen
data_CuNiC
_symmetry_space_group_name_H-M   'P 1'
_cell_length_a   6.01845610
_cell_length_b   6.01812016
_cell_length_c   6.01930492
_cell_angle_alpha   100.28712335
_cell_angle_beta   100.27517956
_cell_angle_gamma   100.28070184
_symmetry_Int_Tables_number   1
_chemical_formula_structural   CuNiC
_chemical_formula_sum   'Cu6 Ni6 C6'
_cell_volume   206.03202993
_cell_formula_units_Z   6
loop_
 _symmetry_equiv_pos_site_id
 _symmetry_equiv_pos_as_xyz
  1  'x, y, z'
loop_
 _atom_site_type_symbol
 _atom_site_label
 _atom_site_symmetry_multiplicity
 _atom_site_fract_x
 _atom_site_fract_y
 _atom_site_fract_z
 _atom_site_occupancy
  C  C0  1  0.66951600  0.85289600  0.39751500  1
  C  C1  1  0.39745500  0.66956800  0.85293800  1
  C  C2  1  0.85290500  0.39745600  0.66951900  1
  C  C3  1  0.14709200  0.60253700  0.33048900  1
  C  C4  1  0.60254700  0.33043800  0.14706000  1
  C  C5  1  0.33049100  0.14710500  0.60248400  1
  Ni  Ni6  1  0.42573000  0.82293700  0.58418900  1
  Ni  Ni7  1  0.41581700  0.57416400  0.17707000  1
  Ni  Ni8  1  0.17699300  0.41575900  0.57413500  1
  Ni  Ni9  1  0.82300800  0.58423000  0.42586500  1
  Ni  Ni10  1  0.58418800  0.42584900  0.82293700  1
  Ni  Ni11  1  0.57427800  0.17706600  0.41581700  1
  Cu  Cu12  1  0.90721000  0.07300000  0.66805400  1
  Cu  Cu13  1  0.33206800  0.09268700  0.92679300  1
  Cu  Cu14  1  0.92685200  0.33207800  0.09262000  1
  Cu  Cu15  1  0.07315000  0.66790500  0.90736800  1
  Cu  Cu16  1  0.66790800  0.90733700  0.07321000  1
  Cu  Cu17  1  0.09279000  0.92699000  0.33193600  1
