# generated using pymatgen
data_Cu3NiC16
_symmetry_space_group_name_H-M   'P 1'
_cell_length_a   5.11933652
_cell_length_b   10.19531827
_cell_length_c   10.09545099
_cell_angle_alpha   60.32184485
_cell_angle_beta   90.65949022
_cell_angle_gamma   90.32099601
_symmetry_Int_Tables_number   1
_chemical_formula_structural   Cu3NiC16
_chemical_formula_sum   'Cu6 Ni2 C32'
_cell_volume   457.76375694
_cell_formula_units_Z   2
loop_
 _symmetry_equiv_pos_site_id
 _symmetry_equiv_pos_as_xyz
  1  'x, y, z'
loop_
 _atom_site_type_symbol
 _atom_site_label
 _atom_site_symmetry_multiplicity
 _atom_site_fract_x
 _atom_site_fract_y
 _atom_site_fract_z
 _atom_site_occupancy
  C  C0  1  0.99979200  0.71183200  0.14381100  1
  C  C1  1  0.00023200  0.71179000  0.64438500  1
  C  C2  1  0.00003300  0.83890500  0.83059100  1
  C  C3  1  0.99999300  0.84086700  0.32953500  1
  C  C4  1  0.49862400  0.33590100  0.33172600  1
  C  C5  1  0.50136900  0.33590600  0.83235800  1
  C  C6  1  0.50009900  0.19348600  0.15336300  1
  C  C7  1  0.49992900  0.19415600  0.65282700  1
  Ni  Ni8  1  0.99755500  0.10088100  0.44990700  1
  Ni  Ni9  1  0.00230600  0.10080700  0.94936600  1
  Cu  Cu10  1  0.50000300  0.61449000  0.94274800  1
  Cu  Cu11  1  0.00006600  0.39818200  0.05088300  1
  Cu  Cu12  1  0.00000600  0.39837000  0.55085300  1
  Cu  Cu13  1  0.49998900  0.61445800  0.44276300  1
  Cu  Cu14  1  0.50057300  0.93433600  0.03271800  1
  Cu  Cu15  1  0.49936200  0.93426000  0.53296900  1
  C  C16  1  0.15661800  0.26656100  0.23509300  1
  C  C17  1  0.15512900  0.26625100  0.73564700  1
  C  C18  1  0.84365800  0.26653900  0.99828900  1
  C  C19  1  0.84484600  0.26627900  0.49817200  1
  C  C20  1  0.18450500  0.58018900  0.05913200  1
  C  C21  1  0.18435100  0.57993200  0.55935300  1
  C  C22  1  0.81547200  0.58014700  0.86067000  1
  C  C23  1  0.81563200  0.57992800  0.36072200  1
  C  C24  1  0.18768000  0.90012800  0.95453700  1
  C  C25  1  0.18558600  0.90077200  0.45480200  1
  C  C26  1  0.81207100  0.90003600  0.64547300  1
  C  C27  1  0.81450400  0.90077500  0.14433300  1
  C  C28  1  0.31781200  0.43408100  0.93117900  1
  C  C29  1  0.31803000  0.43354900  0.43181000  1
  C  C30  1  0.68225200  0.43401000  0.13471700  1
  C  C31  1  0.68201200  0.43360300  0.63467300  1
  C  C32  1  0.34423900  0.07348100  0.07563600  1
  C  C33  1  0.34489700  0.07568900  0.57296700  1
  C  C34  1  0.65603100  0.07338500  0.35097900  1
  C  C35  1  0.65491600  0.07558000  0.85124800  1
  C  C36  1  0.35483700  0.75074200  0.75256800  1
  C  C37  1  0.35595300  0.75060300  0.25262700  1
  C  C38  1  0.64498600  0.75071900  0.99669700  1
  C  C39  1  0.64405100  0.75056500  0.49678700  1
