# generated using pymatgen
data_Cu11NiC4
_symmetry_space_group_name_H-M   'P 1'
_cell_length_a   5.25650000
_cell_length_b   5.44724788
_cell_length_c   7.61032915
_cell_angle_alpha   92.99600640
_cell_angle_beta   89.97987582
_cell_angle_gamma   90.63722218
_symmetry_Int_Tables_number   1
_chemical_formula_structural   Cu11NiC4
_chemical_formula_sum   'Cu11 Ni1 C4'
_cell_volume   217.59873619
_cell_formula_units_Z   1
loop_
 _symmetry_equiv_pos_site_id
 _symmetry_equiv_pos_as_xyz
  1  'x, y, z'
loop_
 _atom_site_type_symbol
 _atom_site_label
 _atom_site_symmetry_multiplicity
 _atom_site_fract_x
 _atom_site_fract_y
 _atom_site_fract_z
 _atom_site_occupancy
  C  C0  1  0.50056100  0.50009200  0.49984100  1
  C  C1  1  0.47869100  0.48519400  0.00406800  1
  C  C2  1  0.99966900  0.99951700  0.49977000  1
  C  C3  1  0.00359900  0.00377200  0.00081600  1
  Ni  Ni4  1  0.22598800  0.29648900  0.03863000  1
  Cu  Cu5  1  0.09671600  0.99126800  0.74941500  1
  Cu  Cu6  1  0.19386300  0.69625000  0.45001100  1
  Cu  Cu7  1  0.29697500  0.79349800  0.05267500  1
  Cu  Cu8  1  0.30642000  0.19581700  0.44673600  1
  Cu  Cu9  1  0.40492300  0.50150800  0.75029800  1
  Cu  Cu10  1  0.60095000  0.50409700  0.24929800  1
  Cu  Cu11  1  0.69186000  0.80547400  0.55098200  1
  Cu  Cu12  1  0.71023800  0.21159800  0.94830900  1
  Cu  Cu13  1  0.78247900  0.70610500  0.95949400  1
  Cu  Cu14  1  0.80579500  0.30285300  0.54963300  1
  Cu  Cu15  1  0.90127200  0.00646800  0.25002100  1
