# generated using pymatgen
data_CuNiC6
_symmetry_space_group_name_H-M   'P 1'
_cell_length_a   6.92729600
_cell_length_b   5.50679900
_cell_length_c   11.08073815
_cell_angle_alpha   63.67625642
_cell_angle_beta   90.00000000
_cell_angle_gamma   90.00000000
_symmetry_Int_Tables_number   1
_chemical_formula_structural   CuNiC6
_chemical_formula_sum   'Cu4 Ni4 C24'
_cell_volume   378.86665868
_cell_formula_units_Z   4
loop_
 _symmetry_equiv_pos_site_id
 _symmetry_equiv_pos_as_xyz
  1  'x, y, z'
loop_
 _atom_site_type_symbol
 _atom_site_label
 _atom_site_symmetry_multiplicity
 _atom_site_fract_x
 _atom_site_fract_y
 _atom_site_fract_z
 _atom_site_occupancy
  C  C0  1  0.50000000  0.00000000  0.50000000  1
  C  C1  1  0.00000000  0.00000000  0.00000000  1
  C  C2  1  0.00000000  0.00000000  0.50000000  1
  C  C3  1  0.50000000  0.00000000  0.00000000  1
  C  C4  1  0.73567300  0.60809800  0.88836500  1
  C  C5  1  0.23567300  0.39190200  0.61163500  1
  C  C6  1  0.26432700  0.39190200  0.11163500  1
  C  C7  1  0.76432700  0.60809800  0.38836500  1
  Ni  Ni8  1  0.75393600  0.33457800  0.69149100  1
  Ni  Ni9  1  0.25393600  0.66542200  0.80850900  1
  Ni  Ni10  1  0.24606400  0.66542200  0.30850900  1
  Ni  Ni11  1  0.74606400  0.33457800  0.19149100  1
  Cu  Cu12  1  0.00920800  0.96294400  0.75869200  1
  Cu  Cu13  1  0.50920800  0.03705600  0.74130800  1
  Cu  Cu14  1  0.99079200  0.03705600  0.24130800  1
  Cu  Cu15  1  0.49079200  0.96294400  0.25869200  1
  C  C16  1  0.74590800  0.64022800  0.60503400  1
  C  C17  1  0.24590800  0.35977200  0.89496600  1
  C  C18  1  0.25409200  0.35977200  0.39496600  1
  C  C19  1  0.75409200  0.64022800  0.10503400  1
  C  C20  1  0.75393100  0.23693700  0.84447900  1
  C  C21  1  0.25393100  0.76306300  0.65552100  1
  C  C22  1  0.24606900  0.76306300  0.15552100  1
  C  C23  1  0.74606900  0.23693700  0.34447900  1
  C  C24  1  0.92410500  0.20941300  0.64540400  1
  C  C25  1  0.42410500  0.79058700  0.85459600  1
  C  C26  1  0.07589500  0.79058700  0.35459600  1
  C  C27  1  0.57589500  0.20941300  0.14540400  1
  C  C28  1  0.94241300  0.21071200  0.15844100  1
  C  C29  1  0.44241300  0.78928800  0.34155900  1
  C  C30  1  0.05758700  0.78928800  0.84155900  1
  C  C31  1  0.55758700  0.21071200  0.65844100  1
