# generated using pymatgen
data_Cu2NiC6
_symmetry_space_group_name_H-M   'P 1'
_cell_length_a   8.92563778
_cell_length_b   8.92563778
_cell_length_c   5.01495200
_cell_angle_alpha   90.00000000
_cell_angle_beta   90.00000000
_cell_angle_gamma   119.99999838
_symmetry_Int_Tables_number   1
_chemical_formula_structural   Cu2NiC6
_chemical_formula_sum   'Cu6 Ni3 C18'
_cell_volume   345.99987042
_cell_formula_units_Z   3
loop_
 _symmetry_equiv_pos_site_id
 _symmetry_equiv_pos_as_xyz
  1  'x, y, z'
loop_
 _atom_site_type_symbol
 _atom_site_label
 _atom_site_symmetry_multiplicity
 _atom_site_fract_x
 _atom_site_fract_y
 _atom_site_fract_z
 _atom_site_occupancy
  Ni  Ni0  1  0.00000000  0.00000000  0.50000000  1
  Ni  Ni1  1  0.33333300  0.66666700  0.99955700  1
  Ni  Ni2  1  0.66666700  0.33333300  0.00044300  1
  Cu  Cu3  1  0.00000000  0.37399700  0.50000000  1
  Cu  Cu4  1  0.29230100  0.29230100  0.00000000  1
  Cu  Cu5  1  0.00000000  0.70769900  0.00000000  1
  Cu  Cu6  1  0.62600300  0.62600300  0.50000000  1
  Cu  Cu7  1  0.37399700  0.00000000  0.50000000  1
  Cu  Cu8  1  0.70769900  0.00000000  0.00000000  1
  C  C9  1  0.08252500  0.19983600  0.71733900  1
  C  C10  1  0.23302300  0.46542100  0.22052300  1
  C  C11  1  0.13646700  0.59784900  0.78072600  1
  C  C12  1  0.40215100  0.53861800  0.78072600  1
  C  C13  1  0.23239800  0.76697700  0.22052300  1
  C  C14  1  0.11731100  0.91747500  0.71733900  1
  C  C15  1  0.53457900  0.76760200  0.22052300  1
  C  C16  1  0.19983600  0.08252500  0.28266100  1
  C  C17  1  0.46138200  0.86353300  0.78072600  1
  C  C18  1  0.80016400  0.88268900  0.71733900  1
  C  C19  1  0.46542100  0.23302300  0.77947700  1
  C  C20  1  0.59784900  0.13646700  0.21927400  1
  C  C21  1  0.53861800  0.40215100  0.21927400  1
  C  C22  1  0.76697700  0.23239800  0.77947700  1
  C  C23  1  0.91747500  0.11731100  0.28266100  1
  C  C24  1  0.76760200  0.53457900  0.77947700  1
  C  C25  1  0.86353300  0.46138200  0.21927400  1
  C  C26  1  0.88268900  0.80016400  0.28266100  1
