# generated using pymatgen
data_Cu(NiC4)2
_symmetry_space_group_name_H-M   'P 1'
_cell_length_a   13.59082500
_cell_length_b   6.09997200
_cell_length_c   8.93269860
_cell_angle_alpha   66.36639238
_cell_angle_beta   90.00000000
_cell_angle_gamma   90.00000000
_symmetry_Int_Tables_number   1
_chemical_formula_structural   Cu(NiC4)2
_chemical_formula_sum   'Cu4 Ni8 C32'
_cell_volume   678.44145546
_cell_formula_units_Z   4
loop_
 _symmetry_equiv_pos_site_id
 _symmetry_equiv_pos_as_xyz
  1  'x, y, z'
loop_
 _atom_site_type_symbol
 _atom_site_label
 _atom_site_symmetry_multiplicity
 _atom_site_fract_x
 _atom_site_fract_y
 _atom_site_fract_z
 _atom_site_occupancy
  Ni  Ni0  1  0.89681800  0.69587700  0.38881800  1
  Ni  Ni1  1  0.39681800  0.30412300  0.11118200  1
  Ni  Ni2  1  0.63993200  0.61647100  0.52855000  1
  Ni  Ni3  1  0.13993200  0.38352900  0.97145000  1
  Ni  Ni4  1  0.86006800  0.61647100  0.02855000  1
  Ni  Ni5  1  0.36006800  0.38352900  0.47145000  1
  Ni  Ni6  1  0.60318200  0.69587700  0.88881800  1
  Ni  Ni7  1  0.10318200  0.30412300  0.61118200  1
  Cu  Cu8  1  0.47917900  0.16435400  0.82018900  1
  Cu  Cu9  1  0.02082100  0.16435400  0.32018900  1
  Cu  Cu10  1  0.97917900  0.83564600  0.67981100  1
  Cu  Cu11  1  0.52082100  0.83564600  0.17981100  1
  C  C12  1  0.20593300  0.91418800  0.43563600  1
  C  C13  1  0.70593300  0.08581200  0.06436400  1
  C  C14  1  0.29406700  0.91418800  0.93563600  1
  C  C15  1  0.79406700  0.08581200  0.56436400  1
  C  C16  1  0.89015000  0.26876700  0.79545000  1
  C  C17  1  0.60985000  0.26876700  0.29545000  1
  C  C18  1  0.39015000  0.73123300  0.70455000  1
  C  C19  1  0.10985000  0.73123300  0.20455000  1
  C  C20  1  0.73980100  0.80925900  0.20431500  1
  C  C21  1  0.05614800  0.95991500  0.19305000  1
  C  C22  1  0.60225700  0.09486400  0.94567600  1
  C  C23  1  0.81216800  0.33483600  0.65005000  1
  C  C24  1  0.82977200  0.23213000  0.95355700  1
  C  C25  1  0.55614800  0.04008500  0.30695000  1
  C  C26  1  0.96165200  0.48029100  0.76131500  1
  C  C27  1  0.23980100  0.19074100  0.29568500  1
  C  C28  1  0.89774300  0.09486400  0.44567600  1
  C  C29  1  0.46165200  0.51970900  0.73868500  1
  C  C30  1  0.68783200  0.33483600  0.15005000  1
  C  C31  1  0.32977200  0.76787000  0.54644300  1
  C  C32  1  0.67022800  0.23213000  0.45355700  1
  C  C33  1  0.31216800  0.66516400  0.84995000  1
  C  C34  1  0.53834800  0.48029100  0.26131500  1
  C  C35  1  0.10225700  0.90513600  0.55432400  1
  C  C36  1  0.76019900  0.80925900  0.70431500  1
  C  C37  1  0.03834800  0.51970900  0.23868500  1
  C  C38  1  0.44385200  0.95991500  0.69305000  1
  C  C39  1  0.17022800  0.76787000  0.04644300  1
  C  C40  1  0.18783200  0.66516400  0.34995000  1
  C  C41  1  0.39774300  0.90513600  0.05432400  1
  C  C42  1  0.94385200  0.04008500  0.80695000  1
  C  C43  1  0.26019900  0.19074100  0.79568500  1
