# generated using pymatgen
data_CuNi7C4
_symmetry_space_group_name_H-M   'P 1'
_cell_length_a   7.19630577
_cell_length_b   7.19630577
_cell_length_c   5.51908117
_cell_angle_alpha   71.83725514
_cell_angle_beta   71.83725514
_cell_angle_gamma   80.10399085
_symmetry_Int_Tables_number   1
_chemical_formula_structural   CuNi7C4
_chemical_formula_sum   'Cu2 Ni14 C8'
_cell_volume   257.15901781
_cell_formula_units_Z   2
loop_
 _symmetry_equiv_pos_site_id
 _symmetry_equiv_pos_as_xyz
  1  'x, y, z'
loop_
 _atom_site_type_symbol
 _atom_site_label
 _atom_site_symmetry_multiplicity
 _atom_site_fract_x
 _atom_site_fract_y
 _atom_site_fract_z
 _atom_site_occupancy
  C  C0  1  0.75928100  0.00127500  0.49627700  1
  C  C1  1  0.00208300  0.24173900  0.98580300  1
  C  C2  1  0.74260500  0.50368400  0.52025900  1
  C  C3  1  0.24173900  0.00208300  0.48580300  1
  C  C4  1  0.50017900  0.25001200  0.99981500  1
  C  C5  1  0.00127500  0.75928100  0.99627700  1
  C  C6  1  0.25001200  0.50017900  0.49981500  1
  C  C7  1  0.50368400  0.74260500  0.02025900  1
  Ni  Ni8  1  0.82554200  0.76803800  0.34662400  1
  Ni  Ni9  1  0.76803800  0.82554200  0.84662400  1
  Ni  Ni10  1  0.73501000  0.17274400  0.14854000  1
  Ni  Ni11  1  0.98016500  0.42513800  0.65277600  1
  Ni  Ni12  1  0.67096600  0.22956900  0.65912300  1
  Ni  Ni13  1  0.42513800  0.98016500  0.15277600  1
  Ni  Ni14  1  0.08594600  0.02228700  0.82883900  1
  Ni  Ni15  1  0.57091200  0.51833000  0.86487200  1
  Ni  Ni16  1  0.32953100  0.26522900  0.34460100  1
  Ni  Ni17  1  0.02228700  0.08594600  0.32883900  1
  Ni  Ni18  1  0.51833000  0.57091200  0.36487200  1
  Ni  Ni19  1  0.26522900  0.32953100  0.84460100  1
  Ni  Ni20  1  0.22956900  0.67096600  0.15912300  1
  Ni  Ni21  1  0.17274400  0.73501000  0.64854000  1
  Cu  Cu22  1  0.47757200  0.92216400  0.65247100  1
  Cu  Cu23  1  0.92216400  0.47757200  0.15247100  1
