# generated using pymatgen
data_Cu5Ni2C13
_symmetry_space_group_name_H-M   'P 1'
_cell_length_a   22.82254973
_cell_length_b   22.82254973
_cell_length_c   22.82254931
_cell_angle_alpha   9.86381215
_cell_angle_beta   9.86381215
_cell_angle_gamma   9.86381049
_symmetry_Int_Tables_number   1
_chemical_formula_structural   Cu5Ni2C13
_chemical_formula_sum   'Cu5 Ni2 C13'
_cell_volume   302.86139991
_cell_formula_units_Z   1
loop_
 _symmetry_equiv_pos_site_id
 _symmetry_equiv_pos_as_xyz
  1  'x, y, z'
loop_
 _atom_site_type_symbol
 _atom_site_label
 _atom_site_symmetry_multiplicity
 _atom_site_fract_x
 _atom_site_fract_y
 _atom_site_fract_z
 _atom_site_occupancy
  Ni  Ni0  1  0.99935800  0.99935800  0.99935800  1
  Ni  Ni1  1  0.71606700  0.71606700  0.71606700  1
  Cu  Cu2  1  0.42734200  0.42734200  0.42734200  1
  Cu  Cu3  1  0.14216500  0.14216500  0.14216500  1
  Cu  Cu4  1  0.85670000  0.85670000  0.85670000  1
  Cu  Cu5  1  0.28594000  0.28594000  0.28594000  1
  Cu  Cu6  1  0.57129900  0.57129900  0.57129900  1
  C  C7  1  0.39216400  0.39216400  0.39216400  1
  C  C8  1  0.03045000  0.03045000  0.03045000  1
  C  C9  1  0.10692900  0.10692900  0.10692900  1
  C  C10  1  0.46419600  0.46419600  0.46419600  1
  C  C11  1  0.74943300  0.74943300  0.74943300  1
  C  C12  1  0.82162100  0.82162100  0.82162100  1
  C  C13  1  0.17868900  0.17868900  0.17868900  1
  C  C14  1  0.25081400  0.25081400  0.25081400  1
  C  C15  1  0.53610400  0.53610400  0.53610400  1
  C  C16  1  0.89322000  0.89322000  0.89322000  1
  C  C17  1  0.60774400  0.60774400  0.60774400  1
  C  C18  1  0.32635600  0.32635600  0.32635600  1
  C  C19  1  0.96483000  0.96483000  0.96483000  1
