# generated using pymatgen
data_Cu(NiC)4
_symmetry_space_group_name_H-M   'P 1'
_cell_length_a   7.12970400
_cell_length_b   11.80875300
_cell_length_c   12.03177500
_cell_angle_alpha   90.00000000
_cell_angle_beta   90.00000000
_cell_angle_gamma   90.00000000
_symmetry_Int_Tables_number   1
_chemical_formula_structural   Cu(NiC)4
_chemical_formula_sum   'Cu4 Ni16 C16'
_cell_volume   1012.99019182
_cell_formula_units_Z   4
loop_
 _symmetry_equiv_pos_site_id
 _symmetry_equiv_pos_as_xyz
  1  'x, y, z'
loop_
 _atom_site_type_symbol
 _atom_site_label
 _atom_site_symmetry_multiplicity
 _atom_site_fract_x
 _atom_site_fract_y
 _atom_site_fract_z
 _atom_site_occupancy
  C  C0  1  0.83903900  0.64456000  0.60712800  1
  C  C1  1  0.83903900  0.35544000  0.39287200  1
  C  C2  1  0.16096100  0.85544000  0.10712800  1
  C  C3  1  0.16096100  0.14456000  0.89287200  1
  C  C4  1  0.26253700  0.51312000  0.17374500  1
  C  C5  1  0.26253700  0.48688000  0.82625500  1
  C  C6  1  0.73746300  0.98688000  0.67374500  1
  C  C7  1  0.73746300  0.01312000  0.32625500  1
  C  C8  1  0.63351800  0.69179700  0.94816700  1
  C  C9  1  0.63351800  0.30820300  0.05183300  1
  C  C10  1  0.36648200  0.80820300  0.44816700  1
  C  C11  1  0.36648200  0.19179700  0.55183300  1
  C  C12  1  0.70153500  0.66158900  0.26936400  1
  C  C13  1  0.70153500  0.33841100  0.73063600  1
  C  C14  1  0.29846500  0.83841100  0.76936400  1
  C  C15  1  0.29846500  0.16158900  0.23063600  1
  Ni  Ni16  1  0.83436700  0.56076100  0.15728300  1
  Ni  Ni17  1  0.83436700  0.43923900  0.84271700  1
  Ni  Ni18  1  0.16563300  0.93923900  0.65728300  1
  Ni  Ni19  1  0.16563300  0.06076100  0.34271700  1
  Ni  Ni20  1  0.54243700  0.57433300  0.37852700  1
  Ni  Ni21  1  0.54243700  0.42566700  0.62147300  1
  Ni  Ni22  1  0.45756300  0.92566700  0.87852700  1
  Ni  Ni23  1  0.45756300  0.07433300  0.12147300  1
  Ni  Ni24  1  0.56033100  0.79170000  0.19569300  1
  Ni  Ni25  1  0.56033100  0.20830000  0.80430700  1
  Ni  Ni26  1  0.43966900  0.70830000  0.69569300  1
  Ni  Ni27  1  0.43966900  0.29170000  0.30430700  1
  Ni  Ni28  1  0.91698300  0.74692400  0.36573900  1
  Ni  Ni29  1  0.91698300  0.25307600  0.63426100  1
  Ni  Ni30  1  0.08301700  0.75307600  0.86573900  1
  Ni  Ni31  1  0.08301700  0.24692400  0.13426100  1
  Cu  Cu32  1  0.19985900  0.67646800  0.95158900  1
  Cu  Cu33  1  0.19985900  0.32353200  0.04841100  1
  Cu  Cu34  1  0.80014100  0.82353200  0.45158900  1
  Cu  Cu35  1  0.80014100  0.17646800  0.54841100  1
