# generated using pymatgen
data_CuNi3C8
_symmetry_space_group_name_H-M   'P 1'
_cell_length_a   5.93734100
_cell_length_b   5.93733270
_cell_length_c   8.91321400
_cell_angle_alpha   90.00039437
_cell_angle_beta   89.99980063
_cell_angle_gamma   119.99998942
_symmetry_Int_Tables_number   1
_chemical_formula_structural   CuNi3C8
_chemical_formula_sum   'Cu2 Ni6 C16'
_cell_volume   272.11243581
_cell_formula_units_Z   2
loop_
 _symmetry_equiv_pos_site_id
 _symmetry_equiv_pos_as_xyz
  1  'x, y, z'
loop_
 _atom_site_type_symbol
 _atom_site_label
 _atom_site_symmetry_multiplicity
 _atom_site_fract_x
 _atom_site_fract_y
 _atom_site_fract_z
 _atom_site_occupancy
  Ni  Ni0  1  0.16650000  0.83350000  0.20625100  1
  Ni  Ni1  1  0.16651700  0.33302600  0.20624200  1
  Ni  Ni2  1  0.66699200  0.83351100  0.20624900  1
  Ni  Ni3  1  0.33300200  0.16651600  0.70624600  1
  Ni  Ni4  1  0.83350300  0.66700500  0.70624800  1
  Ni  Ni5  1  0.83348500  0.16650500  0.70623900  1
  Cu  Cu6  1  0.33333400  0.66667500  0.48229800  1
  Cu  Cu7  1  0.66666900  0.33334300  0.98228200  1
  C  C8  1  0.17298900  0.82701600  0.60595100  1
  C  C9  1  0.05311900  0.52656800  0.34344400  1
  C  C10  1  0.33334100  0.66667200  0.09600400  1
  C  C11  1  0.00000200  0.00001100  0.31264000  1
  C  C12  1  0.99999700  0.00000800  0.81264000  1
  C  C13  1  0.17298900  0.34599300  0.60595200  1
  C  C14  1  0.47343900  0.94689000  0.34344600  1
  C  C15  1  0.47344100  0.52656800  0.34344500  1
  C  C16  1  0.34598000  0.17299100  0.10594700  1
  C  C17  1  0.65401800  0.82701000  0.60594800  1
  C  C18  1  0.52655900  0.47345300  0.84344900  1
  C  C19  1  0.52655700  0.05312500  0.84344800  1
  C  C20  1  0.66665900  0.33333100  0.59600400  1
  C  C21  1  0.82701200  0.65402900  0.10595000  1
  C  C22  1  0.94688400  0.47345100  0.84344700  1
  C  C23  1  0.82701200  0.17300400  0.10595100  1
