# generated using pymatgen
data_CuNi3C2
_symmetry_space_group_name_H-M   'P 1'
_cell_length_a   3.01180600
_cell_length_b   4.74961600
_cell_length_c   9.90007800
_cell_angle_alpha   90.00000000
_cell_angle_beta   90.00000000
_cell_angle_gamma   90.00000000
_symmetry_Int_Tables_number   1
_chemical_formula_structural   CuNi3C2
_chemical_formula_sum   'Cu2 Ni6 C4'
_cell_volume   141.61984325
_cell_formula_units_Z   2
loop_
 _symmetry_equiv_pos_site_id
 _symmetry_equiv_pos_as_xyz
  1  'x, y, z'
loop_
 _atom_site_type_symbol
 _atom_site_label
 _atom_site_symmetry_multiplicity
 _atom_site_fract_x
 _atom_site_fract_y
 _atom_site_fract_z
 _atom_site_occupancy
  C  C0  1  0.00000000  0.22437800  0.85661900  1
  C  C1  1  0.00000000  0.77562200  0.35661900  1
  C  C2  1  0.50000000  0.72052100  0.64258400  1
  C  C3  1  0.50000000  0.27947900  0.14258400  1
  Ni  Ni4  1  0.00000000  0.93420300  0.71523800  1
  Ni  Ni5  1  0.00000000  0.57621600  0.53719700  1
  Ni  Ni6  1  0.00000000  0.06579700  0.21523800  1
  Ni  Ni7  1  0.00000000  0.42378400  0.03719700  1
  Ni  Ni8  1  0.50000000  0.42643800  0.78182700  1
  Ni  Ni9  1  0.50000000  0.57356200  0.28182700  1
  Cu  Cu10  1  0.50000000  0.00023800  0.95462100  1
  Cu  Cu11  1  0.50000000  0.99976200  0.45462100  1
