# generated using pymatgen
data_CuNiC4
_symmetry_space_group_name_H-M   'P 1'
_cell_length_a   6.35564893
_cell_length_b   6.35564893
_cell_length_c   6.35564893
_cell_angle_alpha   126.07925284
_cell_angle_beta   123.49821185
_cell_angle_gamma   81.90500780
_symmetry_Int_Tables_number   1
_chemical_formula_structural   CuNiC4
_chemical_formula_sum   'Cu2 Ni2 C8'
_cell_volume   166.43941285
_cell_formula_units_Z   2
loop_
 _symmetry_equiv_pos_site_id
 _symmetry_equiv_pos_as_xyz
  1  'x, y, z'
loop_
 _atom_site_type_symbol
 _atom_site_label
 _atom_site_symmetry_multiplicity
 _atom_site_fract_x
 _atom_site_fract_y
 _atom_site_fract_z
 _atom_site_occupancy
  Ni  Ni0  1  0.00000000  0.50000000  0.00000000  1
  Ni  Ni1  1  0.00000000  0.00000000  0.50000000  1
  Cu  Cu2  1  0.00000000  0.50000000  0.50000000  1
  Cu  Cu3  1  0.50000000  0.50000000  0.00000000  1
  C  C4  1  0.82912500  0.29762700  0.53149800  1
  C  C5  1  0.26154100  0.74096200  0.97942100  1
  C  C6  1  0.26154100  0.28212000  0.52057900  1
  C  C7  1  0.26612900  0.29762700  0.96850200  1
  C  C8  1  0.73387100  0.70237300  0.03149800  1
  C  C9  1  0.73845900  0.25903800  0.02057900  1
  C  C10  1  0.73845900  0.71788000  0.47942100  1
  C  C11  1  0.17087500  0.70237300  0.46850200  1
