# generated using pymatgen
data_CuNiC5
_symmetry_space_group_name_H-M   'P 1'
_cell_length_a   4.26697300
_cell_length_b   4.58328200
_cell_length_c   15.00417800
_cell_angle_alpha   90.00000000
_cell_angle_beta   90.00000000
_cell_angle_gamma   90.00000000
_symmetry_Int_Tables_number   1
_chemical_formula_structural   CuNiC5
_chemical_formula_sum   'Cu4 Ni4 C20'
_cell_volume   293.43281624
_cell_formula_units_Z   4
loop_
 _symmetry_equiv_pos_site_id
 _symmetry_equiv_pos_as_xyz
  1  'x, y, z'
loop_
 _atom_site_type_symbol
 _atom_site_label
 _atom_site_symmetry_multiplicity
 _atom_site_fract_x
 _atom_site_fract_y
 _atom_site_fract_z
 _atom_site_occupancy
  C  C0  1  0.00000000  0.75000000  0.24705800  1
  C  C1  1  0.00000000  0.25000000  0.75294200  1
  C  C2  1  0.50000000  0.25000000  0.25294200  1
  C  C3  1  0.50000000  0.75000000  0.74705800  1
  Ni  Ni4  1  0.00000000  0.25000000  0.07105700  1
  Ni  Ni5  1  0.00000000  0.75000000  0.92894300  1
  Ni  Ni6  1  0.50000000  0.75000000  0.42894300  1
  Ni  Ni7  1  0.50000000  0.25000000  0.57105700  1
  Cu  Cu8  1  0.00000000  0.25000000  0.38640500  1
  Cu  Cu9  1  0.00000000  0.75000000  0.61359500  1
  Cu  Cu10  1  0.50000000  0.25000000  0.88640500  1
  Cu  Cu11  1  0.50000000  0.75000000  0.11359500  1
  C  C12  1  0.19013900  0.46709500  0.32754000  1
  C  C13  1  0.19013900  0.96709500  0.67246000  1
  C  C14  1  0.26574800  0.57798500  0.05443400  1
  C  C15  1  0.26574800  0.07798500  0.94556600  1
  C  C16  1  0.23425200  0.07798500  0.44556600  1
  C  C17  1  0.23425200  0.57798500  0.55443400  1
  C  C18  1  0.30986100  0.96709500  0.17246000  1
  C  C19  1  0.30986100  0.46709500  0.82754000  1
  C  C20  1  0.69013900  0.53290500  0.17246000  1
  C  C21  1  0.69013900  0.03290500  0.82754000  1
  C  C22  1  0.76574800  0.92201500  0.55443400  1
  C  C23  1  0.76574800  0.42201500  0.44556600  1
  C  C24  1  0.73425200  0.92201500  0.05443400  1
  C  C25  1  0.73425200  0.42201500  0.94556600  1
  C  C26  1  0.80986100  0.03290500  0.32754000  1
  C  C27  1  0.80986100  0.53290500  0.67246000  1
