# generated using pymatgen
data_CuNi2C9
_symmetry_space_group_name_H-M   'P 1'
_cell_length_a   5.11509004
_cell_length_b   8.65891400
_cell_length_c   9.62568941
_cell_angle_alpha   90.00000000
_cell_angle_beta   100.98650881
_cell_angle_gamma   90.00000000
_symmetry_Int_Tables_number   1
_chemical_formula_structural   CuNi2C9
_chemical_formula_sum   'Cu4 Ni8 C36'
_cell_volume   418.51882292
_cell_formula_units_Z   4
loop_
 _symmetry_equiv_pos_site_id
 _symmetry_equiv_pos_as_xyz
  1  'x, y, z'
loop_
 _atom_site_type_symbol
 _atom_site_label
 _atom_site_symmetry_multiplicity
 _atom_site_fract_x
 _atom_site_fract_y
 _atom_site_fract_z
 _atom_site_occupancy
  C  C0  1  0.00000000  0.50000000  0.50000000  1
  C  C1  1  0.25000000  0.00000000  0.75000000  1
  C  C2  1  0.50000000  0.50000000  0.00000000  1
  C  C3  1  0.75000000  0.00000000  0.25000000  1
  C  C4  1  0.00000000  0.16729400  0.50000000  1
  C  C5  1  0.25000000  0.66729400  0.75000000  1
  C  C6  1  0.50000000  0.16729400  0.00000000  1
  C  C7  1  0.75000000  0.66729400  0.25000000  1
  C  C8  1  0.00000000  0.83270600  0.50000000  1
  C  C9  1  0.25000000  0.33270600  0.75000000  1
  C  C10  1  0.50000000  0.83270600  0.00000000  1
  C  C11  1  0.75000000  0.33270600  0.25000000  1
  Ni  Ni12  1  0.50000000  0.33325300  0.50000000  1
  Ni  Ni13  1  0.75000000  0.83325300  0.75000000  1
  Ni  Ni14  1  0.00000000  0.33325300  0.00000000  1
  Ni  Ni15  1  0.25000000  0.83325300  0.25000000  1
  Ni  Ni16  1  0.50000000  0.66674700  0.50000000  1
  Ni  Ni17  1  0.75000000  0.16674700  0.75000000  1
  Ni  Ni18  1  0.00000000  0.66674700  0.00000000  1
  Ni  Ni19  1  0.25000000  0.16674700  0.25000000  1
  Cu  Cu20  1  0.50000000  0.00000000  0.50000000  1
  Cu  Cu21  1  0.75000000  0.50000000  0.75000000  1
  Cu  Cu22  1  0.00000000  0.00000000  0.00000000  1
  Cu  Cu23  1  0.25000000  0.50000000  0.25000000  1
  C  C24  1  0.39298800  0.50000000  0.61269100  1
  C  C25  1  0.64298800  0.00000000  0.86269100  1
  C  C26  1  0.89298800  0.50000000  0.11269100  1
  C  C27  1  0.14298800  0.00000000  0.36269100  1
  C  C28  1  0.60701200  0.50000000  0.38730900  1
  C  C29  1  0.85701200  0.00000000  0.63730900  1
  C  C30  1  0.10701200  0.50000000  0.88730900  1
  C  C31  1  0.35701200  0.00000000  0.13730900  1
  C  C32  1  0.84409700  0.32617100  0.62645700  1
  C  C33  1  0.09409700  0.82617100  0.87645700  1
  C  C34  1  0.34409700  0.32617100  0.12645700  1
  C  C35  1  0.59409700  0.82617100  0.37645700  1
  C  C36  1  0.84409700  0.67382900  0.62645700  1
  C  C37  1  0.09409700  0.17382900  0.87645700  1
  C  C38  1  0.34409700  0.67382900  0.12645700  1
  C  C39  1  0.59409700  0.17382900  0.37645700  1
  C  C40  1  0.15590300  0.32617100  0.37354300  1
  C  C41  1  0.40590300  0.82617100  0.62354300  1
  C  C42  1  0.65590300  0.32617100  0.87354300  1
  C  C43  1  0.90590300  0.82617100  0.12354300  1
  C  C44  1  0.15590300  0.67382900  0.37354300  1
  C  C45  1  0.40590300  0.17382900  0.62354300  1
  C  C46  1  0.65590300  0.67382900  0.87354300  1
  C  C47  1  0.90590300  0.17382900  0.12354300  1
