# generated using pymatgen
data_CuNiC6
_symmetry_space_group_name_H-M   'P 1'
_cell_length_a   5.09897400
_cell_length_b   6.19518000
_cell_length_c   10.90792100
_cell_angle_alpha   90.00000000
_cell_angle_beta   90.00000000
_cell_angle_gamma   90.00000000
_symmetry_Int_Tables_number   1
_chemical_formula_structural   CuNiC6
_chemical_formula_sum   'Cu4 Ni4 C24'
_cell_volume   344.57098998
_cell_formula_units_Z   4
loop_
 _symmetry_equiv_pos_site_id
 _symmetry_equiv_pos_as_xyz
  1  'x, y, z'
loop_
 _atom_site_type_symbol
 _atom_site_label
 _atom_site_symmetry_multiplicity
 _atom_site_fract_x
 _atom_site_fract_y
 _atom_site_fract_z
 _atom_site_occupancy
  C  C0  1  0.20059400  0.99548000  0.66835700  1
  C  C1  1  0.29940600  0.99548000  0.16835700  1
  C  C2  1  0.20059400  0.50452000  0.66835700  1
  C  C3  1  0.29940600  0.50452000  0.16835700  1
  C  C4  1  0.70059400  0.49548000  0.83164300  1
  C  C5  1  0.79940600  0.49548000  0.33164300  1
  C  C6  1  0.79940600  0.00452000  0.33164300  1
  C  C7  1  0.70059400  0.00452000  0.83164300  1
  Ni  Ni8  1  0.80733300  0.25000000  0.57549000  1
  Ni  Ni9  1  0.69266700  0.25000000  0.07549000  1
  Ni  Ni10  1  0.30733300  0.75000000  0.92451000  1
  Ni  Ni11  1  0.19266700  0.75000000  0.42451000  1
  Cu  Cu12  1  0.18943900  0.25000000  0.91411600  1
  Cu  Cu13  1  0.31056100  0.25000000  0.41411600  1
  Cu  Cu14  1  0.68943900  0.75000000  0.58588400  1
  Cu  Cu15  1  0.81056100  0.75000000  0.08588400  1
  C  C16  1  0.29577000  0.03416200  0.83984000  1
  C  C17  1  0.20423000  0.03416200  0.33984000  1
  C  C18  1  0.86461200  0.25000000  0.91365000  1
  C  C19  1  0.20496000  0.25000000  0.55717700  1
  C  C20  1  0.29504000  0.25000000  0.05717700  1
  C  C21  1  0.63538800  0.25000000  0.41365000  1
  C  C22  1  0.29577000  0.46583800  0.83984000  1
  C  C23  1  0.20423000  0.46583800  0.33984000  1
  C  C24  1  0.70423000  0.53416200  0.16016000  1
  C  C25  1  0.79577000  0.53416200  0.66016000  1
  C  C26  1  0.70496000  0.75000000  0.94282300  1
  C  C27  1  0.36461200  0.75000000  0.58635000  1
  C  C28  1  0.79504000  0.75000000  0.44282300  1
  C  C29  1  0.13538800  0.75000000  0.08635000  1
  C  C30  1  0.79577000  0.96583800  0.66016000  1
  C  C31  1  0.70423000  0.96583800  0.16016000  1
