# generated using pymatgen
data_CuNi3C10
_symmetry_space_group_name_H-M   'P 1'
_cell_length_a   5.63730413
_cell_length_b   5.63919610
_cell_length_c   9.45501017
_cell_angle_alpha   89.97850059
_cell_angle_beta   90.01075328
_cell_angle_gamma   120.01109914
_symmetry_Int_Tables_number   1
_chemical_formula_structural   CuNi3C10
_chemical_formula_sum   'Cu2 Ni6 C20'
_cell_volume   260.27513536
_cell_formula_units_Z   2
loop_
 _symmetry_equiv_pos_site_id
 _symmetry_equiv_pos_as_xyz
  1  'x, y, z'
loop_
 _atom_site_type_symbol
 _atom_site_label
 _atom_site_symmetry_multiplicity
 _atom_site_fract_x
 _atom_site_fract_y
 _atom_site_fract_z
 _atom_site_occupancy
  C  C0  1  0.33328100  0.66663200  0.89332900  1
  C  C1  1  0.00003400  0.00007700  0.99801800  1
  C  C2  1  0.99996600  0.00004300  0.49801800  1
  C  C3  1  0.66671900  0.33335100  0.39332900  1
  Ni  Ni4  1  0.16849900  0.83155900  0.21431100  1
  Ni  Ni5  1  0.16850900  0.33696600  0.21432300  1
  Ni  Ni6  1  0.66309900  0.83155400  0.21430400  1
  Ni  Ni7  1  0.33690100  0.16845400  0.71430400  1
  Ni  Ni8  1  0.83150100  0.66306000  0.71431100  1
  Ni  Ni9  1  0.83149100  0.16845700  0.71432300  1
  Cu  Cu10  1  0.33331700  0.66667600  0.49040800  1
  Cu  Cu11  1  0.66668300  0.33335900  0.99040800  1
  C  C12  1  0.15811600  0.84186100  0.60968400  1
  C  C13  1  0.03609700  0.51803500  0.32635400  1
  C  C14  1  0.33338900  0.66672300  0.10838700  1
  C  C15  1  0.00000900  0.99998100  0.31268800  1
  C  C16  1  0.99999100  0.99997200  0.81268800  1
  C  C17  1  0.15810900  0.31630100  0.60969600  1
  C  C18  1  0.48201800  0.96396300  0.32635600  1
  C  C19  1  0.48200700  0.51803800  0.32636000  1
  C  C20  1  0.31630800  0.15818300  0.10970200  1
  C  C21  1  0.68369300  0.84187600  0.60970200  1
  C  C22  1  0.51798200  0.48194500  0.82635600  1
  C  C23  1  0.51799300  0.03603000  0.82636000  1
  C  C24  1  0.66661100  0.33333400  0.60838700  1
  C  C25  1  0.84188400  0.68374500  0.10968400  1
  C  C26  1  0.96390300  0.48193800  0.82635400  1
  C  C27  1  0.84189100  0.15819200  0.10969600  1
