# generated using pymatgen
data_Cu8Ni2C3
_symmetry_space_group_name_H-M   'P 1'
_cell_length_a   10.01087888
_cell_length_b   10.04275703
_cell_length_c   14.68668564
_cell_angle_alpha   90.00000000
_cell_angle_beta   90.00000000
_cell_angle_gamma   90.00000000
_symmetry_Int_Tables_number   1
_chemical_formula_structural   Cu8Ni2C3
_chemical_formula_sum   'Cu64 Ni16 C24'
_cell_volume   1476.55273298
_cell_formula_units_Z   8
loop_
 _symmetry_equiv_pos_site_id
 _symmetry_equiv_pos_as_xyz
  1  'x, y, z'
loop_
 _atom_site_type_symbol
 _atom_site_label
 _atom_site_symmetry_multiplicity
 _atom_site_fract_x
 _atom_site_fract_y
 _atom_site_fract_z
 _atom_site_occupancy
  C  C0  1  0.01609747  0.23596492  0.37242612  1
  C  C1  1  0.01609747  0.26403508  0.87242612  1
  C  C2  1  0.21338770  0.95022481  0.36603773  1
  C  C3  1  0.21338770  0.54977519  0.86603773  1
  C  C4  1  0.28661230  0.04977519  0.86603773  1
  C  C5  1  0.28661230  0.45022481  0.36603773  1
  C  C6  1  0.48390253  0.73596492  0.37242612  1
  C  C7  1  0.48390253  0.76403508  0.87242612  1
  C  C8  1  0.51609747  0.23596492  0.12757388  1
  C  C9  1  0.51609747  0.26403508  0.62757388  1
  C  C10  1  0.71338770  0.54977519  0.63396227  1
  C  C11  1  0.71338770  0.95022481  0.13396227  1
  C  C12  1  0.78661230  0.45022481  0.13396227  1
  C  C13  1  0.78661230  0.04977519  0.63396227  1
  C  C14  1  0.98390253  0.76403508  0.62757388  1
  C  C15  1  0.98390253  0.73596492  0.12757388  1
  C  C16  1  0.14525608  0.10192992  0.12327886  1
  C  C17  1  0.14525608  0.39807008  0.62327886  1
  C  C18  1  0.35474392  0.60192992  0.12327886  1
  C  C19  1  0.35474392  0.89807008  0.62327886  1
  C  C20  1  0.64525608  0.10192992  0.37672114  1
  C  C21  1  0.64525608  0.39807008  0.87672114  1
  C  C22  1  0.85474392  0.60192992  0.37672114  1
  C  C23  1  0.85474392  0.89807008  0.87672114  1
  Ni  Ni24  1  0.06665848  0.08024260  0.74024957  1
  Ni  Ni25  1  0.06665848  0.41975740  0.24024957  1
  Ni  Ni26  1  0.43334152  0.91975740  0.24024957  1
  Ni  Ni27  1  0.43334152  0.58024260  0.74024957  1
  Ni  Ni28  1  0.56665848  0.41975740  0.25975043  1
  Ni  Ni29  1  0.56665848  0.08024260  0.75975043  1
  Ni  Ni30  1  0.93334152  0.58024260  0.75975043  1
  Ni  Ni31  1  0.93334152  0.91975740  0.25975043  1
  Ni  Ni32  1  0.16317941  0.69017473  0.48384707  1
  Ni  Ni33  1  0.16317941  0.80982527  0.98384707  1
  Ni  Ni34  1  0.33682059  0.19017473  0.48384707  1
  Ni  Ni35  1  0.33682059  0.30982527  0.98384707  1
  Ni  Ni36  1  0.66317941  0.69017473  0.01615293  1
  Ni  Ni37  1  0.66317941  0.80982527  0.51615293  1
  Ni  Ni38  1  0.83682059  0.19017473  0.01615293  1
  Ni  Ni39  1  0.83682059  0.30982527  0.51615293  1
  Cu  Cu40  1  0.01492160  0.70409392  0.47011437  1
  Cu  Cu41  1  0.01492160  0.79590608  0.97011437  1
  Cu  Cu42  1  0.01501357  0.99882690  0.32452138  1
  Cu  Cu43  1  0.01501357  0.50117310  0.82452138  1
  Cu  Cu44  1  0.02534016  0.44363409  0.33769248  1
  Cu  Cu45  1  0.02534016  0.05636591  0.83769248  1
  Cu  Cu46  1  0.04762301  0.22729686  0.72721701  1
  Cu  Cu47  1  0.04762301  0.27270314  0.22721701  1
  Cu  Cu48  1  0.18250963  0.76130620  0.07989375  1
  Cu  Cu49  1  0.18250963  0.73869380  0.57989375  1
  Cu  Cu50  1  0.20769792  0.95112944  0.97703633  1
  Cu  Cu51  1  0.20769792  0.54887056  0.47703633  1
  Cu  Cu52  1  0.21058926  0.04397426  0.73487516  1
  Cu  Cu53  1  0.21058926  0.45602574  0.23487516  1
  Cu  Cu54  1  0.24016098  0.77006585  0.41768525  1
  Cu  Cu55  1  0.24016098  0.72993415  0.91768525  1
  Cu  Cu56  1  0.25983902  0.27006585  0.41768525  1
  Cu  Cu57  1  0.25983902  0.22993415  0.91768525  1
  Cu  Cu58  1  0.28941074  0.95602574  0.23487516  1
  Cu  Cu59  1  0.28941074  0.54397426  0.73487516  1
  Cu  Cu60  1  0.29230208  0.04887056  0.47703633  1
  Cu  Cu61  1  0.29230208  0.45112944  0.97703633  1
  Cu  Cu62  1  0.31749037  0.26130620  0.07989375  1
  Cu  Cu63  1  0.31749037  0.23869380  0.57989375  1
  Cu  Cu64  1  0.45237699  0.77270314  0.22721701  1
  Cu  Cu65  1  0.45237699  0.72729686  0.72721701  1
  Cu  Cu66  1  0.47465984  0.55636591  0.83769248  1
  Cu  Cu67  1  0.47465984  0.94363409  0.33769248  1
  Cu  Cu68  1  0.48498643  0.49882690  0.32452138  1
  Cu  Cu69  1  0.48498643  0.00117310  0.82452138  1
  Cu  Cu70  1  0.48507840  0.20409392  0.47011437  1
  Cu  Cu71  1  0.48507840  0.29590608  0.97011437  1
  Cu  Cu72  1  0.51492160  0.70409392  0.02988563  1
  Cu  Cu73  1  0.51492160  0.79590608  0.52988563  1
  Cu  Cu74  1  0.51501357  0.50117310  0.67547862  1
  Cu  Cu75  1  0.51501357  0.99882690  0.17547862  1
  Cu  Cu76  1  0.52534016  0.44363409  0.16230752  1
  Cu  Cu77  1  0.52534016  0.05636591  0.66230752  1
  Cu  Cu78  1  0.54762301  0.27270314  0.27278299  1
  Cu  Cu79  1  0.54762301  0.22729686  0.77278299  1
  Cu  Cu80  1  0.68250963  0.76130620  0.42010625  1
  Cu  Cu81  1  0.68250963  0.73869380  0.92010625  1
  Cu  Cu82  1  0.70769792  0.54887056  0.02296367  1
  Cu  Cu83  1  0.70769792  0.95112944  0.52296367  1
  Cu  Cu84  1  0.71058926  0.45602574  0.26512484  1
  Cu  Cu85  1  0.71058926  0.04397426  0.76512484  1
  Cu  Cu86  1  0.74016098  0.77006585  0.08231475  1
  Cu  Cu87  1  0.74016098  0.72993415  0.58231475  1
  Cu  Cu88  1  0.75983902  0.27006585  0.08231475  1
  Cu  Cu89  1  0.75983902  0.22993415  0.58231475  1
  Cu  Cu90  1  0.78941074  0.54397426  0.76512484  1
  Cu  Cu91  1  0.78941074  0.95602574  0.26512484  1
  Cu  Cu92  1  0.79230208  0.45112944  0.52296367  1
  Cu  Cu93  1  0.79230208  0.04887056  0.02296367  1
  Cu  Cu94  1  0.81749037  0.26130620  0.42010625  1
  Cu  Cu95  1  0.81749037  0.23869380  0.92010625  1
  Cu  Cu96  1  0.95237699  0.72729686  0.77278299  1
  Cu  Cu97  1  0.95237699  0.77270314  0.27278299  1
  Cu  Cu98  1  0.97465984  0.55636591  0.66230752  1
  Cu  Cu99  1  0.97465984  0.94363409  0.16230752  1
  Cu  Cu100  1  0.98498643  0.00117310  0.67547862  1
  Cu  Cu101  1  0.98498643  0.49882690  0.17547862  1
  Cu  Cu102  1  0.98507840  0.20409392  0.02988563  1
  Cu  Cu103  1  0.98507840  0.29590608  0.52988563  1
