# generated using pymatgen
data_CuNiC3
_symmetry_space_group_name_H-M   'P 1'
_cell_length_a   4.10723900
_cell_length_b   6.99650400
_cell_length_c   11.95156200
_cell_angle_alpha   90.00000000
_cell_angle_beta   90.00000000
_cell_angle_gamma   90.00000000
_symmetry_Int_Tables_number   1
_chemical_formula_structural   CuNiC3
_chemical_formula_sum   'Cu4 Ni4 C12'
_cell_volume   343.44383953
_cell_formula_units_Z   4
loop_
 _symmetry_equiv_pos_site_id
 _symmetry_equiv_pos_as_xyz
  1  'x, y, z'
loop_
 _atom_site_type_symbol
 _atom_site_label
 _atom_site_symmetry_multiplicity
 _atom_site_fract_x
 _atom_site_fract_y
 _atom_site_fract_z
 _atom_site_occupancy
  Ni  Ni0  1  0.16477300  0.98872500  0.53564400  1
  Ni  Ni1  1  0.33522700  0.01127500  0.03564400  1
  Ni  Ni2  1  0.66477300  0.51127500  0.46435600  1
  Ni  Ni3  1  0.83522700  0.48872500  0.96435600  1
  Cu  Cu4  1  0.21692500  0.95636700  0.75816700  1
  Cu  Cu5  1  0.28307500  0.04363300  0.25816700  1
  Cu  Cu6  1  0.71692500  0.54363300  0.24183300  1
  Cu  Cu7  1  0.78307500  0.45636700  0.74183300  1
  C  C8  1  0.02211100  0.92872700  0.45361600  1
  C  C9  1  0.03206500  0.88585900  0.63978300  1
  C  C10  1  0.12468300  0.89433800  0.04863400  1
  C  C11  1  0.37531700  0.10566200  0.54863400  1
  C  C12  1  0.46793500  0.11414100  0.13978300  1
  C  C13  1  0.47788900  0.07127300  0.95361600  1
  C  C14  1  0.52211100  0.57127300  0.54638400  1
  C  C15  1  0.53206500  0.61414100  0.36021700  1
  C  C16  1  0.62468300  0.60566200  0.95136600  1
  C  C17  1  0.87531700  0.39433800  0.45136600  1
  C  C18  1  0.96793500  0.38585900  0.86021700  1
  C  C19  1  0.97788900  0.42872700  0.04638400  1
