# generated using pymatgen
data_Cu3Ni2C19
_symmetry_space_group_name_H-M   'P 1'
_cell_length_a   6.16897869
_cell_length_b   6.16897869
_cell_length_c   9.21539576
_cell_angle_alpha   88.72717157
_cell_angle_beta   88.72717157
_cell_angle_gamma   59.50029879
_symmetry_Int_Tables_number   1
_chemical_formula_structural   Cu3Ni2C19
_chemical_formula_sum   'Cu3 Ni2 C19'
_cell_volume   302.07866878
_cell_formula_units_Z   1
loop_
 _symmetry_equiv_pos_site_id
 _symmetry_equiv_pos_as_xyz
  1  'x, y, z'
loop_
 _atom_site_type_symbol
 _atom_site_label
 _atom_site_symmetry_multiplicity
 _atom_site_fract_x
 _atom_site_fract_y
 _atom_site_fract_z
 _atom_site_occupancy
  Ni  Ni0  1  0.68126700  0.68126700  0.49429400  1
  Ni  Ni1  1  0.35788300  0.35788300  0.03761300  1
  Cu  Cu2  1  0.82675200  0.82675200  0.79502200  1
  Cu  Cu3  1  0.17119300  0.67034400  0.30055300  1
  Cu  Cu4  1  0.67034400  0.17119300  0.30055300  1
  C  C5  1  0.32849100  0.82595000  0.78531700  1
  C  C6  1  0.82595000  0.32849100  0.78531700  1
  C  C7  1  0.17149600  0.17149600  0.28840700  1
  C  C8  1  0.35246000  0.84213400  0.39857800  1
  C  C9  1  0.51427100  0.51427100  0.65924000  1
  C  C10  1  0.64693500  0.64693500  0.90487700  1
  C  C11  1  0.00257700  0.00257700  0.67510400  1
  C  C12  1  0.01010300  0.01010300  0.19929200  1
  C  C13  1  0.84213400  0.35246000  0.39857800  1
  C  C14  1  0.50681900  0.94456300  0.66545100  1
  C  C15  1  0.94456300  0.50681900  0.66545100  1
  C  C16  1  0.15476600  0.15476600  0.89298300  1
  C  C17  1  0.82431400  0.82431400  0.40628000  1
  C  C18  1  0.05271000  0.46446200  0.14929900  1
  C  C19  1  0.46446200  0.05271000  0.14929900  1
  C  C20  1  0.32558400  0.32558400  0.39770500  1
  C  C21  1  0.17240500  0.66920800  0.89328800  1
  C  C22  1  0.48223400  0.48223400  0.14887700  1
  C  C23  1  0.66920800  0.17240500  0.89328800  1
