# generated using pymatgen
data_Cu4Ni12C43
_symmetry_space_group_name_H-M   'P 1'
_cell_length_a   8.42517680
_cell_length_b   8.42517680
_cell_length_c   8.42517637
_cell_angle_alpha   90.09737053
_cell_angle_beta   90.09737053
_cell_angle_gamma   90.09737639
_symmetry_Int_Tables_number   1
_chemical_formula_structural   Cu4Ni12C43
_chemical_formula_sum   'Cu4 Ni12 C43'
_cell_volume   598.04679104
_cell_formula_units_Z   1
loop_
 _symmetry_equiv_pos_site_id
 _symmetry_equiv_pos_as_xyz
  1  'x, y, z'
loop_
 _atom_site_type_symbol
 _atom_site_label
 _atom_site_symmetry_multiplicity
 _atom_site_fract_x
 _atom_site_fract_y
 _atom_site_fract_z
 _atom_site_occupancy
  C  C0  1  0.12660800  0.12660800  0.12660800  1
  C  C1  1  0.50000000  0.24801800  0.75198200  1
  C  C2  1  0.75155100  0.24844900  0.50000000  1
  C  C3  1  0.49795700  0.50204300  0.00000000  1
  C  C4  1  0.75198200  0.50000000  0.24801800  1
  C  C5  1  0.24844900  0.50000000  0.75155100  1
  C  C6  1  0.00000000  0.49795700  0.50204300  1
  C  C7  1  0.50000000  0.75155100  0.24844900  1
  C  C8  1  0.24801800  0.75198200  0.50000000  1
  C  C9  1  0.87339200  0.87339200  0.87339200  1
  C  C10  1  0.50204300  0.00000000  0.49795700  1
  Ni  Ni11  1  0.75931600  0.24068400  0.00000000  1
  Ni  Ni12  1  0.49716200  0.24266600  0.24529900  1
  Ni  Ni13  1  0.24266600  0.24529900  0.49716200  1
  Ni  Ni14  1  0.75733400  0.50283800  0.75470100  1
  Ni  Ni15  1  0.00201800  0.50000000  0.99798200  1
  Ni  Ni16  1  0.24529900  0.49716200  0.24266600  1
  Ni  Ni17  1  0.50283800  0.75470100  0.75733400  1
  Ni  Ni18  1  0.75470100  0.75733400  0.50283800  1
  Ni  Ni19  1  0.00000000  0.75931600  0.24068400  1
  Ni  Ni20  1  0.50000000  0.99798200  0.00201800  1
  Ni  Ni21  1  0.24068400  0.00000000  0.75931600  1
  Ni  Ni22  1  0.99798200  0.00201800  0.50000000  1
  Cu  Cu23  1  0.00000000  0.24549000  0.75451000  1
  Cu  Cu24  1  0.50000000  0.50000000  0.50000000  1
  Cu  Cu25  1  0.24549000  0.75451000  0.00000000  1
  Cu  Cu26  1  0.75451000  0.00000000  0.24549000  1
  C  C27  1  0.72963300  0.25194100  0.23648600  1
  C  C28  1  0.51533800  0.24080900  0.00807300  1
  C  C29  1  0.25194100  0.23648600  0.72963300  1
  C  C30  1  0.00767500  0.23905300  0.51052300  1
  C  C31  1  0.74805900  0.27036700  0.76351400  1
  C  C32  1  0.98465400  0.26373700  0.99895400  1
  C  C33  1  0.26087500  0.26087500  0.26087500  1
  C  C34  1  0.48846700  0.24982800  0.48377400  1
  C  C35  1  0.99232500  0.48947700  0.76094700  1
  C  C36  1  0.75919100  0.48466200  0.99192700  1
  C  C37  1  0.48377400  0.48846700  0.24982800  1
  C  C38  1  0.24982800  0.48377400  0.48846700  1
  C  C39  1  0.51153300  0.51622600  0.75017200  1
  C  C40  1  0.75017200  0.51153300  0.51622600  1
  C  C41  1  0.00807300  0.51533800  0.24080900  1
  C  C42  1  0.23905300  0.51052300  0.00767500  1
  C  C43  1  0.51622600  0.75017200  0.51153300  1
  C  C44  1  0.73912500  0.73912500  0.73912500  1
  C  C45  1  0.00104600  0.73626300  0.01534600  1
  C  C46  1  0.23648600  0.72963300  0.25194100  1
  C  C47  1  0.48947700  0.76094700  0.99232500  1
  C  C48  1  0.27036700  0.76351400  0.74805900  1
  C  C49  1  0.99192700  0.75919100  0.48466200  1
  C  C50  1  0.76351400  0.74805900  0.27036700  1
  C  C51  1  0.26373700  0.99895400  0.98465400  1
  C  C52  1  0.48466200  0.99192700  0.75919100  1
  C  C53  1  0.76094700  0.99232500  0.48947700  1
  C  C54  1  0.99895400  0.98465400  0.26373700  1
  C  C55  1  0.73626300  0.01534600  0.00104600  1
  C  C56  1  0.51052300  0.00767500  0.23905300  1
  C  C57  1  0.24080900  0.00807300  0.51533800  1
  C  C58  1  0.01534600  0.00104600  0.73626300  1
