# generated using pymatgen
data_CuNi2C11
_symmetry_space_group_name_H-M   'P 1'
_cell_length_a   5.08287800
_cell_length_b   8.89893700
_cell_length_c   16.07942666
_cell_angle_alpha   83.26537493
_cell_angle_beta   90.00000000
_cell_angle_gamma   90.00000000
_symmetry_Int_Tables_number   1
_chemical_formula_structural   CuNi2C11
_chemical_formula_sum   'Cu4 Ni8 C44'
_cell_volume   722.28956785
_cell_formula_units_Z   4
loop_
 _symmetry_equiv_pos_site_id
 _symmetry_equiv_pos_as_xyz
  1  'x, y, z'
loop_
 _atom_site_type_symbol
 _atom_site_label
 _atom_site_symmetry_multiplicity
 _atom_site_fract_x
 _atom_site_fract_y
 _atom_site_fract_z
 _atom_site_occupancy
  C  C0  1  0.13105500  0.50000000  0.75000000  1
  C  C1  1  0.86894500  0.50000000  0.25000000  1
  C  C2  1  0.16121300  0.00000000  0.25000000  1
  C  C3  1  0.83878700  0.00000000  0.75000000  1
  C  C4  1  0.23853000  0.58546800  0.49450400  1
  C  C5  1  0.23853000  0.41453200  0.00549600  1
  C  C6  1  0.76147000  0.41453200  0.50549600  1
  C  C7  1  0.76147000  0.58546800  0.99450400  1
  C  C8  1  0.24128200  0.08313800  0.00042100  1
  C  C9  1  0.24128200  0.91686200  0.49957900  1
  C  C10  1  0.75871800  0.91686200  0.99957900  1
  C  C11  1  0.75871800  0.08313800  0.50042100  1
  Ni  Ni12  1  0.27492400  0.72759300  0.10395100  1
  Ni  Ni13  1  0.27492400  0.27240700  0.39604900  1
  Ni  Ni14  1  0.72507600  0.27240700  0.89604900  1
  Ni  Ni15  1  0.72507600  0.72759300  0.60395100  1
  Ni  Ni16  1  0.26989900  0.77403500  0.88919000  1
  Ni  Ni17  1  0.26989900  0.22596500  0.61081000  1
  Ni  Ni18  1  0.73010100  0.22596500  0.11081000  1
  Ni  Ni19  1  0.73010100  0.77403500  0.38919000  1
  Cu  Cu20  1  0.52826000  0.73758600  0.74048700  1
  Cu  Cu21  1  0.52826000  0.26241400  0.75951300  1
  Cu  Cu22  1  0.47174000  0.26241400  0.25951300  1
  Cu  Cu23  1  0.47174000  0.73758600  0.24048700  1
  C  C24  1  0.29479600  0.69840700  0.21334100  1
  C  C25  1  0.29479600  0.30159300  0.28665900  1
  C  C26  1  0.70520400  0.30159300  0.78665900  1
  C  C27  1  0.70520400  0.69840700  0.71334100  1
  C  C28  1  0.09222900  0.57436100  0.07898600  1
  C  C29  1  0.09222900  0.42563900  0.42101400  1
  C  C30  1  0.90777100  0.42563900  0.92101400  1
  C  C31  1  0.90777100  0.57436100  0.57898600  1
  C  C32  1  0.10018400  0.89426600  0.07798300  1
  C  C33  1  0.10018400  0.10573400  0.42201700  1
  C  C34  1  0.89981600  0.10573400  0.92201700  1
  C  C35  1  0.89981600  0.89426600  0.57798300  1
  C  C36  1  0.59868300  0.73356800  0.07156400  1
  C  C37  1  0.59868300  0.26643200  0.42843600  1
  C  C38  1  0.40131700  0.26643200  0.92843600  1
  C  C39  1  0.40131700  0.73356800  0.57156400  1
  C  C40  1  0.29783600  0.79276400  0.78284700  1
  C  C41  1  0.29783600  0.20723600  0.71715300  1
  C  C42  1  0.70216400  0.20723600  0.21715300  1
  C  C43  1  0.70216400  0.79276400  0.28284700  1
  C  C44  1  0.93889100  0.77106600  0.91879100  1
  C  C45  1  0.93889100  0.22893400  0.58120900  1
  C  C46  1  0.06110900  0.22893400  0.08120900  1
  C  C47  1  0.06110900  0.77106600  0.41879100  1
  C  C48  1  0.41110200  0.60143700  0.92846000  1
  C  C49  1  0.41110200  0.39856300  0.57154000  1
  C  C50  1  0.58889800  0.39856300  0.07154000  1
  C  C51  1  0.58889800  0.60143700  0.42846000  1
  C  C52  1  0.41886300  0.92976200  0.92599300  1
  C  C53  1  0.41886300  0.07023800  0.57400700  1
  C  C54  1  0.58113700  0.07023800  0.07400700  1
  C  C55  1  0.58113700  0.92976200  0.42599300  1
