# generated using pymatgen
data_Cu(NiC3)2
_symmetry_space_group_name_H-M   'P 1'
_cell_length_a   8.99167117
_cell_length_b   8.99167117
_cell_length_c   12.76253021
_cell_angle_alpha   70.94962409
_cell_angle_beta   70.94962409
_cell_angle_gamma   36.48564218
_symmetry_Int_Tables_number   1
_chemical_formula_structural   Cu(NiC3)2
_chemical_formula_sum   'Cu4 Ni8 C24'
_cell_volume   576.18910551
_cell_formula_units_Z   4
loop_
 _symmetry_equiv_pos_site_id
 _symmetry_equiv_pos_as_xyz
  1  'x, y, z'
loop_
 _atom_site_type_symbol
 _atom_site_label
 _atom_site_symmetry_multiplicity
 _atom_site_fract_x
 _atom_site_fract_y
 _atom_site_fract_z
 _atom_site_occupancy
  C  C0  1  0.00000000  0.50000000  0.50000000  1
  C  C1  1  0.50000000  0.00000000  0.00000000  1
  C  C2  1  0.39917200  0.60082800  0.25000000  1
  C  C3  1  0.60082800  0.39917200  0.75000000  1
  Ni  Ni4  1  0.49230400  0.66580400  0.90935000  1
  Ni  Ni5  1  0.33419600  0.50769600  0.59065000  1
  Ni  Ni6  1  0.50769600  0.33419600  0.09065000  1
  Ni  Ni7  1  0.66580400  0.49230400  0.40935000  1
  Ni  Ni8  1  0.07604700  0.23467200  0.02634000  1
  Ni  Ni9  1  0.76532800  0.92395300  0.47366000  1
  Ni  Ni10  1  0.92395300  0.76532800  0.97366000  1
  Ni  Ni11  1  0.23467200  0.07604700  0.52634000  1
  Cu  Cu12  1  0.85489400  0.90129000  0.18514800  1
  Cu  Cu13  1  0.09871000  0.14510600  0.31485200  1
  Cu  Cu14  1  0.14510600  0.09871000  0.81485200  1
  Cu  Cu15  1  0.90129000  0.85489400  0.68514800  1
  C  C16  1  0.76446000  0.89480200  0.40512600  1
  C  C17  1  0.10519800  0.23554000  0.09487400  1
  C  C18  1  0.23554000  0.10519800  0.59487400  1
  C  C19  1  0.89480200  0.76446000  0.90512600  1
  C  C20  1  0.76814700  0.83786300  0.12853600  1
  C  C21  1  0.16213700  0.23185300  0.37146400  1
  C  C22  1  0.23185300  0.16213700  0.87146400  1
  C  C23  1  0.83786300  0.76814700  0.62853600  1
  C  C24  1  0.11378200  0.77940300  0.10492700  1
  C  C25  1  0.22059700  0.88621800  0.39507300  1
  C  C26  1  0.88621800  0.22059700  0.89507300  1
  C  C27  1  0.77940300  0.11378200  0.60492700  1
  C  C28  1  0.60668500  0.27368300  0.14585900  1
  C  C29  1  0.72631700  0.39331500  0.35414100  1
  C  C30  1  0.39331500  0.72631700  0.85414100  1
  C  C31  1  0.27368300  0.60668500  0.64585900  1
  C  C32  1  0.28978600  0.96831900  0.14527100  1
  C  C33  1  0.03168100  0.71021400  0.35472900  1
  C  C34  1  0.71021400  0.03168100  0.85472900  1
  C  C35  1  0.96831900  0.28978600  0.64527100  1
