# generated using pymatgen
data_Cu6Ni2C
_symmetry_space_group_name_H-M   'P 1'
_cell_length_a   4.85214769
_cell_length_b   6.28337108
_cell_length_c   16.58225416
_cell_angle_alpha   92.25132344
_cell_angle_beta   81.64605144
_cell_angle_gamma   67.14177057
_symmetry_Int_Tables_number   1
_chemical_formula_structural   Cu6Ni2C
_chemical_formula_sum   'Cu24 Ni8 C4'
_cell_volume   458.36477565
_cell_formula_units_Z   4
loop_
 _symmetry_equiv_pos_site_id
 _symmetry_equiv_pos_as_xyz
  1  'x, y, z'
loop_
 _atom_site_type_symbol
 _atom_site_label
 _atom_site_symmetry_multiplicity
 _atom_site_fract_x
 _atom_site_fract_y
 _atom_site_fract_z
 _atom_site_occupancy
  C  C0  1  0.12547300  0.12518800  0.62501300  1
  C  C1  1  0.37444000  0.37488700  0.87500700  1
  C  C2  1  0.62498500  0.62510400  0.12502000  1
  C  C3  1  0.87497800  0.87483700  0.37498600  1
  Ni  Ni4  1  0.96178100  0.88416600  0.19229500  1
  Ni  Ni5  1  0.21221600  0.13367400  0.44230600  1
  Ni  Ni6  1  0.46191300  0.38423200  0.69233700  1
  Ni  Ni7  1  0.71151400  0.63377900  0.94239300  1
  Ni  Ni8  1  0.28779200  0.36631900  0.05772200  1
  Ni  Ni9  1  0.53818200  0.61575000  0.30768100  1
  Ni  Ni10  1  0.78851900  0.86624600  0.55759500  1
  Ni  Ni11  1  0.03806900  0.11584900  0.80768700  1
  Cu  Cu12  1  0.53005800  0.38002000  0.07629000  1
  Cu  Cu13  1  0.78053100  0.62910000  0.32637800  1
  Cu  Cu14  1  0.03079200  0.87980300  0.57617100  1
  Cu  Cu15  1  0.28041100  0.12904400  0.82650200  1
  Cu  Cu16  1  0.71070500  0.71238600  0.01550100  1
  Cu  Cu17  1  0.96045900  0.96262600  0.26546100  1
  Cu  Cu18  1  0.21122400  0.21233500  0.51541200  1
  Cu  Cu19  1  0.46019500  0.46265300  0.76555700  1
  Cu  Cu20  1  0.19839400  0.83441400  0.13627200  1
  Cu  Cu21  1  0.44871900  0.08387900  0.38620300  1
  Cu  Cu22  1  0.69879100  0.33426900  0.63640700  1
  Cu  Cu23  1  0.94804100  0.58385900  0.88628100  1
  Cu  Cu24  1  0.05141700  0.41600200  0.11382800  1
  Cu  Cu25  1  0.30148300  0.66562100  0.36370600  1
  Cu  Cu26  1  0.55190100  0.91626300  0.61367800  1
  Cu  Cu27  1  0.80124000  0.16576000  0.86360500  1
  Cu  Cu28  1  0.53938200  0.53732200  0.23452100  1
  Cu  Cu29  1  0.78947300  0.78747600  0.48448700  1
  Cu  Cu30  1  0.03990000  0.03735100  0.73445500  1
  Cu  Cu31  1  0.28877600  0.28773500  0.98460500  1
  Cu  Cu32  1  0.71943700  0.87075500  0.17358900  1
  Cu  Cu33  1  0.97002200  0.11996600  0.42370800  1
  Cu  Cu34  1  0.21958500  0.37109400  0.67350900  1
  Cu  Cu35  1  0.46919700  0.62023700  0.92383000  1
