# generated using pymatgen
data_CuNi4C3
_symmetry_space_group_name_H-M   'P 1'
_cell_length_a   6.62028897
_cell_length_b   6.62028897
_cell_length_c   11.57310100
_cell_angle_alpha   90.00000000
_cell_angle_beta   90.00000000
_cell_angle_gamma   144.22574881
_symmetry_Int_Tables_number   1
_chemical_formula_structural   CuNi4C3
_chemical_formula_sum   'Cu2 Ni8 C6'
_cell_volume   296.52228530
_cell_formula_units_Z   2
loop_
 _symmetry_equiv_pos_site_id
 _symmetry_equiv_pos_as_xyz
  1  'x, y, z'
loop_
 _atom_site_type_symbol
 _atom_site_label
 _atom_site_symmetry_multiplicity
 _atom_site_fract_x
 _atom_site_fract_y
 _atom_site_fract_z
 _atom_site_occupancy
  C  C0  1  0.33084700  0.66915300  0.25000000  1
  C  C1  1  0.36668200  0.63331800  0.59306500  1
  C  C2  1  0.36668200  0.63331800  0.90693500  1
  C  C3  1  0.63331800  0.36668200  0.09306500  1
  C  C4  1  0.63331800  0.36668200  0.40693500  1
  C  C5  1  0.66915300  0.33084700  0.75000000  1
  Ni  Ni6  1  0.46144200  0.53855800  0.75000000  1
  Ni  Ni7  1  0.75317700  0.24682300  0.25000000  1
  Ni  Ni8  1  0.22443800  0.77556200  0.40166900  1
  Ni  Ni9  1  0.22443800  0.77556200  0.09833100  1
  Ni  Ni10  1  0.77556200  0.22443800  0.90166900  1
  Ni  Ni11  1  0.77556200  0.22443800  0.59833100  1
  Ni  Ni12  1  0.24682300  0.75317700  0.75000000  1
  Ni  Ni13  1  0.53855800  0.46144200  0.25000000  1
  Cu  Cu14  1  0.00000000  0.00000000  0.00000000  1
  Cu  Cu15  1  0.00000000  0.00000000  0.50000000  1
