# generated using pymatgen
data_CuNi7C4
_symmetry_space_group_name_H-M   'P 1'
_cell_length_a   5.52082622
_cell_length_b   5.52082622
_cell_length_c   5.52082622
_cell_angle_alpha   113.77817062
_cell_angle_beta   108.70214338
_cell_angle_gamma   106.03085066
_symmetry_Int_Tables_number   1
_chemical_formula_structural   CuNi7C4
_chemical_formula_sum   'Cu1 Ni7 C4'
_cell_volume   128.91782156
_cell_formula_units_Z   1
loop_
 _symmetry_equiv_pos_site_id
 _symmetry_equiv_pos_as_xyz
  1  'x, y, z'
loop_
 _atom_site_type_symbol
 _atom_site_label
 _atom_site_symmetry_multiplicity
 _atom_site_fract_x
 _atom_site_fract_y
 _atom_site_fract_z
 _atom_site_occupancy
  C  C0  1  0.73000400  0.73000400  0.00000000  1
  C  C1  1  0.75611700  0.25611700  0.50000000  1
  C  C2  1  0.25842700  0.51622000  0.25779300  1
  C  C3  1  0.25842700  0.00063400  0.74220700  1
  Ni  Ni4  1  0.45212600  0.95212600  0.50000000  1
  Ni  Ni5  1  0.43246500  0.43246500  0.00000000  1
  Ni  Ni6  1  0.94307900  0.49731500  0.93993200  1
  Ni  Ni7  1  0.94307900  0.00314700  0.44576400  1
  Ni  Ni8  1  0.55738300  0.49731500  0.55423600  1
  Ni  Ni9  1  0.55738300  0.00314700  0.06006800  1
  Ni  Ni10  1  0.06484500  0.56484500  0.50000000  1
  Cu  Cu11  1  0.04666400  0.04666400  0.00000000  1
