# generated using pymatgen
data_Cu3(NiC16)2
_symmetry_space_group_name_H-M   'P 1'
_cell_length_a   8.49655600
_cell_length_b   10.66764900
_cell_length_c   16.90546000
_cell_angle_alpha   90.00000000
_cell_angle_beta   90.00000000
_cell_angle_gamma   90.00000000
_symmetry_Int_Tables_number   1
_chemical_formula_structural   Cu3(NiC16)2
_chemical_formula_sum   'Cu12 Ni8 C128'
_cell_volume   1532.28176827
_cell_formula_units_Z   4
loop_
 _symmetry_equiv_pos_site_id
 _symmetry_equiv_pos_as_xyz
  1  'x, y, z'
loop_
 _atom_site_type_symbol
 _atom_site_label
 _atom_site_symmetry_multiplicity
 _atom_site_fract_x
 _atom_site_fract_y
 _atom_site_fract_z
 _atom_site_occupancy
  C  C0  1  0.32034200  0.72194000  0.25000000  1
  C  C1  1  0.17965800  0.22194000  0.25000000  1
  C  C2  1  0.67965800  0.27806000  0.75000000  1
  C  C3  1  0.82034200  0.77806000  0.75000000  1
  C  C4  1  0.71277400  0.64551400  0.56879100  1
  C  C5  1  0.78722600  0.14551400  0.93120900  1
  C  C6  1  0.28722600  0.35448600  0.06879100  1
  C  C7  1  0.21277400  0.85448600  0.43120900  1
  C  C8  1  0.28722600  0.35448600  0.43120900  1
  C  C9  1  0.21277400  0.85448600  0.06879100  1
  C  C10  1  0.71277400  0.64551400  0.93120900  1
  C  C11  1  0.78722600  0.14551400  0.56879100  1
  Ni  Ni12  1  0.46664000  0.63022300  0.41368000  1
  Ni  Ni13  1  0.03336000  0.13022300  0.08632000  1
  Ni  Ni14  1  0.53336000  0.36977700  0.91368000  1
  Ni  Ni15  1  0.96664000  0.86977700  0.58632000  1
  Ni  Ni16  1  0.53336000  0.36977700  0.58632000  1
  Ni  Ni17  1  0.96664000  0.86977700  0.91368000  1
  Ni  Ni18  1  0.46664000  0.63022300  0.08632000  1
  Ni  Ni19  1  0.03336000  0.13022300  0.41368000  1
  C  C20  1  0.78934300  0.29747000  0.25000000  1
  C  C21  1  0.71065700  0.79747000  0.25000000  1
  C  C22  1  0.21065700  0.70253000  0.75000000  1
  C  C23  1  0.28934300  0.20253000  0.75000000  1
  C  C24  1  0.86373500  0.91019100  0.25000000  1
  C  C25  1  0.63626500  0.41019100  0.25000000  1
  C  C26  1  0.13626500  0.08980900  0.75000000  1
  C  C27  1  0.36373500  0.58980900  0.75000000  1
  C  C28  1  0.53356500  0.95253800  0.17682900  1
  C  C29  1  0.96643500  0.45253800  0.32317100  1
  C  C30  1  0.46643500  0.04746200  0.67682900  1
  C  C31  1  0.03356500  0.54746200  0.82317100  1
  C  C32  1  0.46643500  0.04746200  0.82317100  1
  C  C33  1  0.03356500  0.54746200  0.67682900  1
  C  C34  1  0.53356500  0.95253800  0.32317100  1
  C  C35  1  0.96643500  0.45253800  0.17682900  1
  C  C36  1  0.68995100  0.06153000  0.17540600  1
  C  C37  1  0.81004900  0.56153000  0.32459400  1
  C  C38  1  0.31004900  0.93847000  0.67540600  1
  C  C39  1  0.18995100  0.43847000  0.82459400  1
  C  C40  1  0.31004900  0.93847000  0.82459400  1
  C  C41  1  0.18995100  0.43847000  0.67540600  1
  C  C42  1  0.68995100  0.06153000  0.32459400  1
  C  C43  1  0.81004900  0.56153000  0.17540600  1
  C  C44  1  0.84379000  0.91274500  0.09866000  1
  C  C45  1  0.65621000  0.41274500  0.40134000  1
  C  C46  1  0.15621000  0.08725500  0.59866000  1
  C  C47  1  0.34379000  0.58725500  0.90134000  1
  C  C48  1  0.15621000  0.08725500  0.90134000  1
  C  C49  1  0.34379000  0.58725500  0.59866000  1
  C  C50  1  0.84379000  0.91274500  0.40134000  1
  C  C51  1  0.65621000  0.41274500  0.09866000  1
  C  C52  1  0.67788400  0.95486800  0.05307400  1
  C  C53  1  0.82211600  0.45486800  0.44692600  1
  C  C54  1  0.32211600  0.04513200  0.55307400  1
  C  C55  1  0.17788400  0.54513200  0.94692600  1
  C  C56  1  0.32211600  0.04513200  0.94692600  1
  C  C57  1  0.17788400  0.54513200  0.55307400  1
  C  C58  1  0.67788400  0.95486800  0.44692600  1
  C  C59  1  0.82211600  0.45486800  0.05307400  1
  C  C60  1  0.69154900  0.81277400  0.09375800  1
  C  C61  1  0.80845100  0.31277400  0.40624200  1
  C  C62  1  0.30845100  0.18722600  0.59375800  1
  C  C63  1  0.19154900  0.68722600  0.90624200  1
  C  C64  1  0.30845100  0.18722600  0.90624200  1
  C  C65  1  0.19154900  0.68722600  0.59375800  1
  C  C66  1  0.69154900  0.81277400  0.40624200  1
  C  C67  1  0.80845100  0.31277400  0.09375800  1
  Cu  Cu68  1  0.76529500  0.39898200  0.25000000  1
  Cu  Cu69  1  0.73470500  0.89898200  0.25000000  1
  Cu  Cu70  1  0.23470500  0.60101800  0.75000000  1
  Cu  Cu71  1  0.26529500  0.10101800  0.75000000  1
  Cu  Cu72  1  0.83760100  0.46103200  0.17718800  1
  Cu  Cu73  1  0.66239900  0.96103200  0.32281200  1
  Cu  Cu74  1  0.16239900  0.53896800  0.67718800  1
  Cu  Cu75  1  0.33760100  0.03896800  0.82281200  1
  Cu  Cu76  1  0.16239900  0.53896800  0.82281200  1
  Cu  Cu77  1  0.33760100  0.03896800  0.67718800  1
  Cu  Cu78  1  0.83760100  0.46103200  0.32281200  1
  Cu  Cu79  1  0.66239900  0.96103200  0.17718800  1
  C  C80  1  0.72200800  0.90635300  0.10196000  1
  C  C81  1  0.77799200  0.40635300  0.39804000  1
  C  C82  1  0.27799200  0.09364700  0.60196000  1
  C  C83  1  0.22200800  0.59364700  0.89804000  1
  C  C84  1  0.27799200  0.09364700  0.89804000  1
  C  C85  1  0.22200800  0.59364700  0.60196000  1
  C  C86  1  0.72200800  0.90635300  0.39804000  1
  C  C87  1  0.77799200  0.40635300  0.10196000  1
  C  C88  1  0.44867600  0.48497900  0.41440300  1
  C  C89  1  0.05132400  0.98497900  0.08559700  1
  C  C90  1  0.55132400  0.51502100  0.91440300  1
  C  C91  1  0.94867600  0.01502100  0.58559700  1
  C  C92  1  0.55132400  0.51502100  0.58559700  1
  C  C93  1  0.94867600  0.01502100  0.91440300  1
  C  C94  1  0.44867600  0.48497900  0.08559700  1
  C  C95  1  0.05132400  0.98497900  0.41440300  1
  C  C96  1  0.62343200  0.66502700  0.45498400  1
  C  C97  1  0.87656800  0.16502700  0.04501600  1
  C  C98  1  0.37656800  0.33497300  0.95498400  1
  C  C99  1  0.12343200  0.83497300  0.54501600  1
  C  C100  1  0.37656800  0.33497300  0.54501600  1
  C  C101  1  0.12343200  0.83497300  0.95498400  1
  C  C102  1  0.62343200  0.66502700  0.04501600  1
  C  C103  1  0.87656800  0.16502700  0.45498400  1
  C  C104  1  0.32455200  0.69446900  0.45383000  1
  C  C105  1  0.17544800  0.19446900  0.04617000  1
  C  C106  1  0.67544800  0.30553100  0.95383000  1
  C  C107  1  0.82455200  0.80553100  0.54617000  1
  C  C108  1  0.67544800  0.30553100  0.54617000  1
  C  C109  1  0.82455200  0.80553100  0.95383000  1
  C  C110  1  0.32455200  0.69446900  0.04617000  1
  C  C111  1  0.17544800  0.19446900  0.45383000  1
  C  C112  1  0.48325600  0.67347900  0.32617000  1
  C  C113  1  0.01674400  0.17347900  0.17383000  1
  C  C114  1  0.51674400  0.32652100  0.82617000  1
  C  C115  1  0.98325600  0.82652100  0.67383000  1
  C  C116  1  0.51674400  0.32652100  0.67383000  1
  C  C117  1  0.98325600  0.82652100  0.82617000  1
  C  C118  1  0.48325600  0.67347900  0.17383000  1
  C  C119  1  0.01674400  0.17347900  0.32617000  1
  C  C120  1  0.25429900  0.83170100  0.17190300  1
  C  C121  1  0.24570100  0.33170100  0.32809700  1
  C  C122  1  0.74570100  0.16829900  0.67190300  1
  C  C123  1  0.75429900  0.66829900  0.82809700  1
  C  C124  1  0.74570100  0.16829900  0.82809700  1
  C  C125  1  0.75429900  0.66829900  0.67190300  1
  C  C126  1  0.25429900  0.83170100  0.32809700  1
  C  C127  1  0.24570100  0.33170100  0.17190300  1
  C  C128  1  0.19424700  0.61021300  0.25000000  1
  C  C129  1  0.30575300  0.11021300  0.25000000  1
  C  C130  1  0.80575300  0.38978700  0.75000000  1
  C  C131  1  0.69424700  0.88978700  0.75000000  1
  C  C132  1  0.35164500  0.95118300  0.03891400  1
  C  C133  1  0.14835500  0.45118300  0.46108600  1
  C  C134  1  0.64835500  0.04881700  0.53891400  1
  C  C135  1  0.85164500  0.54881700  0.96108600  1
  C  C136  1  0.64835500  0.04881700  0.96108600  1
  C  C137  1  0.85164500  0.54881700  0.53891400  1
  C  C138  1  0.35164500  0.95118300  0.46108600  1
  C  C139  1  0.14835500  0.45118300  0.03891400  1
  C  C140  1  0.02577700  0.73618500  0.09253600  1
  C  C141  1  0.47422300  0.23618500  0.40746400  1
  C  C142  1  0.97422300  0.26381500  0.59253600  1
  C  C143  1  0.52577700  0.76381500  0.90746400  1
  C  C144  1  0.97422300  0.26381500  0.90746400  1
  C  C145  1  0.52577700  0.76381500  0.59253600  1
  C  C146  1  0.02577700  0.73618500  0.40746400  1
  C  C147  1  0.47422300  0.23618500  0.09253600  1
