# generated using pymatgen
data_Cu2NiC6
_symmetry_space_group_name_H-M   'P 1'
_cell_length_a   8.02940900
_cell_length_b   7.33599200
_cell_length_c   17.52944470
_cell_angle_alpha   88.74608603
_cell_angle_beta   90.00000000
_cell_angle_gamma   90.00000000
_symmetry_Int_Tables_number   1
_chemical_formula_structural   Cu2NiC6
_chemical_formula_sum   'Cu16 Ni8 C48'
_cell_volume   1032.30154452
_cell_formula_units_Z   8
loop_
 _symmetry_equiv_pos_site_id
 _symmetry_equiv_pos_as_xyz
  1  'x, y, z'
loop_
 _atom_site_type_symbol
 _atom_site_label
 _atom_site_symmetry_multiplicity
 _atom_site_fract_x
 _atom_site_fract_y
 _atom_site_fract_z
 _atom_site_occupancy
  Ni  Ni0  1  0.87265800  0.97075100  0.89782700  1
  Ni  Ni1  1  0.62734200  0.97075100  0.39782700  1
  Ni  Ni2  1  0.35926300  0.52001200  0.67460400  1
  Ni  Ni3  1  0.14073700  0.52001200  0.17460400  1
  Ni  Ni4  1  0.85926300  0.47998800  0.82539600  1
  Ni  Ni5  1  0.64073700  0.47998800  0.32539600  1
  Ni  Ni6  1  0.37265800  0.02924900  0.60217300  1
  Ni  Ni7  1  0.12734200  0.02924900  0.10217300  1
  Cu  Cu8  1  0.98648000  0.87143000  0.69352600  1
  Cu  Cu9  1  0.51352000  0.87143000  0.19352600  1
  Cu  Cu10  1  0.71111500  0.75557900  0.58973000  1
  Cu  Cu11  1  0.78888500  0.75557900  0.08973000  1
  Cu  Cu12  1  0.48556400  0.73162700  0.85634200  1
  Cu  Cu13  1  0.01443600  0.73162700  0.35634200  1
  Cu  Cu14  1  0.19690500  0.63634500  0.95947200  1
  Cu  Cu15  1  0.30309500  0.63634500  0.45947200  1
  Cu  Cu16  1  0.69690500  0.36365500  0.54052800  1
  Cu  Cu17  1  0.80309500  0.36365500  0.04052800  1
  Cu  Cu18  1  0.98556400  0.26837300  0.64365800  1
  Cu  Cu19  1  0.51443600  0.26837300  0.14365800  1
  Cu  Cu20  1  0.21111500  0.24442100  0.91027000  1
  Cu  Cu21  1  0.28888500  0.24442100  0.41027000  1
  Cu  Cu22  1  0.48648000  0.12857000  0.80647400  1
  Cu  Cu23  1  0.01352000  0.12857000  0.30647400  1
  C  C24  1  0.43539900  0.91503900  0.81038800  1
  C  C25  1  0.66389400  0.90867400  0.53498600  1
  C  C26  1  0.06460100  0.91503900  0.31038800  1
  C  C27  1  0.83610600  0.90867400  0.03498600  1
  C  C28  1  0.17048500  0.84685200  0.68159600  1
  C  C29  1  0.32951500  0.84685200  0.18159600  1
  C  C30  1  0.90751800  0.79838100  0.76574800  1
  C  C31  1  0.89739700  0.79300300  0.61862900  1
  C  C32  1  0.59248200  0.79838100  0.26574800  1
  C  C33  1  0.60260300  0.79300300  0.11862900  1
  C  C34  1  0.66128300  0.74560800  0.88679900  1
  C  C35  1  0.36474800  0.73523300  0.92969100  1
  C  C36  1  0.83871700  0.74560800  0.38679900  1
  C  C37  1  0.13525200  0.73523300  0.42969100  1
  C  C38  1  0.59356700  0.71983700  0.65593600  1
  C  C39  1  0.90643300  0.71983700  0.15593600  1
  C  C40  1  0.32116900  0.68816600  0.54154600  1
  C  C41  1  0.05289700  0.67267400  0.90543100  1
  C  C42  1  0.17883100  0.68816600  0.04154600  1
  C  C43  1  0.44710300  0.67267400  0.40543100  1
  C  C44  1  0.44429600  0.57266400  0.80690600  1
  C  C45  1  0.74437200  0.57674800  0.54115100  1
  C  C46  1  0.05570400  0.57266400  0.30690600  1
  C  C47  1  0.75562800  0.57674800  0.04115100  1
  C  C48  1  0.24437200  0.42325200  0.95884900  1
  C  C49  1  0.94429600  0.42733600  0.69309400  1
  C  C50  1  0.25562800  0.42325200  0.45884900  1
  C  C51  1  0.55570400  0.42733600  0.19309400  1
  C  C52  1  0.55289700  0.32732600  0.59456900  1
  C  C53  1  0.82116900  0.31183400  0.95845400  1
  C  C54  1  0.94710300  0.32732600  0.09456900  1
  C  C55  1  0.67883100  0.31183400  0.45845400  1
  C  C56  1  0.09356700  0.28016300  0.84406400  1
  C  C57  1  0.40643300  0.28016300  0.34406400  1
  C  C58  1  0.86474800  0.26476700  0.57030900  1
  C  C59  1  0.16128300  0.25439200  0.61320100  1
  C  C60  1  0.63525200  0.26476700  0.07030900  1
  C  C61  1  0.33871700  0.25439200  0.11320100  1
  C  C62  1  0.39739700  0.20699700  0.88137100  1
  C  C63  1  0.40751800  0.20161900  0.73425200  1
  C  C64  1  0.10260300  0.20699700  0.38137100  1
  C  C65  1  0.09248200  0.20161900  0.23425200  1
  C  C66  1  0.67048500  0.15314800  0.81840400  1
  C  C67  1  0.82951500  0.15314800  0.31840400  1
  C  C68  1  0.16389400  0.09132600  0.96501400  1
  C  C69  1  0.93539900  0.08496100  0.68961200  1
  C  C70  1  0.33610600  0.09132600  0.46501400  1
  C  C71  1  0.56460100  0.08496100  0.18961200  1
