# generated using pymatgen
data_CuNi2C15
_symmetry_space_group_name_H-M   'P 1'
_cell_length_a   8.84738017
_cell_length_b   8.84738017
_cell_length_c   8.27254358
_cell_angle_alpha   62.14287831
_cell_angle_beta   62.14287831
_cell_angle_gamma   42.04876255
_symmetry_Int_Tables_number   1
_chemical_formula_structural   CuNi2C15
_chemical_formula_sum   'Cu2 Ni4 C30'
_cell_volume   375.44643785
_cell_formula_units_Z   2
loop_
 _symmetry_equiv_pos_site_id
 _symmetry_equiv_pos_as_xyz
  1  'x, y, z'
loop_
 _atom_site_type_symbol
 _atom_site_label
 _atom_site_symmetry_multiplicity
 _atom_site_fract_x
 _atom_site_fract_y
 _atom_site_fract_z
 _atom_site_occupancy
  C  C0  1  0.24088500  0.74084900  0.30176700  1
  C  C1  1  0.74084900  0.24088500  0.30176700  1
  C  C2  1  0.40147300  0.89968100  0.71574600  1
  C  C3  1  0.89968100  0.40147300  0.71574600  1
  C  C4  1  0.10803700  0.60797200  0.98242700  1
  C  C5  1  0.60797200  0.10803700  0.98242700  1
  Ni  Ni6  1  0.17986100  0.17986100  0.01224600  1
  Ni  Ni7  1  0.67988200  0.67988200  0.01206000  1
  Ni  Ni8  1  0.00636900  0.00636900  0.62810600  1
  Ni  Ni9  1  0.31420000  0.31420000  0.35934500  1
  Cu  Cu10  1  0.50404000  0.50404000  0.63243900  1
  Cu  Cu11  1  0.81587300  0.81587300  0.35999500  1
  C  C12  1  0.58368500  0.08407700  0.66578500  1
  C  C13  1  0.08407700  0.58368500  0.66578500  1
  C  C14  1  0.41887600  0.91416100  0.33488300  1
  C  C15  1  0.91416100  0.41887600  0.33488300  1
  C  C16  1  0.99887400  0.99887400  0.00035600  1
  C  C17  1  0.50095100  0.50095100  0.99753500  1
  C  C18  1  0.46075400  0.46075400  0.19113400  1
  C  C19  1  0.95803500  0.95803500  0.19505100  1
  C  C20  1  0.03728700  0.54462600  0.55772100  1
  C  C21  1  0.54462600  0.03728700  0.55772100  1
  C  C22  1  0.09582500  0.09582500  0.88719400  1
  C  C23  1  0.59765500  0.59765500  0.88384700  1
  C  C24  1  0.67652300  0.18503300  0.58025900  1
  C  C25  1  0.18503300  0.67652300  0.58025900  1
  C  C26  1  0.02990200  0.52974200  0.85923100  1
  C  C27  1  0.52974200  0.02990200  0.85923100  1
  C  C28  1  0.37539200  0.87570100  0.22272900  1
  C  C29  1  0.87570100  0.37539200  0.22272900  1
  C  C30  1  0.44431400  0.44431400  0.91623100  1
  C  C31  1  0.94185700  0.94185700  0.92113900  1
  C  C32  1  0.51579000  0.01142000  0.25284600  1
  C  C33  1  0.01142000  0.51579000  0.25284600  1
  C  C34  1  0.36312400  0.85727600  0.52826600  1
  C  C35  1  0.85727600  0.36312400  0.52826600  1
