# generated using pymatgen
data_Cu4(NiC4)3
_symmetry_space_group_name_H-M   'P 1'
_cell_length_a   8.07877265
_cell_length_b   8.07877265
_cell_length_c   10.28508847
_cell_angle_alpha   66.67585577
_cell_angle_beta   66.67585577
_cell_angle_gamma   60.02420373
_symmetry_Int_Tables_number   1
_chemical_formula_structural   Cu4(NiC4)3
_chemical_formula_sum   'Cu8 Ni6 C24'
_cell_volume   517.13621953
_cell_formula_units_Z   2
loop_
 _symmetry_equiv_pos_site_id
 _symmetry_equiv_pos_as_xyz
  1  'x, y, z'
loop_
 _atom_site_type_symbol
 _atom_site_label
 _atom_site_symmetry_multiplicity
 _atom_site_fract_x
 _atom_site_fract_y
 _atom_site_fract_z
 _atom_site_occupancy
  C  C0  1  0.49685200  0.49685200  0.50912000  1
  C  C1  1  0.04631400  0.04631400  0.86061200  1
  C  C2  1  0.38650300  0.79699800  0.82373500  1
  C  C3  1  0.98835200  0.78778500  0.83243600  1
  C  C4  1  0.98684600  0.39200500  0.83649800  1
  C  C5  1  0.79699800  0.38650300  0.82373500  1
  C  C6  1  0.39200500  0.98684600  0.83649800  1
  C  C7  1  0.78778500  0.98835200  0.83243600  1
  C  C8  1  0.20382500  0.50472200  0.08814200  1
  C  C9  1  0.20450400  0.70495900  0.09689600  1
  C  C10  1  0.99321600  0.70376900  0.10001400  1
  C  C11  1  0.08888700  0.57575400  0.24947300  1
  C  C12  1  0.20357800  0.20357800  0.08730200  1
  C  C13  1  0.50472200  0.20382500  0.08814200  1
  C  C14  1  0.70495900  0.20450400  0.09689600  1
  C  C15  1  0.99264000  0.20313100  0.09957800  1
  C  C16  1  0.20313100  0.99264000  0.09957800  1
  C  C17  1  0.70376900  0.99321600  0.10001400  1
  C  C18  1  0.57575400  0.08888700  0.24947300  1
  C  C19  1  0.08697100  0.08697100  0.24934200  1
  Ni  Ni20  1  0.30529200  0.90853800  0.87539100  1
  Ni  Ni21  1  0.90978600  0.90978600  0.87370500  1
  Ni  Ni22  1  0.90853800  0.30529200  0.87539100  1
  Ni  Ni23  1  0.12005900  0.62393900  0.13738500  1
  Ni  Ni24  1  0.62393900  0.12005900  0.13738500  1
  Ni  Ni25  1  0.11890800  0.11890800  0.13730100  1
  C  C26  1  0.81589100  0.81589100  0.55250800  1
  C  C27  1  0.61836300  0.61836300  0.15266400  1
  C  C28  1  0.35872300  0.35872300  0.92217500  1
  C  C29  1  0.19005400  0.19005400  0.42962400  1
  Cu  Cu30  1  0.87012500  0.87012500  0.39099900  1
  Cu  Cu31  1  0.30757800  0.01164200  0.37337300  1
  Cu  Cu32  1  0.01164200  0.30757800  0.37337300  1
  Cu  Cu33  1  0.30759500  0.30759500  0.37312900  1
  Cu  Cu34  1  0.69949600  0.69949600  0.60512900  1
  Cu  Cu35  1  0.99544400  0.69969400  0.60485200  1
  Cu  Cu36  1  0.69969400  0.99544400  0.60485200  1
  Cu  Cu37  1  0.13744800  0.13744800  0.58684300  1
