# generated using pymatgen
data_Cu2Ni3C19
_symmetry_space_group_name_H-M   'P 1'
_cell_length_a   5.78734133
_cell_length_b   5.79427052
_cell_length_c   9.21241296
_cell_angle_alpha   89.20391750
_cell_angle_beta   89.41236019
_cell_angle_gamma   120.28776411
_symmetry_Int_Tables_number   1
_chemical_formula_structural   Cu2Ni3C19
_chemical_formula_sum   'Cu2 Ni3 C19'
_cell_volume   266.67757969
_cell_formula_units_Z   1
loop_
 _symmetry_equiv_pos_site_id
 _symmetry_equiv_pos_as_xyz
  1  'x, y, z'
loop_
 _atom_site_type_symbol
 _atom_site_label
 _atom_site_symmetry_multiplicity
 _atom_site_fract_x
 _atom_site_fract_y
 _atom_site_fract_z
 _atom_site_occupancy
  C  C0  1  0.15927600  0.82630500  0.20633000  1
  C  C1  1  0.16499900  0.33818000  0.22355300  1
  C  C2  1  0.32928500  0.16366500  0.71737100  1
  Ni  Ni3  1  0.65285300  0.82577100  0.21162600  1
  Ni  Ni4  1  0.82755000  0.65982700  0.71048600  1
  Ni  Ni5  1  0.83010200  0.17256500  0.71133700  1
  Cu  Cu6  1  0.34394400  0.67503800  0.49347400  1
  Cu  Cu7  1  0.67481100  0.32962100  0.98856600  1
  C  C8  1  0.16392800  0.84023000  0.60222300  1
  C  C9  1  0.03705200  0.52259800  0.34183400  1
  C  C10  1  0.32963600  0.65647700  0.10569200  1
  C  C11  1  0.98732100  0.99772700  0.30433700  1
  C  C12  1  0.98737100  0.98948400  0.80539800  1
  C  C13  1  0.16793900  0.33073700  0.60375900  1
  C  C14  1  0.48084100  0.96162600  0.33195200  1
  C  C15  1  0.48367200  0.52056400  0.33996500  1
  C  C16  1  0.33542300  0.16242700  0.10538600  1
  C  C17  1  0.68547300  0.84485500  0.60019500  1
  C  C18  1  0.52427200  0.48724200  0.83753200  1
  C  C19  1  0.51751300  0.03733000  0.83502700  1
  C  C20  1  0.67428600  0.34443700  0.61021300  1
  C  C21  1  0.83706000  0.66767900  0.10358500  1
  C  C22  1  0.96595800  0.48523600  0.82782400  1
  C  C23  1  0.83943600  0.16058000  0.09805700  1
