# generated using pymatgen
data_Cu5Ni2C15
_symmetry_space_group_name_H-M   'P 1'
_cell_length_a   5.14223900
_cell_length_b   5.26031035
_cell_length_c   29.81397721
_cell_angle_alpha   90.34680557
_cell_angle_beta   91.12112599
_cell_angle_gamma   118.25523859
_symmetry_Int_Tables_number   1
_chemical_formula_structural   Cu5Ni2C15
_chemical_formula_sum   'Cu15 Ni6 C45'
_cell_volume   710.12600585
_cell_formula_units_Z   3
loop_
 _symmetry_equiv_pos_site_id
 _symmetry_equiv_pos_as_xyz
  1  'x, y, z'
loop_
 _atom_site_type_symbol
 _atom_site_label
 _atom_site_symmetry_multiplicity
 _atom_site_fract_x
 _atom_site_fract_y
 _atom_site_fract_z
 _atom_site_occupancy
  C  C0  1  0.81427100  0.15862800  0.49562400  1
  C  C1  1  0.84375200  0.16896800  0.00249500  1
  C  C2  1  0.49847800  0.15382300  0.82869500  1
  C  C3  1  0.50374700  0.16675300  0.33646200  1
  C  C4  1  0.16826500  0.16293100  0.16281100  1
  C  C5  1  0.83330000  0.84168000  0.08378400  1
  C  C6  1  0.49113800  0.84262500  0.67111000  1
  C  C7  1  0.49828300  0.83596700  0.41681400  1
  C  C8  1  0.14896300  0.82833800  0.75117400  1
  Ni  Ni9  1  0.84875600  0.49430400  0.91860300  1
  Ni  Ni10  1  0.82067800  0.50692700  0.41487500  1
  Ni  Ni11  1  0.47156400  0.49140900  0.74781400  1
  Ni  Ni12  1  0.50842200  0.49383300  0.25156700  1
  Ni  Ni13  1  0.19468400  0.51556800  0.58505300  1
  Ni  Ni14  1  0.15718500  0.50614200  0.08175800  1
  Cu  Cu15  1  0.81393600  0.14861300  0.75195000  1
  Cu  Cu16  1  0.83130300  0.15891700  0.24884400  1
  Cu  Cu17  1  0.51570100  0.17505700  0.58233800  1
  Cu  Cu18  1  0.48340600  0.15029100  0.08398100  1
  Cu  Cu19  1  0.17231600  0.15814600  0.91491500  1
  Cu  Cu20  1  0.14504000  0.14957800  0.41818100  1
  Cu  Cu21  1  0.84361700  0.51700100  0.67015000  1
  Cu  Cu22  1  0.83177000  0.51677200  0.16366800  1
  Cu  Cu23  1  0.51531400  0.51696600  0.00352300  1
  Cu  Cu24  1  0.49410700  0.50864500  0.49713900  1
  Cu  Cu25  1  0.85771300  0.85236300  0.58158100  1
  Cu  Cu26  1  0.17965600  0.51400600  0.33687200  1
  Cu  Cu27  1  0.16060400  0.51278700  0.83053800  1
  Cu  Cu28  1  0.51605900  0.83305500  0.91559300  1
  Cu  Cu29  1  0.17566400  0.83545300  0.24920900  1
  C  C30  1  0.84992400  0.21258900  0.61889300  1
  C  C31  1  0.84351700  0.21410100  0.12192500  1
  C  C32  1  0.85992400  0.23223900  0.87387400  1
  C  C33  1  0.85065900  0.20113500  0.37952800  1
  C  C34  1  0.55248200  0.18087600  0.95126100  1
  C  C35  1  0.50580500  0.21507800  0.45588100  1
  C  C36  1  0.52326600  0.18758300  0.71357000  1
  C  C37  1  0.51386800  0.22744300  0.20824700  1
  C  C38  1  0.82570600  0.46480900  0.54648600  1
  C  C39  1  0.82910100  0.46284100  0.04471000  1
  C  C40  1  0.79227100  0.44597700  0.78697500  1
  C  C41  1  0.82060700  0.49752900  0.28819700  1
  C  C42  1  0.16906100  0.20783800  0.78876000  1
  C  C43  1  0.21258500  0.18613800  0.28572200  1
  C  C44  1  0.20947800  0.21204000  0.54555400  1
  C  C45  1  0.18882700  0.20167600  0.04588100  1
  C  C46  1  0.52051100  0.51709900  0.88138700  1
  C  C47  1  0.49947300  0.47017700  0.37800500  1
  C  C48  1  0.46108500  0.44647400  0.11988200  1
  C  C49  1  0.50553900  0.52760500  0.62222500  1
  C  C50  1  0.81788000  0.81435800  0.95283900  1
  C  C51  1  0.18036500  0.50626600  0.71120700  1
  C  C52  1  0.79611600  0.79629400  0.45655200  1
  C  C53  1  0.84979200  0.81663100  0.21204500  1
  C  C54  1  0.17920800  0.51724400  0.21439000  1
  C  C55  1  0.79143800  0.81288000  0.71689400  1
  C  C56  1  0.12081700  0.43953200  0.45420800  1
  C  C57  1  0.15888700  0.49494300  0.95513200  1
  C  C58  1  0.47739900  0.81555900  0.28637100  1
  C  C59  1  0.45700600  0.78912900  0.79093000  1
  C  C60  1  0.48467700  0.79466800  0.54167900  1
  C  C61  1  0.48369600  0.82116600  0.05024000  1
  C  C62  1  0.20665100  0.84153500  0.61818300  1
  C  C63  1  0.19029600  0.81422900  0.87845700  1
  C  C64  1  0.13943800  0.80473700  0.12189500  1
  C  C65  1  0.14994400  0.82114400  0.38423000  1
