# generated using pymatgen
data_Cu3Ni2C19
_symmetry_space_group_name_H-M   'P 1'
_cell_length_a   5.82359732
_cell_length_b   5.82359732
_cell_length_c   9.02069493
_cell_angle_alpha   89.94808890
_cell_angle_beta   89.94808890
_cell_angle_gamma   59.84658547
_symmetry_Int_Tables_number   1
_chemical_formula_structural   Cu3Ni2C19
_chemical_formula_sum   'Cu3 Ni2 C19'
_cell_volume   264.53284858
_cell_formula_units_Z   1
loop_
 _symmetry_equiv_pos_site_id
 _symmetry_equiv_pos_as_xyz
  1  'x, y, z'
loop_
 _atom_site_type_symbol
 _atom_site_label
 _atom_site_symmetry_multiplicity
 _atom_site_fract_x
 _atom_site_fract_y
 _atom_site_fract_z
 _atom_site_occupancy
  Ni  Ni0  1  0.32817400  0.32817400  0.49503500  1
  Ni  Ni1  1  0.66575200  0.66575200  0.99389500  1
  C  C2  1  0.16844100  0.16844100  0.21206000  1
  C  C3  1  0.33743200  0.82817200  0.71277900  1
  C  C4  1  0.82817200  0.33743200  0.71277900  1
  Cu  Cu5  1  0.16974500  0.66325300  0.20875900  1
  Cu  Cu6  1  0.66325300  0.16974500  0.20875900  1
  Cu  Cu7  1  0.83183600  0.83183600  0.71038700  1
  C  C8  1  0.16234300  0.66227000  0.60265200  1
  C  C9  1  0.47521400  0.47521400  0.33424800  1
  C  C10  1  0.32950700  0.32950700  0.10139600  1
  C  C11  1  0.00133600  0.00133600  0.31392300  1
  C  C12  1  0.00158600  0.00158600  0.81622500  1
  C  C13  1  0.66227000  0.16234300  0.60265200  1
  C  C14  1  0.04452900  0.47475400  0.33444700  1
  C  C15  1  0.47475400  0.04452900  0.33444700  1
  C  C16  1  0.82962900  0.82962900  0.10350600  1
  C  C17  1  0.16598300  0.16598300  0.60020000  1
  C  C18  1  0.52153400  0.95298900  0.83382200  1
  C  C19  1  0.95298900  0.52153400  0.83382200  1
  C  C20  1  0.66112300  0.66112300  0.60193900  1
  C  C21  1  0.33424900  0.82590200  0.10152200  1
  C  C22  1  0.51937100  0.51937100  0.83556100  1
  C  C23  1  0.82590200  0.33424900  0.10152200  1
