# generated using pymatgen
data_Cu2Ni3C23
_symmetry_space_group_name_H-M   'P 1'
_cell_length_a   5.92566229
_cell_length_b   5.92566229
_cell_length_c   9.70936203
_cell_angle_alpha   89.76380955
_cell_angle_beta   89.76380955
_cell_angle_gamma   60.91839060
_symmetry_Int_Tables_number   1
_chemical_formula_structural   Cu2Ni3C23
_chemical_formula_sum   'Cu2 Ni3 C23'
_cell_volume   297.94446073
_cell_formula_units_Z   1
loop_
 _symmetry_equiv_pos_site_id
 _symmetry_equiv_pos_as_xyz
  1  'x, y, z'
loop_
 _atom_site_type_symbol
 _atom_site_label
 _atom_site_symmetry_multiplicity
 _atom_site_fract_x
 _atom_site_fract_y
 _atom_site_fract_z
 _atom_site_occupancy
  C  C0  1  0.33058800  0.33058800  0.86466900  1
  C  C1  1  0.02398000  0.02398000  0.98883400  1
  C  C2  1  0.01607100  0.01607100  0.50729700  1
  C  C3  1  0.66705100  0.66705100  0.40422200  1
  Ni  Ni4  1  0.16716100  0.16716100  0.21672400  1
  Ni  Ni5  1  0.33743600  0.83009800  0.71512000  1
  Ni  Ni6  1  0.83009800  0.33743600  0.71512000  1
  Cu  Cu7  1  0.32950100  0.32950100  0.51102200  1
  Cu  Cu8  1  0.65555500  0.65555500  0.97450400  1
  C  C9  1  0.16616800  0.66158600  0.21556200  1
  C  C10  1  0.66158600  0.16616800  0.21556200  1
  C  C11  1  0.82990600  0.82990600  0.71498500  1
  C  C12  1  0.15852900  0.68638200  0.60164700  1
  C  C13  1  0.48625500  0.48625500  0.33502100  1
  C  C14  1  0.32645200  0.32645200  0.10327000  1
  C  C15  1  0.00403900  0.00403900  0.31956700  1
  C  C16  1  0.00463600  0.00463600  0.80972400  1
  C  C17  1  0.68638200  0.15852900  0.60164700  1
  C  C18  1  0.03127700  0.47736100  0.33080300  1
  C  C19  1  0.47736100  0.03127700  0.33080300  1
  C  C20  1  0.84203000  0.84203000  0.09958700  1
  C  C21  1  0.16155600  0.16155600  0.61257000  1
  C  C22  1  0.51120500  0.96170400  0.83496300  1
  C  C23  1  0.96170400  0.51120500  0.83496300  1
  C  C24  1  0.66037600  0.66037600  0.60896700  1
  C  C25  1  0.31435700  0.84317200  0.10746000  1
  C  C26  1  0.51496100  0.51496100  0.82577300  1
  C  C27  1  0.84317200  0.31435700  0.10746000  1
