# generated using pymatgen
data_CuNi3C20
_symmetry_space_group_name_H-M   'P 1'
_cell_length_a   5.77906700
_cell_length_b   4.76110700
_cell_length_c   9.92565437
_cell_angle_alpha   89.54253654
_cell_angle_beta   90.00000000
_cell_angle_gamma   90.00000000
_symmetry_Int_Tables_number   1
_chemical_formula_structural   CuNi3C20
_chemical_formula_sum   'Cu1 Ni3 C20'
_cell_volume   273.09325673
_cell_formula_units_Z   1
loop_
 _symmetry_equiv_pos_site_id
 _symmetry_equiv_pos_as_xyz
  1  'x, y, z'
loop_
 _atom_site_type_symbol
 _atom_site_label
 _atom_site_symmetry_multiplicity
 _atom_site_fract_x
 _atom_site_fract_y
 _atom_site_fract_z
 _atom_site_occupancy
  Ni  Ni0  1  0.00000000  0.47364400  0.77055200  1
  Ni  Ni1  1  0.50000000  0.52784300  0.22739000  1
  Ni  Ni2  1  0.50000000  0.97445500  0.72956700  1
  Cu  Cu3  1  0.00000000  0.05301200  0.27700700  1
  C  C4  1  0.50000000  0.07774500  0.40685600  1
  C  C5  1  0.50000000  0.41475700  0.90785700  1
  C  C6  1  0.00000000  0.58851100  0.09639000  1
  C  C7  1  0.00000000  0.91781400  0.59110000  1
  C  C8  1  0.50000000  0.16929300  0.55326800  1
  C  C9  1  0.29471200  0.22949800  0.32674400  1
  C  C10  1  0.70528800  0.22949800  0.32674400  1
  C  C11  1  0.00000000  0.23464800  0.60944400  1
  C  C12  1  0.00000000  0.26427100  0.11082600  1
  C  C13  1  0.29417800  0.26613100  0.82825000  1
  C  C14  1  0.70582200  0.26613100  0.82825000  1
  C  C15  1  0.50000000  0.32594700  0.05451600  1
  C  C16  1  0.00000000  0.66349300  0.94633000  1
  C  C17  1  0.79195400  0.73105500  0.17112000  1
  C  C18  1  0.20804600  0.73105500  0.17112000  1
  C  C19  1  0.50000000  0.73211100  0.89047100  1
  C  C20  1  0.50000000  0.76181900  0.39147100  1
  C  C21  1  0.79440900  0.76683600  0.67072800  1
  C  C22  1  0.20559100  0.76683600  0.67072800  1
  C  C23  1  0.00000000  0.83359900  0.44327200  1
