# generated using pymatgen
data_Cu3Ni3C22
_symmetry_space_group_name_H-M   'P 1'
_cell_length_a   5.95958600
_cell_length_b   6.06283570
_cell_length_c   10.28278905
_cell_angle_alpha   89.91868099
_cell_angle_beta   89.91273118
_cell_angle_gamma   61.04212117
_symmetry_Int_Tables_number   1
_chemical_formula_structural   Cu3Ni3C22
_chemical_formula_sum   'Cu3 Ni3 C22'
_cell_volume   325.08599665
_cell_formula_units_Z   1
loop_
 _symmetry_equiv_pos_site_id
 _symmetry_equiv_pos_as_xyz
  1  'x, y, z'
loop_
 _atom_site_type_symbol
 _atom_site_label
 _atom_site_symmetry_multiplicity
 _atom_site_fract_x
 _atom_site_fract_y
 _atom_site_fract_z
 _atom_site_occupancy
  C  C0  1  0.66467800  0.67107500  0.09531900  1
  C  C1  1  0.00189700  0.99523300  0.01434500  1
  C  C2  1  0.00488900  0.99753400  0.50439400  1
  C  C3  1  0.33303700  0.32932000  0.60281600  1
  Ni  Ni4  1  0.34085800  0.81609900  0.78062500  1
  Ni  Ni5  1  0.83496700  0.81934800  0.78047900  1
  Ni  Ni6  1  0.18446100  0.64447800  0.26895800  1
  Cu  Cu7  1  0.83005200  0.33665200  0.78859400  1
  Cu  Cu8  1  0.17426000  0.17230900  0.28303700  1
  Cu  Cu9  1  0.66056300  0.16461100  0.28394500  1
  C  C10  1  0.67415700  0.65946300  0.48982900  1
  C  C11  1  0.34502400  0.30649000  0.00412900  1
  C  C12  1  0.33709400  0.83700500  0.39398600  1
  C  C13  1  0.51113300  0.97541800  0.68195900  1
  C  C14  1  0.65986500  0.67717800  0.89056400  1
  C  C15  1  0.99521300  0.00718800  0.68935500  1
  C  C16  1  0.01857800  0.98224900  0.19792500  1
  C  C17  1  0.83999800  0.82854000  0.40010400  1
  C  C18  1  0.49557100  0.51872400  0.68613100  1
  C  C19  1  0.97763400  0.52171400  0.68261400  1
  C  C20  1  0.13812600  0.71689600  0.89021700  1
  C  C21  1  0.84890400  0.32588000  0.40242500  1
  C  C22  1  0.02407100  0.49317600  0.17062200  1
  C  C23  1  0.47737500  0.50159500  0.16762900  1
  C  C24  1  0.31246200  0.35764000  0.39070200  1
  C  C25  1  0.16224200  0.15370700  0.90449400  1
  C  C26  1  0.46982300  0.03939900  0.14141100  1
  C  C27  1  0.68276900  0.15107900  0.90555100  1
