# generated using pymatgen
data_Cu2NiC8
_symmetry_space_group_name_H-M   'P 1'
_cell_length_a   6.94245878
_cell_length_b   6.94245878
_cell_length_c   6.77961024
_cell_angle_alpha   68.83396074
_cell_angle_beta   68.83396074
_cell_angle_gamma   76.95172670
_symmetry_Int_Tables_number   1
_chemical_formula_structural   Cu2NiC8
_chemical_formula_sum   'Cu4 Ni2 C16'
_cell_volume   282.44593929
_cell_formula_units_Z   2
loop_
 _symmetry_equiv_pos_site_id
 _symmetry_equiv_pos_as_xyz
  1  'x, y, z'
loop_
 _atom_site_type_symbol
 _atom_site_label
 _atom_site_symmetry_multiplicity
 _atom_site_fract_x
 _atom_site_fract_y
 _atom_site_fract_z
 _atom_site_occupancy
  C  C0  1  0.21095500  0.78904500  0.00000000  1
  C  C1  1  0.78904500  0.21095500  0.00000000  1
  Ni  Ni2  1  0.30309400  0.69690600  0.50000000  1
  Ni  Ni3  1  0.69690600  0.30309400  0.50000000  1
  Cu  Cu4  1  0.22085400  0.22085400  0.47972200  1
  Cu  Cu5  1  0.77914600  0.77914600  0.52027800  1
  Cu  Cu6  1  0.69834600  0.69834600  0.07742100  1
  Cu  Cu7  1  0.30165400  0.30165400  0.92257900  1
  C  C8  1  0.43321600  0.79084800  0.17243300  1
  C  C9  1  0.20915200  0.56678400  0.82756700  1
  C  C10  1  0.56678400  0.20915200  0.82756700  1
  C  C11  1  0.79084800  0.43321600  0.17243300  1
  C  C12  1  0.36773600  0.36773600  0.53411900  1
  C  C13  1  0.63226400  0.63226400  0.46588100  1
  C  C14  1  0.31786300  0.31786300  0.18125100  1
  C  C15  1  0.68213700  0.68213700  0.81874900  1
  C  C16  1  0.13056900  0.13056900  0.96591200  1
  C  C17  1  0.86943100  0.86943100  0.03408800  1
  C  C18  1  0.27618100  0.94792400  0.59456400  1
  C  C19  1  0.05207600  0.72381900  0.40543600  1
  C  C20  1  0.72381900  0.05207600  0.40543600  1
  C  C21  1  0.94792400  0.27618100  0.59456400  1
