# generated using pymatgen
data_Cu5Ni8C43
_symmetry_space_group_name_H-M   'P 1'
_cell_length_a   8.35569200
_cell_length_b   8.42189610
_cell_length_c   8.43889897
_cell_angle_alpha   90.14080779
_cell_angle_beta   90.06528091
_cell_angle_gamma   90.02932856
_symmetry_Int_Tables_number   1
_chemical_formula_structural   Cu5Ni8C43
_chemical_formula_sum   'Cu5 Ni8 C43'
_cell_volume   593.84956041
_cell_formula_units_Z   1
loop_
 _symmetry_equiv_pos_site_id
 _symmetry_equiv_pos_as_xyz
  1  'x, y, z'
loop_
 _atom_site_type_symbol
 _atom_site_label
 _atom_site_symmetry_multiplicity
 _atom_site_fract_x
 _atom_site_fract_y
 _atom_site_fract_z
 _atom_site_occupancy
  C  C0  1  0.99761300  0.50696200  0.49469800  1
  C  C1  1  0.88381300  0.37290800  0.87532200  1
  C  C2  1  0.75796000  0.75135400  0.74963600  1
  C  C3  1  0.75007300  0.24940000  0.25269300  1
  C  C4  1  0.62519000  0.87501700  0.12434600  1
  C  C5  1  0.49882500  0.00272000  0.50055600  1
  C  C6  1  0.49449000  0.49920600  0.00038500  1
  C  C7  1  0.36640100  0.62403000  0.62053000  1
  C  C8  1  0.24852100  0.74299200  0.25233000  1
  C  C9  1  0.12474000  0.12937100  0.37750400  1
  C  C10  1  0.99917400  0.00282500  0.99835400  1
  Ni  Ni11  1  0.86586100  0.13219000  0.61849800  1
  Ni  Ni12  1  0.87897100  0.87938200  0.36471200  1
  Ni  Ni13  1  0.86574100  0.61921300  0.12280400  1
  Ni  Ni14  1  0.63915700  0.12850000  0.88502000  1
  Ni  Ni15  1  0.62942200  0.38852700  0.63629000  1
  Ni  Ni16  1  0.61981200  0.63466600  0.37727700  1
  Ni  Ni17  1  0.38311400  0.86587800  0.87234600  1
  Ni  Ni18  1  0.37383200  0.11560600  0.13743400  1
  Cu  Cu19  1  0.37680300  0.37622800  0.37326700  1
  Cu  Cu20  1  0.25291800  0.24584000  0.75163700  1
  Cu  Cu21  1  0.12390700  0.87199300  0.62628400  1
  Cu  Cu22  1  0.12326700  0.62735500  0.87483200  1
  Cu  Cu23  1  0.12794200  0.37260800  0.12666300  1
  C  C24  1  0.90516900  0.38806300  0.12797800  1
  C  C25  1  0.89675200  0.88683600  0.61495400  1
  C  C26  1  0.90137600  0.62194400  0.89272000  1
  C  C27  1  0.87411000  0.10330300  0.39203700  1
  C  C28  1  0.88841800  0.85456800  0.14591800  1
  C  C29  1  0.86079200  0.35632900  0.62071200  1
  C  C30  1  0.86124200  0.63439100  0.36053100  1
  C  C31  1  0.85637500  0.12520600  0.85900700  1
  C  C32  1  0.64548800  0.62004800  0.13753600  1
  C  C33  1  0.63982900  0.13477600  0.63754600  1
  C  C34  1  0.64088300  0.85478200  0.37631600  1
  C  C35  1  0.62139700  0.35940000  0.85536300  1
  C  C36  1  0.62677000  0.60748200  0.60906800  1
  C  C37  1  0.60520300  0.12707200  0.10515500  1
  C  C38  1  0.60529300  0.38459600  0.39003700  1
  C  C39  1  0.60259300  0.89179400  0.87203000  1
  C  C40  1  0.39194400  0.60058000  0.37445100  1
  C  C41  1  0.38085500  0.11631500  0.88246000  1
  C  C42  1  0.38327700  0.37092800  0.61596400  1
  C  C43  1  0.36289900  0.89718200  0.10597400  1
  C  C44  1  0.37430900  0.14852000  0.35708300  1
  C  C45  1  0.34975800  0.64357100  0.87428400  1
  C  C46  1  0.35517900  0.36303300  0.12981300  1
  C  C47  1  0.34695200  0.87746500  0.64073000  1
  C  C48  1  0.14685600  0.37789800  0.35152600  1
  C  C49  1  0.13233500  0.86774300  0.85495900  1
  C  C50  1  0.13797100  0.15305600  0.12252100  1
  C  C51  1  0.12273700  0.64859000  0.64422700  1
  C  C52  1  0.13058700  0.38489600  0.88862600  1
  C  C53  1  0.11331300  0.87138300  0.40601100  1
  C  C54  1  0.11969000  0.60234700  0.10905300  1
  C  C55  1  0.11210100  0.11114900  0.63201000  1
