# generated using pymatgen
data_CuNi3C8
_symmetry_space_group_name_H-M   'P 1'
_cell_length_a   5.79832005
_cell_length_b   5.79829119
_cell_length_c   9.04087032
_cell_angle_alpha   90.03049474
_cell_angle_beta   89.98474636
_cell_angle_gamma   119.99983867
_symmetry_Int_Tables_number   1
_chemical_formula_structural   CuNi3C8
_chemical_formula_sum   'Cu2 Ni6 C16'
_cell_volume   263.23505365
_cell_formula_units_Z   2
loop_
 _symmetry_equiv_pos_site_id
 _symmetry_equiv_pos_as_xyz
  1  'x, y, z'
loop_
 _atom_site_type_symbol
 _atom_site_label
 _atom_site_symmetry_multiplicity
 _atom_site_fract_x
 _atom_site_fract_y
 _atom_site_fract_z
 _atom_site_occupancy
  Ni  Ni0  1  0.16773700  0.83231600  0.21172800  1
  Ni  Ni1  1  0.16774500  0.33553600  0.21160300  1
  Ni  Ni2  1  0.66455100  0.83231400  0.21164300  1
  Ni  Ni3  1  0.33544900  0.16776300  0.71164300  1
  Ni  Ni4  1  0.83226300  0.66457800  0.71172800  1
  Ni  Ni5  1  0.83225500  0.16779000  0.71160300  1
  Cu  Cu6  1  0.33330000  0.66653200  0.49485900  1
  Cu  Cu7  1  0.66670000  0.33323200  0.99485900  1
  C  C8  1  0.16297500  0.83687800  0.60108500  1
  C  C9  1  0.04068200  0.52039800  0.33509700  1
  C  C10  1  0.33332100  0.66667000  0.10277100  1
  C  C11  1  0.00001700  0.00021800  0.31672600  1
  C  C12  1  0.99998300  0.00020100  0.81672600  1
  C  C13  1  0.16316300  0.32622000  0.60106300  1
  C  C14  1  0.47957600  0.95921700  0.33524300  1
  C  C15  1  0.47974700  0.52032700  0.33496700  1
  C  C16  1  0.32616700  0.16296400  0.10107500  1
  C  C17  1  0.67383300  0.83679700  0.60107500  1
  C  C18  1  0.52042400  0.47964200  0.83524300  1
  C  C19  1  0.52025300  0.04058100  0.83496700  1
  C  C20  1  0.66667900  0.33334800  0.60277100  1
  C  C21  1  0.83702500  0.67390300  0.10108500  1
  C  C22  1  0.95931800  0.47971700  0.83509700  1
  C  C23  1  0.83683700  0.16305700  0.10106300  1
