# generated using pymatgen
data_Cu6Ni5C2
_symmetry_space_group_name_H-M   'P 1'
_cell_length_a   8.09486700
_cell_length_b   8.29962224
_cell_length_c   10.31683297
_cell_angle_alpha   107.27004137
_cell_angle_beta   84.62393495
_cell_angle_gamma   112.26934585
_symmetry_Int_Tables_number   1
_chemical_formula_structural   Cu6Ni5C2
_chemical_formula_sum   'Cu12 Ni10 C4'
_cell_volume   612.37389169
_cell_formula_units_Z   2
loop_
 _symmetry_equiv_pos_site_id
 _symmetry_equiv_pos_as_xyz
  1  'x, y, z'
loop_
 _atom_site_type_symbol
 _atom_site_label
 _atom_site_symmetry_multiplicity
 _atom_site_fract_x
 _atom_site_fract_y
 _atom_site_fract_z
 _atom_site_occupancy
  C  C0  1  0.65266000  0.23410100  0.73779000  1
  C  C1  1  0.34734000  0.76589900  0.26221000  1
  C  C2  1  0.43122700  0.72249800  0.59754200  1
  C  C3  1  0.56877300  0.27750200  0.40245800  1
  Ni  Ni4  1  0.71343400  0.12181700  0.92092700  1
  Ni  Ni5  1  0.28656600  0.87818300  0.07907300  1
  Ni  Ni6  1  0.80784400  0.03598600  0.90200800  1
  Ni  Ni7  1  0.19215600  0.96401400  0.09799200  1
  Ni  Ni8  1  0.90000700  0.95074000  0.88205800  1
  Ni  Ni9  1  0.09999300  0.04926000  0.11794200  1
  Ni  Ni10  1  0.61003900  0.28966100  0.59551000  1
  Ni  Ni11  1  0.38996100  0.71033900  0.40449000  1
  Ni  Ni12  1  0.53833200  0.95707800  0.66246400  1
  Ni  Ni13  1  0.46166800  0.04292200  0.33753600  1
  Cu  Cu14  1  0.91472900  0.19110100  0.65799300  1
  Cu  Cu15  1  0.08527100  0.80889900  0.34200700  1
  Cu  Cu16  1  0.38427800  0.19926600  0.84877200  1
  Cu  Cu17  1  0.61572200  0.80073400  0.15122800  1
  Cu  Cu18  1  0.80445600  0.51479300  0.88522300  1
  Cu  Cu19  1  0.19554400  0.48520700  0.11477700  1
  Cu  Cu20  1  0.69815700  0.66521700  0.51440300  1
  Cu  Cu21  1  0.30184300  0.33478300  0.48559700  1
  Cu  Cu22  1  0.13905600  0.69479600  0.63365600  1
  Cu  Cu23  1  0.86094400  0.30520400  0.36634400  1
  Cu  Cu24  1  0.44514700  0.63665900  0.78922400  1
  Cu  Cu25  1  0.55485300  0.36334100  0.21077600  1
