# generated using pymatgen
data_Cu7Ni4C17
_symmetry_space_group_name_H-M   'P 1'
_cell_length_a   8.25586100
_cell_length_b   11.19050400
_cell_length_c   13.55317900
_cell_angle_alpha   90.00000000
_cell_angle_beta   90.00000000
_cell_angle_gamma   90.00000000
_symmetry_Int_Tables_number   1
_chemical_formula_structural   Cu7Ni4C17
_chemical_formula_sum   'Cu14 Ni8 C34'
_cell_volume   1252.14087617
_cell_formula_units_Z   2
loop_
 _symmetry_equiv_pos_site_id
 _symmetry_equiv_pos_as_xyz
  1  'x, y, z'
loop_
 _atom_site_type_symbol
 _atom_site_label
 _atom_site_symmetry_multiplicity
 _atom_site_fract_x
 _atom_site_fract_y
 _atom_site_fract_z
 _atom_site_occupancy
  C  C0  1  0.40157600  0.50000000  0.50000000  1
  C  C1  1  0.59842400  0.00000000  0.00000000  1
  C  C2  1  0.07118100  0.07488000  0.53069800  1
  C  C3  1  0.07118100  0.92512000  0.46930200  1
  C  C4  1  0.92881900  0.57488000  0.96930200  1
  C  C5  1  0.92881900  0.42512000  0.03069800  1
  C  C6  1  0.15389800  0.32778400  0.55866600  1
  C  C7  1  0.15389800  0.67221600  0.44133400  1
  C  C8  1  0.84610200  0.82778400  0.94133400  1
  C  C9  1  0.84610200  0.17221600  0.05866600  1
  C  C10  1  0.45895300  0.16155200  0.84287400  1
  C  C11  1  0.45895300  0.83844800  0.15712600  1
  C  C12  1  0.54104700  0.66155200  0.65712600  1
  C  C13  1  0.54104700  0.33844800  0.34287400  1
  C  C14  1  0.52921500  0.36136900  0.73642400  1
  C  C15  1  0.52921500  0.63863100  0.26357600  1
  C  C16  1  0.47078500  0.86136900  0.76357600  1
  C  C17  1  0.47078500  0.13863100  0.23642400  1
  C  C18  1  0.00841200  0.26647400  0.69105600  1
  C  C19  1  0.00841200  0.73352600  0.30894400  1
  C  C20  1  0.99158800  0.76647400  0.80894400  1
  C  C21  1  0.99158800  0.23352600  0.19105600  1
  C  C22  1  0.89327000  0.31089300  0.61010200  1
  C  C23  1  0.89327000  0.68910700  0.38989800  1
  C  C24  1  0.10673000  0.81089300  0.88989800  1
  C  C25  1  0.10673000  0.18910700  0.11010200  1
  C  C26  1  0.45001700  0.44750100  0.88019300  1
  C  C27  1  0.45001700  0.55249900  0.11980700  1
  C  C28  1  0.54998300  0.94750100  0.61980700  1
  C  C29  1  0.54998300  0.05249900  0.38019300  1
  C  C30  1  0.63426000  0.44290500  0.87787200  1
  C  C31  1  0.63426000  0.55709500  0.12212800  1
  C  C32  1  0.36574000  0.94290500  0.62212800  1
  C  C33  1  0.36574000  0.05709500  0.37787200  1
  Ni  Ni34  1  0.05448000  0.30874200  0.60310200  1
  Ni  Ni35  1  0.05448000  0.69125800  0.39689800  1
  Ni  Ni36  1  0.94552000  0.80874200  0.89689800  1
  Ni  Ni37  1  0.94552000  0.19125800  0.10310200  1
  Ni  Ni38  1  0.53800700  0.40252200  0.80590700  1
  Ni  Ni39  1  0.53800700  0.59747800  0.19409300  1
  Ni  Ni40  1  0.46199300  0.90252200  0.69409300  1
  Ni  Ni41  1  0.46199300  0.09747800  0.30590700  1
  Cu  Cu42  1  0.66623800  0.60109200  0.62887700  1
  Cu  Cu43  1  0.66623800  0.39890800  0.37112300  1
  Cu  Cu44  1  0.33376200  0.10109200  0.87112300  1
  Cu  Cu45  1  0.33376200  0.89890800  0.12887700  1
  Cu  Cu46  1  0.45548000  0.31143300  0.58567700  1
  Cu  Cu47  1  0.45548000  0.68856700  0.41432300  1
  Cu  Cu48  1  0.54452000  0.81143300  0.91432300  1
  Cu  Cu49  1  0.54452000  0.18856700  0.08567700  1
  Cu  Cu50  1  0.22868600  0.59692100  0.62136800  1
  Cu  Cu51  1  0.22868600  0.40307900  0.37863200  1
  Cu  Cu52  1  0.77131400  0.09692100  0.87863200  1
  Cu  Cu53  1  0.77131400  0.90307900  0.12136800  1
  Cu  Cu54  1  0.95735100  0.00000000  0.50000000  1
  Cu  Cu55  1  0.04264900  0.50000000  0.00000000  1
