# generated using pymatgen
data_CuNi9C8
_symmetry_space_group_name_H-M   'P 1'
_cell_length_a   7.09652600
_cell_length_b   8.06451440
_cell_length_c   8.94891545
_cell_angle_alpha   63.32928373
_cell_angle_beta   85.04218784
_cell_angle_gamma   79.01402545
_symmetry_Int_Tables_number   1
_chemical_formula_structural   CuNi9C8
_chemical_formula_sum   'Cu2 Ni18 C16'
_cell_volume   449.26753674
_cell_formula_units_Z   2
loop_
 _symmetry_equiv_pos_site_id
 _symmetry_equiv_pos_as_xyz
  1  'x, y, z'
loop_
 _atom_site_type_symbol
 _atom_site_label
 _atom_site_symmetry_multiplicity
 _atom_site_fract_x
 _atom_site_fract_y
 _atom_site_fract_z
 _atom_site_occupancy
  C  C0  1  0.51683100  0.40707600  0.34447900  1
  C  C1  1  0.68014000  0.05513300  0.77094900  1
  C  C2  1  0.18322300  0.04684000  0.78387600  1
  C  C3  1  0.01834200  0.75223700  0.65260700  1
  C  C4  1  0.68110300  0.83161200  0.21830700  1
  C  C5  1  0.18114400  0.82844000  0.22892200  1
  C  C6  1  0.03017200  0.36865700  0.38105500  1
  C  C7  1  0.84503800  0.29775700  0.02017700  1
  C  C8  1  0.34673300  0.32058000  0.97639900  1
  C  C9  1  0.53493400  0.74906000  0.62229200  1
  C  C10  1  0.99476500  0.67477700  0.00643900  1
  C  C11  1  0.80450900  0.05317900  0.39038100  1
  C  C12  1  0.30798600  0.05977500  0.38808500  1
  C  C13  1  0.49659900  0.67884500  0.98728700  1
  C  C14  1  0.79906500  0.44910200  0.61714700  1
  C  C15  1  0.31327900  0.45136500  0.60994300  1
  Ni  Ni16  1  0.97406000  0.66790000  0.15514500  1
  Ni  Ni17  1  0.46671500  0.71665100  0.11327900  1
  Ni  Ni18  1  0.22864300  0.52408300  0.46609100  1
  Ni  Ni19  1  0.90080800  0.28451100  0.65428500  1
  Ni  Ni20  1  0.38878000  0.27612800  0.68311200  1
  Ni  Ni21  1  0.54562400  0.50402200  0.01079700  1
  Ni  Ni22  1  0.80308700  0.23653800  0.31286900  1
  Ni  Ni23  1  0.96819100  0.83218400  0.87462000  1
  Ni  Ni24  1  0.30498300  0.23247100  0.27297300  1
  Ni  Ni25  1  0.71971700  0.98106100  0.53470500  1
  Ni  Ni26  1  0.20451800  0.03082800  0.52152700  1
  Ni  Ni27  1  0.47772800  0.81387700  0.83417000  1
  Ni  Ni28  1  0.89069600  0.95141900  0.32003700  1
  Ni  Ni29  1  0.41276700  0.91942700  0.36923900  1
  Ni  Ni30  1  0.04359600  0.51512300  0.99406400  1
  Ni  Ni31  1  0.78590000  0.52280600  0.72274400  1
  Ni  Ni32  1  0.31991700  0.55785900  0.68629700  1
  Ni  Ni33  1  0.71022600  0.54485800  0.47507900  1
  Cu  Cu34  1  0.13616500  0.13136700  0.00203500  1
  Cu  Cu35  1  0.63524000  0.13201000  0.99858500  1
