# generated using pymatgen
data_Cu4NiC11
_symmetry_space_group_name_H-M   'P 1'
_cell_length_a   9.90325100
_cell_length_b   9.95871516
_cell_length_c   11.45079004
_cell_angle_alpha   111.19290412
_cell_angle_beta   109.64894416
_cell_angle_gamma   87.99184339
_symmetry_Int_Tables_number   1
_chemical_formula_structural   Cu4NiC11
_chemical_formula_sum   'Cu16 Ni4 C44'
_cell_volume   986.80385928
_cell_formula_units_Z   4
loop_
 _symmetry_equiv_pos_site_id
 _symmetry_equiv_pos_as_xyz
  1  'x, y, z'
loop_
 _atom_site_type_symbol
 _atom_site_label
 _atom_site_symmetry_multiplicity
 _atom_site_fract_x
 _atom_site_fract_y
 _atom_site_fract_z
 _atom_site_occupancy
  Ni  Ni0  1  0.75779400  0.77867200  0.02010000  1
  Ni  Ni1  1  0.27053500  0.73150200  0.49888000  1
  Ni  Ni2  1  0.72946500  0.26849800  0.50112000  1
  Ni  Ni3  1  0.24220600  0.22132800  0.97990000  1
  Cu  Cu4  1  0.92196500  0.57383600  0.22532200  1
  Cu  Cu5  1  0.76192700  0.90772700  0.56298600  1
  Cu  Cu6  1  0.91693400  0.24972800  0.07238000  1
  Cu  Cu7  1  0.40189000  0.77090200  0.09323600  1
  Cu  Cu8  1  0.74150300  0.58703400  0.39011500  1
  Cu  Cu9  1  0.61251700  0.92121600  0.76188500  1
  Cu  Cu10  1  0.92934900  0.12453900  0.28661100  1
  Cu  Cu11  1  0.43306100  0.57409800  0.25164000  1
  Cu  Cu12  1  0.56693900  0.42590200  0.74836000  1
  Cu  Cu13  1  0.07065100  0.87546100  0.71338900  1
  Cu  Cu14  1  0.38748300  0.07878400  0.23811500  1
  Cu  Cu15  1  0.25849700  0.41296600  0.60988500  1
  Cu  Cu16  1  0.59811000  0.22909800  0.90676400  1
  Cu  Cu17  1  0.08306600  0.75027200  0.92762000  1
  Cu  Cu18  1  0.23807300  0.09227300  0.43701400  1
  Cu  Cu19  1  0.07803500  0.42616400  0.77467800  1
  C  C20  1  0.02611600  0.81360400  0.03687600  1
  C  C21  1  0.81153400  0.00400100  0.21173200  1
  C  C22  1  0.92148500  0.94826000  0.66466100  1
  C  C23  1  0.79327300  0.60624100  0.12953500  1
  C  C24  1  0.96990000  0.41582800  0.15184400  1
  C  C25  1  0.52181300  0.77247100  0.04471000  1
  C  C26  1  0.76226700  0.76090300  0.44435700  1
  C  C27  1  0.40447900  0.90651900  0.22041000  1
  C  C28  1  0.86704600  0.53764900  0.33311700  1
  C  C29  1  0.66997900  0.86669200  0.63525300  1
  C  C30  1  0.96652400  0.18046600  0.18129000  1
  C  C31  1  0.74484900  0.24063700  0.02723500  1
  C  C32  1  0.73121200  0.92357600  0.88511600  1
  C  C33  1  0.60077600  0.54338600  0.25977500  1
  C  C34  1  0.38325800  0.63745200  0.13012000  1
  C  C35  1  0.28993100  0.97824700  0.49010200  1
  C  C36  1  0.74055000  0.52851600  0.49095000  1
  C  C37  1  0.92135200  0.25208500  0.40216100  1
  C  C38  1  0.44035300  0.69308700  0.37951700  1
  C  C39  1  0.46978200  0.83987700  0.71504100  1
  C  C40  1  0.94275700  0.32661200  0.70316900  1
  C  C41  1  0.65580600  0.56573700  0.80116600  1
  C  C42  1  0.34419400  0.43426300  0.19883400  1
  C  C43  1  0.05724300  0.67338800  0.29683100  1
  C  C44  1  0.53021800  0.16012300  0.28495900  1
  C  C45  1  0.55964700  0.30691300  0.62048300  1
  C  C46  1  0.07864800  0.74791500  0.59783900  1
  C  C47  1  0.25945000  0.47148400  0.50905000  1
  C  C48  1  0.71006900  0.02175300  0.50989800  1
  C  C49  1  0.61674200  0.36254800  0.86988000  1
  C  C50  1  0.39922400  0.45661400  0.74022500  1
  C  C51  1  0.26878800  0.07642400  0.11488400  1
  C  C52  1  0.25515100  0.75936300  0.97276500  1
  C  C53  1  0.03347600  0.81953400  0.81871000  1
  C  C54  1  0.33002100  0.13330800  0.36474700  1
  C  C55  1  0.13295400  0.46235100  0.66688300  1
  C  C56  1  0.59552100  0.09348100  0.77959000  1
  C  C57  1  0.23773300  0.23909700  0.55564300  1
  C  C58  1  0.47818700  0.22752900  0.95529000  1
  C  C59  1  0.03010000  0.58417200  0.84815600  1
  C  C60  1  0.20672700  0.39375900  0.87046500  1
  C  C61  1  0.07851500  0.05174000  0.33533900  1
  C  C62  1  0.18846600  0.99599900  0.78826800  1
  C  C63  1  0.97388400  0.18639600  0.96312400  1
