# generated using pymatgen
data_Cu2Ni5C16
_symmetry_space_group_name_H-M   'P 1'
_cell_length_a   9.21855800
_cell_length_b   5.15396200
_cell_length_c   10.04089034
_cell_angle_alpha   77.34489350
_cell_angle_beta   90.00000000
_cell_angle_gamma   90.00000000
_symmetry_Int_Tables_number   1
_chemical_formula_structural   Cu2Ni5C16
_chemical_formula_sum   'Cu4 Ni10 C32'
_cell_volume   465.47421499
_cell_formula_units_Z   2
loop_
 _symmetry_equiv_pos_site_id
 _symmetry_equiv_pos_as_xyz
  1  'x, y, z'
loop_
 _atom_site_type_symbol
 _atom_site_label
 _atom_site_symmetry_multiplicity
 _atom_site_fract_x
 _atom_site_fract_y
 _atom_site_fract_z
 _atom_site_occupancy
  C  C0  1  0.91413700  0.00311200  0.73833600  1
  C  C1  1  0.93102900  0.49544100  0.25810500  1
  C  C2  1  0.58038700  0.76118800  0.50732000  1
  C  C3  1  0.58068100  0.50443700  0.26381700  1
  C  C4  1  0.41413700  0.99688800  0.26166400  1
  C  C5  1  0.43102900  0.50455900  0.74189500  1
  C  C6  1  0.08038700  0.23881200  0.49268000  1
  C  C7  1  0.08068100  0.49556300  0.73618300  1
  Ni  Ni8  1  0.91573400  0.25757400  0.99310400  1
  Ni  Ni9  1  0.92343000  0.74565600  0.48979400  1
  Ni  Ni10  1  0.74672400  0.00014500  0.25852600  1
  Ni  Ni11  1  0.58029400  0.24055900  0.00949200  1
  Ni  Ni12  1  0.74813800  0.51272900  0.74286000  1
  Ni  Ni13  1  0.42343000  0.25434400  0.51020600  1
  Ni  Ni14  1  0.41573400  0.74242600  0.00689600  1
  Ni  Ni15  1  0.24672400  0.99985500  0.74147400  1
  Ni  Ni16  1  0.24813800  0.48727100  0.25714000  1
  Ni  Ni17  1  0.08029400  0.75944100  0.99050800  1
  Cu  Cu18  1  0.74497900  0.23470700  0.51519100  1
  Cu  Cu19  1  0.74536500  0.75552600  0.99470300  1
  Cu  Cu20  1  0.24536500  0.24447400  0.00529700  1
  Cu  Cu21  1  0.24497900  0.76529300  0.48480900  1
  C  C22  1  0.88756600  0.11431500  0.37930400  1
  C  C23  1  0.92139900  0.88166800  0.09444400  1
  C  C24  1  0.76472200  0.16120300  0.87815100  1
  C  C25  1  0.76011900  0.86928300  0.62510400  1
  C  C26  1  0.90395200  0.60875400  0.86788200  1
  C  C27  1  0.91235100  0.38283200  0.60647300  1
  C  C28  1  0.58110900  0.14839100  0.39946800  1
  C  C29  1  0.76966700  0.64336500  0.37235700  1
  C  C30  1  0.59569300  0.89185200  0.13686600  1
  C  C31  1  0.73456700  0.34770800  0.12736200  1
  C  C32  1  0.56985900  0.60488200  0.90157800  1
  C  C33  1  0.42139900  0.11833200  0.90555600  1
  C  C34  1  0.60246300  0.39821400  0.62590100  1
  C  C35  1  0.38756600  0.88568500  0.62069600  1
  C  C36  1  0.26011900  0.13071700  0.37489600  1
  C  C37  1  0.41235100  0.61716800  0.39352700  1
  C  C38  1  0.26472200  0.83879700  0.12184900  1
  C  C39  1  0.40395200  0.39124600  0.13211800  1
  C  C40  1  0.09569300  0.10814800  0.86313400  1
  C  C41  1  0.23456700  0.65229200  0.87263800  1
  C  C42  1  0.26966700  0.35663500  0.62764300  1
  C  C43  1  0.08110900  0.85160900  0.60053200  1
  C  C44  1  0.10246300  0.60178600  0.37409900  1
  C  C45  1  0.06985900  0.39511800  0.09842200  1
