# generated using pymatgen
data_Cu2Ni4C9
_symmetry_space_group_name_H-M   'P 1'
_cell_length_a   6.12729375
_cell_length_b   8.41440431
_cell_length_c   11.16292268
_cell_angle_alpha   90.22913591
_cell_angle_beta   90.59018657
_cell_angle_gamma   80.69802864
_symmetry_Int_Tables_number   1
_chemical_formula_structural   Cu2Ni4C9
_chemical_formula_sum   'Cu8 Ni16 C36'
_cell_volume   567.93280104
_cell_formula_units_Z   4
loop_
 _symmetry_equiv_pos_site_id
 _symmetry_equiv_pos_as_xyz
  1  'x, y, z'
loop_
 _atom_site_type_symbol
 _atom_site_label
 _atom_site_symmetry_multiplicity
 _atom_site_fract_x
 _atom_site_fract_y
 _atom_site_fract_z
 _atom_site_occupancy
  C  C0  1  0.23477500  0.11649400  0.17729100  1
  C  C1  1  0.23483000  0.11646400  0.67734600  1
  C  C2  1  0.73488400  0.61649900  0.42733500  1
  C  C3  1  0.73483900  0.61648600  0.92731400  1
  C  C4  1  0.76520500  0.88350200  0.32269300  1
  C  C5  1  0.76511600  0.88347600  0.82267400  1
  C  C6  1  0.26521600  0.38351000  0.57268600  1
  C  C7  1  0.26519200  0.38353700  0.07268700  1
  C  C8  1  0.59329900  0.04915000  0.08074600  1
  C  C9  1  0.59339400  0.04911200  0.58073800  1
  C  C10  1  0.09347300  0.54913500  0.33076500  1
  C  C11  1  0.09345800  0.54910700  0.83075000  1
  C  C12  1  0.40657100  0.95088100  0.41923900  1
  C  C13  1  0.40646700  0.95087200  0.91925100  1
  C  C14  1  0.90661500  0.45086500  0.66926100  1
  C  C15  1  0.90664300  0.45086800  0.16926400  1
  C  C16  1  0.43146200  0.20497600  0.34826700  1
  C  C17  1  0.43141000  0.20493100  0.84829900  1
  C  C18  1  0.93145800  0.70494600  0.59827600  1
  C  C19  1  0.93140900  0.70489400  0.09828300  1
  C  C20  1  0.56861500  0.79510700  0.15171900  1
  C  C21  1  0.56856700  0.79505600  0.65170700  1
  C  C22  1  0.06860000  0.29509300  0.40170600  1
  C  C23  1  0.06855100  0.29501000  0.90173700  1
  C  C24  1  0.15449000  0.86208800  0.22208200  1
  C  C25  1  0.15446700  0.86210200  0.72206600  1
  C  C26  1  0.65451200  0.36216900  0.47208200  1
  C  C27  1  0.65451800  0.36213200  0.97211300  1
  C  C28  1  0.84548000  0.13790300  0.27789400  1
  C  C29  1  0.84548400  0.13779500  0.77790400  1
  C  C30  1  0.34552000  0.63786200  0.52791700  1
  C  C31  1  0.34552000  0.63793500  0.02790500  1
  C  C32  1  0.00015100  0.00009400  0.49999700  1
  C  C33  1  0.49994000  0.49997100  0.74998400  1
  C  C34  1  0.99989400  0.99980700  0.00001600  1
  C  C35  1  0.50003100  0.50019500  0.24997300  1
  Ni  Ni36  1  0.32019000  0.92586100  0.08167100  1
  Ni  Ni37  1  0.32023700  0.92591400  0.58165500  1
  Ni  Ni38  1  0.82027600  0.42592600  0.33166500  1
  Ni  Ni39  1  0.82027000  0.42589900  0.83168400  1
  Ni  Ni40  1  0.67974700  0.07411100  0.41832200  1
  Ni  Ni41  1  0.67968200  0.07404900  0.91833000  1
  Ni  Ni42  1  0.17977700  0.57407400  0.66834000  1
  Ni  Ni43  1  0.17977300  0.57416000  0.16833500  1
  Ni  Ni44  1  0.16109000  0.08033700  0.33751800  1
  Ni  Ni45  1  0.16103300  0.08028700  0.83754200  1
  Ni  Ni46  1  0.66112000  0.58029000  0.58753500  1
  Ni  Ni47  1  0.66114500  0.58034300  0.08753900  1
  Ni  Ni48  1  0.83884200  0.91966500  0.16246600  1
  Ni  Ni49  1  0.83888000  0.91969300  0.66245900  1
  Ni  Ni50  1  0.33893600  0.41970800  0.41247100  1
  Ni  Ni51  1  0.33892600  0.41968500  0.91247900  1
  Cu  Cu52  1  0.47829500  0.23839300  0.17148500  1
  Cu  Cu53  1  0.47829600  0.23837800  0.67151400  1
  Cu  Cu54  1  0.97833100  0.73838500  0.42148600  1
  Cu  Cu55  1  0.97829800  0.73837700  0.92149600  1
  Cu  Cu56  1  0.52172700  0.76161100  0.32850100  1
  Cu  Cu57  1  0.52166200  0.76160200  0.82852300  1
  Cu  Cu58  1  0.02173000  0.26159600  0.57850200  1
  Cu  Cu59  1  0.02168300  0.26162600  0.07851200  1
