# generated using pymatgen
data_Cu2Ni2C9
_symmetry_space_group_name_H-M   'P 1'
_cell_length_a   7.78221800
_cell_length_b   9.05047458
_cell_length_c   7.25687368
_cell_angle_alpha   105.86141341
_cell_angle_beta   100.33665824
_cell_angle_gamma   111.55928273
_symmetry_Int_Tables_number   1
_chemical_formula_structural   Cu2Ni2C9
_chemical_formula_sum   'Cu4 Ni4 C18'
_cell_volume   434.31335206
_cell_formula_units_Z   2
loop_
 _symmetry_equiv_pos_site_id
 _symmetry_equiv_pos_as_xyz
  1  'x, y, z'
loop_
 _atom_site_type_symbol
 _atom_site_label
 _atom_site_symmetry_multiplicity
 _atom_site_fract_x
 _atom_site_fract_y
 _atom_site_fract_z
 _atom_site_occupancy
  C  C0  1  0.21625000  0.09742300  0.82401300  1
  C  C1  1  0.78375000  0.90257700  0.17598700  1
  C  C2  1  0.69852500  0.45840900  0.22085200  1
  C  C3  1  0.30147500  0.54159100  0.77914800  1
  Ni  Ni4  1  0.64391400  0.31613200  0.68154800  1
  Ni  Ni5  1  0.35608600  0.68386800  0.31845200  1
  Ni  Ni6  1  0.24798900  0.08818600  0.32964300  1
  Ni  Ni7  1  0.75201100  0.91181400  0.67035700  1
  Cu  Cu8  1  0.15184600  0.78185300  0.37545600  1
  Cu  Cu9  1  0.84815400  0.21814700  0.62454400  1
  Cu  Cu10  1  0.67316600  0.09935300  0.86346600  1
  Cu  Cu11  1  0.32683400  0.90064700  0.13653400  1
  C  C12  1  0.71412100  0.60495400  0.93706400  1
  C  C13  1  0.28587900  0.39504600  0.06293600  1
  C  C14  1  0.40379200  0.76136500  0.16370000  1
  C  C15  1  0.59620800  0.23863500  0.83630000  1
  C  C16  1  0.84933000  0.34293700  0.65892600  1
  C  C17  1  0.15067000  0.65706300  0.34107400  1
  C  C18  1  0.50030200  0.20382400  0.46050100  1
  C  C19  1  0.49969800  0.79617600  0.53949900  1
  C  C20  1  0.17197400  0.95160700  0.42504600  1
  C  C21  1  0.82802600  0.04839300  0.57495400  1
  C  C22  1  0.28070500  0.99005200  0.12287300  1
  C  C23  1  0.71929500  0.00994800  0.87712700  1
  C  C24  1  0.62507200  0.49113100  0.71871800  1
  C  C25  1  0.37492800  0.50886900  0.28128200  1
