# generated using pymatgen
data_Cu10NiC6
_symmetry_space_group_name_H-M   'P 1'
_cell_length_a   7.62691100
_cell_length_b   7.63384137
_cell_length_c   31.52433241
_cell_angle_alpha   94.68461168
_cell_angle_beta   94.51583840
_cell_angle_gamma   109.56858810
_symmetry_Int_Tables_number   1
_chemical_formula_structural   Cu10NiC6
_chemical_formula_sum   'Cu40 Ni4 C24'
_cell_volume   1712.60597403
_cell_formula_units_Z   4
loop_
 _symmetry_equiv_pos_site_id
 _symmetry_equiv_pos_as_xyz
  1  'x, y, z'
loop_
 _atom_site_type_symbol
 _atom_site_label
 _atom_site_symmetry_multiplicity
 _atom_site_fract_x
 _atom_site_fract_y
 _atom_site_fract_z
 _atom_site_occupancy
  C  C0  1  0.15376100  0.77912200  0.02212900  1
  C  C1  1  0.34728400  0.98202100  0.22497100  1
  C  C2  1  0.87144500  0.24325000  0.12586900  1
  C  C3  1  0.45695500  0.32935200  0.07422700  1
  C  C4  1  0.54076100  0.18102100  0.43063600  1
  C  C5  1  0.06889900  0.44002200  0.32705700  1
  C  C6  1  0.65495000  0.52701200  0.27537800  1
  C  C7  1  0.02509600  0.77324500  0.14993400  1
  C  C8  1  0.74489200  0.36560400  0.62569800  1
  C  C9  1  0.28027900  0.63944600  0.52790900  1
  C  C10  1  0.84518600  0.72195300  0.47621500  1
  C  C11  1  0.61869300  0.74413700  0.37623800  1
  C  C12  1  0.22298300  0.97184800  0.35115700  1
  C  C13  1  0.94901300  0.57697100  0.82590300  1
  C  C14  1  0.47020400  0.84322800  0.72470100  1
  C  C15  1  0.06277900  0.92952700  0.67085200  1
  C  C16  1  0.82481300  0.96883500  0.57268100  1
  C  C17  1  0.67557000  0.05637900  0.92164200  1
  C  C18  1  0.61653300  0.37180900  0.75284200  1
  C  C19  1  0.03142200  0.14542400  0.77900400  1
  C  C20  1  0.27249100  0.52856200  0.64906800  1
  C  C21  1  0.23027300  0.35339200  0.96955900  1
  C  C22  1  0.83408900  0.59167300  0.94659400  1
  C  C23  1  0.47255600  0.71929600  0.85120000  1
  Ni  Ni24  1  0.42636200  0.55215700  0.17293300  1
  Ni  Ni25  1  0.68052500  0.92278700  0.04813400  1
  Ni  Ni26  1  0.88038100  0.12765400  0.24948900  1
  Ni  Ni27  1  0.07236500  0.31613700  0.45383700  1
  Cu  Cu28  1  0.22789600  0.59386000  0.09827600  1
  Cu  Cu29  1  0.94239100  0.79026900  0.30286600  1
  Cu  Cu30  1  0.89463200  0.39413300  0.02568800  1
  Cu  Cu31  1  0.16797100  0.16040200  0.16797100  1
  Cu  Cu32  1  0.70034200  0.84258500  0.20026400  1
  Cu  Cu33  1  0.13619600  0.97940500  0.50267800  1
  Cu  Cu34  1  0.08199100  0.07490600  0.07225900  1
  Cu  Cu35  1  0.64263100  0.98687200  0.49997100  1
  Cu  Cu36  1  0.37781200  0.37255200  0.36895700  1
  Cu  Cu37  1  0.48054800  0.99576000  0.13030100  1
  Cu  Cu38  1  0.89862000  0.03438500  0.39809000  1
  Cu  Cu39  1  0.76065600  0.59152700  0.09888100  1
  Cu  Cu40  1  0.27888300  0.26878600  0.27433400  1
  Cu  Cu41  1  0.08061700  0.59948400  0.23016600  1
  Cu  Cu42  1  0.29450600  0.80588700  0.42702200  1
  Cu  Cu43  1  0.70176600  0.34662400  0.19914200  1
  Cu  Cu44  1  0.67924800  0.18778800  0.33069900  1
  Cu  Cu45  1  0.57742900  0.58437600  0.57423000  1
  Cu  Cu46  1  0.09490300  0.24653400  0.60161200  1
  Cu  Cu47  1  0.47816000  0.48128300  0.46911600  1
  Cu  Cu48  1  0.89720000  0.54682700  0.39897200  1
  Cu  Cu49  1  0.42855000  0.79317400  0.30056700  1
  Cu  Cu50  1  0.88896800  0.39659100  0.53115600  1
  Cu  Cu51  1  0.77437000  0.77226600  0.77219400  1
  Cu  Cu52  1  0.30252600  0.45559700  0.79859000  1
  Cu  Cu53  1  0.67489100  0.66582100  0.67393900  1
  Cu  Cu54  1  0.47910300  0.97310200  0.63227200  1
  Cu  Cu55  1  0.69987400  0.19145100  0.82662700  1
  Cu  Cu56  1  0.08713300  0.72654900  0.60235700  1
  Cu  Cu57  1  0.08096600  0.58803800  0.72722000  1
  Cu  Cu58  1  0.97419400  0.96950200  0.96987100  1
  Cu  Cu59  1  0.49574200  0.63141000  0.99878200  1
  Cu  Cu60  1  0.33454400  0.20301800  0.70027500  1
  Cu  Cu61  1  0.86678400  0.87511100  0.86931800  1
  Cu  Cu62  1  0.30386900  0.93770400  0.79794900  1
  Cu  Cu63  1  0.83106400  0.19674000  0.70223200  1
  Cu  Cu64  1  0.28794800  0.77839300  0.92884200  1
  Cu  Cu65  1  0.55324400  0.40145100  0.89870900  1
  Cu  Cu66  1  0.49861700  0.14999100  0.99685900  1
  Cu  Cu67  1  0.03765700  0.40798400  0.89989100  1
