# generated using pymatgen
data_CuNiC6
_symmetry_space_group_name_H-M   'P 1'
_cell_length_a   7.44031700
_cell_length_b   8.24560244
_cell_length_c   7.84343702
_cell_angle_alpha   61.59410783
_cell_angle_beta   89.99885265
_cell_angle_gamma   63.18039480
_symmetry_Int_Tables_number   1
_chemical_formula_structural   CuNiC6
_chemical_formula_sum   'Cu4 Ni4 C24'
_cell_volume   363.33754712
_cell_formula_units_Z   4
loop_
 _symmetry_equiv_pos_site_id
 _symmetry_equiv_pos_as_xyz
  1  'x, y, z'
loop_
 _atom_site_type_symbol
 _atom_site_label
 _atom_site_symmetry_multiplicity
 _atom_site_fract_x
 _atom_site_fract_y
 _atom_site_fract_z
 _atom_site_occupancy
  C  C0  1  0.07575800  0.50000000  0.75000900  1
  C  C1  1  0.57581700  0.50000100  0.24999500  1
  C  C2  1  0.67418900  0.00001200  0.99997100  1
  C  C3  1  0.17420900  0.99999800  0.50002000  1
  C  C4  1  0.12498300  0.75001300  0.93500400  1
  C  C5  1  0.62501400  0.74997200  0.43494500  1
  C  C6  1  0.37500100  0.24997800  0.56501000  1
  C  C7  1  0.87499600  0.25003500  0.06503300  1
  Ni  Ni8  1  0.37502100  0.24998300  0.19672300  1
  Ni  Ni9  1  0.12497700  0.74997900  0.30331200  1
  Ni  Ni10  1  0.87501900  0.24998500  0.69684300  1
  Ni  Ni11  1  0.62501200  0.75003000  0.80309700  1
  Cu  Cu12  1  0.32045800  0.99995600  0.00004800  1
  Cu  Cu13  1  0.82040800  0.00005500  0.49994900  1
  Cu  Cu14  1  0.42958000  0.49998900  0.75000400  1
  Cu  Cu15  1  0.92955600  0.50000300  0.24999900  1
  C  C16  1  0.08533100  0.21988800  0.89541600  1
  C  C17  1  0.58530800  0.21996600  0.39538300  1
  C  C18  1  0.80521800  0.78013100  0.60457100  1
  C  C19  1  0.30530000  0.78002000  0.10463600  1
  C  C20  1  0.44478000  0.71988200  0.63471100  1
  C  C21  1  0.94469500  0.71996800  0.13465800  1
  C  C22  1  0.66468800  0.28009800  0.86530300  1
  C  C23  1  0.16468700  0.28005300  0.36533800  1
  C  C24  1  0.95780900  0.99840700  0.66737000  1
  C  C25  1  0.45772800  0.99838600  0.16749800  1
  C  C26  1  0.45625500  0.00159000  0.83264700  1
  C  C27  1  0.95609600  0.00162900  0.33248200  1
  C  C28  1  0.29223700  0.50165700  0.91581400  1
  C  C29  1  0.79218100  0.50162200  0.41581500  1
  C  C30  1  0.29392400  0.49832700  0.58418100  1
  C  C31  1  0.79376200  0.49838600  0.08421500  1
