# generated using pymatgen
data_Cu3NiC
_symmetry_space_group_name_H-M   'P 1'
_cell_length_a   6.11750897
_cell_length_b   6.11750897
_cell_length_c   8.34503581
_cell_angle_alpha   82.61609714
_cell_angle_beta   82.61609714
_cell_angle_gamma   126.80938995
_symmetry_Int_Tables_number   1
_chemical_formula_structural   Cu3NiC
_chemical_formula_sum   'Cu12 Ni4 C4'
_cell_volume   239.51659435
_cell_formula_units_Z   4
loop_
 _symmetry_equiv_pos_site_id
 _symmetry_equiv_pos_as_xyz
  1  'x, y, z'
loop_
 _atom_site_type_symbol
 _atom_site_label
 _atom_site_symmetry_multiplicity
 _atom_site_fract_x
 _atom_site_fract_y
 _atom_site_fract_z
 _atom_site_occupancy
  C  C0  1  0.56699300  0.68047800  0.64265500  1
  C  C1  1  0.68047800  0.56699300  0.14265500  1
  C  C2  1  0.98719700  0.25612300  0.00087200  1
  C  C3  1  0.25612300  0.98719700  0.50087200  1
  Ni  Ni4  1  0.94131100  0.59889600  0.78189600  1
  Ni  Ni5  1  0.99051600  0.12519700  0.71487900  1
  Ni  Ni6  1  0.59889600  0.94131100  0.28189600  1
  Ni  Ni7  1  0.12519700  0.99051600  0.21487900  1
  Cu  Cu8  1  0.87179200  0.46844500  0.94340800  1
  Cu  Cu9  1  0.16987400  0.34063900  0.77049300  1
  Cu  Cu10  1  0.74488400  0.92499500  0.80381300  1
  Cu  Cu11  1  0.77290900  0.50774000  0.69232000  1
  Cu  Cu12  1  0.20044500  0.83859700  0.72732300  1
  Cu  Cu13  1  0.07878900  0.13719200  0.55788200  1
  Cu  Cu14  1  0.46844500  0.87179200  0.44340800  1
  Cu  Cu15  1  0.92499500  0.74488400  0.30381300  1
  Cu  Cu16  1  0.34063900  0.16987400  0.27049300  1
  Cu  Cu17  1  0.50774000  0.77290900  0.19232000  1
  Cu  Cu18  1  0.83859700  0.20044500  0.22732300  1
  Cu  Cu19  1  0.13719200  0.07878900  0.05788200  1
