# generated using pymatgen
data_Cu5NiC5
_symmetry_space_group_name_H-M   'P 1'
_cell_length_a   5.39143211
_cell_length_b   5.39143211
_cell_length_c   15.28126709
_cell_angle_alpha   81.55459418
_cell_angle_beta   81.55459418
_cell_angle_gamma   77.73296281
_symmetry_Int_Tables_number   1
_chemical_formula_structural   Cu5NiC5
_chemical_formula_sum   'Cu20 Ni4 C20'
_cell_volume   426.25544537
_cell_formula_units_Z   4
loop_
 _symmetry_equiv_pos_site_id
 _symmetry_equiv_pos_as_xyz
  1  'x, y, z'
loop_
 _atom_site_type_symbol
 _atom_site_label
 _atom_site_symmetry_multiplicity
 _atom_site_fract_x
 _atom_site_fract_y
 _atom_site_fract_z
 _atom_site_occupancy
  C  C0  1  0.73632500  0.42943900  0.53516500  1
  C  C1  1  0.42943900  0.73632500  0.03516500  1
  C  C2  1  0.93915000  0.06238000  0.75008500  1
  C  C3  1  0.06238000  0.93915000  0.25008500  1
  C  C4  1  0.14467800  0.22783400  0.05588500  1
  C  C5  1  0.16968200  0.13558300  0.45863300  1
  C  C6  1  0.52726200  0.23074900  0.10876500  1
  C  C7  1  0.22783400  0.14467800  0.55588500  1
  C  C8  1  0.61851900  0.27114300  0.38420100  1
  C  C9  1  0.13558300  0.16968200  0.95863300  1
  C  C10  1  0.72698500  0.38251500  0.12435000  1
  C  C11  1  0.81288300  0.44955400  0.37326300  1
  C  C12  1  0.23074900  0.52726200  0.60876500  1
  C  C13  1  0.27114300  0.61851900  0.88420100  1
  C  C14  1  0.89572200  0.82042700  0.04211400  1
  C  C15  1  0.38251500  0.72698500  0.62435000  1
  C  C16  1  0.77409800  0.85782900  0.44585800  1
  C  C17  1  0.44955400  0.81288300  0.87326300  1
  C  C18  1  0.82042700  0.89572200  0.54211400  1
  C  C19  1  0.85782900  0.77409800  0.94585800  1
  Ni  Ni20  1  0.51558900  0.04615700  0.71102100  1
  Ni  Ni21  1  0.04615700  0.51558900  0.21102100  1
  Ni  Ni22  1  0.96126300  0.48406200  0.78685300  1
  Ni  Ni23  1  0.48406200  0.96126300  0.28685300  1
  Cu  Cu24  1  0.20623800  0.09927700  0.01476500  1
  Cu  Cu25  1  0.30368500  0.02024200  0.68626700  1
  Cu  Cu26  1  0.02024200  0.30368500  0.18626700  1
  Cu  Cu27  1  0.72175200  0.04163200  0.65435200  1
  Cu  Cu28  1  0.54278400  0.07318700  0.79158900  1
  Cu  Cu29  1  0.09927700  0.20623800  0.51476500  1
  Cu  Cu30  1  0.55408800  0.40411500  0.10796000  1
  Cu  Cu31  1  0.07318700  0.54278400  0.29158900  1
  Cu  Cu32  1  0.66492100  0.40185800  0.41316900  1
  Cu  Cu33  1  0.98380500  0.27612500  0.84260100  1
  Cu  Cu34  1  0.04163200  0.72175200  0.15435200  1
  Cu  Cu35  1  0.40411500  0.55408800  0.60796000  1
  Cu  Cu36  1  0.91035400  0.46009400  0.70878500  1
  Cu  Cu37  1  0.40185800  0.66492100  0.91316900  1
  Cu  Cu38  1  0.82312400  0.76714300  0.50298100  1
  Cu  Cu39  1  0.46009400  0.91035400  0.20878500  1
  Cu  Cu40  1  0.27612500  0.98380500  0.34260100  1
  Cu  Cu41  1  0.99140500  0.69669500  0.80992900  1
  Cu  Cu42  1  0.69669500  0.99140500  0.30992900  1
  Cu  Cu43  1  0.76714300  0.82312400  0.00298100  1
