# generated using pymatgen
data_Cu4Ni2C9
_symmetry_space_group_name_H-M   'P 1'
_cell_length_a   5.26078800
_cell_length_b   9.46592900
_cell_length_c   16.01050151
_cell_angle_alpha   56.24671192
_cell_angle_beta   90.00000000
_cell_angle_gamma   90.00000000
_symmetry_Int_Tables_number   1
_chemical_formula_structural   Cu4Ni2C9
_chemical_formula_sum   'Cu16 Ni8 C36'
_cell_volume   662.90105012
_cell_formula_units_Z   4
loop_
 _symmetry_equiv_pos_site_id
 _symmetry_equiv_pos_as_xyz
  1  'x, y, z'
loop_
 _atom_site_type_symbol
 _atom_site_label
 _atom_site_symmetry_multiplicity
 _atom_site_fract_x
 _atom_site_fract_y
 _atom_site_fract_z
 _atom_site_occupancy
  Ni  Ni0  1  0.00634200  0.99934100  0.33990200  1
  Ni  Ni1  1  0.98956400  0.49485600  0.83891300  1
  Ni  Ni2  1  0.50634200  0.00065900  0.16009800  1
  Ni  Ni3  1  0.48956400  0.50514400  0.66108700  1
  Ni  Ni4  1  0.51043600  0.49485600  0.33891300  1
  Ni  Ni5  1  0.49365800  0.99934100  0.83990200  1
  Ni  Ni6  1  0.01043600  0.50514400  0.16108700  1
  Ni  Ni7  1  0.99365800  0.00065900  0.66009800  1
  Cu  Cu8  1  0.50000000  0.50000000  0.00000000  1
  Cu  Cu9  1  0.50000000  0.00000000  0.50000000  1
  Cu  Cu10  1  0.48928700  0.75487600  0.73730000  1
  Cu  Cu11  1  0.00013400  0.24502100  0.09373900  1
  Cu  Cu12  1  0.00116000  0.73810000  0.57381900  1
  Cu  Cu13  1  0.50116000  0.26190000  0.92618100  1
  Cu  Cu14  1  0.50013400  0.75497900  0.40626100  1
  Cu  Cu15  1  0.98928700  0.24512400  0.76270000  1
  Cu  Cu16  1  0.00000000  0.00000000  0.00000000  1
  Cu  Cu17  1  0.01071300  0.75487600  0.23730000  1
  Cu  Cu18  1  0.00000000  0.50000000  0.50000000  1
  Cu  Cu19  1  0.49986600  0.24502100  0.59373900  1
  Cu  Cu20  1  0.49884000  0.73810000  0.07381900  1
  Cu  Cu21  1  0.99884000  0.26190000  0.42618100  1
  Cu  Cu22  1  0.99986600  0.75497900  0.90626100  1
  Cu  Cu23  1  0.51071300  0.24512400  0.26270000  1
  C  C24  1  0.88651300  0.25238100  0.22343400  1
  C  C25  1  0.16218700  0.08816100  0.40988000  1
  C  C26  1  0.67974800  0.57190100  0.86659000  1
  C  C27  1  0.16542000  0.42251700  0.96308300  1
  C  C28  1  0.68092700  0.94576100  0.40722500  1
  C  C29  1  0.37514900  0.73695400  0.61431200  1
  C  C30  1  0.62871500  0.23268600  0.06156900  1
  C  C31  1  0.32987200  0.06000100  0.25315900  1
  C  C32  1  0.82815700  0.55449500  0.70654300  1
  C  C33  1  0.32815700  0.44550500  0.79345700  1
  C  C34  1  0.82987200  0.93999900  0.24684100  1
  C  C35  1  0.12871500  0.76731400  0.43843100  1
  C  C36  1  0.87514900  0.26304600  0.88568800  1
  C  C37  1  0.18092700  0.05423900  0.09277500  1
  C  C38  1  0.66542000  0.57748300  0.53691700  1
  C  C39  1  0.17974800  0.42809900  0.63341000  1
  C  C40  1  0.66218700  0.91183900  0.09012000  1
  C  C41  1  0.38651300  0.74761900  0.27656600  1
  C  C42  1  0.61348700  0.25238100  0.72343400  1
  C  C43  1  0.33781300  0.08816100  0.90988000  1
  C  C44  1  0.82025200  0.57190100  0.36659000  1
  C  C45  1  0.33458000  0.42251700  0.46308300  1
  C  C46  1  0.81907300  0.94576100  0.90722500  1
  C  C47  1  0.12485100  0.73695400  0.11431200  1
  C  C48  1  0.87128500  0.23268600  0.56156900  1
  C  C49  1  0.17012800  0.06000100  0.75315900  1
  C  C50  1  0.67184300  0.55449500  0.20654300  1
  C  C51  1  0.17184300  0.44550500  0.29345700  1
  C  C52  1  0.67012800  0.93999900  0.74684100  1
  C  C53  1  0.37128500  0.76731400  0.93843100  1
  C  C54  1  0.62485100  0.26304600  0.38568800  1
  C  C55  1  0.31907300  0.05423900  0.59277500  1
  C  C56  1  0.83458000  0.57748300  0.03691700  1
  C  C57  1  0.32025200  0.42809900  0.13341000  1
  C  C58  1  0.83781300  0.91183900  0.59012000  1
  C  C59  1  0.11348700  0.74761900  0.77656600  1
