# generated using pymatgen
data_Cu9Ni7C24
_symmetry_space_group_name_H-M   'P 1'
_cell_length_a   5.17916600
_cell_length_b   8.86258984
_cell_length_c   9.54794725
_cell_angle_alpha   89.99329781
_cell_angle_beta   89.82767339
_cell_angle_gamma   89.90248336
_symmetry_Int_Tables_number   1
_chemical_formula_structural   Cu9Ni7C24
_chemical_formula_sum   'Cu9 Ni7 C24'
_cell_volume   438.25602586
_cell_formula_units_Z   1
loop_
 _symmetry_equiv_pos_site_id
 _symmetry_equiv_pos_as_xyz
  1  'x, y, z'
loop_
 _atom_site_type_symbol
 _atom_site_label
 _atom_site_symmetry_multiplicity
 _atom_site_fract_x
 _atom_site_fract_y
 _atom_site_fract_z
 _atom_site_occupancy
  Ni  Ni0  1  0.82443500  0.15377800  0.42046200  1
  Ni  Ni1  1  0.81259400  0.14808200  0.83346000  1
  Ni  Ni2  1  0.68849500  0.33971600  0.11275200  1
  Ni  Ni3  1  0.32650800  0.34644800  0.41973200  1
  Ni  Ni4  1  0.67540600  0.65361500  0.92148100  1
  Ni  Ni5  1  0.81318000  0.84118500  0.61464300  1
  Ni  Ni6  1  0.17224100  0.84729100  0.92077400  1
  Cu  Cu7  1  0.32451600  0.03238400  0.62352800  1
  Cu  Cu8  1  0.18649800  0.16126600  0.11283800  1
  Cu  Cu9  1  0.31330300  0.34707800  0.83927500  1
  Cu  Cu10  1  0.82737200  0.46574800  0.62509100  1
  Cu  Cu11  1  0.17415800  0.52949900  0.12165000  1
  Cu  Cu12  1  0.68788200  0.65148400  0.33678500  1
  Cu  Cu13  1  0.31479400  0.66114600  0.61307800  1
  Cu  Cu14  1  0.18443900  0.84543800  0.34075200  1
  Cu  Cu15  1  0.67036600  0.96955400  0.12300900  1
  C  C16  1  0.33997800  0.99797200  0.21959600  1
  C  C17  1  0.97845300  0.01296000  0.98425000  1
  C  C18  1  0.84269500  0.16101800  0.22349500  1
  C  C19  1  0.48656300  0.16951200  0.48134200  1
  C  C20  1  0.53103600  0.17651700  0.99577400  1
  C  C21  1  0.15135600  0.17054100  0.75065300  1
  C  C22  1  0.65937300  0.32574000  0.75099900  1
  C  C23  1  0.02660400  0.32924700  0.99770400  1
  C  C24  1  0.98850900  0.33081000  0.48053600  1
  C  C25  1  0.34880900  0.34038800  0.22315100  1
  C  C26  1  0.48769100  0.48919300  0.98829600  1
  C  C27  1  0.84445700  0.49754700  0.21850000  1
  C  C28  1  0.15705100  0.49790900  0.71929500  1
  C  C29  1  0.51961900  0.50859100  0.48825400  1
  C  C30  1  0.65935300  0.65958500  0.72386500  1
  C  C31  1  0.01288600  0.67026400  0.98096200  1
  C  C32  1  0.97662000  0.68102900  0.49561300  1
  C  C33  1  0.34451300  0.66850600  0.24984300  1
  C  C34  1  0.84270400  0.83046100  0.24864400  1
  C  C35  1  0.48051700  0.82735700  0.49674900  1
  C  C36  1  0.50966800  0.83068300  0.98081000  1
  C  C37  1  0.15103900  0.84200500  0.72384400  1
  C  C38  1  0.01285200  0.99045900  0.48998700  1
  C  C39  1  0.65146700  0.99799500  0.72053000  1
