# generated using pymatgen
data_Cu5NiC2
_symmetry_space_group_name_H-M   'P 1'
_cell_length_a   5.28089552
_cell_length_b   5.28089552
_cell_length_c   9.54943238
_cell_angle_alpha   73.39926229
_cell_angle_beta   73.39926229
_cell_angle_gamma   59.83643160
_symmetry_Int_Tables_number   1
_chemical_formula_structural   Cu5NiC2
_chemical_formula_sum   'Cu10 Ni2 C4'
_cell_volume   217.38434347
_cell_formula_units_Z   2
loop_
 _symmetry_equiv_pos_site_id
 _symmetry_equiv_pos_as_xyz
  1  'x, y, z'
loop_
 _atom_site_type_symbol
 _atom_site_label
 _atom_site_symmetry_multiplicity
 _atom_site_fract_x
 _atom_site_fract_y
 _atom_site_fract_z
 _atom_site_occupancy
  C  C0  1  0.03316900  0.73947700  0.86766600  1
  C  C1  1  0.74107500  0.50326000  0.62840800  1
  C  C2  1  0.49674000  0.25892500  0.37159200  1
  C  C3  1  0.26052300  0.96683100  0.13233400  1
  Ni  Ni4  1  0.35883700  0.70133300  0.75757600  1
  Ni  Ni5  1  0.29866700  0.64116300  0.24242400  1
  Cu  Cu6  1  0.12340300  0.28162500  0.49905900  1
  Cu  Cu7  1  0.03177700  0.96822300  0.00000000  1
  Cu  Cu8  1  0.47024700  0.03924900  0.24413700  1
  Cu  Cu9  1  0.78145000  0.11885900  0.75187900  1
  Cu  Cu10  1  0.71837500  0.87659700  0.50094100  1
  Cu  Cu11  1  0.20639200  0.36554900  0.00566000  1
  Cu  Cu12  1  0.52785000  0.47215000  0.50000000  1
  Cu  Cu13  1  0.63445100  0.79360800  0.99434000  1
  Cu  Cu14  1  0.96075100  0.52975300  0.75586300  1
  Cu  Cu15  1  0.88114100  0.21855000  0.24812100  1
