# generated using pymatgen
data_Cu2NiC4
_symmetry_space_group_name_H-M   'P 1'
_cell_length_a   5.87161110
_cell_length_b   5.87161110
_cell_length_c   11.06238300
_cell_angle_alpha   90.00000000
_cell_angle_beta   90.00000000
_cell_angle_gamma   146.64069234
_symmetry_Int_Tables_number   1
_chemical_formula_structural   Cu2NiC4
_chemical_formula_sum   'Cu4 Ni2 C8'
_cell_volume   209.71874269
_cell_formula_units_Z   2
loop_
 _symmetry_equiv_pos_site_id
 _symmetry_equiv_pos_as_xyz
  1  'x, y, z'
loop_
 _atom_site_type_symbol
 _atom_site_label
 _atom_site_symmetry_multiplicity
 _atom_site_fract_x
 _atom_site_fract_y
 _atom_site_fract_z
 _atom_site_occupancy
  Ni  Ni0  1  0.88903500  0.11096500  0.25000000  1
  Ni  Ni1  1  0.11096500  0.88903500  0.75000000  1
  Cu  Cu2  1  0.63214700  0.36785300  0.42512000  1
  Cu  Cu3  1  0.63214700  0.36785300  0.07488000  1
  Cu  Cu4  1  0.36785300  0.63214700  0.57488000  1
  Cu  Cu5  1  0.36785300  0.63214700  0.92512000  1
  C  C6  1  0.00000000  0.00000000  0.00000000  1
  C  C7  1  0.00000000  0.00000000  0.50000000  1
  C  C8  1  0.73326200  0.26673800  0.61396800  1
  C  C9  1  0.52878300  0.47121700  0.25000000  1
  C  C10  1  0.47121700  0.52878300  0.75000000  1
  C  C11  1  0.26673800  0.73326200  0.38603200  1
  C  C12  1  0.73326200  0.26673800  0.88603200  1
  C  C13  1  0.26673800  0.73326200  0.11396800  1
