# generated using pymatgen
data_Cu12Ni3C4
_symmetry_space_group_name_H-M   'P 1'
_cell_length_a   8.77032900
_cell_length_b   9.02385000
_cell_length_c   12.60576600
_cell_angle_alpha   90.00000000
_cell_angle_beta   90.00000000
_cell_angle_gamma   90.00000000
_symmetry_Int_Tables_number   1
_chemical_formula_structural   Cu12Ni3C4
_chemical_formula_sum   'Cu48 Ni12 C16'
_cell_volume   997.64721371
_cell_formula_units_Z   4
loop_
 _symmetry_equiv_pos_site_id
 _symmetry_equiv_pos_as_xyz
  1  'x, y, z'
loop_
 _atom_site_type_symbol
 _atom_site_label
 _atom_site_symmetry_multiplicity
 _atom_site_fract_x
 _atom_site_fract_y
 _atom_site_fract_z
 _atom_site_occupancy
  C  C0  1  0.21592700  0.27774400  0.18121800  1
  C  C1  1  0.78407300  0.77774400  0.18121800  1
  C  C2  1  0.28407300  0.77774400  0.31878200  1
  C  C3  1  0.71592700  0.27774400  0.31878200  1
  C  C4  1  0.28407300  0.72225600  0.68121800  1
  C  C5  1  0.71592700  0.22225600  0.68121800  1
  C  C6  1  0.21592700  0.22225600  0.81878200  1
  C  C7  1  0.78407300  0.72225600  0.81878200  1
  C  C8  1  0.25246800  0.95894300  0.10923800  1
  C  C9  1  0.74753200  0.45894300  0.10923800  1
  C  C10  1  0.75246800  0.95894300  0.39076200  1
  C  C11  1  0.24753200  0.45894300  0.39076200  1
  C  C12  1  0.24753200  0.04105700  0.60923800  1
  C  C13  1  0.75246800  0.54105700  0.60923800  1
  C  C14  1  0.25246800  0.54105700  0.89076200  1
  C  C15  1  0.74753200  0.04105700  0.89076200  1
  Ni  Ni16  1  0.45267700  0.25000000  0.00000000  1
  Ni  Ni17  1  0.54732300  0.75000000  0.00000000  1
  Ni  Ni18  1  0.10236000  0.60571500  0.14751900  1
  Ni  Ni19  1  0.89764000  0.10571500  0.14751900  1
  Ni  Ni20  1  0.39764000  0.10571500  0.35248100  1
  Ni  Ni21  1  0.60236000  0.60571500  0.35248100  1
  Ni  Ni22  1  0.04732300  0.75000000  0.50000000  1
  Ni  Ni23  1  0.95267700  0.25000000  0.50000000  1
  Ni  Ni24  1  0.39764000  0.39428500  0.64751900  1
  Ni  Ni25  1  0.60236000  0.89428500  0.64751900  1
  Ni  Ni26  1  0.10236000  0.89428500  0.85248100  1
  Ni  Ni27  1  0.89764000  0.39428500  0.85248100  1
  Cu  Cu28  1  0.13605500  0.57861000  0.03546200  1
  Cu  Cu29  1  0.86394500  0.07861000  0.03546200  1
  Cu  Cu30  1  0.54472100  0.36189800  0.05507000  1
  Cu  Cu31  1  0.45527900  0.86189800  0.05507000  1
  Cu  Cu32  1  0.35123300  0.17675900  0.08020900  1
  Cu  Cu33  1  0.64876700  0.67675900  0.08020900  1
  Cu  Cu34  1  0.06670500  0.11432800  0.16300500  1
  Cu  Cu35  1  0.93329500  0.61432800  0.16300500  1
  Cu  Cu36  1  0.17165700  0.74900900  0.18349700  1
  Cu  Cu37  1  0.82834300  0.24900900  0.18349700  1
  Cu  Cu38  1  0.83538300  0.98263500  0.21444100  1
  Cu  Cu39  1  0.16461700  0.48263500  0.21444100  1
  Cu  Cu40  1  0.33538300  0.98263500  0.28555900  1
  Cu  Cu41  1  0.66461700  0.48263500  0.28555900  1
  Cu  Cu42  1  0.67165700  0.74900900  0.31650300  1
  Cu  Cu43  1  0.32834300  0.24900900  0.31650300  1
  Cu  Cu44  1  0.43329500  0.61432800  0.33699500  1
  Cu  Cu45  1  0.56670500  0.11432800  0.33699500  1
  Cu  Cu46  1  0.14876700  0.67675900  0.41979100  1
  Cu  Cu47  1  0.85123300  0.17675900  0.41979100  1
  Cu  Cu48  1  0.04472100  0.36189800  0.44493000  1
  Cu  Cu49  1  0.95527900  0.86189800  0.44493000  1
  Cu  Cu50  1  0.63605500  0.57861000  0.46453800  1
  Cu  Cu51  1  0.36394500  0.07861000  0.46453800  1
  Cu  Cu52  1  0.36394500  0.42139000  0.53546200  1
  Cu  Cu53  1  0.63605500  0.92139000  0.53546200  1
  Cu  Cu54  1  0.04472100  0.13810200  0.55507000  1
  Cu  Cu55  1  0.95527900  0.63810200  0.55507000  1
  Cu  Cu56  1  0.14876700  0.82324100  0.58020900  1
  Cu  Cu57  1  0.85123300  0.32324100  0.58020900  1
  Cu  Cu58  1  0.43329500  0.88567200  0.66300500  1
  Cu  Cu59  1  0.56670500  0.38567200  0.66300500  1
  Cu  Cu60  1  0.32834300  0.25099100  0.68349700  1
  Cu  Cu61  1  0.67165700  0.75099100  0.68349700  1
  Cu  Cu62  1  0.33538300  0.51736500  0.71444100  1
  Cu  Cu63  1  0.66461700  0.01736500  0.71444100  1
  Cu  Cu64  1  0.16461700  0.01736500  0.78555900  1
  Cu  Cu65  1  0.83538300  0.51736500  0.78555900  1
  Cu  Cu66  1  0.17165700  0.75099100  0.81650300  1
  Cu  Cu67  1  0.82834300  0.25099100  0.81650300  1
  Cu  Cu68  1  0.06670500  0.38567200  0.83699500  1
  Cu  Cu69  1  0.93329500  0.88567200  0.83699500  1
  Cu  Cu70  1  0.35123300  0.32324100  0.91979100  1
  Cu  Cu71  1  0.64876700  0.82324100  0.91979100  1
  Cu  Cu72  1  0.45527900  0.63810200  0.94493000  1
  Cu  Cu73  1  0.54472100  0.13810200  0.94493000  1
  Cu  Cu74  1  0.13605500  0.92139000  0.96453800  1
  Cu  Cu75  1  0.86394500  0.42139000  0.96453800  1
