# generated using pymatgen
data_CuNiC5
_symmetry_space_group_name_H-M   'P 1'
_cell_length_a   14.26686200
_cell_length_b   7.41671300
_cell_length_c   7.76217263
_cell_angle_alpha   89.70824850
_cell_angle_beta   90.00000000
_cell_angle_gamma   90.00000000
_symmetry_Int_Tables_number   1
_chemical_formula_structural   CuNiC5
_chemical_formula_sum   'Cu8 Ni8 C40'
_cell_volume   821.32983890
_cell_formula_units_Z   8
loop_
 _symmetry_equiv_pos_site_id
 _symmetry_equiv_pos_as_xyz
  1  'x, y, z'
loop_
 _atom_site_type_symbol
 _atom_site_label
 _atom_site_symmetry_multiplicity
 _atom_site_fract_x
 _atom_site_fract_y
 _atom_site_fract_z
 _atom_site_occupancy
  C  C0  1  0.17438100  0.12294200  0.07362900  1
  C  C1  1  0.64197200  0.19619300  0.40730900  1
  C  C2  1  0.40207000  0.19460800  0.71912900  1
  C  C3  1  0.90645900  0.49142200  0.81009000  1
  C  C4  1  0.40645900  0.50857800  0.18991000  1
  C  C5  1  0.90207000  0.80539200  0.28087100  1
  C  C6  1  0.14197200  0.80380700  0.59269100  1
  C  C7  1  0.67438100  0.87705800  0.92637100  1
  Ni  Ni8  1  0.41619800  0.05420800  0.21669200  1
  Ni  Ni9  1  0.15965400  0.30197700  0.59672500  1
  Ni  Ni10  1  0.89606200  0.29704600  0.28678500  1
  Ni  Ni11  1  0.64426300  0.35296200  0.87964700  1
  Ni  Ni12  1  0.14426300  0.64703800  0.12035300  1
  Ni  Ni13  1  0.39606200  0.70295400  0.71321500  1
  Ni  Ni14  1  0.65965400  0.69802300  0.40327500  1
  Ni  Ni15  1  0.91619800  0.94579200  0.78330800  1
  Cu  Cu16  1  0.85096400  0.12849400  0.58979100  1
  Cu  Cu17  1  0.75658400  0.31223500  0.07762700  1
  Cu  Cu18  1  0.99776000  0.42393000  0.48311600  1
  Cu  Cu19  1  0.22015000  0.45699100  0.37648000  1
  Cu  Cu20  1  0.72015000  0.54300900  0.62352000  1
  Cu  Cu21  1  0.49776000  0.57607000  0.51688400  1
  Cu  Cu22  1  0.25658400  0.68776500  0.92237300  1
  Cu  Cu23  1  0.35096400  0.87150600  0.41020900  1
  C  C24  1  0.85128800  0.10863100  0.72049400  1
  C  C25  1  0.37166600  0.14870200  0.06598600  1
  C  C26  1  0.45321300  0.16443100  0.36380100  1
  C  C27  1  0.83964500  0.16350700  0.39174300  1
  C  C28  1  0.20246800  0.19966500  0.74298100  1
  C  C29  1  0.60227100  0.21723200  0.76075800  1
  C  C30  1  0.69157600  0.25825400  0.04066000  1
  C  C31  1  0.84827100  0.38081400  0.13245900  1
  C  C32  1  0.06938500  0.40670200  0.62173500  1
  C  C33  1  0.23651700  0.42029300  0.50278500  1
  C  C34  1  0.94379800  0.44969100  0.39492100  1
  C  C35  1  0.20602400  0.49713700  0.19123900  1
  C  C36  1  0.70602400  0.50286300  0.80876100  1
  C  C37  1  0.44379800  0.55030900  0.60507900  1
  C  C38  1  0.73651700  0.57970700  0.49721500  1
  C  C39  1  0.56938500  0.59329800  0.37826500  1
  C  C40  1  0.34827100  0.61918600  0.86754100  1
  C  C41  1  0.19157600  0.74174600  0.95934000  1
  C  C42  1  0.10227100  0.78276800  0.23924200  1
  C  C43  1  0.70246800  0.80033500  0.25701900  1
  C  C44  1  0.33964500  0.83649300  0.60825700  1
  C  C45  1  0.95321300  0.83556900  0.63619900  1
  C  C46  1  0.87166600  0.85129800  0.93401400  1
  C  C47  1  0.35128800  0.89136900  0.27950600  1
  C  C48  1  0.00483100  0.05581500  0.85960300  1
  C  C49  1  0.13471700  0.15426500  0.44909800  1
  C  C50  1  0.98374600  0.18575500  0.21232500  1
  C  C51  1  0.55800300  0.45678900  0.97041400  1
  C  C52  1  0.05800300  0.54321100  0.02958600  1
  C  C53  1  0.48374600  0.81424500  0.78767500  1
  C  C54  1  0.63471700  0.84573500  0.55090200  1
  C  C55  1  0.50483100  0.94418500  0.14039700  1
