# generated using pymatgen
data_Cu5NiC3
_symmetry_space_group_name_H-M   'P 1'
_cell_length_a   5.66038800
_cell_length_b   5.67903654
_cell_length_c   7.41711586
_cell_angle_alpha   72.92283791
_cell_angle_beta   72.67436561
_cell_angle_gamma   71.97038795
_symmetry_Int_Tables_number   1
_chemical_formula_structural   Cu5NiC3
_chemical_formula_sum   'Cu10 Ni2 C6'
_cell_volume   211.03401562
_cell_formula_units_Z   2
loop_
 _symmetry_equiv_pos_site_id
 _symmetry_equiv_pos_as_xyz
  1  'x, y, z'
loop_
 _atom_site_type_symbol
 _atom_site_label
 _atom_site_symmetry_multiplicity
 _atom_site_fract_x
 _atom_site_fract_y
 _atom_site_fract_z
 _atom_site_occupancy
  C  C0  1  0.33093600  0.35032200  0.16083200  1
  C  C1  1  0.34253100  0.34411200  0.67275300  1
  C  C2  1  0.66028500  0.67278100  0.34709700  1
  C  C3  1  0.64747500  0.65552000  0.82429900  1
  C  C4  1  0.99935900  0.00485100  0.50180800  1
  C  C5  1  0.02480400  0.96799300  0.99795600  1
  Ni  Ni6  1  0.56708400  0.57294200  0.62808600  1
  Ni  Ni7  1  0.29836400  0.69471000  0.99719900  1
  Cu  Cu8  1  0.02600000  0.63945200  0.67208600  1
  Cu  Cu9  1  0.36077700  0.98362900  0.32769900  1
  Cu  Cu10  1  0.43638300  0.43779400  0.36873900  1
  Cu  Cu11  1  0.09962400  0.10614200  0.70486200  1
  Cu  Cu12  1  0.76292700  0.76144500  0.03735100  1
  Cu  Cu13  1  0.22733300  0.22705600  0.96730700  1
  Cu  Cu14  1  0.90274300  0.90036900  0.29464200  1
  Cu  Cu15  1  0.63440600  0.02803500  0.67071100  1
  Cu  Cu16  1  0.96988000  0.36660800  0.33111800  1
  Cu  Cu17  1  0.70908800  0.28624000  0.99545800  1
