# generated using pymatgen
data_Cu6Ni3C
_symmetry_space_group_name_H-M   'P 1'
_cell_length_a   5.16931100
_cell_length_b   8.59898100
_cell_length_c   14.73759044
_cell_angle_alpha   75.96629203
_cell_angle_beta   90.00000000
_cell_angle_gamma   90.00000000
_symmetry_Int_Tables_number   1
_chemical_formula_structural   Cu6Ni3C
_chemical_formula_sum   'Cu24 Ni12 C4'
_cell_volume   635.54523774
_cell_formula_units_Z   4
loop_
 _symmetry_equiv_pos_site_id
 _symmetry_equiv_pos_as_xyz
  1  'x, y, z'
loop_
 _atom_site_type_symbol
 _atom_site_label
 _atom_site_symmetry_multiplicity
 _atom_site_fract_x
 _atom_site_fract_y
 _atom_site_fract_z
 _atom_site_occupancy
  C  C0  1  0.08393400  0.78281100  0.74929600  1
  C  C1  1  0.58393400  0.21718900  0.75070400  1
  C  C2  1  0.91606600  0.21718900  0.25070400  1
  C  C3  1  0.41606600  0.78281100  0.24929600  1
  Ni  Ni4  1  0.52526200  0.73461900  0.54740900  1
  Ni  Ni5  1  0.02526200  0.26538100  0.95259100  1
  Ni  Ni6  1  0.47473800  0.26538100  0.45259100  1
  Ni  Ni7  1  0.97473800  0.73461900  0.04740900  1
  Ni  Ni8  1  0.01093500  0.04837000  0.61024100  1
  Ni  Ni9  1  0.51093500  0.95163000  0.88975900  1
  Ni  Ni10  1  0.98906500  0.95163000  0.38975900  1
  Ni  Ni11  1  0.48906500  0.04837000  0.11024100  1
  Ni  Ni12  1  0.12105000  0.41997600  0.67283700  1
  Ni  Ni13  1  0.62105000  0.58002400  0.82716300  1
  Ni  Ni14  1  0.87895000  0.58002400  0.32716300  1
  Ni  Ni15  1  0.37895000  0.41997600  0.17283700  1
  Cu  Cu16  1  0.82041600  0.98382700  0.66226100  1
  Cu  Cu17  1  0.32041600  0.01617300  0.83773900  1
  Cu  Cu18  1  0.17958400  0.01617300  0.33773900  1
  Cu  Cu19  1  0.67958400  0.98382700  0.16226100  1
  Cu  Cu20  1  0.23252100  0.98160900  0.63309700  1
  Cu  Cu21  1  0.73252100  0.01839100  0.86690300  1
  Cu  Cu22  1  0.76747900  0.01839100  0.36690300  1
  Cu  Cu23  1  0.26747900  0.98160900  0.13309700  1
  Cu  Cu24  1  0.98347600  0.16484300  0.54411300  1
  Cu  Cu25  1  0.48347600  0.83515700  0.95588700  1
  Cu  Cu26  1  0.01652400  0.83515700  0.45588700  1
  Cu  Cu27  1  0.51652400  0.16484300  0.04411300  1
  Cu  Cu28  1  0.36609900  0.40917900  0.65734700  1
  Cu  Cu29  1  0.86609900  0.59082100  0.84265300  1
  Cu  Cu30  1  0.63390100  0.59082100  0.34265300  1
  Cu  Cu31  1  0.13390100  0.40917900  0.15734700  1
  Cu  Cu32  1  0.00982300  0.29426500  0.72121000  1
  Cu  Cu33  1  0.50982300  0.70573500  0.77879000  1
  Cu  Cu34  1  0.99017700  0.70573500  0.27879000  1
  Cu  Cu35  1  0.49017700  0.29426500  0.22121000  1
  Cu  Cu36  1  0.00785900  0.54789600  0.64160400  1
  Cu  Cu37  1  0.50785900  0.45210400  0.85839600  1
  Cu  Cu38  1  0.99214100  0.45210400  0.35839600  1
  Cu  Cu39  1  0.49214100  0.54789600  0.14160400  1
