# generated using pymatgen
data_Cu2NiC9
_symmetry_space_group_name_H-M   'P 1'
_cell_length_a   6.95627273
_cell_length_b   11.30364179
_cell_length_c   9.73514041
_cell_angle_alpha   65.72029940
_cell_angle_beta   106.61404850
_cell_angle_gamma   85.88122245
_symmetry_Int_Tables_number   1
_chemical_formula_structural   Cu2NiC9
_chemical_formula_sum   'Cu8 Ni4 C36'
_cell_volume   652.74096144
_cell_formula_units_Z   4
loop_
 _symmetry_equiv_pos_site_id
 _symmetry_equiv_pos_as_xyz
  1  'x, y, z'
loop_
 _atom_site_type_symbol
 _atom_site_label
 _atom_site_symmetry_multiplicity
 _atom_site_fract_x
 _atom_site_fract_y
 _atom_site_fract_z
 _atom_site_occupancy
  C  C0  1  0.00747800  0.45810100  0.22012400  1
  C  C1  1  0.61263500  0.37845700  0.07455800  1
  C  C2  1  0.68755400  0.02989900  0.50260400  1
  C  C3  1  0.18907200  0.78786600  0.13807800  1
  C  C4  1  0.18971100  0.97708900  0.46664900  1
  C  C5  1  0.80692500  0.20356800  0.86210300  1
  C  C6  1  0.36422800  0.62096100  0.92035700  1
  C  C7  1  0.94813500  0.51150900  0.86674000  1
  Ni  Ni8  1  0.35371000  0.25325700  0.50834200  1
  Ni  Ni9  1  0.71477100  0.81232100  0.10342200  1
  Ni  Ni10  1  0.28226300  0.20415200  0.87547900  1
  Ni  Ni11  1  0.64850800  0.74332100  0.49684000  1
  Cu  Cu12  1  0.07245700  0.21784700  0.16788600  1
  Cu  Cu13  1  0.72127000  0.08077500  0.18663300  1
  Cu  Cu14  1  0.49031700  0.51996300  0.26890500  1
  Cu  Cu15  1  0.13658300  0.69246500  0.47340800  1
  Cu  Cu16  1  0.83570500  0.30118000  0.51574600  1
  Cu  Cu17  1  0.49729000  0.48198500  0.73070400  1
  Cu  Cu18  1  0.29747400  0.92410400  0.79712300  1
  Cu  Cu19  1  0.93573700  0.79999600  0.81614200  1
  C  C20  1  0.09002200  0.17901400  0.03647500  1
  C  C21  1  0.56077900  0.21006200  0.10175900  1
  C  C22  1  0.27031900  0.17896200  0.31181700  1
  C  C23  1  0.95048800  0.36167900  0.08989600  1
  C  C24  1  0.98740500  0.32986200  0.42397000  1
  C  C25  1  0.94339100  0.11521800  0.25974800  1
  C  C26  1  0.57677700  0.50651100  0.14667900  1
  C  C27  1  0.05109300  0.72138500  0.29468400  1
  C  C28  1  0.30922900  0.44851600  0.28632700  1
  C  C29  1  0.32422900  0.01898700  0.64134800  1
  C  C30  1  0.43779800  0.66275800  0.23876500  1
  C  C31  1  0.70357600  0.20394500  0.48811100  1
  C  C32  1  0.74365600  0.03088500  0.06437500  1
  C  C33  1  0.31529100  0.55612000  0.55504400  1
  C  C34  1  0.67606300  0.44312900  0.44482900  1
  C  C35  1  0.29828800  0.98250300  0.91672600  1
  C  C36  1  0.24136700  0.80050400  0.49531800  1
  C  C37  1  0.56710300  0.34156300  0.75636200  1
  C  C38  1  0.69776900  0.97824600  0.33800900  1
  C  C39  1  0.67217700  0.56024700  0.72043800  1
  C  C40  1  0.93831000  0.25856600  0.69627700  1
  C  C41  1  0.40846400  0.48600500  0.85532400  1
  C  C42  1  0.06602200  0.90245100  0.72829100  1
  C  C43  1  0.97749100  0.65572600  0.55696500  1
  C  C44  1  0.05391500  0.65733100  0.88874400  1
  C  C45  1  0.73548900  0.84012700  0.67349400  1
  C  C46  1  0.44403500  0.78884300  0.88464700  1
  C  C47  1  0.91648000  0.83727600  0.94954100  1
