# generated using pymatgen
data_Cu7Ni5C6
_symmetry_space_group_name_H-M   'P 1'
_cell_length_a   5.67947904
_cell_length_b   5.67947904
_cell_length_c   7.29677312
_cell_angle_alpha   72.78512291
_cell_angle_beta   72.78512291
_cell_angle_gamma   75.47435175
_symmetry_Int_Tables_number   1
_chemical_formula_structural   Cu7Ni5C6
_chemical_formula_sum   'Cu7 Ni5 C6'
_cell_volume   211.28807536
_cell_formula_units_Z   1
loop_
 _symmetry_equiv_pos_site_id
 _symmetry_equiv_pos_as_xyz
  1  'x, y, z'
loop_
 _atom_site_type_symbol
 _atom_site_label
 _atom_site_symmetry_multiplicity
 _atom_site_fract_x
 _atom_site_fract_y
 _atom_site_fract_z
 _atom_site_occupancy
  C  C0  1  0.33316700  0.66683300  0.00000000  1
  C  C1  1  0.00455800  0.33099400  0.85716500  1
  C  C2  1  0.31122400  0.68877600  0.50000000  1
  C  C3  1  0.98435400  0.30029100  0.34086400  1
  C  C4  1  0.69970900  0.01564600  0.65913600  1
  C  C5  1  0.66900600  0.99544200  0.14283500  1
  Ni  Ni6  1  0.88923500  0.21933800  0.13639500  1
  Ni  Ni7  1  0.23252800  0.56647700  0.80049300  1
  Ni  Ni8  1  0.43352300  0.76747200  0.19950700  1
  Ni  Ni9  1  0.78066200  0.11076500  0.86360500  1
  Ni  Ni10  1  0.03908200  0.96091800  0.50000000  1
  Cu  Cu11  1  0.31541600  0.02677800  0.82916800  1
  Cu  Cu12  1  0.61438900  0.38561100  0.50000000  1
  Cu  Cu13  1  0.56934500  0.90647900  0.46261100  1
  Cu  Cu14  1  0.09352100  0.43065500  0.53738900  1
  Cu  Cu15  1  0.69519100  0.63812700  0.83189100  1
  Cu  Cu16  1  0.36187300  0.30480900  0.16810900  1
  Cu  Cu17  1  0.97322200  0.68458400  0.17083200  1
