# generated using pymatgen
data_Cu5Ni3C20
_symmetry_space_group_name_H-M   'P 1'
_cell_length_a   5.84253800
_cell_length_b   5.89691046
_cell_length_c   9.55766849
_cell_angle_alpha   91.58684124
_cell_angle_beta   90.49850525
_cell_angle_gamma   117.75813423
_symmetry_Int_Tables_number   1
_chemical_formula_structural   Cu5Ni3C20
_chemical_formula_sum   'Cu5 Ni3 C20'
_cell_volume   291.19688942
_cell_formula_units_Z   1
loop_
 _symmetry_equiv_pos_site_id
 _symmetry_equiv_pos_as_xyz
  1  'x, y, z'
loop_
 _atom_site_type_symbol
 _atom_site_label
 _atom_site_symmetry_multiplicity
 _atom_site_fract_x
 _atom_site_fract_y
 _atom_site_fract_z
 _atom_site_occupancy
  C  C0  1  0.33919600  0.68316600  0.10404800  1
  C  C1  1  0.99913400  0.00370200  0.00690400  1
  C  C2  1  0.00363200  0.99325900  0.50645900  1
  C  C3  1  0.66911700  0.33259900  0.60145800  1
  Ni  Ni4  1  0.17057600  0.33726100  0.78839800  1
  Ni  Ni5  1  0.34221400  0.17364300  0.28590000  1
  Ni  Ni6  1  0.83246900  0.16792200  0.28823700  1
  Cu  Cu7  1  0.17233300  0.82753900  0.78339500  1
  Cu  Cu8  1  0.33431900  0.65428900  0.51255700  1
  Cu  Cu9  1  0.65776600  0.83259600  0.78840100  1
  Cu  Cu10  1  0.83672900  0.65975800  0.28441100  1
  Cu  Cu11  1  0.66752900  0.34810500  0.01188100  1
  C  C12  1  0.15839900  0.79631000  0.40911100  1
  C  C13  1  0.46716800  0.96119100  0.65780600  1
  C  C14  1  0.31896900  0.66849000  0.89573700  1
  C  C15  1  0.00433700  0.99844100  0.69448800  1
  C  C16  1  0.00131900  0.99611700  0.19489100  1
  C  C17  1  0.66565400  0.79885500  0.39970600  1
  C  C18  1  0.04032000  0.51801600  0.66035500  1
  C  C19  1  0.49191200  0.53577000  0.64833600  1
  C  C20  1  0.83196800  0.67218200  0.89735900  1
  C  C21  1  0.16542600  0.31557700  0.40753200  1
  C  C22  1  0.53519500  0.49987600  0.14539200  1
  C  C23  1  0.96756900  0.50604800  0.15560900  1
  C  C24  1  0.67063700  0.33662000  0.39060100  1
  C  C25  1  0.32536500  0.16994300  0.90508800  1
  C  C26  1  0.52577100  0.05202200  0.15765600  1
  C  C27  1  0.80467700  0.16070300  0.91044300  1
