# generated using pymatgen
data_Cu11(NiC16)5
_symmetry_space_group_name_H-M   'P 1'
_cell_length_a   5.04104735
_cell_length_b   5.04104745
_cell_length_c   38.57732373
_cell_angle_alpha   89.01919832
_cell_angle_beta   90.98080209
_cell_angle_gamma   60.37408353
_symmetry_Int_Tables_number   1
_chemical_formula_structural   Cu11(NiC16)5
_chemical_formula_sum   'Cu11 Ni5 C80'
_cell_volume   851.68159390
_cell_formula_units_Z   1
loop_
 _symmetry_equiv_pos_site_id
 _symmetry_equiv_pos_as_xyz
  1  'x, y, z'
loop_
 _atom_site_type_symbol
 _atom_site_label
 _atom_site_symmetry_multiplicity
 _atom_site_fract_x
 _atom_site_fract_y
 _atom_site_fract_z
 _atom_site_occupancy
  C  C0  1  0.08814489  0.08682943  0.24992140  1
  C  C1  1  0.00084800  0.50205320  0.99995927  1
  C  C2  1  0.06223363  0.43723363  0.18750000  1
  C  C3  1  0.12705320  0.37584800  0.37504073  1
  C  C4  1  0.18570956  0.31601385  0.56257485  1
  C  C5  1  0.24441106  0.25217967  0.74982383  1
  C  C6  1  0.31254136  0.18749652  0.93752794  1
  C  C7  1  0.03458489  0.78628063  0.12489837  1
  C  C8  1  0.37991111  0.12735868  0.12500076  1
  C  C9  1  0.16584544  0.65450031  0.50006531  1
  C  C10  1  0.27950031  0.54084544  0.87493469  1
  C  C11  1  0.43926813  0.05861087  0.31247139  1
  C  C12  1  0.49760067  0.99947491  0.49998316  1
  C  C13  1  0.41128063  0.40958489  0.25010163  1
  C  C14  1  0.52915649  0.29365027  0.62505046  1
  C  C15  1  0.21733510  0.96092390  0.62541906  1
  C  C16  1  0.34362110  0.83656053  0.99986702  1
  C  C17  1  0.65688553  0.16137477  0.99995209  1
  C  C18  1  0.78637477  0.03188553  0.37504791  1
  C  C19  1  0.46156053  0.71862110  0.37513298  1
  C  C20  1  0.58592390  0.59233510  0.74958094  1
  C  C21  1  0.56242839  0.93742839  0.68750000  1
  C  C22  1  0.71182943  0.46314489  0.12507860  1
  C  C23  1  0.83663183  0.34519905  0.49978533  1
  C  C24  1  0.62447491  0.87260067  0.87501684  1
  C  C25  1  0.97019905  0.21163183  0.87521467  1
  C  C26  1  0.68361087  0.81426813  0.06252861  1
  C  C27  1  0.75235868  0.75491111  0.24999924  1
  C  C28  1  0.81249652  0.68754136  0.43747206  1
  C  C29  1  0.87717967  0.61941106  0.62517617  1
  C  C30  1  0.94101385  0.56070956  0.81242515  1
  C  C31  1  0.91865027  0.90415649  0.74994954  1
  Ni  Ni32  1  0.02555481  0.14250682  0.06269012  1
  Ni  Ni33  1  0.59996880  0.23257739  0.81218970  1
  Ni  Ni34  1  0.39613629  0.77113629  0.18750000  1
  Ni  Ni35  1  0.76750682  0.40055481  0.31230988  1
  Ni  Ni36  1  0.85757739  0.97496880  0.56281030  1
  Cu  Cu37  1  0.14127681  0.01654563  0.43756313  1
  Cu  Cu38  1  0.10666388  0.72757094  0.31279327  1
  Cu  Cu39  1  0.23292843  0.60792843  0.68750000  1
  Cu  Cu40  1  0.35257094  0.48166388  0.06220673  1
  Cu  Cu41  1  0.48372950  0.35815938  0.43740231  1
  Cu  Cu42  1  0.27259045  0.89371308  0.81263142  1
  Cu  Cu43  1  0.73118713  0.10618713  0.18750000  1
  Cu  Cu44  1  0.51871308  0.64759045  0.56236858  1
  Cu  Cu45  1  0.64154563  0.51627681  0.93743687  1
  Cu  Cu46  1  0.89096233  0.26596233  0.68750000  1
  Cu  Cu47  1  0.98315938  0.85872950  0.93759769  1
  C  C48  1  0.09087158  0.04947998  0.34050157  1
  C  C49  1  0.05075773  0.09001154  0.15919751  1
  C  C50  1  0.07500930  0.43527387  0.28379610  1
  C  C51  1  0.19490251  0.30470921  0.65934296  1
  C  C52  1  0.06027387  0.45000930  0.09120390  1
  C  C53  1  0.18124569  0.31863123  0.46577470  1
  C  C54  1  0.30442488  0.20093722  0.84189243  1
  C  C55  1  0.32106867  0.17389889  0.03294350  1
  C  C56  1  0.44375295  0.05635524  0.40920495  1
  C  C57  1  0.06618695  0.78701935  0.21555597  1
  C  C58  1  0.42994322  0.07329288  0.21644917  1
  C  C59  1  0.19023371  0.66084454  0.59129846  1
  C  C60  1  0.33240670  0.53293540  0.96574192  1
  C  C61  1  0.04227730  0.80881425  0.03432398  1
  C  C62  1  0.15793540  0.70740670  0.40925808  1
  C  C63  1  0.28584454  0.56523371  0.78370154  1
  C  C64  1  0.21756658  0.91752538  0.71563309  1
  C  C65  1  0.19142989  0.95755078  0.53453399  1
  C  C66  1  0.29242867  0.84185841  0.90928784  1
  C  C67  1  0.43381425  0.41727730  0.34067602  1
  C  C68  1  0.58228862  0.28201539  0.71575686  1
  C  C69  1  0.41201935  0.44118695  0.15944403  1
  C  C70  1  0.53448939  0.32579791  0.53462614  1
  C  C71  1  0.65833965  0.20709597  0.90923516  1
  C  C72  1  0.33886223  0.80976734  0.09116923  1
  C  C73  1  0.46685841  0.66742867  0.46571216  1
  C  C74  1  0.58255078  0.56642989  0.84046601  1
  C  C75  1  0.43476734  0.71386223  0.28383077  1
  C  C76  1  0.54252538  0.59256658  0.65936691  1
  C  C77  1  0.68992167  0.16456506  0.09026491  1
  C  C78  1  0.83209597  0.03333965  0.46576484  1
  C  C79  1  0.78956506  0.06492167  0.28473509  1
  C  C80  1  0.71501154  0.42575773  0.21580249  1
  C  C81  1  0.83529945  0.31040878  0.59049684  1
  C  C82  1  0.96691015  0.16780713  0.96583374  1
  C  C83  1  0.67447998  0.46587158  0.03449843  1
  C  C84  1  0.79280713  0.34191015  0.40916626  1
  C  C85  1  0.56457860  0.92547273  0.78358326  1
  C  C86  1  0.93540878  0.21029945  0.78450316  1
  C  C87  1  0.55047273  0.93957860  0.59141674  1
  C  C88  1  0.68135524  0.81875295  0.96579505  1
  C  C89  1  0.69829288  0.80494322  0.15855083  1
  C  C90  1  0.82593722  0.67942488  0.53310757  1
  C  C91  1  0.94363123  0.55624569  0.90922530  1
  C  C92  1  0.79889889  0.69606867  0.34205650  1
  C  C93  1  0.92970921  0.56990251  0.71565704  1
  C  C94  1  0.95079791  0.90948939  0.84037386  1
  C  C95  1  0.90701539  0.95728862  0.65924314  1
