# generated using pymatgen
data_Cu8Ni2C13
_symmetry_space_group_name_H-M   'P 1'
_cell_length_a   10.73810200
_cell_length_b   9.10678900
_cell_length_c   13.65511956
_cell_angle_alpha   68.50085716
_cell_angle_beta   90.00000000
_cell_angle_gamma   90.00000000
_symmetry_Int_Tables_number   1
_chemical_formula_structural   Cu8Ni2C13
_chemical_formula_sum   'Cu32 Ni8 C52'
_cell_volume   1242.42095467
_cell_formula_units_Z   4
loop_
 _symmetry_equiv_pos_site_id
 _symmetry_equiv_pos_as_xyz
  1  'x, y, z'
loop_
 _atom_site_type_symbol
 _atom_site_label
 _atom_site_symmetry_multiplicity
 _atom_site_fract_x
 _atom_site_fract_y
 _atom_site_fract_z
 _atom_site_occupancy
  C  C0  1  0.54846100  0.29181800  0.82121700  1
  C  C1  1  0.95153900  0.29181800  0.32121700  1
  C  C2  1  0.45153900  0.70818200  0.17878300  1
  C  C3  1  0.04846100  0.70818200  0.67878300  1
  C  C4  1  0.69797600  0.04611800  0.65118800  1
  C  C5  1  0.80202400  0.04611800  0.15118800  1
  C  C6  1  0.30202400  0.95388200  0.34881200  1
  C  C7  1  0.19797600  0.95388200  0.84881200  1
  Ni  Ni8  1  0.87093400  0.04387700  0.88580700  1
  Ni  Ni9  1  0.62906600  0.04387700  0.38580700  1
  Ni  Ni10  1  0.12906600  0.95612300  0.11419300  1
  Ni  Ni11  1  0.37093400  0.95612300  0.61419300  1
  Ni  Ni12  1  0.52311600  0.78933500  0.89222100  1
  Ni  Ni13  1  0.97688400  0.78933500  0.39222100  1
  Ni  Ni14  1  0.47688400  0.21066500  0.10777900  1
  Ni  Ni15  1  0.02311600  0.21066500  0.60777900  1
  Cu  Cu16  1  0.83526800  0.52050700  0.86596100  1
  Cu  Cu17  1  0.66473200  0.52050700  0.36596100  1
  Cu  Cu18  1  0.16473200  0.47949300  0.13403900  1
  Cu  Cu19  1  0.33526800  0.47949300  0.63403900  1
  Cu  Cu20  1  0.85547300  0.41753000  0.98551700  1
  Cu  Cu21  1  0.64452700  0.41753000  0.48551700  1
  Cu  Cu22  1  0.14452700  0.58247000  0.01448300  1
  Cu  Cu23  1  0.35547300  0.58247000  0.51448300  1
  Cu  Cu24  1  0.76002000  0.57142700  0.68614400  1
  Cu  Cu25  1  0.73998000  0.57142700  0.18614400  1
  Cu  Cu26  1  0.23998000  0.42857300  0.31385600  1
  Cu  Cu27  1  0.26002000  0.42857300  0.81385600  1
  Cu  Cu28  1  0.82567800  0.40686600  0.72400100  1
  Cu  Cu29  1  0.67432200  0.40686600  0.22400100  1
  Cu  Cu30  1  0.17432200  0.59313400  0.27599900  1
  Cu  Cu31  1  0.32567800  0.59313400  0.77599900  1
  Cu  Cu32  1  0.61418500  0.60997700  0.55394200  1
  Cu  Cu33  1  0.88581500  0.60997700  0.05394200  1
  Cu  Cu34  1  0.38581500  0.39002300  0.44605800  1
  Cu  Cu35  1  0.11418500  0.39002300  0.94605800  1
  Cu  Cu36  1  0.56612300  0.71096500  0.61931600  1
  Cu  Cu37  1  0.93387700  0.71096500  0.11931600  1
  Cu  Cu38  1  0.43387700  0.28903500  0.38068400  1
  Cu  Cu39  1  0.06612300  0.28903500  0.88068400  1
  Cu  Cu40  1  0.85580000  0.87920500  0.91809000  1
  Cu  Cu41  1  0.64420000  0.87920500  0.41809000  1
  Cu  Cu42  1  0.14420000  0.12079500  0.08191000  1
  Cu  Cu43  1  0.35580000  0.12079500  0.58191000  1
  Cu  Cu44  1  0.51442700  0.67944400  0.84190400  1
  Cu  Cu45  1  0.98557300  0.67944400  0.34190400  1
  Cu  Cu46  1  0.48557300  0.32055600  0.15809600  1
  Cu  Cu47  1  0.01442700  0.32055600  0.65809600  1
  C  C48  1  0.78069600  0.86128300  0.68382500  1
  C  C49  1  0.71930400  0.86128300  0.18382500  1
  C  C50  1  0.21930400  0.13871700  0.31617500  1
  C  C51  1  0.28069600  0.13871700  0.81617500  1
  C  C52  1  0.61407800  0.23136400  0.62231700  1
  C  C53  1  0.88592200  0.23136400  0.12231700  1
  C  C54  1  0.38592200  0.76863600  0.37768300  1
  C  C55  1  0.11407800  0.76863600  0.87768300  1
  C  C56  1  0.59002200  0.93732100  0.81682600  1
  C  C57  1  0.90997800  0.93732100  0.31682600  1
  C  C58  1  0.40997800  0.06267900  0.18317400  1
  C  C59  1  0.09002200  0.06267900  0.68317400  1
  C  C60  1  0.80241500  0.12284500  0.78006200  1
  C  C61  1  0.69758500  0.12284500  0.28006200  1
  C  C62  1  0.19758500  0.87715500  0.21993800  1
  C  C63  1  0.30241500  0.87715500  0.71993800  1
  C  C64  1  0.68623300  0.09844400  0.46980700  1
  C  C65  1  0.81376700  0.09844400  0.96980700  1
  C  C66  1  0.31376700  0.90155600  0.53019300  1
  C  C67  1  0.18623300  0.90155600  0.03019300  1
  C  C68  1  0.88971100  0.17117600  0.58358400  1
  C  C69  1  0.61028900  0.17117600  0.08358400  1
  C  C70  1  0.11028900  0.82882400  0.41641600  1
  C  C71  1  0.38971100  0.82882400  0.91641600  1
  C  C72  1  0.59156300  0.71694300  0.99703400  1
  C  C73  1  0.90843700  0.71694300  0.49703400  1
  C  C74  1  0.40843700  0.28305700  0.00296600  1
  C  C75  1  0.09156300  0.28305700  0.50296600  1
  C  C76  1  0.51219900  0.91853200  0.62723000  1
  C  C77  1  0.98780100  0.91853200  0.12723000  1
  C  C78  1  0.48780100  0.08146800  0.37277000  1
  C  C79  1  0.01219900  0.08146800  0.87277000  1
  C  C80  1  0.83686200  0.52467800  0.93732100  1
  C  C81  1  0.66313800  0.52467800  0.43732100  1
  C  C82  1  0.16313800  0.47532200  0.06267900  1
  C  C83  1  0.33686200  0.47532200  0.56267900  1
  C  C84  1  0.82656000  0.50793100  0.73350100  1
  C  C85  1  0.67344000  0.50793100  0.23350100  1
  C  C86  1  0.17344000  0.49206900  0.26649900  1
  C  C87  1  0.32656000  0.49206900  0.76649900  1
  C  C88  1  0.60568300  0.61076000  0.62543900  1
  C  C89  1  0.89431700  0.61076000  0.12543900  1
  C  C90  1  0.39431700  0.38924000  0.37456100  1
  C  C91  1  0.10568300  0.38924000  0.87456100  1
