# generated using pymatgen
data_CuNi3C10
_symmetry_space_group_name_H-M   'P 1'
_cell_length_a   5.94515334
_cell_length_b   5.94515334
_cell_length_c   5.94515320
_cell_angle_alpha   60.07287725
_cell_angle_beta   60.07287725
_cell_angle_gamma   60.07288884
_symmetry_Int_Tables_number   1
_chemical_formula_structural   CuNi3C10
_chemical_formula_sum   'Cu1 Ni3 C10'
_cell_volume   148.83013614
_cell_formula_units_Z   1
loop_
 _symmetry_equiv_pos_site_id
 _symmetry_equiv_pos_as_xyz
  1  'x, y, z'
loop_
 _atom_site_type_symbol
 _atom_site_label
 _atom_site_symmetry_multiplicity
 _atom_site_fract_x
 _atom_site_fract_y
 _atom_site_fract_z
 _atom_site_occupancy
  C  C0  1  0.87859800  0.87859800  0.87859800  1
  C  C1  1  0.12140200  0.12140200  0.12140200  1
  Ni  Ni2  1  0.00000000  0.50000000  0.50000000  1
  Ni  Ni3  1  0.50000000  0.00000000  0.50000000  1
  Ni  Ni4  1  0.50000000  0.50000000  0.00000000  1
  Cu  Cu5  1  0.50000000  0.50000000  0.50000000  1
  C  C6  1  0.73946200  0.73946200  0.73946200  1
  C  C7  1  0.74202200  0.74202200  0.29210200  1
  C  C8  1  0.74202200  0.29210200  0.74202200  1
  C  C9  1  0.29210200  0.74202200  0.74202200  1
  C  C10  1  0.70789800  0.25797800  0.25797800  1
  C  C11  1  0.25797800  0.70789800  0.25797800  1
  C  C12  1  0.25797800  0.25797800  0.70789800  1
  C  C13  1  0.26053800  0.26053800  0.26053800  1
