# generated using pymatgen
data_Cu12Ni3C2
_symmetry_space_group_name_H-M   'P 1'
_cell_length_a   9.76973895
_cell_length_b   9.76973895
_cell_length_c   9.76973921
_cell_angle_alpha   55.81798041
_cell_angle_beta   55.81798041
_cell_angle_gamma   55.81798238
_symmetry_Int_Tables_number   1
_chemical_formula_structural   Cu12Ni3C2
_chemical_formula_sum   'Cu24 Ni6 C4'
_cell_volume   595.44123885
_cell_formula_units_Z   2
loop_
 _symmetry_equiv_pos_site_id
 _symmetry_equiv_pos_as_xyz
  1  'x, y, z'
loop_
 _atom_site_type_symbol
 _atom_site_label
 _atom_site_symmetry_multiplicity
 _atom_site_fract_x
 _atom_site_fract_y
 _atom_site_fract_z
 _atom_site_occupancy
  C  C0  1  0.34861800  0.34861800  0.34861800  1
  C  C1  1  0.14363300  0.14363300  0.14363300  1
  C  C2  1  0.85636700  0.85636700  0.85636700  1
  C  C3  1  0.65138200  0.65138200  0.65138200  1
  Ni  Ni4  1  0.75476900  0.03444400  0.45949600  1
  Ni  Ni5  1  0.54050400  0.24523100  0.96555600  1
  Ni  Ni6  1  0.03444400  0.45949600  0.75476900  1
  Ni  Ni7  1  0.96555600  0.54050400  0.24523100  1
  Ni  Ni8  1  0.45949600  0.75476900  0.03444400  1
  Ni  Ni9  1  0.24523100  0.96555600  0.54050400  1
  Cu  Cu10  1  0.79761300  0.02352900  0.59022500  1
  Cu  Cu11  1  0.86570200  0.11847500  0.27601900  1
  Cu  Cu12  1  0.72398100  0.13429800  0.88152500  1
  Cu  Cu13  1  0.56422200  0.14290500  0.48704900  1
  Cu  Cu14  1  0.51899600  0.20435800  0.14752800  1
  Cu  Cu15  1  0.40977500  0.20238700  0.97647100  1
  Cu  Cu16  1  0.51295100  0.43577800  0.85709500  1
  Cu  Cu17  1  0.20435800  0.14752800  0.51899600  1
  Cu  Cu18  1  0.11847500  0.27601900  0.86570200  1
  Cu  Cu19  1  0.14290500  0.48704900  0.56422200  1
  Cu  Cu20  1  0.14752800  0.51899600  0.20435800  1
  Cu  Cu21  1  0.97647100  0.40977500  0.20238700  1
  Cu  Cu22  1  0.02352900  0.59022500  0.79761300  1
  Cu  Cu23  1  0.85247200  0.48100400  0.79564200  1
  Cu  Cu24  1  0.85709500  0.51295100  0.43577800  1
  Cu  Cu25  1  0.88152500  0.72398100  0.13429800  1
  Cu  Cu26  1  0.79564200  0.85247200  0.48100400  1
  Cu  Cu27  1  0.48704900  0.56422200  0.14290500  1
  Cu  Cu28  1  0.59022500  0.79761300  0.02352900  1
  Cu  Cu29  1  0.48100400  0.79564200  0.85247200  1
  Cu  Cu30  1  0.43577800  0.85709500  0.51295100  1
  Cu  Cu31  1  0.27601900  0.86570200  0.11847500  1
  Cu  Cu32  1  0.13429800  0.88152500  0.72398100  1
  Cu  Cu33  1  0.20238700  0.97647100  0.40977500  1
