# generated using pymatgen
data_CuNiC18
_symmetry_space_group_name_H-M   'P 1'
_cell_length_a   8.38338100
_cell_length_b   8.44771056
_cell_length_c   9.16605829
_cell_angle_alpha   91.00279893
_cell_angle_beta   116.45248465
_cell_angle_gamma   119.45214312
_symmetry_Int_Tables_number   1
_chemical_formula_structural   CuNiC18
_chemical_formula_sum   'Cu2 Ni2 C36'
_cell_volume   482.21860904
_cell_formula_units_Z   2
loop_
 _symmetry_equiv_pos_site_id
 _symmetry_equiv_pos_as_xyz
  1  'x, y, z'
loop_
 _atom_site_type_symbol
 _atom_site_label
 _atom_site_symmetry_multiplicity
 _atom_site_fract_x
 _atom_site_fract_y
 _atom_site_fract_z
 _atom_site_occupancy
  C  C0  1  0.93528600  0.26206300  0.85896000  1
  C  C1  1  0.19281400  0.92487600  0.85013900  1
  C  C2  1  0.19821300  0.73439100  0.40810400  1
  C  C3  1  0.80935200  0.07341600  0.14083400  1
  C  C4  1  0.02682000  0.75318600  0.08130800  1
  C  C5  1  0.39222600  0.32482800  0.13843600  1
  Ni  Ni6  1  0.30371100  0.15876200  0.44324100  1
  Ni  Ni7  1  0.70939000  0.84905700  0.56629700  1
  Cu  Cu8  1  0.31927600  0.65437400  0.96115600  1
  Cu  Cu9  1  0.68996600  0.34805600  0.03726100  1
  C  C10  1  0.80131200  0.53636500  0.75238500  1
  C  C11  1  0.21426200  0.25597200  0.75201700  1
  C  C12  1  0.51088800  0.95853900  0.75733400  1
  C  C13  1  0.49983600  0.04264700  0.24443900  1
  C  C14  1  0.78379300  0.73712200  0.25322700  1
  C  C15  1  0.19796600  0.46526200  0.24864400  1
  C  C16  1  0.73534100  0.51106200  0.89069200  1
  C  C17  1  0.89033300  0.74736400  0.75557300  1
  C  C18  1  0.99718600  0.51250700  0.82284200  1
  C  C19  1  0.30545100  0.47250700  0.83123900  1
  C  C20  1  0.36170700  0.20684700  0.89395000  1
  C  C21  1  0.69434000  0.15610900  0.90090000  1
  C  C22  1  0.61901600  0.39043600  0.58071900  1
  C  C23  1  0.99334800  0.13102900  0.73479900  1
  C  C24  1  0.20980400  0.23064100  0.58761000  1
  C  C25  1  0.35959500  0.83169800  0.82342900  1
  C  C26  1  0.62755000  0.87283200  0.73760900  1
  C  C27  1  0.36865900  0.97413400  0.58948800  1
  C  C28  1  0.62409000  0.01338000  0.40888300  1
  C  C29  1  0.37608300  0.12722100  0.25319600  1
  C  C30  1  0.64606000  0.16583300  0.17607200  1
  C  C31  1  0.80308600  0.77651600  0.42643000  1
  C  C32  1  0.00608100  0.84879700  0.26876000  1
  C  C33  1  0.38205500  0.62532900  0.41752700  1
  C  C34  1  0.31025700  0.84035000  0.09461700  1
  C  C35  1  0.63864600  0.79801200  0.12078400  1
  C  C36  1  0.67701400  0.52072500  0.17981600  1
  C  C37  1  0.01667000  0.50321200  0.19006900  1
  C  C38  1  0.11951200  0.26141900  0.25936000  1
  C  C39  1  0.26140400  0.47684700  0.10763500  1
