# generated using pymatgen
data_Cu6Ni8C5
_symmetry_space_group_name_H-M   'P 1'
_cell_length_a   7.18146600
_cell_length_b   7.95278500
_cell_length_c   10.24832727
_cell_angle_alpha   87.09615427
_cell_angle_beta   90.00000000
_cell_angle_gamma   90.00000000
_symmetry_Int_Tables_number   1
_chemical_formula_structural   Cu6Ni8C5
_chemical_formula_sum   'Cu12 Ni16 C10'
_cell_volume   584.55761970
_cell_formula_units_Z   2
loop_
 _symmetry_equiv_pos_site_id
 _symmetry_equiv_pos_as_xyz
  1  'x, y, z'
loop_
 _atom_site_type_symbol
 _atom_site_label
 _atom_site_symmetry_multiplicity
 _atom_site_fract_x
 _atom_site_fract_y
 _atom_site_fract_z
 _atom_site_occupancy
  C  C0  1  0.39150800  0.08270600  0.27876600  1
  C  C1  1  0.60849200  0.58270600  0.77876600  1
  C  C2  1  0.74630700  0.00410400  0.00010100  1
  C  C3  1  0.75377400  0.50164400  0.48932600  1
  C  C4  1  0.24622600  0.00164400  0.98932600  1
  C  C5  1  0.25369300  0.50410400  0.50010100  1
  C  C6  1  0.01601300  0.17252900  0.50011500  1
  C  C7  1  0.98398700  0.67252900  0.00011500  1
  C  C8  1  0.48838700  0.83723600  0.51363500  1
  C  C9  1  0.51161300  0.33723600  0.01363500  1
  Ni  Ni10  1  0.85801500  0.28771100  0.44595800  1
  Ni  Ni11  1  0.85216500  0.80553500  0.06790900  1
  Ni  Ni12  1  0.87894600  0.60865900  0.89274200  1
  Ni  Ni13  1  0.94701800  0.05801300  0.59983800  1
  Ni  Ni14  1  0.12105400  0.10865900  0.39274200  1
  Ni  Ni15  1  0.05298200  0.55801300  0.09983800  1
  Ni  Ni16  1  0.14198500  0.78771100  0.94595800  1
  Ni  Ni17  1  0.14783500  0.30553500  0.56790900  1
  Ni  Ni18  1  0.35558600  0.21963300  0.05893600  1
  Ni  Ni19  1  0.34767800  0.71099800  0.44439300  1
  Ni  Ni20  1  0.45409000  0.45394100  0.90835000  1
  Ni  Ni21  1  0.39556800  0.90377000  0.62353900  1
  Ni  Ni22  1  0.60443200  0.40377000  0.12353900  1
  Ni  Ni23  1  0.54591000  0.95394100  0.40835000  1
  Ni  Ni24  1  0.64441400  0.71963300  0.55893600  1
  Ni  Ni25  1  0.65232200  0.21099800  0.94439300  1
  Cu  Cu26  1  0.75900300  0.44783500  0.66521900  1
  Cu  Cu27  1  0.76640200  0.93799400  0.83824300  1
  Cu  Cu28  1  0.00894200  0.59988300  0.49918300  1
  Cu  Cu29  1  0.99105800  0.09988300  0.99918300  1
  Cu  Cu30  1  0.24099700  0.94783500  0.16521900  1
  Cu  Cu31  1  0.23359800  0.43799400  0.33824300  1
  Cu  Cu32  1  0.27196600  0.09052000  0.83008300  1
  Cu  Cu33  1  0.32030900  0.54832500  0.66413400  1
  Cu  Cu34  1  0.50359400  0.40212400  0.48850000  1
  Cu  Cu35  1  0.49640600  0.90212400  0.98850000  1
  Cu  Cu36  1  0.67969100  0.04832500  0.16413400  1
  Cu  Cu37  1  0.72803400  0.59052000  0.33008300  1
