# generated using pymatgen
data_CuNi2C3
_symmetry_space_group_name_H-M   'P 1'
_cell_length_a   5.15783249
_cell_length_b   5.15783249
_cell_length_c   9.55225685
_cell_angle_alpha   79.61376678
_cell_angle_beta   79.61376678
_cell_angle_gamma   109.28036438
_symmetry_Int_Tables_number   1
_chemical_formula_structural   CuNi2C3
_chemical_formula_sum   'Cu4 Ni8 C12'
_cell_volume   227.93196775
_cell_formula_units_Z   4
loop_
 _symmetry_equiv_pos_site_id
 _symmetry_equiv_pos_as_xyz
  1  'x, y, z'
loop_
 _atom_site_type_symbol
 _atom_site_label
 _atom_site_symmetry_multiplicity
 _atom_site_fract_x
 _atom_site_fract_y
 _atom_site_fract_z
 _atom_site_occupancy
  C  C0  1  0.36869100  0.11592000  0.27446800  1
  C  C1  1  0.11592000  0.36869100  0.77446800  1
  C  C2  1  0.81106100  0.04753500  0.39414000  1
  C  C3  1  0.95718000  0.20469800  0.08793200  1
  C  C4  1  0.04753500  0.81106100  0.89414000  1
  C  C5  1  0.20469800  0.95718000  0.58793200  1
  C  C6  1  0.86946700  0.61685000  0.25954100  1
  C  C7  1  0.61685000  0.86946700  0.75954100  1
  C  C8  1  0.45889800  0.70933700  0.07962500  1
  C  C9  1  0.30299200  0.55447900  0.39401400  1
  C  C10  1  0.70933700  0.45889800  0.57962500  1
  C  C11  1  0.55447900  0.30299200  0.89401400  1
  Ni  Ni12  1  0.60751700  0.86514600  0.24518000  1
  Ni  Ni13  1  0.52752700  0.31254900  0.42966200  1
  Ni  Ni14  1  0.04068300  0.75895500  0.42937300  1
  Ni  Ni15  1  0.86514600  0.60751700  0.74518000  1
  Ni  Ni16  1  0.14793000  0.38927600  0.24542400  1
  Ni  Ni17  1  0.31254800  0.52752700  0.92966200  1
  Ni  Ni18  1  0.75895500  0.04068300  0.92937300  1
  Ni  Ni19  1  0.38927600  0.14793000  0.74542400  1
  Cu  Cu20  1  0.20247000  0.94851800  0.07951200  1
  Cu  Cu21  1  0.71480800  0.46751500  0.08112800  1
  Cu  Cu22  1  0.94851800  0.20247000  0.57951200  1
  Cu  Cu23  1  0.46751500  0.71480800  0.58112800  1
