# generated using pymatgen
data_Cu9Ni11C10
_symmetry_space_group_name_H-M   'P 1'
_cell_length_a   15.37415900
_cell_length_b   4.73555000
_cell_length_c   4.75059914
_cell_angle_alpha   87.65298545
_cell_angle_beta   90.00000000
_cell_angle_gamma   90.00000000
_symmetry_Int_Tables_number   1
_chemical_formula_structural   Cu9Ni11C10
_chemical_formula_sum   'Cu9 Ni11 C10'
_cell_volume   345.57770054
_cell_formula_units_Z   1
loop_
 _symmetry_equiv_pos_site_id
 _symmetry_equiv_pos_as_xyz
  1  'x, y, z'
loop_
 _atom_site_type_symbol
 _atom_site_label
 _atom_site_symmetry_multiplicity
 _atom_site_fract_x
 _atom_site_fract_y
 _atom_site_fract_z
 _atom_site_occupancy
  C  C0  1  0.39701100  0.99921400  0.98527900  1
  C  C1  1  0.60298900  0.99921400  0.98527900  1
  C  C2  1  0.79941400  0.95716800  0.99828800  1
  C  C3  1  0.00000000  0.95548800  0.98927500  1
  C  C4  1  0.20058600  0.95716800  0.99828800  1
  C  C5  1  0.50000000  0.49795700  0.49051100  1
  C  C6  1  0.89712800  0.53794800  0.49755200  1
  C  C7  1  0.69125800  0.53515100  0.51142600  1
  C  C8  1  0.10287200  0.53794800  0.49755200  1
  C  C9  1  0.30874200  0.53515100  0.51142600  1
  Ni  Ni10  1  0.69693600  0.81013400  0.81052300  1
  Ni  Ni11  1  0.89857600  0.79845600  0.80901700  1
  Ni  Ni12  1  0.10142400  0.79845600  0.80901700  1
  Ni  Ni13  1  0.30306400  0.81013400  0.81052300  1
  Ni  Ni14  1  0.40811600  0.69872300  0.29758000  1
  Ni  Ni15  1  0.59188400  0.69872300  0.29758000  1
  Ni  Ni16  1  0.79460100  0.69035700  0.31617100  1
  Ni  Ni17  1  0.00000000  0.69109500  0.31159500  1
  Ni  Ni18  1  0.20539900  0.69035700  0.31617100  1
  Ni  Ni19  1  0.40667500  0.30957800  0.68759100  1
  Ni  Ni20  1  0.59332500  0.30957800  0.68759100  1
  Cu  Cu21  1  0.50000000  0.81339200  0.79900100  1
  Cu  Cu22  1  0.79661000  0.29967500  0.70550000  1
  Cu  Cu23  1  0.00000000  0.29789600  0.70168200  1
  Cu  Cu24  1  0.20339000  0.29967500  0.70550000  1
  Cu  Cu25  1  0.50000000  0.19056700  0.17977800  1
  Cu  Cu26  1  0.89767000  0.19223300  0.19882800  1
  Cu  Cu27  1  0.69863000  0.19816400  0.19632200  1
  Cu  Cu28  1  0.30137000  0.19816400  0.19632200  1
  Cu  Cu29  1  0.10233000  0.19223300  0.19882800  1
