# generated using pymatgen
data_Cu4NiC24
_symmetry_space_group_name_H-M   'P 1'
_cell_length_a   10.04797322
_cell_length_b   10.04797322
_cell_length_c   10.04797322
_cell_angle_alpha   60.00000000
_cell_angle_beta   60.00000000
_cell_angle_gamma   60.00000000
_symmetry_Int_Tables_number   1
_chemical_formula_structural   Cu4NiC24
_chemical_formula_sum   'Cu8 Ni2 C48'
_cell_volume   717.33233639
_cell_formula_units_Z   2
loop_
 _symmetry_equiv_pos_site_id
 _symmetry_equiv_pos_as_xyz
  1  'x, y, z'
loop_
 _atom_site_type_symbol
 _atom_site_label
 _atom_site_symmetry_multiplicity
 _atom_site_fract_x
 _atom_site_fract_y
 _atom_site_fract_z
 _atom_site_occupancy
  C  C0  1  0.29213100  0.70786900  0.29213100  1
  C  C1  1  0.70786900  0.29213100  0.29213100  1
  C  C2  1  0.70786900  0.70786900  0.29213100  1
  C  C3  1  0.54213100  0.95786900  0.54213100  1
  C  C4  1  0.29213100  0.70786900  0.70786900  1
  C  C5  1  0.29213100  0.29213100  0.70786900  1
  C  C6  1  0.95786900  0.54213100  0.54213100  1
  C  C7  1  0.95786900  0.95786900  0.54213100  1
  C  C8  1  0.70786900  0.29213100  0.70786900  1
  C  C9  1  0.54213100  0.95786900  0.95786900  1
  C  C10  1  0.54213100  0.54213100  0.95786900  1
  C  C11  1  0.95786900  0.54213100  0.95786900  1
  C  C12  1  0.12500000  0.12500000  0.12500000  1
  C  C13  1  0.12500000  0.62500000  0.12500000  1
  C  C14  1  0.62500000  0.12500000  0.12500000  1
  C  C15  1  0.12500000  0.12500000  0.62500000  1
  Ni  Ni16  1  0.75000000  0.75000000  0.75000000  1
  Ni  Ni17  1  0.50000000  0.50000000  0.50000000  1
  Cu  Cu18  1  0.90692800  0.90692800  0.27921600  1
  Cu  Cu19  1  0.34307200  0.34307200  0.34307200  1
  Cu  Cu20  1  0.34307200  0.97078400  0.34307200  1
  Cu  Cu21  1  0.97078400  0.34307200  0.34307200  1
  Cu  Cu22  1  0.27921600  0.90692800  0.90692800  1
  Cu  Cu23  1  0.90692800  0.27921600  0.90692800  1
  Cu  Cu24  1  0.90692800  0.90692800  0.90692800  1
  Cu  Cu25  1  0.34307200  0.34307200  0.97078400  1
  C  C26  1  0.02389200  0.92742100  0.28069400  1
  C  C27  1  0.92742100  0.76799400  0.28069400  1
  C  C28  1  0.76799400  0.02389200  0.28069400  1
  C  C29  1  0.48200600  0.32257900  0.22610800  1
  C  C30  1  0.93971100  0.68676300  0.68676300  1
  C  C31  1  0.48200600  0.96930600  0.32257900  1
  C  C32  1  0.32257900  0.96930600  0.22610800  1
  C  C33  1  0.68676300  0.93971100  0.68676300  1
  C  C34  1  0.68676300  0.68676300  0.68676300  1
  C  C35  1  0.22610800  0.48200600  0.32257900  1
  C  C36  1  0.32257900  0.22610800  0.48200600  1
  C  C37  1  0.68676300  0.68676300  0.93971100  1
  C  C38  1  0.96930600  0.48200600  0.22610800  1
  C  C39  1  0.22610800  0.96930600  0.48200600  1
  C  C40  1  0.96930600  0.22610800  0.32257900  1
  C  C41  1  0.28069400  0.92742100  0.76799400  1
  C  C42  1  0.96930600  0.32257900  0.48200600  1
  C  C43  1  0.28069400  0.02389200  0.92742100  1
  C  C44  1  0.02389200  0.28069400  0.76799400  1
  C  C45  1  0.28069400  0.76799400  0.02389200  1
  C  C46  1  0.56323700  0.56323700  0.31028900  1
  C  C47  1  0.92742100  0.02389200  0.76799400  1
  C  C48  1  0.02389200  0.76799400  0.92742100  1
  C  C49  1  0.56323700  0.56323700  0.56323700  1
  C  C50  1  0.56323700  0.31028900  0.56323700  1
  C  C51  1  0.92742100  0.28069400  0.02389200  1
  C  C52  1  0.76799400  0.28069400  0.92742100  1
  C  C53  1  0.31028900  0.56323700  0.56323700  1
  C  C54  1  0.76799400  0.92742100  0.02389200  1
  C  C55  1  0.48200600  0.22610800  0.96930600  1
  C  C56  1  0.32257900  0.48200600  0.96930600  1
  C  C57  1  0.22610800  0.32257900  0.96930600  1
