# generated using pymatgen
data_CuNiC5
_symmetry_space_group_name_H-M   'P 1'
_cell_length_a   9.88455052
_cell_length_b   9.88455052
_cell_length_c   24.16783800
_cell_angle_alpha   90.00000000
_cell_angle_beta   90.00000000
_cell_angle_gamma   120.00000345
_symmetry_Int_Tables_number   1
_chemical_formula_structural   CuNiC5
_chemical_formula_sum   'Cu24 Ni24 C120'
_cell_volume   2044.94799615
_cell_formula_units_Z   24
loop_
 _symmetry_equiv_pos_site_id
 _symmetry_equiv_pos_as_xyz
  1  'x, y, z'
loop_
 _atom_site_type_symbol
 _atom_site_label
 _atom_site_symmetry_multiplicity
 _atom_site_fract_x
 _atom_site_fract_y
 _atom_site_fract_z
 _atom_site_occupancy
  C  C0  1  0.02280800  0.97422700  0.69549400  1
  C  C1  1  0.03514000  0.58438800  0.03537600  1
  C  C2  1  0.05937000  0.45641100  0.19190200  1
  C  C3  1  0.05160800  0.47452300  0.84757200  1
  C  C4  1  0.39704100  0.94063000  0.85856900  1
  C  C5  1  0.42291500  0.94839200  0.51423900  1
  C  C6  1  0.02577300  0.04858200  0.02882700  1
  C  C7  1  0.04858200  0.02280800  0.86216100  1
  C  C8  1  0.54924700  0.96486000  0.70204200  1
  C  C9  1  0.41561200  0.45075300  0.36870900  1
  C  C10  1  0.52547700  0.57708500  0.18090600  1
  C  C11  1  0.54358900  0.60295900  0.52523500  1
  C  C12  1  0.45641100  0.39704100  0.02523500  1
  C  C13  1  0.47452300  0.42291500  0.68090600  1
  C  C14  1  0.58438800  0.54924700  0.86870900  1
  C  C15  1  0.45075300  0.03514000  0.20204200  1
  C  C16  1  0.95141800  0.97719200  0.36216100  1
  C  C17  1  0.97422700  0.95141800  0.52882700  1
  C  C18  1  0.57708500  0.05160800  0.01423900  1
  C  C19  1  0.60295900  0.05937000  0.35856900  1
  C  C20  1  0.94839200  0.52547700  0.34757200  1
  C  C21  1  0.94063000  0.54358900  0.69190200  1
  C  C22  1  0.96486000  0.41561200  0.53537600  1
  C  C23  1  0.97719200  0.02577300  0.19549400  1
  Ni  Ni24  1  0.09814900  0.82034600  0.27090800  1
  Ni  Ni25  1  0.08094200  0.75204200  0.91657000  1
  Ni  Ni26  1  0.11623700  0.74250100  0.59290500  1
  Ni  Ni27  1  0.30504600  0.66558900  0.75477400  1
  Ni  Ni28  1  0.33441100  0.63945600  0.08810700  1
  Ni  Ni29  1  0.36054400  0.69495400  0.42144100  1
  Ni  Ni30  1  0.17965400  0.27780300  0.60424100  1
  Ni  Ni31  1  0.25749900  0.37373600  0.92623900  1
  Ni  Ni32  1  0.24795800  0.32890000  0.24990400  1
  Ni  Ni33  1  0.62626400  0.88376300  0.25957200  1
  Ni  Ni34  1  0.67110000  0.91905800  0.58323700  1
  Ni  Ni35  1  0.27780300  0.09814900  0.43757400  1
  Ni  Ni36  1  0.72219700  0.90185100  0.93757400  1
  Ni  Ni37  1  0.32890000  0.08094200  0.08323700  1
  Ni  Ni38  1  0.37373600  0.11623700  0.75957200  1
  Ni  Ni39  1  0.75204200  0.67110000  0.74990400  1
  Ni  Ni40  1  0.74250100  0.62626400  0.42623900  1
  Ni  Ni41  1  0.82034600  0.72219700  0.10424100  1
  Ni  Ni42  1  0.63945600  0.30504600  0.92144100  1
  Ni  Ni43  1  0.66558900  0.36054400  0.58810700  1
  Ni  Ni44  1  0.69495400  0.33441100  0.25477400  1
  Ni  Ni45  1  0.88376300  0.25749900  0.09290500  1
  Ni  Ni46  1  0.91905800  0.24795800  0.41657000  1
  Ni  Ni47  1  0.90185100  0.17965400  0.77090800  1
  Cu  Cu48  1  0.08639300  0.78389500  0.78820500  1
  Cu  Cu49  1  0.07486800  0.75025800  0.46659600  1
  Cu  Cu50  1  0.13566500  0.77063500  0.14157500  1
  Cu  Cu51  1  0.27839200  0.64463800  0.29666300  1
  Cu  Cu52  1  0.36624500  0.72160800  0.96332900  1
  Cu  Cu53  1  0.35536200  0.63375500  0.62999600  1
  Cu  Cu54  1  0.22936500  0.36502900  0.47490800  1
  Cu  Cu55  1  0.21610500  0.30249700  0.12153800  1
  Cu  Cu56  1  0.24974200  0.32461000  0.79993000  1
  Cu  Cu57  1  0.63497100  0.86433500  0.80824200  1
  Cu  Cu58  1  0.67539000  0.92513200  0.13326300  1
  Cu  Cu59  1  0.69750300  0.91360700  0.45487200  1
  Cu  Cu60  1  0.30249700  0.08639300  0.95487200  1
  Cu  Cu61  1  0.32461000  0.07486800  0.63326300  1
  Cu  Cu62  1  0.36502900  0.13566500  0.30824200  1
  Cu  Cu63  1  0.75025800  0.67539000  0.29993000  1
  Cu  Cu64  1  0.78389500  0.69750300  0.62153800  1
  Cu  Cu65  1  0.77063500  0.63497100  0.97490800  1
  Cu  Cu66  1  0.64463800  0.36624500  0.12999600  1
  Cu  Cu67  1  0.63375500  0.27839200  0.46332900  1
  Cu  Cu68  1  0.72160800  0.35536200  0.79666300  1
  Cu  Cu69  1  0.86433500  0.22936500  0.64157500  1
  Cu  Cu70  1  0.92513200  0.24974200  0.96659600  1
  Cu  Cu71  1  0.91360700  0.21610500  0.28820500  1
  C  C72  1  0.02261000  0.76183400  0.08981200  1
  C  C73  1  0.09903100  0.92839700  0.47146900  1
  C  C74  1  0.02027700  0.67662100  0.84499600  1
  C  C75  1  0.13359300  0.96261000  0.92611600  1
  C  C76  1  0.03945900  0.75017300  0.19870900  1
  C  C77  1  0.00961400  0.66133600  0.52641100  1
  C  C78  1  0.23741700  0.95326000  0.80670800  1
  C  C79  1  0.12898000  0.67192900  0.30639500  1
  C  C80  1  0.12482100  0.68033700  0.74461700  1
  C  C81  1  0.29600200  0.94482800  0.58498400  1
  C  C82  1  0.30162600  0.94005000  0.13837400  1
  C  C83  1  0.17492100  0.62823600  0.13510500  1
  C  C84  1  0.24908900  0.77103100  0.45714500  1
  C  C85  1  0.18767100  0.60910700  0.60830100  1
  C  C86  1  0.05995000  0.36157600  0.47170700  1
  C  C87  1  0.27686300  0.76764300  0.91596600  1
  C  C88  1  0.05517200  0.35117300  0.91831800  1
  C  C89  1  0.04674000  0.28415800  0.14004100  1
  C  C90  1  0.03739000  0.17098300  0.25945000  1
  C  C91  1  0.07160300  0.17063400  0.80480300  1
  C  C92  1  0.26593900  0.67619200  0.02129600  1
  C  C93  1  0.23235700  0.50922100  0.24930000  1
  C  C94  1  0.32380800  0.58974600  0.35462900  1
  C  C95  1  0.22896900  0.47805800  0.79047800  1
  C  C96  1  0.41025400  0.73406100  0.68796200  1
  C  C97  1  0.42143600  0.81232900  0.27496800  1
  C  C98  1  0.45331500  0.82507900  0.80177200  1
  C  C99  1  0.31966300  0.44448400  0.07795100  1
  C  C100  1  0.32807100  0.45705200  0.63972800  1
  C  C101  1  0.37176400  0.54668500  0.46843800  1
  C  C102  1  0.24982700  0.28928500  0.53204300  1
  C  C103  1  0.39089300  0.57856400  0.94163500  1
  C  C104  1  0.49077900  0.72313700  0.58263300  1
  C  C105  1  0.54294800  0.87102000  0.97306200  1
  C  C106  1  0.55551600  0.87517900  0.41128400  1
  C  C107  1  0.17098300  0.13359300  0.09278300  1
  C  C108  1  0.23816600  0.26077600  0.42314500  1
  C  C109  1  0.32337900  0.34365600  0.17832900  1
  C  C110  1  0.17063400  0.09903100  0.63813600  1
  C  C111  1  0.33866400  0.34827800  0.85974400  1
  C  C112  1  0.52194200  0.75091100  0.12381200  1
  C  C113  1  0.28415800  0.23741700  0.97337400  1
  C  C114  1  0.65172200  0.99038600  0.19307800  1
  C  C115  1  0.35117300  0.29600200  0.75165100  1
  C  C116  1  0.36157600  0.30162600  0.30504000  1
  C  C117  1  0.65634400  0.97972300  0.51166300  1
  C  C118  1  0.71071500  0.96054100  0.86537600  1
  C  C119  1  0.26077600  0.02261000  0.25647800  1
  C  C120  1  0.73922400  0.97739000  0.75647800  1
  C  C121  1  0.28928500  0.03945900  0.36537600  1
  C  C122  1  0.34365600  0.02027700  0.01166300  1
  C  C123  1  0.63842400  0.69837400  0.80504000  1
  C  C124  1  0.64882700  0.70399800  0.25165100  1
  C  C125  1  0.34827800  0.00961400  0.69307800  1
  C  C126  1  0.71584200  0.76258300  0.47337400  1
  C  C127  1  0.47805800  0.24908900  0.62381200  1
  C  C128  1  0.66133600  0.65172200  0.35974400  1
  C  C129  1  0.82936600  0.90096900  0.13813600  1
  C  C130  1  0.67662100  0.65634400  0.67832900  1
  C  C131  1  0.76183400  0.73922400  0.92314500  1
  C  C132  1  0.82901700  0.86640700  0.59278300  1
  C  C133  1  0.44448400  0.12482100  0.91128400  1
  C  C134  1  0.45705200  0.12898000  0.47306200  1
  C  C135  1  0.50922100  0.27686300  0.08263300  1
  C  C136  1  0.60910700  0.42143600  0.44163500  1
  C  C137  1  0.75017300  0.71071500  0.03204300  1
  C  C138  1  0.62823600  0.45331500  0.96843800  1
  C  C139  1  0.67192900  0.54294800  0.13972800  1
  C  C140  1  0.68033700  0.55551600  0.57795100  1
  C  C141  1  0.54668500  0.17492100  0.30177200  1
  C  C142  1  0.57856400  0.18767100  0.77496800  1
  C  C143  1  0.58974600  0.26593900  0.18796200  1
  C  C144  1  0.77103100  0.52194200  0.29047800  1
  C  C145  1  0.67619200  0.41025400  0.85462900  1
  C  C146  1  0.76764300  0.49077900  0.74930000  1
  C  C147  1  0.73406100  0.32380800  0.52129600  1
  C  C148  1  0.92839700  0.82936600  0.30480300  1
  C  C149  1  0.96261000  0.82901700  0.75945000  1
  C  C150  1  0.95326000  0.71584200  0.64004100  1
  C  C151  1  0.94482800  0.64882700  0.41831800  1
  C  C152  1  0.72313700  0.23235700  0.41596600  1
  C  C153  1  0.94005000  0.63842400  0.97170700  1
  C  C154  1  0.81232900  0.39089300  0.10830100  1
  C  C155  1  0.75091100  0.22896900  0.95714500  1
  C  C156  1  0.82507900  0.37176400  0.63510500  1
  C  C157  1  0.69837400  0.05995000  0.63837400  1
  C  C158  1  0.70399800  0.05517200  0.08498400  1
  C  C159  1  0.87517900  0.31966300  0.24461700  1
  C  C160  1  0.87102000  0.32807100  0.80639500  1
  C  C161  1  0.76258300  0.04674000  0.30670800  1
  C  C162  1  0.99038600  0.33866400  0.02641100  1
  C  C163  1  0.96054100  0.24982700  0.69870900  1
  C  C164  1  0.86640700  0.03739000  0.42611600  1
  C  C165  1  0.97972300  0.32337900  0.34499600  1
  C  C166  1  0.90096900  0.07160300  0.97146900  1
  C  C167  1  0.97739000  0.23816600  0.58981200  1
