# generated using pymatgen
data_Cu7(Ni3C16)3
_symmetry_space_group_name_H-M   'P 1'
_cell_length_a   9.16454978
_cell_length_b   9.16454978
_cell_length_c   11.96307700
_cell_angle_alpha   89.99982734
_cell_angle_beta   89.99982734
_cell_angle_gamma   119.90768840
_symmetry_Int_Tables_number   1
_chemical_formula_structural   Cu7(Ni3C16)3
_chemical_formula_sum   'Cu7 Ni9 C48'
_cell_volume   870.96163488
_cell_formula_units_Z   1
loop_
 _symmetry_equiv_pos_site_id
 _symmetry_equiv_pos_as_xyz
  1  'x, y, z'
loop_
 _atom_site_type_symbol
 _atom_site_label
 _atom_site_symmetry_multiplicity
 _atom_site_fract_x
 _atom_site_fract_y
 _atom_site_fract_z
 _atom_site_occupancy
  C  C0  1  0.59558000  0.59558000  0.75617000  1
  C  C1  1  0.41143100  0.41143100  0.25014400  1
  C  C2  1  0.40679800  0.99939700  0.75635700  1
  C  C3  1  0.59476400  0.99515100  0.25057500  1
  C  C4  1  0.99515100  0.59476400  0.25057500  1
  C  C5  1  0.99939700  0.40679800  0.75635700  1
  Ni  Ni6  1  0.24569100  0.24569100  0.59199800  1
  Ni  Ni7  1  0.66546200  0.33417100  0.99631900  1
  Ni  Ni8  1  0.66675700  0.33370900  0.49371200  1
  Ni  Ni9  1  0.24189200  0.99744400  0.09145400  1
  Ni  Ni10  1  0.99881000  0.75498400  0.59382900  1
  Ni  Ni11  1  0.75498400  0.99881000  0.59382900  1
  Ni  Ni12  1  0.33417100  0.66546200  0.99631900  1
  Ni  Ni13  1  0.33370900  0.66675700  0.49371200  1
  Ni  Ni14  1  0.99744400  0.24189200  0.09145400  1
  Cu  Cu15  1  0.74979600  0.74979600  0.09049100  1
  Cu  Cu16  1  0.75867500  0.75867500  0.39876000  1
  Cu  Cu17  1  0.24486600  0.24486600  0.90474400  1
  Cu  Cu18  1  0.24464700  0.99994200  0.40418300  1
  Cu  Cu19  1  0.99523700  0.75349700  0.90873900  1
  Cu  Cu20  1  0.75349700  0.99523700  0.90873900  1
  Cu  Cu21  1  0.99994200  0.24464700  0.40418300  1
  C  C22  1  0.79963000  0.79963000  0.92657700  1
  C  C23  1  0.80013100  0.80013100  0.57734400  1
  C  C24  1  0.78621800  0.78621800  0.24851800  1
  C  C25  1  0.68694500  0.51863300  0.09792100  1
  C  C26  1  0.68727000  0.51908500  0.40054400  1
  C  C27  1  0.20995000  0.20995000  0.75100200  1
  C  C28  1  0.20296700  0.20296700  0.42544300  1
  C  C29  1  0.20154700  0.20154700  0.07642100  1
  C  C30  1  0.83159900  0.51875900  0.89945200  1
  C  C31  1  0.83081900  0.51615000  0.59939000  1
  C  C32  1  0.48100000  0.31332200  0.90036500  1
  C  C33  1  0.48387600  0.31475700  0.59942500  1
  C  C34  1  0.48061600  0.16720800  0.40111100  1
  C  C35  1  0.48287600  0.16886800  0.09898800  1
  C  C36  1  0.83263600  0.31313000  0.40066500  1
  C  C37  1  0.83180600  0.31619700  0.10069700  1
  C  C38  1  0.20373500  0.00212000  0.92518800  1
  C  C39  1  0.20121400  0.00003800  0.57610600  1
  C  C40  1  0.20934400  0.00000100  0.25113800  1
  C  C41  1  0.68808100  0.16764200  0.90347300  1
  C  C42  1  0.68546600  0.16903700  0.59888600  1
  C  C43  1  0.99975800  0.79890800  0.42530600  1
  C  C44  1  0.00164900  0.79914700  0.07531000  1
  C  C45  1  0.99992700  0.78951700  0.75206100  1
  C  C46  1  0.31313000  0.83263600  0.40066500  1
  C  C47  1  0.31619700  0.83180600  0.10069700  1
  C  C48  1  0.78951700  0.99992700  0.75206100  1
  C  C49  1  0.79890800  0.99975800  0.42530600  1
  C  C50  1  0.79914700  0.00164900  0.07531000  1
  C  C51  1  0.16764200  0.68808100  0.90347300  1
  C  C52  1  0.16903700  0.68546600  0.59888600  1
  C  C53  1  0.51615000  0.83081900  0.59939000  1
  C  C54  1  0.51875900  0.83159900  0.89945200  1
  C  C55  1  0.51908500  0.68727000  0.40054400  1
  C  C56  1  0.51863300  0.68694500  0.09792100  1
  C  C57  1  0.16720800  0.48061600  0.40111100  1
  C  C58  1  0.16886800  0.48287600  0.09898800  1
  C  C59  1  0.31475700  0.48387600  0.59942500  1
  C  C60  1  0.31332200  0.48100000  0.90036500  1
  C  C61  1  0.00000100  0.20934400  0.25113800  1
  C  C62  1  0.00003800  0.20121400  0.57610600  1
  C  C63  1  0.00212000  0.20373500  0.92518800  1
