# generated using pymatgen
data_Cu13Ni3C11
_symmetry_space_group_name_H-M   'P 1'
_cell_length_a   6.31150868
_cell_length_b   6.31150868
_cell_length_c   10.45076976
_cell_angle_alpha   72.02306054
_cell_angle_beta   72.02306054
_cell_angle_gamma   59.37014013
_symmetry_Int_Tables_number   1
_chemical_formula_structural   Cu13Ni3C11
_chemical_formula_sum   'Cu13 Ni3 C11'
_cell_volume   334.85569231
_cell_formula_units_Z   1
loop_
 _symmetry_equiv_pos_site_id
 _symmetry_equiv_pos_as_xyz
  1  'x, y, z'
loop_
 _atom_site_type_symbol
 _atom_site_label
 _atom_site_symmetry_multiplicity
 _atom_site_fract_x
 _atom_site_fract_y
 _atom_site_fract_z
 _atom_site_occupancy
  C  C0  1  0.00923100  0.00923100  0.98945000  1
  C  C1  1  0.18610500  0.18610500  0.42998000  1
  C  C2  1  0.80681400  0.80681400  0.57184100  1
  C  C3  1  0.51874500  0.00144700  0.99156700  1
  C  C4  1  0.00144700  0.51874500  0.99156700  1
  C  C5  1  0.26253900  0.74173000  0.24972400  1
  C  C6  1  0.74449700  0.74449700  0.26557800  1
  C  C7  1  0.74173000  0.26253900  0.24972400  1
  C  C8  1  0.23929500  0.75151500  0.75280300  1
  C  C9  1  0.75151500  0.23929500  0.75280300  1
  C  C10  1  0.26371100  0.26371100  0.73368200  1
  Ni  Ni11  1  0.64378600  0.64378600  0.12351900  1
  Ni  Ni12  1  0.89622200  0.89622200  0.87750900  1
  Ni  Ni13  1  0.36000700  0.36000700  0.88077100  1
  Cu  Cu14  1  0.10115100  0.66582600  0.13459100  1
  Cu  Cu15  1  0.11705000  0.11705000  0.12157000  1
  Cu  Cu16  1  0.66582600  0.10115100  0.13459100  1
  Cu  Cu17  1  0.37058700  0.87152200  0.36500800  1
  Cu  Cu18  1  0.88167100  0.88167100  0.36772800  1
  Cu  Cu19  1  0.37868200  0.37868200  0.36317100  1
  Cu  Cu20  1  0.87152200  0.37058700  0.36500800  1
  Cu  Cu21  1  0.61584800  0.61584800  0.65079800  1
  Cu  Cu22  1  0.11729400  0.63176500  0.63044000  1
  Cu  Cu23  1  0.12622400  0.12622400  0.62701400  1
  Cu  Cu24  1  0.63176500  0.11729400  0.63044000  1
  Cu  Cu25  1  0.34575100  0.91439800  0.87051500  1
  Cu  Cu26  1  0.91439800  0.34575100  0.87051500  1
