# generated using pymatgen
data_Cu4Ni7C18
_symmetry_space_group_name_H-M   'P 1'
_cell_length_a   5.82850000
_cell_length_b   8.28279600
_cell_length_c   11.58392700
_cell_angle_alpha   90.00000000
_cell_angle_beta   90.00000000
_cell_angle_gamma   90.00000000
_symmetry_Int_Tables_number   1
_chemical_formula_structural   Cu4Ni7C18
_chemical_formula_sum   'Cu8 Ni14 C36'
_cell_volume   559.22886265
_cell_formula_units_Z   2
loop_
 _symmetry_equiv_pos_site_id
 _symmetry_equiv_pos_as_xyz
  1  'x, y, z'
loop_
 _atom_site_type_symbol
 _atom_site_label
 _atom_site_symmetry_multiplicity
 _atom_site_fract_x
 _atom_site_fract_y
 _atom_site_fract_z
 _atom_site_occupancy
  Ni  Ni0  1  0.00000000  0.00000000  0.50000000  1
  Ni  Ni1  1  0.00000000  0.00000000  0.00000000  1
  Ni  Ni2  1  0.50000000  0.50000000  0.00000000  1
  Ni  Ni3  1  0.50000000  0.50000000  0.50000000  1
  Ni  Ni4  1  0.00000000  0.04581900  0.75000000  1
  Ni  Ni5  1  0.00000000  0.95418100  0.25000000  1
  Ni  Ni6  1  0.25380100  0.74831200  0.61381000  1
  Ni  Ni7  1  0.25380100  0.25168800  0.38619000  1
  Ni  Ni8  1  0.25380100  0.74831200  0.88619000  1
  Ni  Ni9  1  0.25380100  0.25168800  0.11381000  1
  Ni  Ni10  1  0.74619900  0.25168800  0.38619000  1
  Ni  Ni11  1  0.74619900  0.74831200  0.61381000  1
  Ni  Ni12  1  0.74619900  0.25168800  0.11381000  1
  Ni  Ni13  1  0.74619900  0.74831200  0.88619000  1
  Cu  Cu14  1  0.00000000  0.39193600  0.61898800  1
  Cu  Cu15  1  0.00000000  0.60806400  0.38101200  1
  Cu  Cu16  1  0.00000000  0.39193600  0.88101200  1
  Cu  Cu17  1  0.00000000  0.60806400  0.11898800  1
  Cu  Cu18  1  0.50000000  0.88797000  0.12406000  1
  Cu  Cu19  1  0.50000000  0.11203000  0.87594000  1
  Cu  Cu20  1  0.50000000  0.88797000  0.37594000  1
  Cu  Cu21  1  0.50000000  0.11203000  0.62406000  1
  C  C22  1  0.00000000  0.64365700  0.75000000  1
  C  C23  1  0.00000000  0.35634300  0.25000000  1
  C  C24  1  0.50000000  0.40328900  0.25000000  1
  C  C25  1  0.50000000  0.59671100  0.75000000  1
  C  C26  1  0.00000000  0.76294000  0.75000000  1
  C  C27  1  0.00000000  0.23706000  0.25000000  1
  C  C28  1  0.50000000  0.28403400  0.25000000  1
  C  C29  1  0.50000000  0.71596600  0.75000000  1
  C  C30  1  0.00000000  0.29163600  0.75000000  1
  C  C31  1  0.00000000  0.70836400  0.25000000  1
  C  C32  1  0.50000000  0.79456400  0.25000000  1
  C  C33  1  0.50000000  0.20543600  0.75000000  1
  C  C34  1  0.00000000  0.75132300  0.48421900  1
  C  C35  1  0.00000000  0.24867700  0.51578100  1
  C  C36  1  0.00000000  0.75132300  0.01578100  1
  C  C37  1  0.00000000  0.24867700  0.98421900  1
  C  C38  1  0.50000000  0.23920800  0.98644800  1
  C  C39  1  0.50000000  0.76079200  0.01355200  1
  C  C40  1  0.50000000  0.23920800  0.51355200  1
  C  C41  1  0.50000000  0.76079200  0.48644800  1
  C  C42  1  0.26042200  0.99919900  0.62462800  1
  C  C43  1  0.26042200  0.00080100  0.37537200  1
  C  C44  1  0.26042200  0.99919900  0.87537200  1
  C  C45  1  0.26042200  0.00080100  0.12462800  1
  C  C46  1  0.73957800  0.00080100  0.37537200  1
  C  C47  1  0.73957800  0.99919900  0.62462800  1
  C  C48  1  0.73957800  0.00080100  0.12462800  1
  C  C49  1  0.73957800  0.99919900  0.87537200  1
  C  C50  1  0.77102500  0.49476700  0.11703400  1
  C  C51  1  0.77102500  0.50523300  0.88296600  1
  C  C52  1  0.77102500  0.49476700  0.38296600  1
  C  C53  1  0.77102500  0.50523300  0.61703400  1
  C  C54  1  0.22897500  0.50523300  0.88296600  1
  C  C55  1  0.22897500  0.49476700  0.11703400  1
  C  C56  1  0.22897500  0.50523300  0.61703400  1
  C  C57  1  0.22897500  0.49476700  0.38296600  1
