# generated using pymatgen
data_CuNi7C40
_symmetry_space_group_name_H-M   'P 1'
_cell_length_a   5.25753700
_cell_length_b   9.11255508
_cell_length_c   10.52238908
_cell_angle_alpha   88.39054779
_cell_angle_beta   88.99057309
_cell_angle_gamma   89.74952149
_symmetry_Int_Tables_number   1
_chemical_formula_structural   CuNi7C40
_chemical_formula_sum   'Cu1 Ni7 C40'
_cell_volume   503.84253078
_cell_formula_units_Z   1
loop_
 _symmetry_equiv_pos_site_id
 _symmetry_equiv_pos_as_xyz
  1  'x, y, z'
loop_
 _atom_site_type_symbol
 _atom_site_label
 _atom_site_symmetry_multiplicity
 _atom_site_fract_x
 _atom_site_fract_y
 _atom_site_fract_z
 _atom_site_occupancy
  C  C0  1  0.14643200  0.17454400  0.66869300  1
  C  C1  1  0.18776400  0.16061900  0.16826700  1
  C  C2  1  0.32249000  0.33049100  0.41682500  1
  C  C3  1  0.33650600  0.32570100  0.91723300  1
  C  C4  1  0.64767800  0.67402400  0.66746900  1
  C  C5  1  0.68849300  0.66047800  0.16796500  1
  C  C6  1  0.82061200  0.83143900  0.41780300  1
  C  C7  1  0.83613100  0.82556200  0.91789200  1
  Ni  Ni8  1  0.17744500  0.49870600  0.13272700  1
  Ni  Ni9  1  0.15937100  0.83904700  0.63322500  1
  Ni  Ni10  1  0.33130100  0.66463700  0.38280900  1
  Ni  Ni11  1  0.33114300  0.99810600  0.88339500  1
  Ni  Ni12  1  0.67820700  0.99909200  0.13333000  1
  Ni  Ni13  1  0.82997700  0.16503300  0.38572200  1
  Ni  Ni14  1  0.82964600  0.49622600  0.88177600  1
  Cu  Cu15  1  0.65492000  0.34045900  0.63246300  1
  C  C16  1  0.17336200  0.82925600  0.12578700  1
  C  C17  1  0.16017100  0.49975700  0.62523600  1
  C  C18  1  0.33652900  0.99789700  0.37592400  1
  C  C19  1  0.32777900  0.66703700  0.87524600  1
  C  C20  1  0.67345700  0.32924100  0.12591300  1
  C  C21  1  0.65704800  0.00311500  0.62674900  1
  C  C22  1  0.83669900  0.49818700  0.37678400  1
  C  C23  1  0.82757800  0.16709300  0.87467600  1
  C  C24  1  0.09630800  0.48137700  0.34635300  1
  C  C25  1  0.08904700  0.17934300  0.86086900  1
  C  C26  1  0.17388800  0.78899400  0.84500000  1
  C  C27  1  0.19434000  0.87638900  0.41793800  1
  C  C28  1  0.22293600  0.13440300  0.36150400  1
  C  C29  1  0.21609200  0.53536200  0.91718100  1
  C  C30  1  0.27502300  0.36306300  0.61253500  1
  C  C31  1  0.28867000  0.96464500  0.09583700  1
  C  C32  1  0.30180100  0.62644300  0.59653200  1
  C  C33  1  0.32214600  0.71034400  0.16697500  1
  C  C34  1  0.41338800  0.31470300  0.11114900  1
  C  C35  1  0.40378000  0.01652600  0.66691200  1
  C  C36  1  0.59615300  0.98187700  0.34552400  1
  C  C37  1  0.58932400  0.67873500  0.86040400  1
  C  C38  1  0.67336200  0.28849900  0.84367000  1
  C  C39  1  0.69406800  0.37728000  0.41913900  1
  C  C40  1  0.72422400  0.63501200  0.36137200  1
  C  C41  1  0.71751600  0.03521800  0.91754800  1
  C  C42  1  0.78833300  0.46477400  0.09575400  1
  C  C43  1  0.76616900  0.86564400  0.61111200  1
  C  C44  1  0.80077200  0.12952000  0.59828700  1
  C  C45  1  0.82214900  0.21059700  0.16723900  1
  C  C46  1  0.91346500  0.81466500  0.11115100  1
  C  C47  1  0.90570800  0.51023300  0.66370900  1
