# generated using pymatgen
data_Cu4Ni3C19
_symmetry_space_group_name_H-M   'P 1'
_cell_length_a   8.97708600
_cell_length_b   9.10816248
_cell_length_c   13.37540625
_cell_angle_alpha   89.14518273
_cell_angle_beta   89.70399733
_cell_angle_gamma   88.62216356
_symmetry_Int_Tables_number   1
_chemical_formula_structural   Cu4Ni3C19
_chemical_formula_sum   'Cu12 Ni9 C57'
_cell_volume   1093.18632489
_cell_formula_units_Z   3
loop_
 _symmetry_equiv_pos_site_id
 _symmetry_equiv_pos_as_xyz
  1  'x, y, z'
loop_
 _atom_site_type_symbol
 _atom_site_label
 _atom_site_symmetry_multiplicity
 _atom_site_fract_x
 _atom_site_fract_y
 _atom_site_fract_z
 _atom_site_occupancy
  C  C0  1  0.64788300  0.46859200  0.16439000  1
  C  C1  1  0.01320400  0.53018000  0.50699300  1
  C  C2  1  0.56012000  0.16033300  0.17350300  1
  C  C3  1  0.93855700  0.66942200  0.82538600  1
  C  C4  1  0.18534100  0.00290700  0.16528600  1
  C  C5  1  0.47423100  0.99304900  0.50351500  1
  C  C6  1  0.84221700  0.96799000  0.83396300  1
  C  C7  1  0.10557400  0.82932300  0.49322700  1
  C  C8  1  0.30540400  0.50595100  0.83109800  1
  Ni  Ni9  1  0.79011500  0.84314600  0.13503600  1
  Ni  Ni10  1  0.87243900  0.14594400  0.52978500  1
  Ni  Ni11  1  0.29910000  0.66036900  0.13736200  1
  Ni  Ni12  1  0.63464800  0.66987800  0.47180800  1
  Ni  Ni13  1  0.04083300  0.33610600  0.19890300  1
  Ni  Ni14  1  0.37163200  0.34180000  0.52590400  1
  Ni  Ni15  1  0.71625900  0.35297800  0.86424200  1
  Ni  Ni16  1  0.46311600  0.82940800  0.79782400  1
  Ni  Ni17  1  0.20289900  0.16151100  0.86734500  1
  Cu  Cu18  1  0.85312300  0.20245700  0.05696700  1
  Cu  Cu19  1  0.99422600  0.72330900  0.28092300  1
  Cu  Cu20  1  0.35305800  0.29485400  0.05990900  1
  Cu  Cu21  1  0.67811000  0.27623600  0.38401900  1
  Cu  Cu22  1  0.48989400  0.80384100  0.27792100  1
  Cu  Cu23  1  0.81820700  0.79845500  0.61526900  1
  Cu  Cu24  1  0.17793400  0.19559500  0.38975500  1
  Cu  Cu25  1  0.50889900  0.21350600  0.72308800  1
  Cu  Cu26  1  0.31627100  0.70198700  0.60528800  1
  Cu  Cu27  1  0.65198500  0.69489600  0.94840600  1
  Cu  Cu28  1  0.01428400  0.30316200  0.71937700  1
  Cu  Cu29  1  0.15001900  0.79433400  0.93638700  1
  C  C30  1  0.00052600  0.88276600  0.23972600  1
  C  C31  1  0.83352800  0.36487300  0.08931900  1
  C  C32  1  0.73464100  0.09981400  0.09785400  1
  C  C33  1  0.64182800  0.67420400  0.06407300  1
  C  C34  1  0.83870900  0.66878900  0.24151500  1
  C  C35  1  0.49504800  0.36874300  0.08989100  1
  C  C36  1  0.83229200  0.33099700  0.42222500  1
  C  C37  1  0.65261200  0.29371400  0.27314300  1
  C  C38  1  0.61044900  0.90079800  0.22316500  1
  C  C39  1  0.01773200  0.33732500  0.60702500  1
  C  C40  1  0.92844100  0.90192000  0.56053400  1
  C  C41  1  0.50859700  0.63810000  0.26145600  1
  C  C42  1  0.34653600  0.13441300  0.09112700  1
  C  C43  1  0.83253100  0.63758800  0.57528600  1
  C  C44  1  0.67561900  0.11514900  0.42651800  1
  C  C45  1  0.21575500  0.38874200  0.11019300  1
  C  C46  1  0.17604300  0.81575800  0.05274400  1
  C  C47  1  0.55644700  0.37704300  0.44235100  1
  C  C48  1  0.49202600  0.84136700  0.39027600  1
  C  C49  1  0.88618900  0.40058900  0.77009600  1
  C  C50  1  0.33613000  0.84828000  0.22728900  1
  C  C51  1  0.82624600  0.80720700  0.72799900  1
  C  C52  1  0.65571000  0.84374500  0.57140600  1
  C  C53  1  0.00501700  0.87091200  0.90698000  1
  C  C54  1  0.01117000  0.15639000  0.10185600  1
  C  C55  1  0.33201000  0.14934900  0.43799400  1
  C  C56  1  0.17390800  0.16283600  0.27614600  1
  C  C57  1  0.66388500  0.16262100  0.76521000  1
  C  C58  1  0.11505600  0.62035000  0.22296500  1
  C  C59  1  0.49798700  0.17453900  0.60974800  1
  C  C60  1  0.45429400  0.60922200  0.55537800  1
  C  C61  1  0.86110500  0.19598700  0.93947900  1
  C  C62  1  0.77538700  0.59250800  0.90426500  1
  C  C63  1  0.32350300  0.86349400  0.57746900  1
  C  C64  1  0.16284700  0.36195000  0.40690600  1
  C  C65  1  0.67014000  0.85822200  0.92002600  1
  C  C66  1  0.48544000  0.37767800  0.73974600  1
  C  C67  1  0.05672200  0.09932700  0.44270700  1
  C  C68  1  0.01420100  0.70052800  0.39198400  1
  C  C69  1  0.38652300  0.11772000  0.77867800  1
  C  C70  1  0.33767200  0.67601100  0.72216200  1
  C  C71  1  0.17540700  0.62961900  0.57189400  1
  C  C72  1  0.49880800  0.65170700  0.89749500  1
  C  C73  1  0.16259800  0.34870600  0.77364800  1
  C  C74  1  0.32794300  0.31869400  0.94338000  1
  C  C75  1  0.28424700  0.88573500  0.88506400  1
  C  C76  1  0.15902200  0.63426300  0.90673100  1
  C  C77  1  0.00189000  0.13818800  0.74399900  1
