# generated using pymatgen
data_CuNi3C10
_symmetry_space_group_name_H-M   'P 1'
_cell_length_a   8.52664100
_cell_length_b   8.52664100
_cell_length_c   8.52664100
_cell_angle_alpha   90.00000000
_cell_angle_beta   90.00000000
_cell_angle_gamma   90.00000000
_symmetry_Int_Tables_number   1
_chemical_formula_structural   CuNi3C10
_chemical_formula_sum   'Cu4 Ni12 C40'
_cell_volume   619.91755410
_cell_formula_units_Z   4
loop_
 _symmetry_equiv_pos_site_id
 _symmetry_equiv_pos_as_xyz
  1  'x, y, z'
loop_
 _atom_site_type_symbol
 _atom_site_label
 _atom_site_symmetry_multiplicity
 _atom_site_fract_x
 _atom_site_fract_y
 _atom_site_fract_z
 _atom_site_occupancy
  C  C0  1  0.62632000  0.37368000  0.87368000  1
  C  C1  1  0.74726300  0.24726300  0.25273700  1
  C  C2  1  0.75273700  0.75273700  0.75273700  1
  C  C3  1  0.87368000  0.62632000  0.37368000  1
  C  C4  1  0.12632000  0.12632000  0.12632000  1
  C  C5  1  0.24726300  0.25273700  0.74726300  1
  C  C6  1  0.25273700  0.74726300  0.24726300  1
  C  C7  1  0.37368000  0.87368000  0.62632000  1
  Ni  Ni8  1  0.61704400  0.12216600  0.62853800  1
  Ni  Ni9  1  0.62216600  0.87146200  0.38295600  1
  Ni  Ni10  1  0.62853800  0.61704400  0.12216600  1
  Ni  Ni11  1  0.87146200  0.38295600  0.62216600  1
  Ni  Ni12  1  0.87783400  0.12853800  0.88295600  1
  Ni  Ni13  1  0.88295600  0.87783400  0.12853800  1
  Ni  Ni14  1  0.11704400  0.37783400  0.37146200  1
  Ni  Ni15  1  0.12216600  0.62853800  0.61704400  1
  Ni  Ni16  1  0.12853800  0.88295600  0.87783400  1
  Ni  Ni17  1  0.37146200  0.11704400  0.37783400  1
  Ni  Ni18  1  0.37783400  0.37146200  0.11704400  1
  Ni  Ni19  1  0.38295600  0.62216600  0.87146200  1
  Cu  Cu20  1  0.50143500  0.99856500  0.00143500  1
  Cu  Cu21  1  0.99856500  0.00143500  0.50143500  1
  Cu  Cu22  1  0.00143500  0.50143500  0.99856500  1
  Cu  Cu23  1  0.49856500  0.49856500  0.49856500  1
  C  C24  1  0.60342700  0.62876800  0.89249500  1
  C  C25  1  0.60750500  0.39657300  0.12876800  1
  C  C26  1  0.61134600  0.11134600  0.38865400  1
  C  C27  1  0.62876800  0.89249500  0.60342700  1
  C  C28  1  0.62365500  0.64714900  0.35749900  1
  C  C29  1  0.63942900  0.86057100  0.13942900  1
  C  C30  1  0.64250100  0.12365500  0.85285100  1
  C  C31  1  0.64714900  0.35749900  0.62365500  1
  C  C32  1  0.85285100  0.64250100  0.12365500  1
  C  C33  1  0.85749900  0.87634500  0.35285100  1
  C  C34  1  0.86057100  0.13942900  0.63942900  1
  C  C35  1  0.87634500  0.35285100  0.85749900  1
  C  C36  1  0.87123200  0.10750500  0.10342700  1
  C  C37  1  0.88865400  0.88865400  0.88865400  1
  C  C38  1  0.89249500  0.60342700  0.62876800  1
  C  C39  1  0.89657300  0.37123200  0.39249500  1
  C  C40  1  0.10342700  0.87123200  0.10750500  1
  C  C41  1  0.10750500  0.10342700  0.87123200  1
  C  C42  1  0.11134600  0.38865400  0.61134600  1
  C  C43  1  0.12876800  0.60750500  0.39657300  1
  C  C44  1  0.12365500  0.85285100  0.64250100  1
  C  C45  1  0.13942900  0.63942900  0.86057100  1
  C  C46  1  0.14250100  0.37634500  0.14714900  1
  C  C47  1  0.14714900  0.14250100  0.37634500  1
  C  C48  1  0.35285100  0.85749900  0.87634500  1
  C  C49  1  0.35749900  0.62365500  0.64714900  1
  C  C50  1  0.36057100  0.36057100  0.36057100  1
  C  C51  1  0.37634500  0.14714900  0.14250100  1
  C  C52  1  0.37123200  0.39249500  0.89657300  1
  C  C53  1  0.38865400  0.61134600  0.11134600  1
  C  C54  1  0.39249500  0.89657300  0.37123200  1
  C  C55  1  0.39657300  0.12876800  0.60750500  1
