# generated using pymatgen
data_Cu(NiC2)2
_symmetry_space_group_name_H-M   'P 1'
_cell_length_a   6.05169000
_cell_length_b   6.05169000
_cell_length_c   8.48760000
_cell_angle_alpha   90.00000000
_cell_angle_beta   90.00000000
_cell_angle_gamma   90.00000000
_symmetry_Int_Tables_number   1
_chemical_formula_structural   Cu(NiC2)2
_chemical_formula_sum   'Cu4 Ni8 C16'
_cell_volume   310.84096617
_cell_formula_units_Z   4
loop_
 _symmetry_equiv_pos_site_id
 _symmetry_equiv_pos_as_xyz
  1  'x, y, z'
loop_
 _atom_site_type_symbol
 _atom_site_label
 _atom_site_symmetry_multiplicity
 _atom_site_fract_x
 _atom_site_fract_y
 _atom_site_fract_z
 _atom_site_occupancy
  Ni  Ni0  1  0.00000000  0.24874900  0.00000000  1
  Ni  Ni1  1  0.00000000  0.75125100  0.50000000  1
  Ni  Ni2  1  0.24874900  0.00000000  0.75000000  1
  Ni  Ni3  1  0.25257900  0.25257900  0.37500000  1
  Ni  Ni4  1  0.25257900  0.74742100  0.12500000  1
  Ni  Ni5  1  0.74742100  0.25257900  0.62500000  1
  Ni  Ni6  1  0.74742100  0.74742100  0.87500000  1
  Ni  Ni7  1  0.75125100  0.00000000  0.25000000  1
  Cu  Cu8  1  0.23600100  0.50000000  0.75000000  1
  Cu  Cu9  1  0.50000000  0.23600100  0.00000000  1
  Cu  Cu10  1  0.50000000  0.76399900  0.50000000  1
  Cu  Cu11  1  0.76399900  0.50000000  0.25000000  1
  C  C12  1  0.02651600  0.26325500  0.75210100  1
  C  C13  1  0.02651600  0.73674500  0.74789900  1
  C  C14  1  0.26087700  0.48301500  0.98286600  1
  C  C15  1  0.26087700  0.51698500  0.51713400  1
  C  C16  1  0.26325500  0.02651600  0.99789900  1
  C  C17  1  0.26325500  0.97348400  0.50210100  1
  C  C18  1  0.48301500  0.26087700  0.76713400  1
  C  C19  1  0.48301500  0.73912300  0.73286600  1
  C  C20  1  0.51698500  0.26087700  0.23286600  1
  C  C21  1  0.51698500  0.73912300  0.26713400  1
  C  C22  1  0.73674500  0.97348400  0.49789900  1
  C  C23  1  0.73674500  0.02651600  0.00210100  1
  C  C24  1  0.73912300  0.48301500  0.01713400  1
  C  C25  1  0.73912300  0.51698500  0.48286600  1
  C  C26  1  0.97348400  0.26325500  0.24789900  1
  C  C27  1  0.97348400  0.73674500  0.25210100  1
