# generated using pymatgen
data_Cu2Ni3C31
_symmetry_space_group_name_H-M   'P 1'
_cell_length_a   8.62515383
_cell_length_b   8.62515327
_cell_length_c   8.62515367
_cell_angle_alpha   60.24798069
_cell_angle_beta   60.24797333
_cell_angle_gamma   60.24797740
_symmetry_Int_Tables_number   1
_chemical_formula_structural   Cu2Ni3C31
_chemical_formula_sum   'Cu2 Ni3 C31'
_cell_volume   456.26438301
_cell_formula_units_Z   1
loop_
 _symmetry_equiv_pos_site_id
 _symmetry_equiv_pos_as_xyz
  1  'x, y, z'
loop_
 _atom_site_type_symbol
 _atom_site_label
 _atom_site_symmetry_multiplicity
 _atom_site_fract_x
 _atom_site_fract_y
 _atom_site_fract_z
 _atom_site_occupancy
  Ni  Ni0  1  0.14493500  0.14493500  0.14493500  1
  Ni  Ni1  1  0.35529600  0.35529600  0.35529600  1
  Ni  Ni2  1  0.64411900  0.64411900  0.64411900  1
  Cu  Cu3  1  0.00415700  0.00415700  0.00415700  1
  Cu  Cu4  1  0.49971100  0.49971100  0.49971100  1
  C  C5  1  0.85643700  0.85643700  0.85643700  1
  C  C6  1  0.74846300  0.45191700  0.04612100  1
  C  C7  1  0.04612100  0.74846300  0.45191700  1
  C  C8  1  0.45191700  0.04612100  0.74846300  1
  C  C9  1  0.25353800  0.53998300  0.95569700  1
  C  C10  1  0.53998300  0.95569700  0.25353800  1
  C  C11  1  0.95569700  0.25353800  0.53998300  1
  C  C12  1  0.11233600  0.31357900  0.50440600  1
  C  C13  1  0.31357900  0.50440600  0.11233600  1
  C  C14  1  0.05989300  0.91356400  0.25851900  1
  C  C15  1  0.50440600  0.11233600  0.31357900  1
  C  C16  1  0.01456500  0.80937700  0.60765700  1
  C  C17  1  0.24075900  0.58569900  0.43909800  1
  C  C18  1  0.25851900  0.05989300  0.91356400  1
  C  C19  1  0.43909800  0.24075900  0.58569900  1
  C  C20  1  0.18931500  0.38626000  0.99295500  1
  C  C21  1  0.58569900  0.43909800  0.24075900  1
  C  C22  1  0.08921700  0.73838300  0.94316200  1
  C  C23  1  0.38626000  0.99295500  0.18931500  1
  C  C24  1  0.60765700  0.01456500  0.80937700  1
  C  C25  1  0.91356400  0.25851900  0.05989300  1
  C  C26  1  0.41508900  0.55653500  0.75954400  1
  C  C27  1  0.80937700  0.60765700  0.01456500  1
  C  C28  1  0.55653500  0.75954400  0.41508900  1
  C  C29  1  0.73838300  0.94316200  0.08921700  1
  C  C30  1  0.75954400  0.41508900  0.55653500  1
  C  C31  1  0.99295500  0.18931500  0.38626000  1
  C  C32  1  0.49400100  0.88533600  0.69037800  1
  C  C33  1  0.94316200  0.08921700  0.73838300  1
  C  C34  1  0.69037800  0.49400100  0.88533600  1
  C  C35  1  0.88533600  0.69037800  0.49400100  1
