# generated using pymatgen
data_Cu(NiC)3
_symmetry_space_group_name_H-M   'P 1'
_cell_length_a   7.35998814
_cell_length_b   7.35998814
_cell_length_c   7.30328935
_cell_angle_alpha   85.21899673
_cell_angle_beta   85.21899673
_cell_angle_gamma   116.18398688
_symmetry_Int_Tables_number   1
_chemical_formula_structural   Cu(NiC)3
_chemical_formula_sum   'Cu2 Ni6 C6'
_cell_volume   350.57599191
_cell_formula_units_Z   2
loop_
 _symmetry_equiv_pos_site_id
 _symmetry_equiv_pos_as_xyz
  1  'x, y, z'
loop_
 _atom_site_type_symbol
 _atom_site_label
 _atom_site_symmetry_multiplicity
 _atom_site_fract_x
 _atom_site_fract_y
 _atom_site_fract_z
 _atom_site_occupancy
  Ni  Ni0  1  0.63688000  0.63688000  0.64289700  1
  Ni  Ni1  1  0.20498500  0.79501500  0.50000000  1
  Ni  Ni2  1  0.79501500  0.20498500  0.50000000  1
  Ni  Ni3  1  0.73949700  0.26050300  0.00000000  1
  Ni  Ni4  1  0.26050300  0.73949700  0.00000000  1
  Ni  Ni5  1  0.36312000  0.36312000  0.35710300  1
  Cu  Cu6  1  0.82168900  0.82168900  0.14984800  1
  Cu  Cu7  1  0.17831100  0.17831100  0.85015200  1
  C  C8  1  0.89713100  0.89713100  0.84368000  1
  C  C9  1  0.83047200  0.55169200  0.26934600  1
  C  C10  1  0.55169200  0.83047200  0.26934600  1
  C  C11  1  0.16952800  0.44830800  0.73065400  1
  C  C12  1  0.44830800  0.16952800  0.73065400  1
  C  C13  1  0.10286900  0.10286900  0.15632000  1
