# generated using pymatgen
data_Cu5Ni6C31
_symmetry_space_group_name_H-M   'P 1'
_cell_length_a   5.83460100
_cell_length_b   5.89768187
_cell_length_c   13.05197951
_cell_angle_alpha   102.56328388
_cell_angle_beta   102.74999370
_cell_angle_gamma   89.74182390
_symmetry_Int_Tables_number   1
_chemical_formula_structural   Cu5Ni6C31
_chemical_formula_sum   'Cu5 Ni6 C31'
_cell_volume   427.11714740
_cell_formula_units_Z   1
loop_
 _symmetry_equiv_pos_site_id
 _symmetry_equiv_pos_as_xyz
  1  'x, y, z'
loop_
 _atom_site_type_symbol
 _atom_site_label
 _atom_site_symmetry_multiplicity
 _atom_site_fract_x
 _atom_site_fract_y
 _atom_site_fract_z
 _atom_site_occupancy
  C  C0  1  0.66657300  0.66944900  0.83222300  1
  C  C1  1  0.16584700  0.66940500  0.83161500  1
  C  C2  1  0.83767600  0.83385700  0.66799300  1
  C  C3  1  0.00000000  0.00000000  0.50000000  1
  C  C4  1  0.16232400  0.16614300  0.33200700  1
  C  C5  1  0.83415300  0.33059500  0.16838500  1
  C  C6  1  0.33342700  0.33055100  0.16777700  1
  Ni  Ni7  1  0.37597800  0.12829500  0.75164500  1
  Ni  Ni8  1  0.29405300  0.53814000  0.58247900  1
  Ni  Ni9  1  0.70594700  0.46186000  0.41752100  1
  Ni  Ni10  1  0.62402200  0.87170500  0.24835500  1
  Ni  Ni11  1  0.04194700  0.79106700  0.08371100  1
  Ni  Ni12  1  0.95805300  0.20893300  0.91628900  1
  Cu  Cu13  1  0.83711900  0.33472400  0.66784900  1
  Cu  Cu14  1  0.50000000  0.00000000  0.50000000  1
  Cu  Cu15  1  0.16288100  0.66527600  0.33215100  1
  Cu  Cu16  1  0.50000000  0.00000000  0.00000000  1
  Cu  Cu17  1  0.50000000  0.50000000  0.00000000  1
  C  C18  1  0.41766600  0.40545000  0.83454900  1
  C  C19  1  0.41713800  0.92696200  0.83401000  1
  C  C20  1  0.09170400  0.09124500  0.67134400  1
  C  C21  1  0.58101400  0.08772600  0.66621300  1
  C  C22  1  0.57618800  0.57592200  0.66436700  1
  C  C23  1  0.08710600  0.57618900  0.66246900  1
  C  C24  1  0.25917200  0.25670900  0.50365600  1
  C  C25  1  0.25419100  0.74687400  0.49908500  1
  C  C26  1  0.74082800  0.74329100  0.49634400  1
  C  C27  1  0.74580900  0.25312600  0.50091500  1
  C  C28  1  0.42381200  0.42407800  0.33563300  1
  C  C29  1  0.91289400  0.42381100  0.33753100  1
  C  C30  1  0.90829600  0.90875500  0.32865600  1
  C  C31  1  0.41898600  0.91227400  0.33378700  1
  C  C32  1  0.58286200  0.07303800  0.16599000  1
  C  C33  1  0.58233400  0.59455000  0.16545100  1
  C  C34  1  0.08074000  0.06562700  0.16010800  1
  C  C35  1  0.08409900  0.59344700  0.16674800  1
  C  C36  1  0.74865500  0.75001500  0.00180400  1
  C  C37  1  0.25534000  0.75030500  0.00145700  1
  C  C38  1  0.25134500  0.24998500  0.99819600  1
  C  C39  1  0.74466000  0.24969500  0.99854300  1
  C  C40  1  0.91590100  0.40655300  0.83325200  1
  C  C41  1  0.91926000  0.93437300  0.83989200  1
