# generated using pymatgen
data_CuNi3C32
_symmetry_space_group_name_H-M   'P 1'
_cell_length_a   8.65326289
_cell_length_b   8.65326289
_cell_length_c   8.65326312
_cell_angle_alpha   60.53402564
_cell_angle_beta   60.53402564
_cell_angle_gamma   60.53402537
_symmetry_Int_Tables_number   1
_chemical_formula_structural   CuNi3C32
_chemical_formula_sum   'Cu1 Ni3 C32'
_cell_volume   463.69631373
_cell_formula_units_Z   1
loop_
 _symmetry_equiv_pos_site_id
 _symmetry_equiv_pos_as_xyz
  1  'x, y, z'
loop_
 _atom_site_type_symbol
 _atom_site_label
 _atom_site_symmetry_multiplicity
 _atom_site_fract_x
 _atom_site_fract_y
 _atom_site_fract_z
 _atom_site_occupancy
  C  C0  1  0.00867100  0.00867100  0.00867100  1
  C  C1  1  0.50092100  0.50092100  0.50092100  1
  Ni  Ni2  1  0.35749700  0.35749700  0.35749700  1
  Ni  Ni3  1  0.14542500  0.14542500  0.14542500  1
  Ni  Ni4  1  0.64318000  0.64318000  0.64318000  1
  C  C5  1  0.45249600  0.74461700  0.04625400  1
  C  C6  1  0.74461700  0.04625400  0.45249600  1
  C  C7  1  0.04625400  0.45249600  0.74461700  1
  C  C8  1  0.95518000  0.53666000  0.25636300  1
  C  C9  1  0.25636300  0.95518000  0.53666000  1
  C  C10  1  0.53666000  0.25636300  0.95518000  1
  Cu  Cu11  1  0.85743100  0.85743100  0.85743100  1
  C  C12  1  0.67907500  0.89353700  0.49449300  1
  C  C13  1  0.89353700  0.49449300  0.67907500  1
  C  C14  1  0.49449300  0.67907500  0.89353700  1
  C  C15  1  0.26512000  0.90846500  0.06238500  1
  C  C16  1  0.62018100  0.81852100  0.98677500  1
  C  C17  1  0.45777000  0.58943000  0.23811000  1
  C  C18  1  0.90846500  0.06238500  0.26512000  1
  C  C19  1  0.58943000  0.23811000  0.45777000  1
  C  C20  1  0.98900500  0.38932300  0.18725100  1
  C  C21  1  0.23811000  0.45777000  0.58943000  1
  C  C22  1  0.92639400  0.74108400  0.08744400  1
  C  C23  1  0.18725100  0.98900500  0.38932300  1
  C  C24  1  0.81852100  0.98677500  0.62018100  1
  C  C25  1  0.06238500  0.26512000  0.90846500  1
  C  C26  1  0.75712200  0.56146900  0.40964000  1
  C  C27  1  0.98677500  0.62018100  0.81852100  1
  C  C28  1  0.40964000  0.75712200  0.56146900  1
  C  C29  1  0.08744400  0.92639400  0.74108400  1
  C  C30  1  0.56146900  0.40964000  0.75712200  1
  C  C31  1  0.38932300  0.18725100  0.98900500  1
  C  C32  1  0.74108400  0.08744400  0.92639400  1
  C  C33  1  0.51801800  0.30344600  0.11124800  1
  C  C34  1  0.11124800  0.51801800  0.30344600  1
  C  C35  1  0.30344600  0.11124800  0.51801800  1
