# generated using pymatgen
data_Cu16Ni16C5
_symmetry_space_group_name_H-M   'P 1'
_cell_length_a   19.34370600
_cell_length_b   10.99276700
_cell_length_c   16.07763355
_cell_angle_alpha   47.93678256
_cell_angle_beta   90.00000000
_cell_angle_gamma   90.00000000
_symmetry_Int_Tables_number   1
_chemical_formula_structural   Cu16Ni16C5
_chemical_formula_sum   'Cu64 Ni64 C20'
_cell_volume   2538.10950234
_cell_formula_units_Z   4
loop_
 _symmetry_equiv_pos_site_id
 _symmetry_equiv_pos_as_xyz
  1  'x, y, z'
loop_
 _atom_site_type_symbol
 _atom_site_label
 _atom_site_symmetry_multiplicity
 _atom_site_fract_x
 _atom_site_fract_y
 _atom_site_fract_z
 _atom_site_occupancy
  C  C0  1  0.84688300  0.91081300  0.63832000  1
  C  C1  1  0.60276200  0.23250800  0.23259100  1
  C  C2  1  0.34688300  0.08918700  0.86168000  1
  C  C3  1  0.15311700  0.08918700  0.36168000  1
  C  C4  1  0.02241800  0.05535700  0.77023000  1
  C  C5  1  0.97758200  0.94464300  0.22977000  1
  C  C6  1  0.16314700  0.30496500  0.11711600  1
  C  C7  1  0.83685300  0.69503500  0.88288400  1
  C  C8  1  0.89723800  0.23250800  0.73259100  1
  C  C9  1  0.39723800  0.76749200  0.76740900  1
  C  C10  1  0.33685300  0.30496500  0.61711600  1
  C  C11  1  0.52241800  0.94464300  0.72977000  1
  C  C12  1  0.65311700  0.91081300  0.13832000  1
  C  C13  1  0.47758200  0.05535700  0.27023000  1
  C  C14  1  0.10276200  0.76749200  0.26740900  1
  C  C15  1  0.66314700  0.69503500  0.38288400  1
  C  C16  1  0.10058400  0.02107600  0.24870200  1
  C  C17  1  0.89941600  0.97892400  0.75129800  1
  C  C18  1  0.39941600  0.02107600  0.74870200  1
  C  C19  1  0.60058400  0.97892400  0.25129800  1
  Ni  Ni20  1  0.03264000  0.16254400  0.62362800  1
  Ni  Ni21  1  0.93658600  0.86162400  0.64005800  1
  Ni  Ni22  1  0.23529300  0.19070100  0.12804700  1
  Ni  Ni23  1  0.94014800  0.37529400  0.73577400  1
  Ni  Ni24  1  0.76470700  0.80929900  0.87195300  1
  Ni  Ni25  1  0.30953300  0.70805400  0.79977400  1
  Ni  Ni26  1  0.14085900  0.37298300  0.98381100  1
  Ni  Ni27  1  0.41929400  0.18888600  0.26542700  1
  Ni  Ni28  1  0.08394800  0.39229600  0.11737200  1
  Ni  Ni29  1  0.12518400  0.91321400  0.12024600  1
  Ni  Ni30  1  0.49767600  0.92953400  0.41689000  1
  Ni  Ni31  1  0.42875100  0.89039600  0.30452100  1
  Ni  Ni32  1  0.35204100  0.91534500  0.00749400  1
  Ni  Ni33  1  0.99767600  0.07046600  0.08311000  1
  Ni  Ni34  1  0.37481600  0.91321400  0.62024600  1
  Ni  Ni35  1  0.19046700  0.70805400  0.29977400  1
  Ni  Ni36  1  0.56341400  0.86162400  0.14005800  1
  Ni  Ni37  1  0.73185900  0.99903300  0.13797400  1
  Ni  Ni38  1  0.58456500  0.35443200  0.08531900  1
  Ni  Ni39  1  0.46736000  0.16254400  0.12362800  1
  Ni  Ni40  1  0.07124900  0.89039600  0.80452100  1
  Ni  Ni41  1  0.80915400  0.75332500  0.64620100  1
  Ni  Ni42  1  0.64795900  0.08465500  0.99250600  1
  Ni  Ni43  1  0.08070600  0.18888600  0.76542700  1
  Ni  Ni44  1  0.69084600  0.75332500  0.14620100  1
  Ni  Ni45  1  0.69046700  0.29194600  0.20022600  1
  Ni  Ni46  1  0.53264000  0.83745600  0.87637200  1
  Ni  Ni47  1  0.62518400  0.08678600  0.37975400  1
  Ni  Ni48  1  0.28320300  0.45895800  0.59420200  1
  Ni  Ni49  1  0.91929400  0.81111400  0.23457300  1
  Ni  Ni50  1  0.00232400  0.92953400  0.91689000  1
  Ni  Ni51  1  0.76814100  0.99903300  0.63797400  1
  Ni  Ni52  1  0.30915400  0.24667500  0.85379900  1
  Ni  Ni53  1  0.91605200  0.60770400  0.88262800  1
  Ni  Ni54  1  0.08456500  0.64556800  0.41468100  1
  Ni  Ni55  1  0.23185900  0.00096700  0.36202600  1
  Ni  Ni56  1  0.43658600  0.13837600  0.85994200  1
  Ni  Ni57  1  0.14795900  0.91534500  0.50749400  1
  Ni  Ni58  1  0.78320300  0.54104200  0.90579800  1
  Ni  Ni59  1  0.19084600  0.24667500  0.35379900  1
  Ni  Ni60  1  0.96736000  0.83745600  0.37637200  1
  Ni  Ni61  1  0.44014800  0.62470600  0.76422600  1
  Ni  Ni62  1  0.05985200  0.62470600  0.26422600  1
  Ni  Ni63  1  0.50232400  0.07046600  0.58311000  1
  Ni  Ni64  1  0.35914100  0.37298300  0.48381100  1
  Ni  Ni65  1  0.55985200  0.37529400  0.23577400  1
  Ni  Ni66  1  0.41543500  0.64556800  0.91468100  1
  Ni  Ni67  1  0.26470700  0.19070100  0.62804700  1
  Ni  Ni68  1  0.21679700  0.45895800  0.09420200  1
  Ni  Ni69  1  0.87481600  0.08678600  0.87975400  1
  Ni  Ni70  1  0.41605200  0.39229600  0.61737200  1
  Ni  Ni71  1  0.85914100  0.62701700  0.01618900  1
  Ni  Ni72  1  0.06341400  0.13837600  0.35994200  1
  Ni  Ni73  1  0.58394800  0.60770400  0.38262800  1
  Ni  Ni74  1  0.91543500  0.35443200  0.58531900  1
  Ni  Ni75  1  0.26814100  0.00096700  0.86202600  1
  Ni  Ni76  1  0.80953300  0.29194600  0.70022600  1
  Ni  Ni77  1  0.64085900  0.62701700  0.51618900  1
  Ni  Ni78  1  0.58070600  0.81111400  0.73457300  1
  Ni  Ni79  1  0.71679700  0.54104200  0.40579800  1
  Ni  Ni80  1  0.73529300  0.80929900  0.37195300  1
  Ni  Ni81  1  0.85204100  0.08465500  0.49250600  1
  Ni  Ni82  1  0.57124900  0.10960400  0.69547900  1
  Ni  Ni83  1  0.92875100  0.10960400  0.19547900  1
  Cu  Cu84  1  0.42351300  0.55839100  0.01083800  1
  Cu  Cu85  1  0.57648700  0.44160900  0.98916200  1
  Cu  Cu86  1  0.87269900  0.57991100  0.10384700  1
  Cu  Cu87  1  0.12036600  0.27036500  0.76272600  1
  Cu  Cu88  1  0.25261000  0.66454800  0.82342100  1
  Cu  Cu89  1  0.28623300  0.34694900  0.85091900  1
  Cu  Cu90  1  0.45432900  0.22242700  0.03260900  1
  Cu  Cu91  1  0.53524400  0.47122700  0.23573300  1
  Cu  Cu92  1  0.95432900  0.77757300  0.46739100  1
  Cu  Cu93  1  0.96475600  0.47122700  0.73573300  1
  Cu  Cu94  1  0.24739000  0.66454800  0.32342100  1
  Cu  Cu95  1  0.24881300  0.55857800  0.57946200  1
  Cu  Cu96  1  0.03524400  0.52877300  0.26426700  1
  Cu  Cu97  1  0.25118700  0.55857800  0.07946200  1
  Cu  Cu98  1  0.21712700  0.12595900  0.62802900  1
  Cu  Cu99  1  0.46475600  0.52877300  0.76426700  1
  Cu  Cu100  1  0.64684000  0.19855300  0.89752700  1
  Cu  Cu101  1  0.50624300  0.83585200  0.13426300  1
  Cu  Cu102  1  0.53309300  0.54381000  0.39145800  1
  Cu  Cu103  1  0.75118700  0.44142200  0.42053800  1
  Cu  Cu104  1  0.35316000  0.80144700  0.10247300  1
  Cu  Cu105  1  0.00624300  0.16414800  0.36573700  1
  Cu  Cu106  1  0.28287300  0.12595900  0.12802900  1
  Cu  Cu107  1  0.96690700  0.54381000  0.89145800  1
  Cu  Cu108  1  0.14684000  0.80144700  0.60247300  1
  Cu  Cu109  1  0.64539600  0.00284800  0.47119500  1
  Cu  Cu110  1  0.04567100  0.22242700  0.53260900  1
  Cu  Cu111  1  0.12730100  0.42008900  0.89615300  1
  Cu  Cu112  1  0.21709600  0.93532200  0.87382900  1
  Cu  Cu113  1  0.89687600  0.21931000  0.17031300  1
  Cu  Cu114  1  0.50584600  0.84208400  0.51304600  1
  Cu  Cu115  1  0.00584600  0.15791600  0.98695400  1
  Cu  Cu116  1  0.37963400  0.27036500  0.26272600  1
  Cu  Cu117  1  0.71709600  0.06467800  0.62617100  1
  Cu  Cu118  1  0.35460400  0.99715200  0.52880500  1
  Cu  Cu119  1  0.78623300  0.65305100  0.64908100  1
  Cu  Cu120  1  0.87963400  0.72963500  0.23727400  1
  Cu  Cu121  1  0.21376700  0.34694900  0.35091900  1
  Cu  Cu122  1  0.03309300  0.45619000  0.10854200  1
  Cu  Cu123  1  0.54567100  0.77757300  0.96739100  1
  Cu  Cu124  1  0.60312400  0.21931000  0.67031300  1
  Cu  Cu125  1  0.99415400  0.84208400  0.01304600  1
  Cu  Cu126  1  0.62730100  0.57991100  0.60384700  1
  Cu  Cu127  1  0.85316000  0.19855300  0.39752700  1
  Cu  Cu128  1  0.46690700  0.45619000  0.60854200  1
  Cu  Cu129  1  0.28290400  0.93532200  0.37382900  1
  Cu  Cu130  1  0.74739000  0.33545200  0.17657900  1
  Cu  Cu131  1  0.49415400  0.15791600  0.48695400  1
  Cu  Cu132  1  0.78290400  0.06467800  0.12617100  1
  Cu  Cu133  1  0.10312400  0.78069000  0.82968700  1
  Cu  Cu134  1  0.49375700  0.16414800  0.86573700  1
  Cu  Cu135  1  0.78287300  0.87404100  0.37197100  1
  Cu  Cu136  1  0.85460400  0.00284800  0.97119500  1
  Cu  Cu137  1  0.62036600  0.72963500  0.73727400  1
  Cu  Cu138  1  0.75261000  0.33545200  0.67657900  1
  Cu  Cu139  1  0.92351300  0.44160900  0.48916200  1
  Cu  Cu140  1  0.39687600  0.78069000  0.32968700  1
  Cu  Cu141  1  0.07648700  0.55839100  0.51083800  1
  Cu  Cu142  1  0.74881300  0.44142200  0.92053800  1
  Cu  Cu143  1  0.99375700  0.83585200  0.63426300  1
  Cu  Cu144  1  0.71376700  0.65305100  0.14908100  1
  Cu  Cu145  1  0.14539600  0.99715200  0.02880500  1
  Cu  Cu146  1  0.37269900  0.42008900  0.39615300  1
  Cu  Cu147  1  0.71712700  0.87404100  0.87197100  1
