# generated using pymatgen
data_Cu12Ni3C2
_symmetry_space_group_name_H-M   'P 1'
_cell_length_a   8.54126939
_cell_length_b   8.66649285
_cell_length_c   23.73132549
_cell_angle_alpha   90.00000000
_cell_angle_beta   90.00000000
_cell_angle_gamma   90.00000000
_symmetry_Int_Tables_number   1
_chemical_formula_structural   Cu12Ni3C2
_chemical_formula_sum   'Cu96 Ni24 C16'
_cell_volume   1756.66034938
_cell_formula_units_Z   8
loop_
 _symmetry_equiv_pos_site_id
 _symmetry_equiv_pos_as_xyz
  1  'x, y, z'
loop_
 _atom_site_type_symbol
 _atom_site_label
 _atom_site_symmetry_multiplicity
 _atom_site_fract_x
 _atom_site_fract_y
 _atom_site_fract_z
 _atom_site_occupancy
  C  C0  1  0.00154653  0.39860471  0.06104966  1
  C  C1  1  0.00154653  0.10139529  0.56104966  1
  C  C2  1  0.99412322  0.79852295  0.18161637  1
  C  C3  1  0.99412322  0.70147705  0.68161637  1
  C  C4  1  0.50587678  0.29852295  0.18161637  1
  C  C5  1  0.50587678  0.20147705  0.68161637  1
  C  C6  1  0.49845347  0.60139529  0.56104966  1
  C  C7  1  0.49845347  0.89860471  0.06104966  1
  C  C8  1  0.50154653  0.39860471  0.43895034  1
  C  C9  1  0.50154653  0.10139529  0.93895034  1
  C  C10  1  0.49412322  0.70147705  0.81838363  1
  C  C11  1  0.49412322  0.79852295  0.31838363  1
  C  C12  1  0.00587678  0.29852295  0.31838363  1
  C  C13  1  0.00587678  0.20147705  0.81838363  1
  C  C14  1  0.99845347  0.89860471  0.43895034  1
  C  C15  1  0.99845347  0.60139529  0.93895034  1
  Ni  Ni16  1  0.14234056  0.94823344  0.29974295  1
  Ni  Ni17  1  0.14234056  0.55176656  0.79974295  1
  Ni  Ni18  1  0.14542763  0.25525994  0.44676282  1
  Ni  Ni19  1  0.14542763  0.24474006  0.94676282  1
  Ni  Ni20  1  0.20100592  0.09206466  0.11736884  1
  Ni  Ni21  1  0.20100592  0.40793534  0.61736884  1
  Ni  Ni22  1  0.29899408  0.59206466  0.11736884  1
  Ni  Ni23  1  0.29899408  0.90793534  0.61736884  1
  Ni  Ni24  1  0.35457237  0.74474006  0.94676282  1
  Ni  Ni25  1  0.35457237  0.75525994  0.44676282  1
  Ni  Ni26  1  0.35765944  0.44823344  0.29974295  1
  Ni  Ni27  1  0.35765944  0.05176656  0.79974295  1
  Ni  Ni28  1  0.64234056  0.55176656  0.70025705  1
  Ni  Ni29  1  0.64234056  0.94823344  0.20025705  1
  Ni  Ni30  1  0.64542763  0.25525994  0.05323718  1
  Ni  Ni31  1  0.64542763  0.24474006  0.55323718  1
  Ni  Ni32  1  0.70100592  0.09206466  0.38263116  1
  Ni  Ni33  1  0.70100592  0.40793534  0.88263116  1
  Ni  Ni34  1  0.79899408  0.59206466  0.38263116  1
  Ni  Ni35  1  0.79899408  0.90793534  0.88263116  1
  Ni  Ni36  1  0.85457237  0.75525994  0.05323718  1
  Ni  Ni37  1  0.85457237  0.74474006  0.55323718  1
  Ni  Ni38  1  0.85765944  0.44823344  0.20025705  1
  Ni  Ni39  1  0.85765944  0.05176656  0.70025705  1
  Cu  Cu40  1  0.05568539  0.39090128  0.46337154  1
  Cu  Cu41  1  0.05568539  0.10909872  0.96337154  1
  Cu  Cu42  1  0.08796085  0.10093564  0.28042232  1
  Cu  Cu43  1  0.08796085  0.39906436  0.78042232  1
  Cu  Cu44  1  0.08143252  0.11031063  0.47501084  1
  Cu  Cu45  1  0.08143252  0.38968937  0.97501084  1
  Cu  Cu46  1  0.08488818  0.91001417  0.35669978  1
  Cu  Cu47  1  0.08488818  0.58998583  0.85669978  1
  Cu  Cu48  1  0.09624145  0.18795274  0.08191258  1
  Cu  Cu49  1  0.09624145  0.31204726  0.58191258  1
  Cu  Cu50  1  0.08795664  0.82512900  0.26055216  1
  Cu  Cu51  1  0.08795664  0.67487100  0.76055216  1
  Cu  Cu52  1  0.10070622  0.00156753  0.15623240  1
  Cu  Cu53  1  0.10070622  0.49843247  0.65623240  1
  Cu  Cu54  1  0.13864272  0.22912412  0.38519523  1
  Cu  Cu55  1  0.13864272  0.27087588  0.88519523  1
  Cu  Cu56  1  0.18288532  0.44828499  0.29777218  1
  Cu  Cu57  1  0.18288532  0.05171501  0.79777218  1
  Cu  Cu58  1  0.19275120  0.68766909  0.15133391  1
  Cu  Cu59  1  0.19275120  0.81233091  0.65133391  1
  Cu  Cu60  1  0.18907700  0.72811925  0.96527420  1
  Cu  Cu61  1  0.18907700  0.77188075  0.46527420  1
  Cu  Cu62  1  0.21385823  0.01197181  0.57845627  1
  Cu  Cu63  1  0.21385823  0.48802819  0.07845627  1
  Cu  Cu64  1  0.28614177  0.51197181  0.57845627  1
  Cu  Cu65  1  0.28614177  0.98802819  0.07845627  1
  Cu  Cu66  1  0.31092300  0.22811925  0.96527420  1
  Cu  Cu67  1  0.31092300  0.27188075  0.46527420  1
  Cu  Cu68  1  0.30724880  0.18766909  0.15133391  1
  Cu  Cu69  1  0.30724880  0.31233091  0.65133391  1
  Cu  Cu70  1  0.31711468  0.94828499  0.29777218  1
  Cu  Cu71  1  0.31711468  0.55171501  0.79777218  1
  Cu  Cu72  1  0.36135728  0.72912412  0.38519523  1
  Cu  Cu73  1  0.36135728  0.77087588  0.88519523  1
  Cu  Cu74  1  0.39929378  0.99843247  0.65623240  1
  Cu  Cu75  1  0.39929378  0.50156753  0.15623240  1
  Cu  Cu76  1  0.41204336  0.32512900  0.26055216  1
  Cu  Cu77  1  0.41204336  0.17487100  0.76055216  1
  Cu  Cu78  1  0.40375855  0.68795274  0.08191258  1
  Cu  Cu79  1  0.40375855  0.81204726  0.58191258  1
  Cu  Cu80  1  0.41511182  0.08998583  0.85669978  1
  Cu  Cu81  1  0.41511182  0.41001417  0.35669978  1
  Cu  Cu82  1  0.41856748  0.88968937  0.97501084  1
  Cu  Cu83  1  0.41856748  0.61031063  0.47501084  1
  Cu  Cu84  1  0.41203915  0.60093564  0.28042232  1
  Cu  Cu85  1  0.41203915  0.89906436  0.78042232  1
  Cu  Cu86  1  0.44431461  0.60909872  0.96337154  1
  Cu  Cu87  1  0.44431461  0.89090128  0.46337154  1
  Cu  Cu88  1  0.55568539  0.39090128  0.03662846  1
  Cu  Cu89  1  0.55568539  0.10909872  0.53662846  1
  Cu  Cu90  1  0.58796085  0.10093564  0.21957768  1
  Cu  Cu91  1  0.58796085  0.39906436  0.71957768  1
  Cu  Cu92  1  0.58143252  0.11031063  0.02498916  1
  Cu  Cu93  1  0.58143252  0.38968937  0.52498916  1
  Cu  Cu94  1  0.58488818  0.58998583  0.64330022  1
  Cu  Cu95  1  0.58488818  0.91001417  0.14330022  1
  Cu  Cu96  1  0.59624145  0.18795274  0.41808742  1
  Cu  Cu97  1  0.59624145  0.31204726  0.91808742  1
  Cu  Cu98  1  0.58795664  0.82512900  0.23944784  1
  Cu  Cu99  1  0.58795664  0.67487100  0.73944784  1
  Cu  Cu100  1  0.60070622  0.00156753  0.34376760  1
  Cu  Cu101  1  0.60070622  0.49843247  0.84376760  1
  Cu  Cu102  1  0.63864272  0.22912412  0.11480477  1
  Cu  Cu103  1  0.63864272  0.27087588  0.61480477  1
  Cu  Cu104  1  0.68288532  0.44828499  0.20222782  1
  Cu  Cu105  1  0.68288532  0.05171501  0.70222782  1
  Cu  Cu106  1  0.69275120  0.68766909  0.34866609  1
  Cu  Cu107  1  0.69275120  0.81233091  0.84866609  1
  Cu  Cu108  1  0.68907700  0.77188075  0.03472580  1
  Cu  Cu109  1  0.68907700  0.72811925  0.53472580  1
  Cu  Cu110  1  0.71385823  0.48802819  0.42154373  1
  Cu  Cu111  1  0.71385823  0.01197181  0.92154373  1
  Cu  Cu112  1  0.78614177  0.98802819  0.42154373  1
  Cu  Cu113  1  0.78614177  0.51197181  0.92154373  1
  Cu  Cu114  1  0.81092300  0.27188075  0.03472580  1
  Cu  Cu115  1  0.81092300  0.22811925  0.53472580  1
  Cu  Cu116  1  0.80724880  0.18766909  0.34866609  1
  Cu  Cu117  1  0.80724880  0.31233091  0.84866609  1
  Cu  Cu118  1  0.81711468  0.55171501  0.70222782  1
  Cu  Cu119  1  0.81711468  0.94828499  0.20222782  1
  Cu  Cu120  1  0.86135728  0.72912412  0.11480477  1
  Cu  Cu121  1  0.86135728  0.77087588  0.61480477  1
  Cu  Cu122  1  0.89929378  0.50156753  0.34376760  1
  Cu  Cu123  1  0.89929378  0.99843247  0.84376760  1
  Cu  Cu124  1  0.91204336  0.32512900  0.23944784  1
  Cu  Cu125  1  0.91204336  0.17487100  0.73944784  1
  Cu  Cu126  1  0.90375855  0.68795274  0.41808742  1
  Cu  Cu127  1  0.90375855  0.81204726  0.91808742  1
  Cu  Cu128  1  0.91511182  0.41001417  0.14330022  1
  Cu  Cu129  1  0.91511182  0.08998583  0.64330022  1
  Cu  Cu130  1  0.91856748  0.61031063  0.02498916  1
  Cu  Cu131  1  0.91856748  0.88968937  0.52498916  1
  Cu  Cu132  1  0.91203915  0.60093564  0.21957768  1
  Cu  Cu133  1  0.91203915  0.89906436  0.71957768  1
  Cu  Cu134  1  0.94431461  0.60909872  0.53662846  1
  Cu  Cu135  1  0.94431461  0.89090128  0.03662846  1
