# generated using pymatgen
data_Cu5Ni3C4
_symmetry_space_group_name_H-M   'P 1'
_cell_length_a   5.88137480
_cell_length_b   5.88137480
_cell_length_c   9.29526294
_cell_angle_alpha   88.57140333
_cell_angle_beta   88.57140333
_cell_angle_gamma   64.30253492
_symmetry_Int_Tables_number   1
_chemical_formula_structural   Cu5Ni3C4
_chemical_formula_sum   'Cu10 Ni6 C8'
_cell_volume   289.60241427
_cell_formula_units_Z   2
loop_
 _symmetry_equiv_pos_site_id
 _symmetry_equiv_pos_as_xyz
  1  'x, y, z'
loop_
 _atom_site_type_symbol
 _atom_site_label
 _atom_site_symmetry_multiplicity
 _atom_site_fract_x
 _atom_site_fract_y
 _atom_site_fract_z
 _atom_site_occupancy
  C  C0  1  0.00000000  0.50000000  0.00000000  1
  C  C1  1  0.00000000  0.50000000  0.50000000  1
  C  C2  1  0.01864100  0.01864100  0.73594400  1
  C  C3  1  0.53719600  0.53719600  0.75908700  1
  C  C4  1  0.98135900  0.98135900  0.26405600  1
  C  C5  1  0.46280400  0.46280400  0.24091300  1
  C  C6  1  0.50000000  0.00000000  0.50000000  1
  C  C7  1  0.50000000  0.00000000  0.00000000  1
  Ni  Ni8  1  0.14404600  0.64872100  0.35656800  1
  Ni  Ni9  1  0.35127900  0.85595400  0.64343200  1
  Ni  Ni10  1  0.65726800  0.65726800  0.90751000  1
  Ni  Ni11  1  0.34273200  0.34273200  0.09249000  1
  Ni  Ni12  1  0.64872100  0.14404600  0.35656800  1
  Ni  Ni13  1  0.85595400  0.35127900  0.64343200  1
  Cu  Cu14  1  0.16279500  0.66906100  0.83711200  1
  Cu  Cu15  1  0.33093900  0.83720500  0.16288800  1
  Cu  Cu16  1  0.65766600  0.65766600  0.40207300  1
  Cu  Cu17  1  0.14106400  0.14106400  0.89834600  1
  Cu  Cu18  1  0.15426800  0.15426800  0.39733900  1
  Cu  Cu19  1  0.34233400  0.34233400  0.59792700  1
  Cu  Cu20  1  0.84573200  0.84573200  0.60266100  1
  Cu  Cu21  1  0.85893600  0.85893600  0.10165400  1
  Cu  Cu22  1  0.66906100  0.16279500  0.83711200  1
  Cu  Cu23  1  0.83720500  0.33093900  0.16288800  1
