# generated using pymatgen
data_Cu2Ni2C11
_symmetry_space_group_name_H-M   'P 1'
_cell_length_a   6.59140315
_cell_length_b   6.59140315
_cell_length_c   13.51529886
_cell_angle_alpha   72.78458591
_cell_angle_beta   72.78458591
_cell_angle_gamma   47.69890420
_symmetry_Int_Tables_number   1
_chemical_formula_structural   Cu2Ni2C11
_chemical_formula_sum   'Cu4 Ni4 C22'
_cell_volume   410.93176809
_cell_formula_units_Z   2
loop_
 _symmetry_equiv_pos_site_id
 _symmetry_equiv_pos_as_xyz
  1  'x, y, z'
loop_
 _atom_site_type_symbol
 _atom_site_label
 _atom_site_symmetry_multiplicity
 _atom_site_fract_x
 _atom_site_fract_y
 _atom_site_fract_z
 _atom_site_occupancy
  Ni  Ni0  1  0.16086800  0.54124400  0.59827100  1
  Ni  Ni1  1  0.45875600  0.83913200  0.90172900  1
  Ni  Ni2  1  0.83913200  0.45875600  0.40172900  1
  Ni  Ni3  1  0.54124400  0.16086800  0.09827100  1
  Cu  Cu4  1  0.34583500  0.90191800  0.62464700  1
  Cu  Cu5  1  0.09808200  0.65416500  0.87535300  1
  Cu  Cu6  1  0.65416500  0.09808200  0.37535300  1
  Cu  Cu7  1  0.90191800  0.34583500  0.12464700  1
  C  C8  1  0.77645500  0.29415500  0.78865800  1
  C  C9  1  0.70584500  0.22354500  0.71134200  1
  C  C10  1  0.22354500  0.70584500  0.21134200  1
  C  C11  1  0.29415500  0.77645500  0.28865800  1
  C  C12  1  0.31098000  0.59011300  0.66520600  1
  C  C13  1  0.40988700  0.68902000  0.83479400  1
  C  C14  1  0.68902000  0.40988700  0.33479400  1
  C  C15  1  0.59011300  0.31098000  0.16520600  1
  C  C16  1  0.87831700  0.61217200  0.66775100  1
  C  C17  1  0.38782800  0.12168300  0.83224900  1
  C  C18  1  0.12168300  0.38782800  0.33224900  1
  C  C19  1  0.61217200  0.87831700  0.16775100  1
  C  C20  1  0.39572000  0.20175900  0.57348700  1
  C  C21  1  0.79824100  0.60428000  0.92651300  1
  C  C22  1  0.60428000  0.79824100  0.42651300  1
  C  C23  1  0.20175900  0.39572000  0.07348700  1
  C  C24  1  0.09186900  0.73816700  0.48665200  1
  C  C25  1  0.26183300  0.90813100  0.01334800  1
  C  C26  1  0.90813100  0.26183300  0.51334800  1
  C  C27  1  0.73816700  0.09186900  0.98665200  1
  C  C28  1  0.85462600  0.14537400  0.75000000  1
  C  C29  1  0.14537400  0.85462600  0.25000000  1
