# generated using pymatgen
data_Cu12Ni2C11
_symmetry_space_group_name_H-M   'P 1'
_cell_length_a   12.20937387
_cell_length_b   12.20937387
_cell_length_c   12.13032050
_cell_angle_alpha   64.85597653
_cell_angle_beta   64.85597653
_cell_angle_gamma   46.42184222
_symmetry_Int_Tables_number   1
_chemical_formula_structural   Cu12Ni2C11
_chemical_formula_sum   'Cu48 Ni8 C44'
_cell_volume   1161.56308642
_cell_formula_units_Z   4
loop_
 _symmetry_equiv_pos_site_id
 _symmetry_equiv_pos_as_xyz
  1  'x, y, z'
loop_
 _atom_site_type_symbol
 _atom_site_label
 _atom_site_symmetry_multiplicity
 _atom_site_fract_x
 _atom_site_fract_y
 _atom_site_fract_z
 _atom_site_occupancy
  C  C0  1  0.63774100  0.60350100  0.79880800  1
  C  C1  1  0.39649900  0.36225900  0.70119200  1
  C  C2  1  0.36225900  0.39649900  0.20119200  1
  C  C3  1  0.60350100  0.63774100  0.29880800  1
  C  C4  1  0.11867600  0.13751900  0.79162600  1
  C  C5  1  0.86248100  0.88132400  0.70837400  1
  C  C6  1  0.88132400  0.86248100  0.20837400  1
  C  C7  1  0.13751900  0.11867600  0.29162600  1
  C  C8  1  0.24915700  0.75084300  0.75000000  1
  C  C9  1  0.75084300  0.24915700  0.25000000  1
  C  C10  1  0.00000000  0.50000000  0.50000000  1
  C  C11  1  0.50000000  0.00000000  0.00000000  1
  C  C12  1  0.70211900  0.68699500  0.47608000  1
  C  C13  1  0.31300500  0.29788100  0.02392000  1
  C  C14  1  0.29788100  0.31300500  0.52392000  1
  C  C15  1  0.68699500  0.70211900  0.97608000  1
  C  C16  1  0.74401500  0.52231900  0.53349400  1
  C  C17  1  0.47768100  0.25598500  0.96650600  1
  C  C18  1  0.25598500  0.47768100  0.46650600  1
  C  C19  1  0.52231900  0.74401500  0.03349400  1
  C  C20  1  0.19509100  0.19299900  0.47914000  1
  C  C21  1  0.80700100  0.80490900  0.02086000  1
  C  C22  1  0.80490900  0.80700100  0.52086000  1
  C  C23  1  0.19299900  0.19509100  0.97914000  1
  C  C24  1  0.02649900  0.24226400  0.52984900  1
  C  C25  1  0.75773600  0.97350100  0.97015100  1
  C  C26  1  0.97350100  0.75773600  0.47015100  1
  C  C27  1  0.24226400  0.02649900  0.02984900  1
  C  C28  1  0.55664400  0.48256100  0.67398400  1
  C  C29  1  0.51743900  0.44335600  0.82601600  1
  C  C30  1  0.44335600  0.51743900  0.32601600  1
  C  C31  1  0.48256100  0.55664400  0.17398400  1
  C  C32  1  0.98164300  0.05713000  0.67399100  1
  C  C33  1  0.94287000  0.01835700  0.82600900  1
  C  C34  1  0.01835700  0.94287000  0.32600900  1
  C  C35  1  0.05713000  0.98164300  0.17399100  1
  C  C36  1  0.36786900  0.90880500  0.54020300  1
  C  C37  1  0.09119500  0.63213100  0.95979700  1
  C  C38  1  0.63213100  0.09119500  0.45979700  1
  C  C39  1  0.90880500  0.36786900  0.04020300  1
  C  C40  1  0.39917200  0.88314800  0.66673500  1
  C  C41  1  0.11685200  0.60082800  0.83326500  1
  C  C42  1  0.60082800  0.11685200  0.33326500  1
  C  C43  1  0.88314800  0.39917200  0.16673500  1
  Ni  Ni44  1  0.73004800  0.22483700  0.97918400  1
  Ni  Ni45  1  0.77516300  0.26995200  0.52081600  1
  Ni  Ni46  1  0.26995200  0.77516300  0.02081600  1
  Ni  Ni47  1  0.22483700  0.73004800  0.47918400  1
  Ni  Ni48  1  0.98159700  0.49881700  0.79796000  1
  Ni  Ni49  1  0.50118300  0.01840300  0.70204000  1
  Ni  Ni50  1  0.01840300  0.50118300  0.20204000  1
  Ni  Ni51  1  0.49881700  0.98159700  0.29796000  1
  Cu  Cu52  1  0.56804400  0.32049400  0.96290000  1
  Cu  Cu53  1  0.67950500  0.43195600  0.53710000  1
  Cu  Cu54  1  0.43195600  0.67950500  0.03710000  1
  Cu  Cu55  1  0.32049400  0.56804400  0.46290000  1
  Cu  Cu56  1  0.93756500  0.17920200  0.53328100  1
  Cu  Cu57  1  0.82079800  0.06243500  0.96671900  1
  Cu  Cu58  1  0.06243500  0.82079800  0.46671900  1
  Cu  Cu59  1  0.17920200  0.93756500  0.03328100  1
  Cu  Cu60  1  0.35763900  0.04303100  0.39988500  1
  Cu  Cu61  1  0.95696900  0.64236100  0.10011500  1
  Cu  Cu62  1  0.64236100  0.95696900  0.60011500  1
  Cu  Cu63  1  0.04303100  0.35763900  0.89988500  1
  Cu  Cu64  1  0.62956900  0.82358300  0.34696400  1
  Cu  Cu65  1  0.17641700  0.37043100  0.15303600  1
  Cu  Cu66  1  0.37043100  0.17641700  0.65303600  1
  Cu  Cu67  1  0.82358300  0.62956900  0.84696400  1
  Cu  Cu68  1  0.21942200  0.72028600  0.60778300  1
  Cu  Cu69  1  0.27971400  0.78057800  0.89221700  1
  Cu  Cu70  1  0.78057800  0.27971400  0.39221700  1
  Cu  Cu71  1  0.72028600  0.21942200  0.10778300  1
  Cu  Cu72  1  0.80549300  0.29202200  0.88500500  1
  Cu  Cu73  1  0.70797800  0.19450700  0.61499500  1
  Cu  Cu74  1  0.19450700  0.70797800  0.11499500  1
  Cu  Cu75  1  0.29202200  0.80549300  0.38500500  1
  Cu  Cu76  1  0.97292800  0.46127200  0.70039600  1
  Cu  Cu77  1  0.53872800  0.02707200  0.79960400  1
  Cu  Cu78  1  0.02707200  0.53872800  0.29960400  1
  Cu  Cu79  1  0.46127200  0.97292800  0.20039600  1
  Cu  Cu80  1  0.08407700  0.54274300  0.74390900  1
  Cu  Cu81  1  0.45725700  0.91592300  0.75609100  1
  Cu  Cu82  1  0.91592300  0.45725700  0.25609100  1
  Cu  Cu83  1  0.54274300  0.08407700  0.24390900  1
  Cu  Cu84  1  0.75910500  0.59082100  0.53797600  1
  Cu  Cu85  1  0.40917900  0.24089500  0.96202400  1
  Cu  Cu86  1  0.24089500  0.40917900  0.46202400  1
  Cu  Cu87  1  0.59082100  0.75910500  0.03797600  1
  Cu  Cu88  1  0.09437100  0.25950700  0.53250100  1
  Cu  Cu89  1  0.74049300  0.90562900  0.96749900  1
  Cu  Cu90  1  0.90562900  0.74049300  0.46749900  1
  Cu  Cu91  1  0.25950700  0.09437100  0.03250100  1
  Cu  Cu92  1  0.47752900  0.52247100  0.75000000  1
  Cu  Cu93  1  0.52247100  0.47752900  0.25000000  1
  Cu  Cu94  1  0.02149600  0.97850400  0.75000000  1
  Cu  Cu95  1  0.97850400  0.02149600  0.25000000  1
  Cu  Cu96  1  0.36251200  0.85777000  0.62935500  1
  Cu  Cu97  1  0.14223000  0.63748800  0.87064500  1
  Cu  Cu98  1  0.63748800  0.14223000  0.37064500  1
  Cu  Cu99  1  0.85777000  0.36251200  0.12935500  1
