# generated using pymatgen
data_Cu16Ni4C23
_symmetry_space_group_name_H-M   'P 1'
_cell_length_a   10.67853800
_cell_length_b   7.18232400
_cell_length_c   12.06495637
_cell_angle_alpha   64.38562700
_cell_angle_beta   90.00000000
_cell_angle_gamma   90.00000000
_symmetry_Int_Tables_number   1
_chemical_formula_structural   Cu16Ni4C23
_chemical_formula_sum   'Cu32 Ni8 C46'
_cell_volume   834.40370883
_cell_formula_units_Z   2
loop_
 _symmetry_equiv_pos_site_id
 _symmetry_equiv_pos_as_xyz
  1  'x, y, z'
loop_
 _atom_site_type_symbol
 _atom_site_label
 _atom_site_symmetry_multiplicity
 _atom_site_fract_x
 _atom_site_fract_y
 _atom_site_fract_z
 _atom_site_occupancy
  C  C0  1  0.83994500  0.20370700  0.04435800  1
  C  C1  1  0.33994500  0.79629300  0.45564200  1
  C  C2  1  0.66005500  0.20370700  0.54435800  1
  C  C3  1  0.16005500  0.79629300  0.95564200  1
  C  C4  1  0.50000000  0.50000000  0.00000000  1
  C  C5  1  0.00000000  0.50000000  0.50000000  1
  Ni  Ni6  1  0.73871100  0.68460800  0.58401200  1
  Ni  Ni7  1  0.23871100  0.31539200  0.91598800  1
  Ni  Ni8  1  0.54460100  0.03711600  0.22477100  1
  Ni  Ni9  1  0.04460100  0.96288400  0.27522900  1
  Ni  Ni10  1  0.95539900  0.03711600  0.72477100  1
  Ni  Ni11  1  0.45539900  0.96288400  0.77522900  1
  Ni  Ni12  1  0.76128900  0.68460800  0.08401200  1
  Ni  Ni13  1  0.26128900  0.31539200  0.41598800  1
  Cu  Cu14  1  0.09821900  0.74478700  0.60659800  1
  Cu  Cu15  1  0.46018400  0.66751400  0.69112000  1
  Cu  Cu16  1  0.06563900  0.48163300  0.89597500  1
  Cu  Cu17  1  0.87752600  0.50636300  0.81199000  1
  Cu  Cu18  1  0.67293200  0.46581100  0.84155700  1
  Cu  Cu19  1  0.21044300  0.13770800  0.28804100  1
  Cu  Cu20  1  0.17293200  0.53418900  0.65844300  1
  Cu  Cu21  1  0.37752600  0.49363700  0.68801000  1
  Cu  Cu22  1  0.91354000  0.91024500  0.42393200  1
  Cu  Cu23  1  0.60451600  0.89945200  0.44618400  1
  Cu  Cu24  1  0.56563900  0.51836700  0.60402500  1
  Cu  Cu25  1  0.96018400  0.33248600  0.80888000  1
  Cu  Cu26  1  0.59821900  0.25521300  0.89340200  1
  Cu  Cu27  1  0.10451600  0.10054800  0.05381600  1
  Cu  Cu28  1  0.41354000  0.08975500  0.07606800  1
  Cu  Cu29  1  0.71044300  0.86229200  0.21195900  1
  Cu  Cu30  1  0.28955700  0.13770800  0.78804100  1
  Cu  Cu31  1  0.58646000  0.91024500  0.92393200  1
  Cu  Cu32  1  0.89548400  0.89945200  0.94618400  1
  Cu  Cu33  1  0.40178100  0.74478700  0.10659800  1
  Cu  Cu34  1  0.03981600  0.66751400  0.19112000  1
  Cu  Cu35  1  0.43436100  0.48163300  0.39597500  1
  Cu  Cu36  1  0.39548400  0.10054800  0.55381600  1
  Cu  Cu37  1  0.08646000  0.08975500  0.57606800  1
  Cu  Cu38  1  0.62247400  0.50636300  0.31199000  1
  Cu  Cu39  1  0.82706800  0.46581100  0.34155700  1
  Cu  Cu40  1  0.78955700  0.86229200  0.71195900  1
  Cu  Cu41  1  0.32706800  0.53418900  0.15844300  1
  Cu  Cu42  1  0.12247400  0.49363700  0.18801000  1
  Cu  Cu43  1  0.93436100  0.51836700  0.10402500  1
  Cu  Cu44  1  0.53981600  0.33248600  0.30888000  1
  Cu  Cu45  1  0.90178100  0.25521300  0.39340200  1
  C  C46  1  0.66511800  0.89527700  0.51687800  1
  C  C47  1  0.75728700  0.64920100  0.71780400  1
  C  C48  1  0.15586600  0.49563900  0.92153200  1
  C  C49  1  0.52605600  0.26625200  0.18782200  1
  C  C50  1  0.43782900  0.60187200  0.63540400  1
  C  C51  1  0.14031500  0.64710000  0.58112200  1
  C  C52  1  0.86029700  0.69662600  0.51563900  1
  C  C53  1  0.36029700  0.30337400  0.98436100  1
  C  C54  1  0.64031500  0.35290000  0.91887800  1
  C  C55  1  0.93782900  0.39812800  0.86459600  1
  C  C56  1  0.95981800  0.03416900  0.35908600  1
  C  C57  1  0.18708300  0.98886000  0.30515600  1
  C  C58  1  0.65586600  0.50436100  0.57846800  1
  C  C59  1  0.01408800  0.10570000  0.14124900  1
  C  C60  1  0.25728700  0.35079900  0.78219600  1
  C  C61  1  0.51408800  0.89430000  0.35875100  1
  C  C62  1  0.68708300  0.01114000  0.19484400  1
  C  C63  1  0.16511800  0.10472300  0.98312200  1
  C  C64  1  0.45981800  0.96583100  0.14091400  1
  C  C65  1  0.97394400  0.26625200  0.68782200  1
  C  C66  1  0.02605600  0.73374800  0.31217800  1
  C  C67  1  0.54018200  0.03416900  0.85908600  1
  C  C68  1  0.83488200  0.89527700  0.01687800  1
  C  C69  1  0.31291700  0.98886000  0.80515600  1
  C  C70  1  0.48591200  0.10570000  0.64124900  1
  C  C71  1  0.74271300  0.64920100  0.21780400  1
  C  C72  1  0.98591200  0.89430000  0.85875100  1
  C  C73  1  0.34413400  0.49563900  0.42153200  1
  C  C74  1  0.81291700  0.01114000  0.69484400  1
  C  C75  1  0.04018200  0.96583100  0.64091400  1
  C  C76  1  0.06217100  0.60187200  0.13540400  1
  C  C77  1  0.35968500  0.64710000  0.08112200  1
  C  C78  1  0.63970300  0.69662600  0.01563900  1
  C  C79  1  0.13970300  0.30337400  0.48436100  1
  C  C80  1  0.85968500  0.35290000  0.41887800  1
  C  C81  1  0.56217100  0.39812800  0.36459600  1
  C  C82  1  0.47394400  0.73374800  0.81217800  1
  C  C83  1  0.84413400  0.50436100  0.07846800  1
  C  C84  1  0.24271300  0.35079900  0.28219600  1
  C  C85  1  0.33488200  0.10472300  0.48312200  1
