# generated using pymatgen
data_CuNi2C11
_symmetry_space_group_name_H-M   'P 1'
_cell_length_a   8.13465761
_cell_length_b   8.68514397
_cell_length_c   9.68099286
_cell_angle_alpha   102.11713201
_cell_angle_beta   105.51663338
_cell_angle_gamma   97.57944749
_symmetry_Int_Tables_number   1
_chemical_formula_structural   CuNi2C11
_chemical_formula_sum   'Cu4 Ni8 C44'
_cell_volume   631.38860097
_cell_formula_units_Z   4
loop_
 _symmetry_equiv_pos_site_id
 _symmetry_equiv_pos_as_xyz
  1  'x, y, z'
loop_
 _atom_site_type_symbol
 _atom_site_label
 _atom_site_symmetry_multiplicity
 _atom_site_fract_x
 _atom_site_fract_y
 _atom_site_fract_z
 _atom_site_occupancy
  C  C0  1  0.14019600  0.77031900  0.11037500  1
  C  C1  1  0.14016800  0.77036600  0.61036200  1
  C  C2  1  0.85979700  0.22967500  0.38961800  1
  C  C3  1  0.85983900  0.22964100  0.88964500  1
  C  C4  1  0.37158800  0.61750100  0.33525200  1
  C  C5  1  0.37165600  0.61749600  0.83524800  1
  C  C6  1  0.62840700  0.38249500  0.16474100  1
  C  C7  1  0.62834900  0.38251000  0.66476000  1
  C  C8  1  0.18445000  0.21317500  0.70273500  1
  C  C9  1  0.81554400  0.78682800  0.79725000  1
  C  C10  1  0.18449100  0.21313600  0.20294000  1
  C  C11  1  0.81551200  0.78686800  0.29707300  1
  Ni  Ni12  1  0.23381300  0.94235600  0.41997700  1
  Ni  Ni13  1  0.23384400  0.94239700  0.92001400  1
  Ni  Ni14  1  0.76618600  0.05764100  0.08002200  1
  Ni  Ni15  1  0.76615700  0.05760500  0.57998800  1
  Ni  Ni16  1  0.24358100  0.42433200  0.04567900  1
  Ni  Ni17  1  0.24360500  0.42443500  0.54571400  1
  Ni  Ni18  1  0.75641500  0.57565600  0.45432200  1
  Ni  Ni19  1  0.75640000  0.57557700  0.95428500  1
  Cu  Cu20  1  0.44992400  0.13126600  0.43549600  1
  Cu  Cu21  1  0.44986000  0.13127200  0.93537900  1
  Cu  Cu22  1  0.55007500  0.86873400  0.06450600  1
  Cu  Cu23  1  0.55014000  0.86872800  0.56462000  1
  C  C24  1  0.06802400  0.86333300  0.28877700  1
  C  C25  1  0.06804000  0.86335000  0.78885300  1
  C  C26  1  0.93197500  0.13666200  0.21122300  1
  C  C27  1  0.93196100  0.13665300  0.71114600  1
  C  C28  1  0.07119600  0.31742500  0.04816300  1
  C  C29  1  0.07117600  0.31747900  0.54810000  1
  C  C30  1  0.92880100  0.68256900  0.45184700  1
  C  C31  1  0.92882700  0.68252500  0.95189100  1
  C  C32  1  0.19049000  0.00751500  0.06437100  1
  C  C33  1  0.19037500  0.00743000  0.56428400  1
  C  C34  1  0.80951000  0.99248700  0.43563100  1
  C  C35  1  0.80962200  0.99256600  0.93571500  1
  C  C36  1  0.25030800  0.40562600  0.38331700  1
  C  C37  1  0.25026900  0.40552100  0.88328600  1
  C  C38  1  0.74969900  0.59439400  0.11668300  1
  C  C39  1  0.74972600  0.59446100  0.61671500  1
  C  C40  1  0.36257900  0.83179400  0.44647800  1
  C  C41  1  0.36263900  0.83183600  0.94654400  1
  C  C42  1  0.63742000  0.16820400  0.05351900  1
  C  C43  1  0.63736100  0.16816600  0.55346000  1
  C  C44  1  0.26332800  0.59979300  0.12259800  1
  C  C45  1  0.26333000  0.59985300  0.62264400  1
  C  C46  1  0.73666700  0.40019800  0.37739200  1
  C  C47  1  0.73667600  0.40015600  0.87736200  1
  C  C48  1  0.32217800  0.09102100  0.36880500  1
  C  C49  1  0.32214700  0.09100700  0.86877700  1
  C  C50  1  0.67782000  0.90898000  0.13119700  1
  C  C51  1  0.67785500  0.90899100  0.63122100  1
  C  C52  1  0.37966300  0.34469400  0.13915000  1
  C  C53  1  0.37962200  0.34475500  0.63916500  1
  C  C54  1  0.62033700  0.65530200  0.36085700  1
  C  C55  1  0.62037900  0.65524800  0.86082500  1
