# generated using pymatgen
data_CuNi2C3
_symmetry_space_group_name_H-M   'P 1'
_cell_length_a   5.02086179
_cell_length_b   9.16389954
_cell_length_c   5.02047786
_cell_angle_alpha   99.99976933
_cell_angle_beta   71.09299551
_cell_angle_gamma   78.72573160
_symmetry_Int_Tables_number   1
_chemical_formula_structural   CuNi2C3
_chemical_formula_sum   'Cu4 Ni8 C12'
_cell_volume   207.20533049
_cell_formula_units_Z   4
loop_
 _symmetry_equiv_pos_site_id
 _symmetry_equiv_pos_as_xyz
  1  'x, y, z'
loop_
 _atom_site_type_symbol
 _atom_site_label
 _atom_site_symmetry_multiplicity
 _atom_site_fract_x
 _atom_site_fract_y
 _atom_site_fract_z
 _atom_site_occupancy
  C  C0  1  0.99507300  0.99466500  0.49098000  1
  C  C1  1  0.58158800  0.83206600  0.40651400  1
  C  C2  1  0.16466200  0.66973800  0.34768700  1
  C  C3  1  0.74132600  0.49544600  0.27220800  1
  C  C4  1  0.24598100  0.49483700  0.74173100  1
  C  C5  1  0.32661600  0.33292700  0.16898300  1
  C  C6  1  0.42566500  0.17122400  0.58952600  1
  C  C7  1  0.52667500  0.99509600  0.98698000  1
  C  C8  1  0.09424100  0.83431800  0.90730200  1
  C  C9  1  0.65872600  0.67228100  0.82541900  1
  C  C10  1  0.82350700  0.33426400  0.67781600  1
  C  C11  1  0.90342500  0.17219700  0.08063400  1
  Ni  Ni12  1  0.34633400  0.82443200  0.12028000  1
  Ni  Ni13  1  0.86121700  0.82588300  0.68159200  1
  Ni  Ni14  1  0.39991100  0.67449200  0.61799800  1
  Ni  Ni15  1  0.95375100  0.50042000  0.55014500  1
  Ni  Ni16  1  0.60536400  0.32575700  0.43686000  1
  Ni  Ni17  1  0.04595900  0.32472200  0.92045700  1
  Ni  Ni18  1  0.69387900  0.17446200  0.82438400  1
  Ni  Ni19  1  0.80053900  0.00008800  0.20301000  1
  Cu  Cu20  1  0.89436900  0.66492100  0.10031100  1
  Cu  Cu21  1  0.46568200  0.50110700  0.03069000  1
  Cu  Cu22  1  0.18483700  0.16486400  0.30800600  1
  Cu  Cu23  1  0.28007300  0.00095300  0.71461800  1
