# generated using pymatgen
data_Cu2Ni3C23
_symmetry_space_group_name_H-M   'P 1'
_cell_length_a   5.88702800
_cell_length_b   5.93935415
_cell_length_c   9.59183375
_cell_angle_alpha   90.43019195
_cell_angle_beta   90.10129683
_cell_angle_gamma   119.08997511
_symmetry_Int_Tables_number   1
_chemical_formula_structural   Cu2Ni3C23
_chemical_formula_sum   'Cu2 Ni3 C23'
_cell_volume   293.06023662
_cell_formula_units_Z   1
loop_
 _symmetry_equiv_pos_site_id
 _symmetry_equiv_pos_as_xyz
  1  'x, y, z'
loop_
 _atom_site_type_symbol
 _atom_site_label
 _atom_site_symmetry_multiplicity
 _atom_site_fract_x
 _atom_site_fract_y
 _atom_site_fract_z
 _atom_site_occupancy
  C  C0  1  0.32647700  0.66772000  0.89025100  1
  C  C1  1  0.00196600  0.00238100  0.99544700  1
  C  C2  1  0.00585600  0.99497000  0.49671900  1
  C  C3  1  0.66731100  0.32888900  0.39528600  1
  C  C4  1  0.16871500  0.33986400  0.21632800  1
  C  C5  1  0.65925700  0.83257200  0.21566900  1
  C  C6  1  0.83190400  0.17190000  0.71406600  1
  Ni  Ni7  1  0.16697300  0.82913900  0.21215100  1
  Ni  Ni8  1  0.34100300  0.16894500  0.71379200  1
  Ni  Ni9  1  0.82707100  0.66006400  0.71559600  1
  Cu  Cu10  1  0.33583600  0.66929100  0.49259900  1
  Cu  Cu11  1  0.65797500  0.33830700  0.98966900  1
  C  C12  1  0.16462400  0.32330200  0.60203200  1
  C  C13  1  0.48776300  0.51952400  0.33178500  1
  C  C14  1  0.32779700  0.66864800  0.10606000  1
  C  C15  1  0.00484200  0.99696200  0.30877000  1
  C  C16  1  0.01667600  0.02018000  0.81027300  1
  C  C17  1  0.67974600  0.83481000  0.60353200  1
  C  C18  1  0.04081100  0.50216800  0.34558700  1
  C  C19  1  0.49318000  0.95837800  0.34104600  1
  C  C20  1  0.83203500  0.16498100  0.10458200  1
  C  C21  1  0.17949200  0.84921800  0.60155100  1
  C  C22  1  0.52088900  0.03924900  0.83583700  1
  C  C23  1  0.95610100  0.48122000  0.83508200  1
  C  C24  1  0.65461600  0.30981300  0.60301200  1
  C  C25  1  0.32678900  0.18348000  0.09835800  1
  C  C26  1  0.50094500  0.46710100  0.83672200  1
  C  C27  1  0.82304900  0.67662000  0.09603700  1
