# generated using pymatgen
data_Cu9Ni3C16
_symmetry_space_group_name_H-M   'P 1'
_cell_length_a   6.12874300
_cell_length_b   8.64499500
_cell_length_c   12.19073600
_cell_angle_alpha   90.00000000
_cell_angle_beta   90.00000000
_cell_angle_gamma   90.00000000
_symmetry_Int_Tables_number   1
_chemical_formula_structural   Cu9Ni3C16
_chemical_formula_sum   'Cu18 Ni6 C32'
_cell_volume   645.90118754
_cell_formula_units_Z   2
loop_
 _symmetry_equiv_pos_site_id
 _symmetry_equiv_pos_as_xyz
  1  'x, y, z'
loop_
 _atom_site_type_symbol
 _atom_site_label
 _atom_site_symmetry_multiplicity
 _atom_site_fract_x
 _atom_site_fract_y
 _atom_site_fract_z
 _atom_site_occupancy
  Ni  Ni0  1  0.50000000  0.50056000  0.25206300  1
  Ni  Ni1  1  0.50000000  0.50000000  0.00000000  1
  Ni  Ni2  1  0.50000000  0.49944000  0.74793700  1
  Ni  Ni3  1  0.00000000  0.00000000  0.50000000  1
  Ni  Ni4  1  0.00000000  0.99944000  0.75206300  1
  Ni  Ni5  1  0.00000000  0.00056000  0.24793700  1
  Cu  Cu6  1  0.75065700  0.24861000  0.87604200  1
  Cu  Cu7  1  0.74934300  0.25139000  0.37604200  1
  Cu  Cu8  1  0.24934300  0.24861000  0.87604200  1
  Cu  Cu9  1  0.25065700  0.25139000  0.37604200  1
  Cu  Cu10  1  0.00000000  0.36591100  0.12416800  1
  Cu  Cu11  1  0.00000000  0.36820200  0.62764600  1
  Cu  Cu12  1  0.50000000  0.50000000  0.50000000  1
  Cu  Cu13  1  0.00000000  0.63408900  0.87583200  1
  Cu  Cu14  1  0.00000000  0.63179800  0.37235400  1
  Cu  Cu15  1  0.25065700  0.74861000  0.62395800  1
  Cu  Cu16  1  0.75065700  0.75139000  0.12395800  1
  Cu  Cu17  1  0.24934300  0.75139000  0.12395800  1
  Cu  Cu18  1  0.74934300  0.74861000  0.62395800  1
  Cu  Cu19  1  0.50000000  0.86820200  0.87235400  1
  Cu  Cu20  1  0.50000000  0.86591100  0.37583200  1
  Cu  Cu21  1  0.00000000  0.00000000  0.00000000  1
  Cu  Cu22  1  0.50000000  0.13408900  0.62416800  1
  Cu  Cu23  1  0.50000000  0.13179800  0.12764600  1
  C  C24  1  0.50000000  0.26566200  0.00213800  1
  C  C25  1  0.50000000  0.27077900  0.76246700  1
  C  C26  1  0.50000000  0.26408400  0.48627000  1
  C  C27  1  0.50000000  0.27275100  0.24824500  1
  C  C28  1  0.28395900  0.50114900  0.87804000  1
  C  C29  1  0.71604100  0.50114900  0.87804000  1
  C  C30  1  0.73928500  0.50664800  0.35955300  1
  C  C31  1  0.26071500  0.50664800  0.35955300  1
  C  C32  1  0.73928500  0.49335200  0.64044700  1
  C  C33  1  0.71604100  0.49885100  0.12196000  1
  C  C34  1  0.28395900  0.49885100  0.12196000  1
  C  C35  1  0.26071500  0.49335200  0.64044700  1
  C  C36  1  0.50000000  0.73433800  0.99786200  1
  C  C37  1  0.50000000  0.72922100  0.23753300  1
  C  C38  1  0.50000000  0.73591600  0.51373000  1
  C  C39  1  0.50000000  0.72724900  0.75175500  1
  C  C40  1  0.00000000  0.77077900  0.73753300  1
  C  C41  1  0.00000000  0.77275100  0.25175500  1
  C  C42  1  0.00000000  0.76408400  0.01373000  1
  C  C43  1  0.00000000  0.76566200  0.49786200  1
  C  C44  1  0.78395900  0.00114900  0.62196000  1
  C  C45  1  0.21604100  0.00114900  0.62196000  1
  C  C46  1  0.76071500  0.00664800  0.14044700  1
  C  C47  1  0.23928500  0.00664800  0.14044700  1
  C  C48  1  0.21604100  0.99885100  0.37804000  1
  C  C49  1  0.78395900  0.99885100  0.37804000  1
  C  C50  1  0.23928500  0.99335200  0.85955300  1
  C  C51  1  0.76071500  0.99335200  0.85955300  1
  C  C52  1  0.00000000  0.23591600  0.98627000  1
  C  C53  1  0.00000000  0.22724900  0.74824500  1
  C  C54  1  0.00000000  0.22922100  0.26246700  1
  C  C55  1  0.00000000  0.23433800  0.50213800  1
