# generated using pymatgen
data_Cu4NiC52
_symmetry_space_group_name_H-M   'P 1'
_cell_length_a   16.61370600
_cell_length_b   8.49651300
_cell_length_c   8.82256402
_cell_angle_alpha   87.94193791
_cell_angle_beta   90.00000000
_cell_angle_gamma   90.00000000
_symmetry_Int_Tables_number   1
_chemical_formula_structural   Cu4NiC52
_chemical_formula_sum   'Cu8 Ni2 C104'
_cell_volume   1244.57717580
_cell_formula_units_Z   2
loop_
 _symmetry_equiv_pos_site_id
 _symmetry_equiv_pos_as_xyz
  1  'x, y, z'
loop_
 _atom_site_type_symbol
 _atom_site_label
 _atom_site_symmetry_multiplicity
 _atom_site_fract_x
 _atom_site_fract_y
 _atom_site_fract_z
 _atom_site_occupancy
  C  C0  1  0.00000000  0.00000000  0.00000000  1
  C  C1  1  0.50000000  0.00000000  0.00000000  1
  C  C2  1  0.36432400  0.53006300  0.68228200  1
  C  C3  1  0.13567600  0.53006300  0.68228200  1
  C  C4  1  0.00000000  0.50000000  0.00000000  1
  C  C5  1  0.50000000  0.50000000  0.00000000  1
  C  C6  1  0.86432400  0.46993700  0.31771800  1
  C  C7  1  0.63567600  0.46993700  0.31771800  1
  Ni  Ni8  1  0.75000000  0.93746200  0.64538700  1
  Ni  Ni9  1  0.25000000  0.06253800  0.35461300  1
  C  C10  1  0.85838000  0.99331800  0.20391700  1
  C  C11  1  0.64162000  0.99331800  0.20391700  1
  C  C12  1  0.43852700  0.96350900  0.30936500  1
  C  C13  1  0.06147300  0.96350900  0.30936500  1
  C  C14  1  0.82937500  0.98065100  0.03486300  1
  C  C15  1  0.67062500  0.98065100  0.03486300  1
  C  C16  1  0.25000000  0.81587400  0.67072000  1
  C  C17  1  0.49867800  0.79355000  0.56808400  1
  C  C18  1  0.00132200  0.79355000  0.56808400  1
  C  C19  1  0.39171500  0.84080600  0.21882700  1
  C  C20  1  0.10828500  0.84080600  0.21882700  1
  C  C21  1  0.41048900  0.83904200  0.59850300  1
  C  C22  1  0.08951100  0.83904200  0.59850300  1
  C  C23  1  0.89871700  0.75083900  0.88043600  1
  C  C24  1  0.60128300  0.75083900  0.88043600  1
  C  C25  1  0.98602100  0.75102800  0.80593300  1
  C  C26  1  0.51397900  0.75102800  0.80593300  1
  C  C27  1  0.75000000  0.72808900  0.29755800  1
  C  C28  1  0.36054600  0.73023500  0.94395600  1
  C  C29  1  0.13945400  0.73023500  0.94395600  1
  C  C30  1  0.25000000  0.73150000  0.51691700  1
  C  C31  1  0.99504100  0.70710500  0.25189300  1
  C  C32  1  0.50495900  0.70710500  0.25189300  1
  C  C33  1  0.75000000  0.66245000  0.13452600  1
  C  C34  1  0.86083100  0.61473800  0.59741900  1
  C  C35  1  0.63916900  0.61473800  0.59741900  1
  C  C36  1  0.47023300  0.55201700  0.32310800  1
  C  C37  1  0.02976700  0.55201700  0.32310800  1
  C  C38  1  0.33119400  0.55851200  0.35168400  1
  C  C39  1  0.16880600  0.55851200  0.35168400  1
  C  C40  1  0.17144100  0.57554700  0.02332200  1
  C  C41  1  0.32855900  0.57554700  0.02332200  1
  C  C42  1  0.82855900  0.42445300  0.97667800  1
  C  C43  1  0.67144100  0.42445300  0.97667800  1
  C  C44  1  0.83119400  0.44148800  0.64831600  1
  C  C45  1  0.66880600  0.44148800  0.64831600  1
  C  C46  1  0.97023300  0.44798300  0.67689200  1
  C  C47  1  0.52976700  0.44798300  0.67689200  1
  C  C48  1  0.36083100  0.38526200  0.40258100  1
  C  C49  1  0.13916900  0.38526200  0.40258100  1
  C  C50  1  0.25000000  0.33755000  0.86547400  1
  C  C51  1  0.49504100  0.29289500  0.74810700  1
  C  C52  1  0.00495900  0.29289500  0.74810700  1
  C  C53  1  0.75000000  0.26850000  0.48308300  1
  C  C54  1  0.86054600  0.26976500  0.05604400  1
  C  C55  1  0.63945400  0.26976500  0.05604400  1
  C  C56  1  0.25000000  0.27191100  0.70244200  1
  C  C57  1  0.48602100  0.24897200  0.19406700  1
  C  C58  1  0.01397900  0.24897200  0.19406700  1
  C  C59  1  0.39871700  0.24916100  0.11956400  1
  C  C60  1  0.10128300  0.24916100  0.11956400  1
  C  C61  1  0.91048900  0.16095800  0.40149700  1
  C  C62  1  0.58951100  0.16095800  0.40149700  1
  C  C63  1  0.89171500  0.15919400  0.78117300  1
  C  C64  1  0.60828500  0.15919400  0.78117300  1
  C  C65  1  0.99867800  0.20645000  0.43191600  1
  C  C66  1  0.50132200  0.20645000  0.43191600  1
  C  C67  1  0.75000000  0.18412600  0.32928000  1
  C  C68  1  0.32937500  0.01934900  0.96513700  1
  C  C69  1  0.17062500  0.01934900  0.96513700  1
  C  C70  1  0.93852700  0.03649100  0.69063500  1
  C  C71  1  0.56147300  0.03649100  0.69063500  1
  C  C72  1  0.35838000  0.00668200  0.79608300  1
  C  C73  1  0.14162000  0.00668200  0.79608300  1
  Cu  Cu74  1  0.87155300  0.89022000  0.47764300  1
  Cu  Cu75  1  0.62844700  0.89022000  0.47764300  1
  Cu  Cu76  1  0.25000000  0.77951600  0.25433600  1
  Cu  Cu77  1  0.75000000  0.74723800  0.87633500  1
  Cu  Cu78  1  0.25000000  0.25276200  0.12366500  1
  Cu  Cu79  1  0.75000000  0.22048400  0.74566400  1
  Cu  Cu80  1  0.37155300  0.10978000  0.52235700  1
  Cu  Cu81  1  0.12844700  0.10978000  0.52235700  1
  C  C82  1  0.36572200  0.96047700  0.89960800  1
  C  C83  1  0.13427800  0.96047700  0.89960800  1
  C  C84  1  0.44501000  0.89213600  0.22360200  1
  C  C85  1  0.05499000  0.89213600  0.22360200  1
  C  C86  1  0.95674200  0.74495100  0.90384100  1
  C  C87  1  0.54325800  0.74495100  0.90384100  1
  C  C88  1  0.45112000  0.75846000  0.62772800  1
  C  C89  1  0.04888000  0.75846000  0.62772800  1
  C  C90  1  0.25000000  0.71117000  0.62915800  1
  C  C91  1  0.75000000  0.62969400  0.24300200  1
  C  C92  1  0.36615900  0.61453900  0.94559600  1
  C  C93  1  0.13384100  0.61453900  0.94559600  1
  C  C94  1  0.98490800  0.59248200  0.25898000  1
  C  C95  1  0.51509200  0.59248200  0.25898000  1
  C  C96  1  0.87335000  0.50121800  0.59254800  1
  C  C97  1  0.62665000  0.50121800  0.59254800  1
  C  C98  1  0.12665000  0.49878200  0.40745200  1
  C  C99  1  0.37335000  0.49878200  0.40745200  1
  C  C100  1  0.48490800  0.40751800  0.74102000  1
  C  C101  1  0.01509200  0.40751800  0.74102000  1
  C  C102  1  0.86615900  0.38546100  0.05440400  1
  C  C103  1  0.63384100  0.38546100  0.05440400  1
  C  C104  1  0.25000000  0.37030600  0.75699800  1
  C  C105  1  0.75000000  0.28883000  0.37084200  1
  C  C106  1  0.95112000  0.24154000  0.37227200  1
  C  C107  1  0.54888000  0.24154000  0.37227200  1
  C  C108  1  0.45674200  0.25504900  0.09615900  1
  C  C109  1  0.04325800  0.25504900  0.09615900  1
  C  C110  1  0.94501000  0.10786400  0.77639800  1
  C  C111  1  0.55499000  0.10786400  0.77639800  1
  C  C112  1  0.86572200  0.03952300  0.10039200  1
  C  C113  1  0.63427800  0.03952300  0.10039200  1
