# generated using pymatgen
data_CuNiC18
_symmetry_space_group_name_H-M   'P 1'
_cell_length_a   4.86570573
_cell_length_b   16.11274951
_cell_length_c   6.98785999
_cell_angle_alpha   90.53009658
_cell_angle_beta   105.88641430
_cell_angle_gamma   89.25515481
_symmetry_Int_Tables_number   1
_chemical_formula_structural   CuNiC18
_chemical_formula_sum   'Cu2 Ni2 C36'
_cell_volume   526.86939624
_cell_formula_units_Z   2
loop_
 _symmetry_equiv_pos_site_id
 _symmetry_equiv_pos_as_xyz
  1  'x, y, z'
loop_
 _atom_site_type_symbol
 _atom_site_label
 _atom_site_symmetry_multiplicity
 _atom_site_fract_x
 _atom_site_fract_y
 _atom_site_fract_z
 _atom_site_occupancy
  Ni  Ni0  1  0.21219600  0.75272500  0.72576500  1
  Ni  Ni1  1  0.21182500  0.25273800  0.72602400  1
  Cu  Cu2  1  0.78414500  0.00317100  0.26994500  1
  Cu  Cu3  1  0.78422700  0.50310000  0.27031400  1
  C  C4  1  0.39039700  0.09120700  0.50942200  1
  C  C5  1  0.39016300  0.59119900  0.50917000  1
  C  C6  1  0.24045800  0.38679900  0.10441200  1
  C  C7  1  0.24031300  0.88674700  0.10439200  1
  C  C8  1  0.76415700  0.13561700  0.89664000  1
  C  C9  1  0.76428600  0.63540400  0.89603600  1
  C  C10  1  0.60920200  0.34582600  0.48851500  1
  C  C11  1  0.60933400  0.84589900  0.48850700  1
  C  C12  1  0.01874200  0.16839900  0.82962100  1
  C  C13  1  0.01803500  0.66815400  0.82791300  1
  C  C14  1  0.16827700  0.33005300  0.91452700  1
  C  C15  1  0.16840100  0.82978000  0.91481500  1
  C  C16  1  0.15372300  0.02908400  0.47102600  1
  C  C17  1  0.15362000  0.52904200  0.47093800  1
  C  C18  1  0.27220900  0.18115000  0.53223800  1
  C  C19  1  0.27177900  0.68114600  0.53178300  1
  C  C20  1  0.41260300  0.33675500  0.62756400  1
  C  C21  1  0.41263800  0.83676400  0.62756700  1
  C  C22  1  0.55692700  0.21017000  0.90081800  1
  C  C23  1  0.55689000  0.70992100  0.90025300  1
  C  C24  1  0.58979500  0.07197000  0.73221100  1
  C  C25  1  0.58921100  0.57183900  0.73193700  1
  C  C26  1  0.42699000  0.32096200  0.26814100  1
  C  C27  1  0.42699300  0.82098600  0.26819100  1
  C  C28  1  0.42264700  0.45962600  0.08321400  1
  C  C29  1  0.42217100  0.95963400  0.08308400  1
  C  C30  1  0.57599600  0.09495600  0.36872700  1
  C  C31  1  0.57599200  0.59493100  0.36860500  1
  C  C32  1  0.71304500  0.43341000  0.48817800  1
  C  C33  1  0.71301200  0.93350400  0.48813000  1
  C  C34  1  0.85559000  0.28158700  0.54418100  1
  C  C35  1  0.85568600  0.78166600  0.54410100  1
  C  C36  1  0.86529000  0.08886100  0.08722100  1
  C  C37  1  0.86554600  0.58855700  0.08651800  1
  C  C38  1  0.96870600  0.40786800  0.15934600  1
  C  C39  1  0.96854600  0.90787200  0.15926600  1
