# generated using pymatgen
data_CuNiC
_symmetry_space_group_name_H-M   'P 1'
_cell_length_a   3.10702500
_cell_length_b   9.47954700
_cell_length_c   14.21318862
_cell_angle_alpha   89.71517651
_cell_angle_beta   90.00000000
_cell_angle_gamma   90.00000000
_symmetry_Int_Tables_number   1
_chemical_formula_structural   CuNiC
_chemical_formula_sum   'Cu12 Ni12 C12'
_cell_volume   418.61856551
_cell_formula_units_Z   12
loop_
 _symmetry_equiv_pos_site_id
 _symmetry_equiv_pos_as_xyz
  1  'x, y, z'
loop_
 _atom_site_type_symbol
 _atom_site_label
 _atom_site_symmetry_multiplicity
 _atom_site_fract_x
 _atom_site_fract_y
 _atom_site_fract_z
 _atom_site_occupancy
  C  C0  1  0.00000000  0.99389900  0.00531900  1
  C  C1  1  0.00000000  0.98150600  0.33065100  1
  C  C2  1  0.00000000  0.99016800  0.67352000  1
  C  C3  1  0.50000000  0.77040200  0.16307700  1
  C  C4  1  0.50000000  0.74851700  0.48299300  1
  C  C5  1  0.50000000  0.77108500  0.83828100  1
  C  C6  1  0.00000000  0.49944100  0.34115100  1
  C  C7  1  0.00000000  0.48179300  0.00213400  1
  C  C8  1  0.00000000  0.48241900  0.66543400  1
  C  C9  1  0.50000000  0.24625200  0.15072300  1
  C  C10  1  0.50000000  0.27024100  0.49645600  1
  C  C11  1  0.50000000  0.27517500  0.83540600  1
  Ni  Ni12  1  0.50000000  0.90133900  0.27049000  1
  Ni  Ni13  1  0.50000000  0.90409600  0.93425800  1
  Ni  Ni14  1  0.00000000  0.84206400  0.10188400  1
  Ni  Ni15  1  0.00000000  0.85062800  0.76600200  1
  Ni  Ni16  1  0.00000000  0.85115100  0.43999000  1
  Ni  Ni17  1  0.50000000  0.59334900  0.39649500  1
  Ni  Ni18  1  0.50000000  0.40630400  0.93728600  1
  Ni  Ni19  1  0.50000000  0.40333600  0.60113500  1
  Ni  Ni20  1  0.00000000  0.34967800  0.10535200  1
  Ni  Ni21  1  0.00000000  0.34060800  0.43164000  1
  Ni  Ni22  1  0.00000000  0.34800600  0.76845700  1
  Ni  Ni23  1  0.50000000  0.09570800  0.06353300  1
  Cu  Cu24  1  0.50000000  0.90328500  0.60256700  1
  Cu  Cu25  1  0.00000000  0.64411200  0.22980500  1
  Cu  Cu26  1  0.00000000  0.65693100  0.56957200  1
  Cu  Cu27  1  0.00000000  0.65290000  0.90009500  1
  Cu  Cu28  1  0.50000000  0.59865200  0.06583500  1
  Cu  Cu29  1  0.50000000  0.60086000  0.73325400  1
  Cu  Cu30  1  0.50000000  0.39948600  0.26735900  1
  Cu  Cu31  1  0.00000000  0.15263500  0.23663900  1
  Cu  Cu32  1  0.00000000  0.15382800  0.89304600  1
  Cu  Cu33  1  0.00000000  0.14350600  0.56863400  1
  Cu  Cu34  1  0.50000000  0.09727800  0.40161600  1
  Cu  Cu35  1  0.50000000  0.09936600  0.72990900  1
