# generated using pymatgen
data_Cu2Ni3C31
_symmetry_space_group_name_H-M   'P 1'
_cell_length_a   8.64016846
_cell_length_b   8.64016846
_cell_length_c   8.64016866
_cell_angle_alpha   60.58748395
_cell_angle_beta   60.58748395
_cell_angle_gamma   60.58748631
_symmetry_Int_Tables_number   1
_chemical_formula_structural   Cu2Ni3C31
_chemical_formula_sum   'Cu2 Ni3 C31'
_cell_volume   462.14324119
_cell_formula_units_Z   1
loop_
 _symmetry_equiv_pos_site_id
 _symmetry_equiv_pos_as_xyz
  1  'x, y, z'
loop_
 _atom_site_type_symbol
 _atom_site_label
 _atom_site_symmetry_multiplicity
 _atom_site_fract_x
 _atom_site_fract_y
 _atom_site_fract_z
 _atom_site_occupancy
  Ni  Ni0  1  0.35703500  0.35703500  0.35703500  1
  Ni  Ni1  1  0.14291800  0.14291800  0.14291800  1
  Ni  Ni2  1  0.64121800  0.64121800  0.64121800  1
  Cu  Cu3  1  0.00499700  0.00499700  0.00499700  1
  Cu  Cu4  1  0.49949800  0.49949800  0.49949800  1
  C  C5  1  0.85733700  0.85733700  0.85733700  1
  C  C6  1  0.74681300  0.04388100  0.45498000  1
  C  C7  1  0.04388100  0.45498000  0.74681300  1
  C  C8  1  0.45498000  0.74681300  0.04388100  1
  C  C9  1  0.53939100  0.25201700  0.95653700  1
  C  C10  1  0.95653700  0.53939100  0.25201700  1
  C  C11  1  0.25201700  0.95653700  0.53939100  1
  C  C12  1  0.88565900  0.49984200  0.68654600  1
  C  C13  1  0.49984200  0.68654600  0.88565900  1
  C  C14  1  0.68654600  0.88565900  0.49984200  1
  C  C15  1  0.90930200  0.05866400  0.26294500  1
  C  C16  1  0.81223000  0.00996000  0.61426900  1
  C  C17  1  0.59004900  0.23862500  0.44309200  1
  C  C18  1  0.05866400  0.26294500  0.90930200  1
  C  C19  1  0.23862500  0.44309200  0.59004900  1
  C  C20  1  0.38902700  0.18359100  0.99415000  1
  C  C21  1  0.44309200  0.59004900  0.23862500  1
  C  C22  1  0.74202200  0.08428700  0.94185400  1
  C  C23  1  0.99415000  0.38902700  0.18359100  1
  C  C24  1  0.00996000  0.61426900  0.81223000  1
  C  C25  1  0.26294500  0.90930200  0.05866400  1
  C  C26  1  0.56263000  0.40580000  0.75914900  1
  C  C27  1  0.61426900  0.81223000  0.00996000  1
  C  C28  1  0.75914900  0.56263000  0.40580000  1
  C  C29  1  0.94185400  0.74202200  0.08428700  1
  C  C30  1  0.40580000  0.75914900  0.56263000  1
  C  C31  1  0.18359100  0.99415000  0.38902700  1
  C  C32  1  0.08428700  0.94185400  0.74202200  1
  C  C33  1  0.30809300  0.11218700  0.50941000  1
  C  C34  1  0.50941000  0.30809300  0.11218700  1
  C  C35  1  0.11218700  0.50941000  0.30809300  1
