# generated using pymatgen
data_Cu7NiC4
_symmetry_space_group_name_H-M   'P 1'
_cell_length_a   6.55673300
_cell_length_b   10.37054354
_cell_length_c   10.62192185
_cell_angle_alpha   119.58230010
_cell_angle_beta   90.00019329
_cell_angle_gamma   90.00047847
_symmetry_Int_Tables_number   1
_chemical_formula_structural   Cu7NiC4
_chemical_formula_sum   'Cu28 Ni4 C16'
_cell_volume   628.10949924
_cell_formula_units_Z   4
loop_
 _symmetry_equiv_pos_site_id
 _symmetry_equiv_pos_as_xyz
  1  'x, y, z'
loop_
 _atom_site_type_symbol
 _atom_site_label
 _atom_site_symmetry_multiplicity
 _atom_site_fract_x
 _atom_site_fract_y
 _atom_site_fract_z
 _atom_site_occupancy
  C  C0  1  0.49326900  0.00633500  0.23384800  1
  C  C1  1  0.49311900  0.50578300  0.73423100  1
  C  C2  1  0.00673500  0.00633400  0.23385600  1
  C  C3  1  0.00687000  0.50578900  0.73423300  1
  C  C4  1  0.50651000  0.99283900  0.76572100  1
  C  C5  1  0.50698700  0.49372000  0.26539500  1
  C  C6  1  0.99350800  0.99283000  0.76571700  1
  C  C7  1  0.99301700  0.49371400  0.26539000  1
  C  C8  1  0.75000000  0.71945900  0.07071700  1
  C  C9  1  0.24999900  0.28037200  0.92890200  1
  C  C10  1  0.75000300  0.21984900  0.57088800  1
  C  C11  1  0.24998700  0.78024900  0.42879300  1
  C  C12  1  0.24999800  0.14562000  0.57039500  1
  C  C13  1  0.24999600  0.64541900  0.06897600  1
  C  C14  1  0.74999500  0.85448300  0.43016000  1
  C  C15  1  0.75000500  0.35456300  0.93053800  1
  Ni  Ni16  1  0.75000100  0.32356000  0.40378100  1
  Ni  Ni17  1  0.75000200  0.82189300  0.90286800  1
  Ni  Ni18  1  0.24999900  0.67690000  0.59633900  1
  Ni  Ni19  1  0.25000200  0.17803600  0.09687000  1
  Cu  Cu20  1  0.25000500  0.12896800  0.18360000  1
  Cu  Cu21  1  0.24999800  0.62936700  0.68422200  1
  Cu  Cu22  1  0.75000400  0.87116200  0.81632100  1
  Cu  Cu23  1  0.75000400  0.37007000  0.31514700  1
  Cu  Cu24  1  0.75000300  0.40766300  0.54491200  1
  Cu  Cu25  1  0.75001100  0.90514500  0.04492900  1
  Cu  Cu26  1  0.24998500  0.59318500  0.45475700  1
  Cu  Cu27  1  0.24999600  0.09477200  0.95489400  1
  Cu  Cu28  1  0.74999600  0.17845500  0.36187700  1
  Cu  Cu29  1  0.74999000  0.67770100  0.86013100  1
  Cu  Cu30  1  0.25001500  0.82139100  0.63827900  1
  Cu  Cu31  1  0.25000600  0.32230500  0.13956200  1
  Cu  Cu32  1  0.75000200  0.86472000  0.28837700  1
  Cu  Cu33  1  0.75000000  0.36313700  0.78800500  1
  Cu  Cu34  1  0.24999900  0.13404900  0.71132500  1
  Cu  Cu35  1  0.25000000  0.63713800  0.21177000  1
  Cu  Cu36  1  0.24999500  0.98776800  0.43471000  1
  Cu  Cu37  1  0.25000300  0.48593400  0.93559700  1
  Cu  Cu38  1  0.74999500  0.01258100  0.56496700  1
  Cu  Cu39  1  0.75000500  0.51407400  0.06423000  1
  Cu  Cu40  1  0.05862600  0.23376600  0.57013700  1
  Cu  Cu41  1  0.05874400  0.73079200  0.06442900  1
  Cu  Cu42  1  0.44137600  0.23376700  0.57013700  1
  Cu  Cu43  1  0.44124800  0.73079200  0.06443000  1
  Cu  Cu44  1  0.55870700  0.76751700  0.43257300  1
  Cu  Cu45  1  0.55873100  0.26925700  0.93524300  1
  Cu  Cu46  1  0.94128400  0.76752100  0.43258100  1
  Cu  Cu47  1  0.94127100  0.26925300  0.93524000  1
