# generated using pymatgen
data_Cu2NiC5
_symmetry_space_group_name_H-M   'P 1'
_cell_length_a   8.81033500
_cell_length_b   8.81033500
_cell_length_c   12.93115500
_cell_angle_alpha   90.00000000
_cell_angle_beta   90.00000000
_cell_angle_gamma   90.00000000
_symmetry_Int_Tables_number   1
_chemical_formula_structural   Cu2NiC5
_chemical_formula_sum   'Cu16 Ni8 C40'
_cell_volume   1003.74214978
_cell_formula_units_Z   8
loop_
 _symmetry_equiv_pos_site_id
 _symmetry_equiv_pos_as_xyz
  1  'x, y, z'
loop_
 _atom_site_type_symbol
 _atom_site_label
 _atom_site_symmetry_multiplicity
 _atom_site_fract_x
 _atom_site_fract_y
 _atom_site_fract_z
 _atom_site_occupancy
  Ni  Ni0  1  0.50000000  0.00000000  0.00000000  1
  Ni  Ni1  1  0.50000000  0.00000000  0.75000000  1
  Ni  Ni2  1  0.50000000  0.00000000  0.25000000  1
  Ni  Ni3  1  0.50000000  0.00000000  0.50000000  1
  Ni  Ni4  1  0.00000000  0.50000000  0.75000000  1
  Ni  Ni5  1  0.00000000  0.50000000  0.00000000  1
  Ni  Ni6  1  0.00000000  0.50000000  0.25000000  1
  Ni  Ni7  1  0.00000000  0.50000000  0.50000000  1
  Cu  Cu8  1  0.28666100  0.31866900  0.13388600  1
  Cu  Cu9  1  0.28666100  0.68133100  0.36611400  1
  Cu  Cu10  1  0.31866900  0.71333900  0.86611400  1
  Cu  Cu11  1  0.31866900  0.28666100  0.63388600  1
  Cu  Cu12  1  0.68133100  0.28666100  0.86611400  1
  Cu  Cu13  1  0.68133100  0.71333900  0.63388600  1
  Cu  Cu14  1  0.71333900  0.31866900  0.36611400  1
  Cu  Cu15  1  0.71333900  0.68133100  0.13388600  1
  Cu  Cu16  1  0.78666100  0.81866900  0.36611400  1
  Cu  Cu17  1  0.78666100  0.18133100  0.13388600  1
  Cu  Cu18  1  0.81866900  0.78666100  0.86611400  1
  Cu  Cu19  1  0.81866900  0.21333900  0.63388600  1
  Cu  Cu20  1  0.18133100  0.78666100  0.63388600  1
  Cu  Cu21  1  0.18133100  0.21333900  0.86611400  1
  Cu  Cu22  1  0.21333900  0.81866900  0.13388600  1
  Cu  Cu23  1  0.21333900  0.18133100  0.36611400  1
  C  C24  1  0.26916500  0.87516300  0.29808500  1
  C  C25  1  0.26916500  0.12483700  0.20191500  1
  C  C26  1  0.30131200  0.19868800  0.00000000  1
  C  C27  1  0.30131200  0.80131200  0.50000000  1
  C  C28  1  0.35868600  0.92605500  0.88317500  1
  C  C29  1  0.35868600  0.07394500  0.61682500  1
  C  C30  1  0.37516300  0.23083500  0.79808500  1
  C  C31  1  0.37516300  0.76916500  0.70191500  1
  C  C32  1  0.42605500  0.85868600  0.11682500  1
  C  C33  1  0.42605500  0.14131400  0.38317500  1
  C  C34  1  0.57394500  0.85868600  0.38317500  1
  C  C35  1  0.57394500  0.14131400  0.11682500  1
  C  C36  1  0.62483700  0.76916500  0.79808500  1
  C  C37  1  0.62483700  0.23083500  0.70191500  1
  C  C38  1  0.64131400  0.07394500  0.88317500  1
  C  C39  1  0.64131400  0.92605500  0.61682500  1
  C  C40  1  0.69868800  0.80131200  0.00000000  1
  C  C41  1  0.69868800  0.19868800  0.50000000  1
  C  C42  1  0.73083500  0.87516300  0.20191500  1
  C  C43  1  0.73083500  0.12483700  0.29808500  1
  C  C44  1  0.76916500  0.37516300  0.20191500  1
  C  C45  1  0.76916500  0.62483700  0.29808500  1
  C  C46  1  0.80131200  0.30131200  0.00000000  1
  C  C47  1  0.80131200  0.69868800  0.50000000  1
  C  C48  1  0.85868600  0.42605500  0.61682500  1
  C  C49  1  0.85868600  0.57394500  0.88317500  1
  C  C50  1  0.87516300  0.26916500  0.79808500  1
  C  C51  1  0.87516300  0.73083500  0.70191500  1
  C  C52  1  0.92605500  0.35868600  0.38317500  1
  C  C53  1  0.92605500  0.64131400  0.11682500  1
  C  C54  1  0.07394500  0.35868600  0.11682500  1
  C  C55  1  0.07394500  0.64131400  0.38317500  1
  C  C56  1  0.12483700  0.26916500  0.70191500  1
  C  C57  1  0.12483700  0.73083500  0.79808500  1
  C  C58  1  0.14131400  0.42605500  0.88317500  1
  C  C59  1  0.14131400  0.57394500  0.61682500  1
  C  C60  1  0.19868800  0.30131200  0.50000000  1
  C  C61  1  0.19868800  0.69868800  0.00000000  1
  C  C62  1  0.23083500  0.37516300  0.29808500  1
  C  C63  1  0.23083500  0.62483700  0.20191500  1
