# generated using pymatgen
data_Cu(NiC2)2
_symmetry_space_group_name_H-M   'P 1'
_cell_length_a   10.11079707
_cell_length_b   10.11079707
_cell_length_c   10.11079707
_cell_angle_alpha   147.51818402
_cell_angle_beta   147.51818402
_cell_angle_gamma   46.59713406
_symmetry_Int_Tables_number   1
_chemical_formula_structural   Cu(NiC2)2
_chemical_formula_sum   'Cu1 Ni2 C4'
_cell_volume   297.02097612
_cell_formula_units_Z   1
loop_
 _symmetry_equiv_pos_site_id
 _symmetry_equiv_pos_as_xyz
  1  'x, y, z'
loop_
 _atom_site_type_symbol
 _atom_site_label
 _atom_site_symmetry_multiplicity
 _atom_site_fract_x
 _atom_site_fract_y
 _atom_site_fract_z
 _atom_site_occupancy
  C  C0  1  0.50000000  0.00000000  0.50000000  1
  C  C1  1  0.14670600  0.14670600  0.00000000  1
  C  C2  1  0.85329400  0.85329400  0.00000000  1
  C  C3  1  0.00000000  0.50000000  0.50000000  1
  Ni  Ni4  1  0.35490900  0.35490900  0.00000000  1
  Ni  Ni5  1  0.64509100  0.64509100  0.00000000  1
  Cu  Cu6  1  0.00000000  0.00000000  0.00000000  1
