# generated using pymatgen
data_Cu11NiC6
_symmetry_space_group_name_H-M   'P 1'
_cell_length_a   16.22273400
_cell_length_b   4.96352200
_cell_length_c   7.63163780
_cell_angle_alpha   50.38955408
_cell_angle_beta   90.00000000
_cell_angle_gamma   90.00000000
_symmetry_Int_Tables_number   1
_chemical_formula_structural   Cu11NiC6
_chemical_formula_sum   'Cu22 Ni2 C12'
_cell_volume   473.41971717
_cell_formula_units_Z   2
loop_
 _symmetry_equiv_pos_site_id
 _symmetry_equiv_pos_as_xyz
  1  'x, y, z'
loop_
 _atom_site_type_symbol
 _atom_site_label
 _atom_site_symmetry_multiplicity
 _atom_site_fract_x
 _atom_site_fract_y
 _atom_site_fract_z
 _atom_site_occupancy
  C  C0  1  0.50023200  0.82656000  0.16991600  1
  C  C1  1  0.32891900  0.16226500  0.83043900  1
  C  C2  1  0.16075800  0.83860200  0.18007700  1
  C  C3  1  0.83781500  0.83995600  0.14645300  1
  C  C4  1  0.66823600  0.17399900  0.82807200  1
  C  C5  1  0.99446000  0.15624000  0.83173500  1
  C  C6  1  0.67108100  0.16226500  0.33043900  1
  C  C7  1  0.00554000  0.15624000  0.33173500  1
  C  C8  1  0.33176400  0.17399900  0.32807200  1
  C  C9  1  0.16218500  0.83995600  0.64645300  1
  C  C10  1  0.49976800  0.82656000  0.66991600  1
  C  C11  1  0.83924200  0.83860200  0.68007700  1
  Ni  Ni12  1  0.88457900  0.88330800  0.90634500  1
  Ni  Ni13  1  0.11542100  0.88330800  0.40634500  1
  Cu  Cu14  1  0.38910600  0.66648100  0.10141600  1
  Cu  Cu15  1  0.72594800  0.66820600  0.11238100  1
  Cu  Cu16  1  0.05679100  0.66716100  0.11392600  1
  Cu  Cu17  1  0.21624300  0.86988900  0.87987900  1
  Cu  Cu18  1  0.55911700  0.87520600  0.89415300  1
  Cu  Cu19  1  0.22378500  0.34265800  0.39631100  1
  Cu  Cu20  1  0.39047200  0.12829900  0.60374200  1
  Cu  Cu21  1  0.55872200  0.33138800  0.39418800  1
  Cu  Cu22  1  0.72573200  0.11353500  0.60631500  1
  Cu  Cu23  1  0.89292900  0.34385000  0.38840500  1
  Cu  Cu24  1  0.05981100  0.11239800  0.61624600  1
  Cu  Cu25  1  0.27405200  0.66820600  0.61238100  1
  Cu  Cu26  1  0.44088300  0.87520600  0.39415300  1
  Cu  Cu27  1  0.61089400  0.66648100  0.60141600  1
  Cu  Cu28  1  0.94320900  0.66716100  0.61392600  1
  Cu  Cu29  1  0.78375700  0.86988900  0.37987900  1
  Cu  Cu30  1  0.27426800  0.11353500  0.10631500  1
  Cu  Cu31  1  0.60952800  0.12829900  0.10374200  1
  Cu  Cu32  1  0.44127800  0.33138800  0.89418800  1
  Cu  Cu33  1  0.10707100  0.34385000  0.88840500  1
  Cu  Cu34  1  0.94018900  0.11239800  0.11624600  1
  Cu  Cu35  1  0.77621500  0.34265800  0.89631100  1
