# generated using pymatgen
data_Cu7Ni4C5
_symmetry_space_group_name_H-M   'P 1'
_cell_length_a   14.28694606
_cell_length_b   14.28694606
_cell_length_c   10.95314300
_cell_angle_alpha   90.00000000
_cell_angle_beta   90.00000000
_cell_angle_gamma   157.33077456
_symmetry_Int_Tables_number   1
_chemical_formula_structural   Cu7Ni4C5
_chemical_formula_sum   'Cu28 Ni16 C20'
_cell_volume   861.67021780
_cell_formula_units_Z   4
loop_
 _symmetry_equiv_pos_site_id
 _symmetry_equiv_pos_as_xyz
  1  'x, y, z'
loop_
 _atom_site_type_symbol
 _atom_site_label
 _atom_site_symmetry_multiplicity
 _atom_site_fract_x
 _atom_site_fract_y
 _atom_site_fract_z
 _atom_site_occupancy
  C  C0  1  0.69729400  0.79642000  0.89771500  1
  C  C1  1  0.30062900  0.20216800  0.89607700  1
  C  C2  1  0.48303800  0.98204600  0.88824900  1
  C  C3  1  0.95652500  0.66161200  0.89693200  1
  C  C4  1  0.13131400  0.42655600  0.89246700  1
  C  C5  1  0.42655600  0.13131400  0.10753300  1
  C  C6  1  0.66161200  0.95652500  0.10306800  1
  C  C7  1  0.98204600  0.48303800  0.11175100  1
  C  C8  1  0.20216800  0.30062900  0.10392300  1
  C  C9  1  0.79642000  0.69729400  0.10228500  1
  C  C10  1  0.70216800  0.80062900  0.39607700  1
  C  C11  1  0.29642000  0.19729400  0.39771500  1
  C  C12  1  0.48204600  0.98303800  0.38824900  1
  C  C13  1  0.92655600  0.63131400  0.39246700  1
  C  C14  1  0.16161200  0.45652500  0.39693200  1
  C  C15  1  0.45652500  0.16161200  0.60306800  1
  C  C16  1  0.63131400  0.92655600  0.60753300  1
  C  C17  1  0.98303800  0.48204600  0.61175100  1
  C  C18  1  0.19729400  0.29642000  0.60228500  1
  C  C19  1  0.80062900  0.70216800  0.60392300  1
  Ni  Ni20  1  0.93193500  0.13182800  0.98559100  1
  Ni  Ni21  1  0.63247400  0.42694000  0.98726200  1
  Ni  Ni22  1  0.81020900  0.21484800  0.98129300  1
  Ni  Ni23  1  0.48664800  0.48664800  0.00000000  1
  Ni  Ni24  1  0.98672700  0.98672700  0.00000000  1
  Ni  Ni25  1  0.21484800  0.81020900  0.01870700  1
  Ni  Ni26  1  0.42694000  0.63247400  0.01273800  1
  Ni  Ni27  1  0.13182800  0.93193500  0.01440900  1
  Ni  Ni28  1  0.63182800  0.43193500  0.48559100  1
  Ni  Ni29  1  0.92694000  0.13247400  0.48726200  1
  Ni  Ni30  1  0.71484800  0.31020900  0.48129300  1
  Ni  Ni31  1  0.48672700  0.48672700  0.50000000  1
  Ni  Ni32  1  0.98664800  0.98664800  0.50000000  1
  Ni  Ni33  1  0.31020900  0.71484800  0.51870700  1
  Ni  Ni34  1  0.43193500  0.63182800  0.51440900  1
  Ni  Ni35  1  0.13247400  0.92694000  0.51273800  1
  Cu  Cu36  1  0.09935500  0.09934300  0.74904000  1
  Cu  Cu37  1  0.59935500  0.59934300  0.75096000  1
  Cu  Cu38  1  0.32240300  0.49669700  0.77104300  1
  Cu  Cu39  1  0.00485200  0.83215800  0.77466000  1
  Cu  Cu40  1  0.47485500  0.81987600  0.80046300  1
  Cu  Cu41  1  0.33970700  0.99402400  0.79177900  1
  Cu  Cu42  1  0.11323400  0.61047700  0.80539200  1
  Cu  Cu43  1  0.71140600  0.31130200  0.97564300  1
  Cu  Cu44  1  0.31130200  0.71140600  0.02435700  1
  Cu  Cu45  1  0.61047700  0.11323400  0.19460800  1
  Cu  Cu46  1  0.99402400  0.33970700  0.20822100  1
  Cu  Cu47  1  0.81987600  0.47485500  0.19953700  1
  Cu  Cu48  1  0.83215800  0.00485200  0.22534000  1
  Cu  Cu49  1  0.49669800  0.32240300  0.22895700  1
  Cu  Cu50  1  0.09934300  0.09935500  0.25096000  1
  Cu  Cu51  1  0.59934300  0.59935500  0.24904000  1
  Cu  Cu52  1  0.99669700  0.82240300  0.27104300  1
  Cu  Cu53  1  0.33215800  0.50485200  0.27466000  1
  Cu  Cu54  1  0.49402400  0.83970700  0.29177900  1
  Cu  Cu55  1  0.31987600  0.97485500  0.30046300  1
  Cu  Cu56  1  0.11047700  0.61323400  0.30539200  1
  Cu  Cu57  1  0.81130200  0.21140600  0.47564300  1
  Cu  Cu58  1  0.21140600  0.81130200  0.52435700  1
  Cu  Cu59  1  0.61323400  0.11047700  0.69460800  1
  Cu  Cu60  1  0.97485500  0.31987600  0.69953700  1
  Cu  Cu61  1  0.83970700  0.49402400  0.70822100  1
  Cu  Cu62  1  0.50485200  0.33215800  0.72534000  1
  Cu  Cu63  1  0.82240300  0.99669700  0.72895700  1
