# generated using pymatgen
data_CuNi5C3
_symmetry_space_group_name_H-M   'P 1'
_cell_length_a   5.46419206
_cell_length_b   5.46419206
_cell_length_c   7.17873273
_cell_angle_alpha   71.47891576
_cell_angle_beta   71.47891576
_cell_angle_gamma   70.66633351
_symmetry_Int_Tables_number   1
_chemical_formula_structural   CuNi5C3
_chemical_formula_sum   'Cu2 Ni10 C6'
_cell_volume   186.28916951
_cell_formula_units_Z   2
loop_
 _symmetry_equiv_pos_site_id
 _symmetry_equiv_pos_as_xyz
  1  'x, y, z'
loop_
 _atom_site_type_symbol
 _atom_site_label
 _atom_site_symmetry_multiplicity
 _atom_site_fract_x
 _atom_site_fract_y
 _atom_site_fract_z
 _atom_site_occupancy
  C  C0  1  0.50000000  0.50000000  0.00000000  1
  C  C1  1  0.16956000  0.16956000  0.84419400  1
  C  C2  1  0.50000000  0.50000000  0.50000000  1
  C  C3  1  0.15731900  0.15731900  0.32091100  1
  C  C4  1  0.84268100  0.84268100  0.67908900  1
  C  C5  1  0.83044000  0.83044000  0.15580600  1
  Ni  Ni6  1  0.47352900  0.86115500  0.82906400  1
  Ni  Ni7  1  0.80664500  0.19335500  0.50000000  1
  Ni  Ni8  1  0.39628300  0.39628300  0.79801400  1
  Ni  Ni9  1  0.06067400  0.06067400  0.12947800  1
  Ni  Ni10  1  0.93932600  0.93932600  0.87052200  1
  Ni  Ni11  1  0.60371700  0.60371700  0.20198600  1
  Ni  Ni12  1  0.19335500  0.80664500  0.50000000  1
  Ni  Ni13  1  0.86115500  0.47352900  0.82906400  1
  Ni  Ni14  1  0.52647100  0.13884500  0.17093600  1
  Ni  Ni15  1  0.13884500  0.52647100  0.17093600  1
  Cu  Cu16  1  0.74526400  0.74526400  0.46264200  1
  Cu  Cu17  1  0.25473600  0.25473600  0.53735800  1
