# generated using pymatgen
data_Cu5Ni7C4
_symmetry_space_group_name_H-M   'P 1'
_cell_length_a   5.28055796
_cell_length_b   5.28777479
_cell_length_c   9.03957042
_cell_angle_alpha   73.66521425
_cell_angle_beta   89.15866986
_cell_angle_gamma   60.79392397
_symmetry_Int_Tables_number   1
_chemical_formula_structural   Cu5Ni7C4
_chemical_formula_sum   'Cu5 Ni7 C4'
_cell_volume   209.14983156
_cell_formula_units_Z   1
loop_
 _symmetry_equiv_pos_site_id
 _symmetry_equiv_pos_as_xyz
  1  'x, y, z'
loop_
 _atom_site_type_symbol
 _atom_site_label
 _atom_site_symmetry_multiplicity
 _atom_site_fract_x
 _atom_site_fract_y
 _atom_site_fract_z
 _atom_site_occupancy
  C  C0  1  0.68477700  0.51804200  0.24332900  1
  C  C1  1  0.45819100  0.01543400  0.47787500  1
  C  C2  1  0.27367700  0.52428600  0.74123400  1
  C  C3  1  0.96417900  0.00102200  0.98298500  1
  Ni  Ni4  1  0.56759500  0.74592700  0.37832100  1
  Ni  Ni5  1  0.40900000  0.75258700  0.09780200  1
  Ni  Ni6  1  0.42175200  0.74534500  0.66450500  1
  Ni  Ni7  1  0.59075700  0.25275500  0.34210800  1
  Ni  Ni8  1  0.60271300  0.24193800  0.91747200  1
  Ni  Ni9  1  0.05773800  0.75378000  0.88100900  1
  Ni  Ni10  1  0.10573100  0.23807300  0.41155300  1
  Cu  Cu11  1  0.93372400  0.72267900  0.59184800  1
  Cu  Cu12  1  0.91464300  0.75557800  0.16738200  1
  Cu  Cu13  1  0.94508300  0.26502200  0.12675400  1
  Cu  Cu14  1  0.47165100  0.22473500  0.62908600  1
  Cu  Cu15  1  0.09878900  0.24279600  0.84673700  1
