# generated using pymatgen
data_Cu5NiC8
_symmetry_space_group_name_H-M   'P 1'
_cell_length_a   4.76776700
_cell_length_b   5.62929900
_cell_length_c   8.89786500
_cell_angle_alpha   90.00000000
_cell_angle_beta   90.00000000
_cell_angle_gamma   90.00000000
_symmetry_Int_Tables_number   1
_chemical_formula_structural   Cu5NiC8
_chemical_formula_sum   'Cu10 Ni2 C16'
_cell_volume   238.81145379
_cell_formula_units_Z   2
loop_
 _symmetry_equiv_pos_site_id
 _symmetry_equiv_pos_as_xyz
  1  'x, y, z'
loop_
 _atom_site_type_symbol
 _atom_site_label
 _atom_site_symmetry_multiplicity
 _atom_site_fract_x
 _atom_site_fract_y
 _atom_site_fract_z
 _atom_site_occupancy
  C  C0  1  0.06992800  0.00000000  0.98113100  1
  C  C1  1  0.56992800  0.50000000  0.01886900  1
  C  C2  1  0.49789900  0.00000000  0.18940100  1
  C  C3  1  0.99789900  0.50000000  0.81059900  1
  C  C4  1  0.48565800  0.13929000  0.81817100  1
  C  C5  1  0.48565800  0.86071000  0.81817100  1
  C  C6  1  0.98565800  0.36071000  0.18182900  1
  C  C7  1  0.98565800  0.63929000  0.18182900  1
  C  C8  1  0.75328100  0.00000000  0.46198600  1
  C  C9  1  0.25328100  0.50000000  0.53801400  1
  C  C10  1  0.11359400  0.00000000  0.45611400  1
  C  C11  1  0.61359400  0.50000000  0.54388600  1
  C  C12  1  0.94296500  0.15134400  0.59366500  1
  C  C13  1  0.94296500  0.84865600  0.59366500  1
  C  C14  1  0.44296500  0.34865600  0.40633500  1
  C  C15  1  0.44296500  0.65134400  0.40633500  1
  Ni  Ni16  1  0.93790700  0.00000000  0.52725700  1
  Ni  Ni17  1  0.43790700  0.50000000  0.47274300  1
  Cu  Cu18  1  0.36331200  0.00000000  0.80325700  1
  Cu  Cu19  1  0.86331200  0.50000000  0.19674300  1
  Cu  Cu20  1  0.81595800  0.00000000  0.16443900  1
  Cu  Cu21  1  0.31595800  0.50000000  0.83556100  1
  Cu  Cu22  1  0.35115500  0.21991000  0.11326700  1
  Cu  Cu23  1  0.35115500  0.78009000  0.11326700  1
  Cu  Cu24  1  0.85115500  0.28009000  0.88673300  1
  Cu  Cu25  1  0.85115500  0.71991000  0.88673300  1
  Cu  Cu26  1  0.43956300  0.00000000  0.36133500  1
  Cu  Cu27  1  0.93956300  0.50000000  0.63866500  1
