# generated using pymatgen
data_Cu(NiC)2
_symmetry_space_group_name_H-M   'P 1'
_cell_length_a   8.72987200
_cell_length_b   8.73006274
_cell_length_c   8.73349996
_cell_angle_alpha   109.40599101
_cell_angle_beta   109.53043611
_cell_angle_gamma   109.43669756
_symmetry_Int_Tables_number   1
_chemical_formula_structural   Cu(NiC)2
_chemical_formula_sum   'Cu8 Ni16 C16'
_cell_volume   512.63509654
_cell_formula_units_Z   8
loop_
 _symmetry_equiv_pos_site_id
 _symmetry_equiv_pos_as_xyz
  1  'x, y, z'
loop_
 _atom_site_type_symbol
 _atom_site_label
 _atom_site_symmetry_multiplicity
 _atom_site_fract_x
 _atom_site_fract_y
 _atom_site_fract_z
 _atom_site_occupancy
  C  C0  1  0.21492200  0.96524400  0.25019300  1
  C  C1  1  0.99668500  0.50782500  0.00633400  1
  C  C2  1  0.75898000  0.78949000  0.03509300  1
  C  C3  1  0.25027600  0.71451700  0.46652300  1
  C  C4  1  0.53156900  0.75502200  0.29574100  1
  C  C5  1  0.03068600  0.74943300  0.77836800  1
  C  C6  1  0.99646200  0.00940800  0.50566300  1
  C  C7  1  0.50569300  0.00607800  0.99528200  1
  C  C8  1  0.51267900  0.50224100  0.50955200  1
  C  C9  1  0.72044700  0.45654100  0.24943600  1
  C  C10  1  0.29159000  0.53825100  0.75099500  1
  C  C11  1  0.47143200  0.25688100  0.71700800  1
  C  C12  1  0.95485900  0.23957000  0.21173400  1
  C  C13  1  0.74280100  0.28069300  0.53366600  1
  C  C14  1  0.24843800  0.21355900  0.95416800  1
  C  C15  1  0.77974700  0.03084200  0.74469400  1
  Ni  Ni16  1  0.27423000  0.74107900  0.22532900  1
  Ni  Ni17  1  0.26058200  0.77058400  0.72803400  1
  Ni  Ni18  1  0.01429700  0.04670700  0.27766600  1
  Ni  Ni19  1  0.53134700  0.76817700  0.54387800  1
  Ni  Ni20  1  0.46290800  0.22567300  0.45156300  1
  Ni  Ni21  1  0.96737600  0.51248600  0.23957600  1
  Ni  Ni22  1  0.72764600  0.98821400  0.95495800  1
  Ni  Ni23  1  0.22227200  0.27386600  0.73620400  1
  Ni  Ni24  1  0.99356600  0.95905200  0.73178200  1
  Ni  Ni25  1  0.77270700  0.54479800  0.53293100  1
  Ni  Ni26  1  0.73756600  0.22306600  0.27113800  1
  Ni  Ni27  1  0.54314900  0.53542000  0.77143800  1
  Ni  Ni28  1  0.75846400  0.02978900  0.48305100  1
  Ni  Ni29  1  0.95397600  0.72611400  0.98446200  1
  Ni  Ni30  1  0.73120700  0.26305500  0.77615300  1
  Ni  Ni31  1  0.50694300  0.23611800  0.96637600  1
  Cu  Cu32  1  0.48748600  0.75680100  0.03331500  1
  Cu  Cu33  1  0.05374200  0.27761800  0.01786200  1
  Cu  Cu34  1  0.23841200  0.96382200  0.51146900  1
  Cu  Cu35  1  0.45099100  0.46533100  0.22469400  1
  Cu  Cu36  1  0.22635200  0.45364500  0.46584200  1
  Cu  Cu37  1  0.27449100  0.01312300  0.04849000  1
  Cu  Cu38  1  0.76621900  0.72289300  0.25651800  1
  Cu  Cu39  1  0.03680800  0.48697400  0.76281900  1
