# generated using pymatgen
data_Cu9NiC28
_symmetry_space_group_name_H-M   'P 1'
_cell_length_a   4.90599000
_cell_length_b   7.48536590
_cell_length_c   9.72205134
_cell_angle_alpha   96.34832397
_cell_angle_beta   94.81205138
_cell_angle_gamma   109.03644343
_symmetry_Int_Tables_number   1
_chemical_formula_structural   Cu9NiC28
_chemical_formula_sum   'Cu9 Ni1 C28'
_cell_volume   332.68429658
_cell_formula_units_Z   1
loop_
 _symmetry_equiv_pos_site_id
 _symmetry_equiv_pos_as_xyz
  1  'x, y, z'
loop_
 _atom_site_type_symbol
 _atom_site_label
 _atom_site_symmetry_multiplicity
 _atom_site_fract_x
 _atom_site_fract_y
 _atom_site_fract_z
 _atom_site_occupancy
  C  C0  1  0.59116200  0.93831900  0.24584900  1
  C  C1  1  0.19552400  0.13838400  0.24650600  1
  C  C2  1  0.40883800  0.06168100  0.75415100  1
  C  C3  1  0.80733200  0.36368600  0.24879300  1
  C  C4  1  0.59946600  0.44219300  0.75222300  1
  C  C5  1  0.40053400  0.55780700  0.24777700  1
  C  C6  1  0.19266800  0.63631400  0.75120700  1
  C  C7  1  0.80447600  0.86161600  0.75349400  1
  Ni  Ni8  1  0.00000000  0.00000000  0.50000000  1
  Cu  Cu9  1  0.20069600  0.90004700  0.00196200  1
  Cu  Cu10  1  0.60508000  0.20139700  0.49994400  1
  Cu  Cu11  1  0.79930400  0.09995300  0.99803800  1
  Cu  Cu12  1  0.39616200  0.29900800  0.99890600  1
  Cu  Cu13  1  0.20184300  0.40068800  0.50199200  1
  Cu  Cu14  1  0.79815700  0.59931200  0.49800800  1
  Cu  Cu15  1  0.00000000  0.50000000  0.00000000  1
  Cu  Cu16  1  0.39492000  0.79860300  0.50005600  1
  Cu  Cu17  1  0.60383800  0.70099200  0.00109400  1
  C  C18  1  0.89364300  0.92484600  0.10483600  1
  C  C19  1  0.31156400  0.98446800  0.39374600  1
  C  C20  1  0.68843600  0.01553200  0.60625400  1
  C  C21  1  0.50451300  0.87776900  0.89183600  1
  C  C22  1  0.10635700  0.07515400  0.89516400  1
  C  C23  1  0.30728500  0.21964200  0.60656800  1
  C  C24  1  0.49548700  0.12223100  0.10816400  1
  C  C25  1  0.90918700  0.17590900  0.39047700  1
  C  C26  1  0.50653600  0.37905300  0.39120100  1
  C  C27  1  0.69754900  0.28150100  0.89545200  1
  C  C28  1  0.89566300  0.42590700  0.60528000  1
  C  C29  1  0.09325900  0.32161100  0.10734800  1
  C  C30  1  0.68858800  0.51707100  0.10268800  1
  C  C31  1  0.10433700  0.57409300  0.39472000  1
  C  C32  1  0.49346400  0.62094700  0.60879900  1
  C  C33  1  0.31141200  0.48292900  0.89731200  1
  C  C34  1  0.09081300  0.82409100  0.60952300  1
  C  C35  1  0.90674100  0.67838900  0.89265200  1
  C  C36  1  0.30245100  0.71849900  0.10454800  1
  C  C37  1  0.69271500  0.78035800  0.39343200  1
