# generated using pymatgen
data_Cu3NiC
_symmetry_space_group_name_H-M   'P 1'
_cell_length_a   7.38997268
_cell_length_b   7.38817749
_cell_length_c   7.66993371
_cell_angle_alpha   90.84942474
_cell_angle_beta   89.16052075
_cell_angle_gamma   73.29160149
_symmetry_Int_Tables_number   1
_chemical_formula_structural   Cu3NiC
_chemical_formula_sum   'Cu24 Ni8 C8'
_cell_volume   400.96388197
_cell_formula_units_Z   8
loop_
 _symmetry_equiv_pos_site_id
 _symmetry_equiv_pos_as_xyz
  1  'x, y, z'
loop_
 _atom_site_type_symbol
 _atom_site_label
 _atom_site_symmetry_multiplicity
 _atom_site_fract_x
 _atom_site_fract_y
 _atom_site_fract_z
 _atom_site_occupancy
  C  C0  1  0.25006300  0.25003700  0.00001900  1
  C  C1  1  0.74997900  0.75012600  0.00000600  1
  C  C2  1  0.24988600  0.75006700  0.49990100  1
  C  C3  1  0.74988000  0.24983700  0.49996800  1
  C  C4  1  0.74981800  0.75003300  0.50012000  1
  C  C5  1  0.75009700  0.25004100  0.99992900  1
  C  C6  1  0.25007200  0.24972500  0.49989800  1
  C  C7  1  0.25018400  0.75006100  0.99990600  1
  Ni  Ni8  1  0.07029300  0.06666900  0.75443500  1
  Ni  Ni9  1  0.57028100  0.56605600  0.75435300  1
  Ni  Ni10  1  0.56651800  0.06995300  0.74606800  1
  Ni  Ni11  1  0.06640700  0.57016600  0.74575600  1
  Ni  Ni12  1  0.43360100  0.92989400  0.25439600  1
  Ni  Ni13  1  0.93344500  0.42999200  0.25391500  1
  Ni  Ni14  1  0.92978300  0.93374500  0.24562800  1
  Ni  Ni15  1  0.42970300  0.43349900  0.24554600  1
  Cu  Cu16  1  0.34106000  0.10613500  0.26157400  1
  Cu  Cu17  1  0.84076500  0.60618500  0.26131800  1
  Cu  Cu18  1  0.60581400  0.34089900  0.23798100  1
  Cu  Cu19  1  0.10605200  0.84130000  0.23849700  1
  Cu  Cu20  1  0.39406300  0.65871400  0.76147400  1
  Cu  Cu21  1  0.89416000  0.15914100  0.76197600  1
  Cu  Cu22  1  0.65902700  0.89377900  0.73864000  1
  Cu  Cu23  1  0.15891500  0.39389100  0.73866400  1
  Cu  Cu24  1  0.16211900  0.03498500  0.60593700  1
  Cu  Cu25  1  0.66266500  0.53435400  0.60622600  1
  Cu  Cu26  1  0.53505400  0.16199300  0.89446700  1
  Cu  Cu27  1  0.03476900  0.66269800  0.89387600  1
  Cu  Cu28  1  0.46533800  0.83772200  0.10615300  1
  Cu  Cu29  1  0.96518600  0.33791400  0.10552900  1
  Cu  Cu30  1  0.83740300  0.96516200  0.39378000  1
  Cu  Cu31  1  0.33775700  0.46508900  0.39399900  1
  Cu  Cu32  1  0.16140900  0.00931800  0.89704100  1
  Cu  Cu33  1  0.66069700  0.50893000  0.89738100  1
  Cu  Cu34  1  0.50912400  0.16072000  0.60327200  1
  Cu  Cu35  1  0.00916900  0.66061600  0.60279100  1
  Cu  Cu36  1  0.49060000  0.83933500  0.39735200  1
  Cu  Cu37  1  0.99080500  0.33919800  0.39670600  1
  Cu  Cu38  1  0.83931300  0.99114500  0.10266700  1
  Cu  Cu39  1  0.33872700  0.49087700  0.10285500  1
