# generated using pymatgen
data_CuNi3C10
_symmetry_space_group_name_H-M   'P 1'
_cell_length_a   8.56253500
_cell_length_b   8.56253500
_cell_length_c   8.56253500
_cell_angle_alpha   90.00000000
_cell_angle_beta   90.00000000
_cell_angle_gamma   90.00000000
_symmetry_Int_Tables_number   1
_chemical_formula_structural   CuNi3C10
_chemical_formula_sum   'Cu4 Ni12 C40'
_cell_volume   627.77942677
_cell_formula_units_Z   4
loop_
 _symmetry_equiv_pos_site_id
 _symmetry_equiv_pos_as_xyz
  1  'x, y, z'
loop_
 _atom_site_type_symbol
 _atom_site_label
 _atom_site_symmetry_multiplicity
 _atom_site_fract_x
 _atom_site_fract_y
 _atom_site_fract_z
 _atom_site_occupancy
  C  C0  1  0.00152800  0.00152800  0.00152800  1
  C  C1  1  0.24847200  0.24847200  0.24847200  1
  C  C2  1  0.25152800  0.75152800  0.74847200  1
  C  C3  1  0.49847200  0.99847200  0.50152800  1
  C  C4  1  0.50152800  0.49847200  0.99847200  1
  C  C5  1  0.74847200  0.25152800  0.75152800  1
  C  C6  1  0.75152800  0.74847200  0.25152800  1
  C  C7  1  0.99847200  0.50152800  0.49847200  1
  Ni  Ni8  1  0.12192900  0.12807100  0.62500000  1
  Ni  Ni9  1  0.12500000  0.37807100  0.87192900  1
  Ni  Ni10  1  0.12807100  0.62500000  0.12192900  1
  Ni  Ni11  1  0.37192900  0.37500000  0.62192900  1
  Ni  Ni12  1  0.37500000  0.62192900  0.37192900  1
  Ni  Ni13  1  0.37807100  0.87192900  0.12500000  1
  Ni  Ni14  1  0.62192900  0.37192900  0.37500000  1
  Ni  Ni15  1  0.62500000  0.12192900  0.12807100  1
  Ni  Ni16  1  0.62807100  0.87500000  0.87807100  1
  Ni  Ni17  1  0.87192900  0.12500000  0.37807100  1
  Ni  Ni18  1  0.87500000  0.87807100  0.62807100  1
  Ni  Ni19  1  0.87807100  0.62807100  0.87500000  1
  Cu  Cu20  1  0.12500000  0.87500000  0.37500000  1
  Cu  Cu21  1  0.37500000  0.12500000  0.87500000  1
  Cu  Cu22  1  0.62500000  0.62500000  0.62500000  1
  Cu  Cu23  1  0.87500000  0.37500000  0.12500000  1
  C  C24  1  0.09734300  0.13020900  0.39296100  1
  C  C25  1  0.10703900  0.90265700  0.63020900  1
  C  C26  1  0.11470800  0.61470800  0.88529200  1
  C  C27  1  0.11979100  0.15265700  0.85703900  1
  C  C28  1  0.13020900  0.39296100  0.09734300  1
  C  C29  1  0.13529200  0.36470800  0.63529200  1
  C  C30  1  0.14296100  0.61979100  0.34734300  1
  C  C31  1  0.15265700  0.85703900  0.11979100  1
  C  C32  1  0.34734300  0.14296100  0.61979100  1
  C  C33  1  0.35703900  0.38020900  0.84734300  1
  C  C34  1  0.36470800  0.63529200  0.13529200  1
  C  C35  1  0.36979100  0.60703900  0.59734300  1
  C  C36  1  0.38020900  0.84734300  0.35703900  1
  C  C37  1  0.38529200  0.38529200  0.38529200  1
  C  C38  1  0.39296100  0.09734300  0.13020900  1
  C  C39  1  0.40265700  0.86979100  0.89296100  1
  C  C40  1  0.59734300  0.36979100  0.60703900  1
  C  C41  1  0.60703900  0.59734300  0.36979100  1
  C  C42  1  0.61470800  0.88529200  0.11470800  1
  C  C43  1  0.61979100  0.34734300  0.14296100  1
  C  C44  1  0.63020900  0.10703900  0.90265700  1
  C  C45  1  0.63529200  0.13529200  0.36470800  1
  C  C46  1  0.64296100  0.88020900  0.65265700  1
  C  C47  1  0.65265700  0.64296100  0.88020900  1
  C  C48  1  0.84734300  0.35703900  0.38020900  1
  C  C49  1  0.85703900  0.11979100  0.15265700  1
  C  C50  1  0.86470800  0.86470800  0.86470800  1
  C  C51  1  0.86979100  0.89296100  0.40265700  1
  C  C52  1  0.88020900  0.65265700  0.64296100  1
  C  C53  1  0.88529200  0.11470800  0.61470800  1
  C  C54  1  0.89296100  0.40265700  0.86979100  1
  C  C55  1  0.90265700  0.63020900  0.10703900  1
