# generated using pymatgen
data_Cu2NiC32
_symmetry_space_group_name_H-M   'P 1'
_cell_length_a   8.89321141
_cell_length_b   8.89321141
_cell_length_c   8.89321140
_cell_angle_alpha   57.27322983
_cell_angle_beta   57.27322983
_cell_angle_gamma   57.27323292
_symmetry_Int_Tables_number   1
_chemical_formula_structural   Cu2NiC32
_chemical_formula_sum   'Cu2 Ni1 C32'
_cell_volume   466.12148911
_cell_formula_units_Z   1
loop_
 _symmetry_equiv_pos_site_id
 _symmetry_equiv_pos_as_xyz
  1  'x, y, z'
loop_
 _atom_site_type_symbol
 _atom_site_label
 _atom_site_symmetry_multiplicity
 _atom_site_fract_x
 _atom_site_fract_y
 _atom_site_fract_z
 _atom_site_occupancy
  Ni  Ni0  1  0.00000000  0.00000000  0.00000000  1
  Cu  Cu1  1  0.14705300  0.14705300  0.14705300  1
  Cu  Cu2  1  0.85294700  0.85294700  0.85294700  1
  C  C3  1  0.64597500  0.64597500  0.64597500  1
  C  C4  1  0.35402500  0.35402500  0.35402500  1
  C  C5  1  0.96291700  0.24670100  0.54118500  1
  C  C6  1  0.54118500  0.96291700  0.24670100  1
  C  C7  1  0.24670100  0.54118500  0.96291700  1
  C  C8  1  0.75329900  0.45881500  0.03708300  1
  C  C9  1  0.45881500  0.03708300  0.75329900  1
  C  C10  1  0.03708300  0.75329900  0.45881500  1
  C  C11  1  0.52266800  0.15407200  0.23707100  1
  C  C12  1  0.47772000  0.19133700  0.54771500  1
  C  C13  1  0.19133700  0.54771500  0.47772000  1
  C  C14  1  0.54771500  0.47772000  0.19133700  1
  C  C15  1  0.20138400  0.38467700  0.99138100  1
  C  C16  1  0.23707100  0.52266800  0.15407200  1
  C  C17  1  0.99138100  0.20138400  0.38467700  1
  C  C18  1  0.15407200  0.23707100  0.52266800  1
  C  C19  1  0.09713300  0.89657600  0.25596700  1
  C  C20  1  0.89657600  0.25596700  0.09713300  1
  C  C21  1  0.25596700  0.09713300  0.89657600  1
  C  C22  1  0.61532300  0.00861900  0.79861600  1
  C  C23  1  0.38467700  0.99138100  0.20138400  1
  C  C24  1  0.74403300  0.90286700  0.10342400  1
  C  C25  1  0.10342400  0.74403300  0.90286700  1
  C  C26  1  0.90286700  0.10342400  0.74403300  1
  C  C27  1  0.84592800  0.76292900  0.47733200  1
  C  C28  1  0.00861900  0.79861600  0.61532300  1
  C  C29  1  0.76292900  0.47733200  0.84592800  1
  C  C30  1  0.79861600  0.61532300  0.00861900  1
  C  C31  1  0.45228500  0.52228000  0.80866300  1
  C  C32  1  0.80866300  0.45228500  0.52228000  1
  C  C33  1  0.52228000  0.80866300  0.45228500  1
  C  C34  1  0.47733200  0.84592800  0.76292900  1
