# generated using pymatgen
data_Cu2NiC17
_symmetry_space_group_name_H-M   'P 1'
_cell_length_a   6.37031200
_cell_length_b   7.51001500
_cell_length_c   15.82697900
_cell_angle_alpha   90.00000000
_cell_angle_beta   90.00000000
_cell_angle_gamma   90.00000000
_symmetry_Int_Tables_number   1
_chemical_formula_structural   Cu2NiC17
_chemical_formula_sum   'Cu8 Ni4 C68'
_cell_volume   757.18069714
_cell_formula_units_Z   4
loop_
 _symmetry_equiv_pos_site_id
 _symmetry_equiv_pos_as_xyz
  1  'x, y, z'
loop_
 _atom_site_type_symbol
 _atom_site_label
 _atom_site_symmetry_multiplicity
 _atom_site_fract_x
 _atom_site_fract_y
 _atom_site_fract_z
 _atom_site_occupancy
  C  C0  1  0.51927700  0.53654700  0.56953400  1
  C  C1  1  0.98072300  0.53654700  0.56953400  1
  C  C2  1  0.25000000  0.33937400  0.63878900  1
  C  C3  1  0.50702800  0.10147600  0.61935700  1
  C  C4  1  0.99297200  0.10147600  0.61935700  1
  C  C5  1  0.75000000  0.32932200  0.66103500  1
  C  C6  1  0.25000000  0.80466200  0.69371500  1
  C  C7  1  0.00792900  0.55070800  0.71191900  1
  C  C8  1  0.49207100  0.55070800  0.71191900  1
  C  C9  1  0.50792900  0.05070800  0.78808100  1
  C  C10  1  0.99207100  0.05070800  0.78808100  1
  C  C11  1  0.75000000  0.30466200  0.80628500  1
  C  C12  1  0.25000000  0.82932200  0.83896500  1
  C  C13  1  0.49297200  0.60147600  0.88064300  1
  C  C14  1  0.00702800  0.60147600  0.88064300  1
  C  C15  1  0.75000000  0.83937400  0.86121100  1
  C  C16  1  0.01927700  0.03654700  0.93046600  1
  C  C17  1  0.48072300  0.03654700  0.93046600  1
  C  C18  1  0.51927700  0.96345300  0.06953400  1
  C  C19  1  0.98072300  0.96345300  0.06953400  1
  C  C20  1  0.25000000  0.16062600  0.13878900  1
  C  C21  1  0.99297200  0.39852400  0.11935700  1
  C  C22  1  0.50702800  0.39852400  0.11935700  1
  C  C23  1  0.75000000  0.17067800  0.16103500  1
  C  C24  1  0.25000000  0.69533800  0.19371500  1
  C  C25  1  0.00792900  0.94929200  0.21191900  1
  C  C26  1  0.49207100  0.94929200  0.21191900  1
  C  C27  1  0.50792900  0.44929200  0.28808100  1
  C  C28  1  0.99207100  0.44929200  0.28808100  1
  C  C29  1  0.75000000  0.19533800  0.30628500  1
  C  C30  1  0.25000000  0.67067800  0.33896500  1
  C  C31  1  0.49297200  0.89852400  0.38064300  1
  C  C32  1  0.00702800  0.89852400  0.38064300  1
  C  C33  1  0.75000000  0.66062600  0.36121100  1
  C  C34  1  0.01927700  0.46345300  0.43046600  1
  C  C35  1  0.48072300  0.46345300  0.43046600  1
  Ni  Ni36  1  0.75000000  0.84120600  0.50553800  1
  Ni  Ni37  1  0.25000000  0.34120600  0.99446200  1
  Ni  Ni38  1  0.75000000  0.65879400  0.00553800  1
  Ni  Ni39  1  0.25000000  0.15879400  0.49446200  1
  Cu  Cu40  1  0.25000000  0.76672100  0.53138800  1
  Cu  Cu41  1  0.75000000  0.79796500  0.69998900  1
  Cu  Cu42  1  0.25000000  0.29796500  0.80001100  1
  Cu  Cu43  1  0.75000000  0.26672100  0.96861200  1
  Cu  Cu44  1  0.25000000  0.73327900  0.03138800  1
  Cu  Cu45  1  0.75000000  0.70203500  0.19998900  1
  Cu  Cu46  1  0.25000000  0.20203500  0.30001100  1
  Cu  Cu47  1  0.75000000  0.23327900  0.46861200  1
  C  C48  1  0.47427200  0.28924200  0.52233800  1
  C  C49  1  0.02572800  0.28924200  0.52233800  1
  C  C50  1  0.25000000  0.00317500  0.58273300  1
  C  C51  1  0.25000000  0.59248600  0.62902700  1
  C  C52  1  0.75000000  0.56943600  0.64269400  1
  C  C53  1  0.75000000  0.96095300  0.60180400  1
  C  C54  1  0.00594900  0.27599300  0.72100500  1
  C  C55  1  0.49405100  0.27599300  0.72100500  1
  C  C56  1  0.50594900  0.77599300  0.77899500  1
  C  C57  1  0.99405100  0.77599300  0.77899500  1
  C  C58  1  0.25000000  0.46095300  0.89819600  1
  C  C59  1  0.25000000  0.06943600  0.85730600  1
  C  C60  1  0.75000000  0.09248600  0.87097300  1
  C  C61  1  0.75000000  0.50317500  0.91726700  1
  C  C62  1  0.97427200  0.78924200  0.97766200  1
  C  C63  1  0.52572800  0.78924200  0.97766200  1
  C  C64  1  0.47427200  0.21075800  0.02233800  1
  C  C65  1  0.02572800  0.21075800  0.02233800  1
  C  C66  1  0.25000000  0.49682500  0.08273300  1
  C  C67  1  0.25000000  0.90751400  0.12902700  1
  C  C68  1  0.75000000  0.93056400  0.14269400  1
  C  C69  1  0.75000000  0.53904700  0.10180400  1
  C  C70  1  0.00594900  0.22400700  0.22100500  1
  C  C71  1  0.49405100  0.22400700  0.22100500  1
  C  C72  1  0.50594900  0.72400700  0.27899500  1
  C  C73  1  0.99405100  0.72400700  0.27899500  1
  C  C74  1  0.25000000  0.03904700  0.39819600  1
  C  C75  1  0.25000000  0.43056400  0.35730600  1
  C  C76  1  0.75000000  0.40751400  0.37097300  1
  C  C77  1  0.75000000  0.99682500  0.41726700  1
  C  C78  1  0.97427200  0.71075800  0.47766200  1
  C  C79  1  0.52572800  0.71075800  0.47766200  1
