# generated using pymatgen
data_Cu2NiC10
_symmetry_space_group_name_H-M   'P 1'
_cell_length_a   6.70327900
_cell_length_b   8.68884680
_cell_length_c   10.08331604
_cell_angle_alpha   91.17794149
_cell_angle_beta   90.05612345
_cell_angle_gamma   90.34966491
_symmetry_Int_Tables_number   1
_chemical_formula_structural   Cu2NiC10
_chemical_formula_sum   'Cu8 Ni4 C40'
_cell_volume   587.15487948
_cell_formula_units_Z   4
loop_
 _symmetry_equiv_pos_site_id
 _symmetry_equiv_pos_as_xyz
  1  'x, y, z'
loop_
 _atom_site_type_symbol
 _atom_site_label
 _atom_site_symmetry_multiplicity
 _atom_site_fract_x
 _atom_site_fract_y
 _atom_site_fract_z
 _atom_site_occupancy
  Ni  Ni0  1  0.25238100  0.91612900  0.87808700  1
  Ni  Ni1  1  0.99859000  0.74865900  0.62447000  1
  Ni  Ni2  1  0.50159200  0.74831600  0.12665400  1
  Ni  Ni3  1  0.49947400  0.25206600  0.37591200  1
  Cu  Cu4  1  0.23983900  0.91838000  0.37657000  1
  Cu  Cu5  1  0.48111000  0.73274000  0.61450000  1
  Cu  Cu6  1  0.01633500  0.73233400  0.12095900  1
  Cu  Cu7  1  0.51875300  0.26653800  0.88291900  1
  Cu  Cu8  1  0.98006700  0.26673600  0.88426500  1
  Cu  Cu9  1  0.98601700  0.26468400  0.38366100  1
  Cu  Cu10  1  0.74672500  0.08562800  0.62548200  1
  Cu  Cu11  1  0.76385100  0.08696100  0.12438800  1
  C  C12  1  0.75232800  0.64156600  0.88736500  1
  C  C13  1  0.74761500  0.64174500  0.38880000  1
  C  C14  1  0.24489400  0.35381700  0.61284900  1
  C  C15  1  0.25004500  0.35607400  0.10982100  1
  C  C16  1  0.25482300  0.58487900  0.85034500  1
  C  C17  1  0.24064600  0.59450600  0.35152300  1
  C  C18  1  0.74420800  0.40274100  0.64911700  1
  C  C19  1  0.75932100  0.40591400  0.14592600  1
  C  C20  1  0.74942700  0.95879200  0.86724500  1
  C  C21  1  0.76022900  0.95509200  0.36538900  1
  C  C22  1  0.25798800  0.04596400  0.62942100  1
  C  C23  1  0.23889500  0.05231700  0.13901700  1
  C  C24  1  0.28128600  0.89963000  0.64734200  1
  C  C25  1  0.22326300  0.90426300  0.15383600  1
  C  C26  1  0.75031600  0.91086100  0.98852500  1
  C  C27  1  0.75119400  0.90968300  0.48768300  1
  C  C28  1  0.74984400  0.85913000  0.76861800  1
  C  C29  1  0.75080200  0.85382500  0.26807700  1
  C  C30  1  0.06892600  0.67761400  0.89766800  1
  C  C31  1  0.43887800  0.67621500  0.90273300  1
  C  C32  1  0.06289500  0.69606300  0.39789000  1
  C  C33  1  0.43065000  0.68573700  0.39722000  1
  C  C34  1  0.26155200  0.57907700  0.69544600  1
  C  C35  1  0.73257700  0.57021500  0.59668400  1
  C  C36  1  0.23615500  0.57992300  0.19652900  1
  C  C37  1  0.76863700  0.57307600  0.09372600  1
  C  C38  1  0.25041100  0.41578500  0.89897000  1
  C  C39  1  0.75317000  0.41462300  0.80458300  1
  C  C40  1  0.23291000  0.42938100  0.40684200  1
  C  C41  1  0.76777400  0.41850400  0.30072600  1
  C  C42  1  0.56194800  0.30287400  0.60640800  1
  C  C43  1  0.92821100  0.31296500  0.59614000  1
  C  C44  1  0.56826600  0.31646000  0.10078800  1
  C  C45  1  0.93367000  0.30478300  0.09280900  1
  C  C46  1  0.24433800  0.14001700  0.73132900  1
  C  C47  1  0.24431200  0.14262200  0.24311900  1
  C  C48  1  0.24662300  0.09838000  0.50993400  1
  C  C49  1  0.25052900  0.11182000  0.02224900  1
  C  C50  1  0.74858400  0.10479400  0.84184200  1
  C  C51  1  0.77712800  0.09910200  0.33759700  1
