# generated using pymatgen
data_Cu10Ni2C9
_symmetry_space_group_name_H-M   'P 1'
_cell_length_a   6.06091400
_cell_length_b   8.63929000
_cell_length_c   8.77174115
_cell_angle_alpha   79.54844339
_cell_angle_beta   90.00000000
_cell_angle_gamma   90.00000000
_symmetry_Int_Tables_number   1
_chemical_formula_structural   Cu10Ni2C9
_chemical_formula_sum   'Cu20 Ni4 C18'
_cell_volume   451.68534432
_cell_formula_units_Z   2
loop_
 _symmetry_equiv_pos_site_id
 _symmetry_equiv_pos_as_xyz
  1  'x, y, z'
loop_
 _atom_site_type_symbol
 _atom_site_label
 _atom_site_symmetry_multiplicity
 _atom_site_fract_x
 _atom_site_fract_y
 _atom_site_fract_z
 _atom_site_occupancy
  C  C0  1  0.50000000  0.50000000  0.50000000  1
  C  C1  1  0.00000000  0.00000000  0.50000000  1
  C  C2  1  0.70498000  0.01023100  0.20316400  1
  C  C3  1  0.92776600  0.22466300  0.22791100  1
  C  C4  1  0.79502000  0.51023100  0.20316400  1
  C  C5  1  0.57223400  0.72466300  0.22791100  1
  C  C6  1  0.51590800  0.26934700  0.34529500  1
  C  C7  1  0.98409200  0.76934700  0.34529500  1
  C  C8  1  0.61307400  0.19882400  0.51345800  1
  C  C9  1  0.11307400  0.30117600  0.48654200  1
  C  C10  1  0.88692600  0.69882400  0.51345800  1
  C  C11  1  0.38692600  0.80117600  0.48654200  1
  C  C12  1  0.01590800  0.23065300  0.65470500  1
  C  C13  1  0.48409200  0.73065300  0.65470500  1
  C  C14  1  0.42776600  0.27533700  0.77208900  1
  C  C15  1  0.20498000  0.48976900  0.79683600  1
  C  C16  1  0.07223400  0.77533700  0.77208900  1
  C  C17  1  0.29502000  0.98976900  0.79683600  1
  Ni  Ni18  1  0.28607400  0.05019500  0.17944400  1
  Ni  Ni19  1  0.21392600  0.55019500  0.17944400  1
  Ni  Ni20  1  0.78607400  0.44980500  0.82055600  1
  Ni  Ni21  1  0.71392600  0.94980500  0.82055600  1
  Cu  Cu22  1  0.38672800  0.25101600  0.16852900  1
  Cu  Cu23  1  0.91460300  0.45595900  0.15369500  1
  Cu  Cu24  1  0.95430800  0.10969700  0.25389300  1
  Cu  Cu25  1  0.11327200  0.75101600  0.16852900  1
  Cu  Cu26  1  0.58539700  0.95595900  0.15369500  1
  Cu  Cu27  1  0.54569200  0.60969700  0.25389300  1
  Cu  Cu28  1  0.19526600  0.47531200  0.38935900  1
  Cu  Cu29  1  0.59761300  0.29706200  0.43509200  1
  Cu  Cu30  1  0.30473400  0.97531200  0.38935900  1
  Cu  Cu31  1  0.90238700  0.79706200  0.43509200  1
  Cu  Cu32  1  0.09761300  0.20293800  0.56490800  1
  Cu  Cu33  1  0.69526600  0.02468800  0.61064100  1
  Cu  Cu34  1  0.40238700  0.70293800  0.56490800  1
  Cu  Cu35  1  0.80473400  0.52468800  0.61064100  1
  Cu  Cu36  1  0.45430800  0.39030300  0.74610700  1
  Cu  Cu37  1  0.41460300  0.04404100  0.84630500  1
  Cu  Cu38  1  0.88672800  0.24898400  0.83147100  1
  Cu  Cu39  1  0.04569200  0.89030300  0.74610700  1
  Cu  Cu40  1  0.08539700  0.54404100  0.84630500  1
  Cu  Cu41  1  0.61327200  0.74898400  0.83147100  1
