# generated using pymatgen
data_Cu3NiC
_symmetry_space_group_name_H-M   'P 1'
_cell_length_a   5.78628988
_cell_length_b   6.13426650
_cell_length_c   12.27139044
_cell_angle_alpha   88.85774025
_cell_angle_beta   77.74249951
_cell_angle_gamma   102.19561198
_symmetry_Int_Tables_number   1
_chemical_formula_structural   Cu3NiC
_chemical_formula_sum   'Cu24 Ni8 C8'
_cell_volume   415.07525877
_cell_formula_units_Z   8
loop_
 _symmetry_equiv_pos_site_id
 _symmetry_equiv_pos_as_xyz
  1  'x, y, z'
loop_
 _atom_site_type_symbol
 _atom_site_label
 _atom_site_symmetry_multiplicity
 _atom_site_fract_x
 _atom_site_fract_y
 _atom_site_fract_z
 _atom_site_occupancy
  C  C0  1  0.75048200  0.38081100  0.18983800  1
  C  C1  1  0.75059900  0.38071700  0.68982300  1
  C  C2  1  0.24957200  0.61915300  0.31019500  1
  C  C3  1  0.24939600  0.61929500  0.81015100  1
  C  C4  1  0.75012800  0.80889000  0.90418000  1
  C  C5  1  0.24973800  0.19097700  0.59580700  1
  C  C6  1  0.75047000  0.80878700  0.40415400  1
  C  C7  1  0.24944300  0.19130700  0.09581900  1
  Ni  Ni8  1  0.72295800  0.31229100  0.44010700  1
  Ni  Ni9  1  0.72279400  0.31245500  0.94009600  1
  Ni  Ni10  1  0.22279400  0.11988500  0.34386600  1
  Ni  Ni11  1  0.22265200  0.11993200  0.84389700  1
  Ni  Ni12  1  0.77728000  0.88014900  0.15613300  1
  Ni  Ni13  1  0.77732900  0.88005900  0.65610200  1
  Ni  Ni14  1  0.27701900  0.68775400  0.05991800  1
  Ni  Ni15  1  0.27725500  0.68751300  0.55989200  1
  Cu  Cu16  1  0.71762200  0.12580700  0.39527100  1
  Cu  Cu17  1  0.71740800  0.12592700  0.89524700  1
  Cu  Cu18  1  0.21790700  0.20911000  0.43717400  1
  Cu  Cu19  1  0.21764600  0.20931200  0.93716400  1
  Cu  Cu20  1  0.78212600  0.79087800  0.06281700  1
  Cu  Cu21  1  0.78236500  0.79070900  0.56282900  1
  Cu  Cu22  1  0.28240000  0.87426300  0.10471000  1
  Cu  Cu23  1  0.28260800  0.87404900  0.60476200  1
  Cu  Cu24  1  0.88958300  0.08639000  0.16201700  1
  Cu  Cu25  1  0.88976300  0.08631500  0.66198700  1
  Cu  Cu26  1  0.39009500  0.67597000  0.45680900  1
  Cu  Cu27  1  0.38983900  0.67604200  0.95681300  1
  Cu  Cu28  1  0.60994300  0.32402900  0.04318900  1
  Cu  Cu29  1  0.61010700  0.32392200  0.54319900  1
  Cu  Cu30  1  0.11046700  0.91360300  0.33798400  1
  Cu  Cu31  1  0.11018500  0.91367800  0.83803900  1
  Cu  Cu32  1  0.83706500  0.49455700  0.37885000  1
  Cu  Cu33  1  0.83688300  0.49470600  0.87884900  1
  Cu  Cu34  1  0.33585600  0.24282400  0.25274100  1
  Cu  Cu35  1  0.33598300  0.24271000  0.75274900  1
  Cu  Cu36  1  0.66420100  0.75717200  0.24724700  1
  Cu  Cu37  1  0.66397700  0.75725300  0.74725300  1
  Cu  Cu38  1  0.16293300  0.50550400  0.12117700  1
  Cu  Cu39  1  0.16313400  0.50529700  0.62114500  1
