# generated using pymatgen
data_CuNi3C10
_symmetry_space_group_name_H-M   'P 1'
_cell_length_a   5.89004469
_cell_length_b   5.89004469
_cell_length_c   5.89004414
_cell_angle_alpha   60.21856933
_cell_angle_beta   60.21856933
_cell_angle_gamma   60.21856091
_symmetry_Int_Tables_number   1
_chemical_formula_structural   CuNi3C10
_chemical_formula_sum   'Cu1 Ni3 C10'
_cell_volume   145.20600278
_cell_formula_units_Z   1
loop_
 _symmetry_equiv_pos_site_id
 _symmetry_equiv_pos_as_xyz
  1  'x, y, z'
loop_
 _atom_site_type_symbol
 _atom_site_label
 _atom_site_symmetry_multiplicity
 _atom_site_fract_x
 _atom_site_fract_y
 _atom_site_fract_z
 _atom_site_occupancy
  C  C0  1  0.87555800  0.87555800  0.87555800  1
  C  C1  1  0.49976300  0.49976300  0.49976300  1
  Ni  Ni2  1  0.98878300  0.50245200  0.50245200  1
  Ni  Ni3  1  0.50245200  0.98878300  0.50245200  1
  Ni  Ni4  1  0.50245200  0.50245200  0.98878300  1
  Cu  Cu5  1  0.11940700  0.11940700  0.11940700  1
  C  C6  1  0.73933500  0.73933500  0.73933500  1
  C  C7  1  0.75143300  0.75143300  0.28623300  1
  C  C8  1  0.75143300  0.28623300  0.75143300  1
  C  C9  1  0.28623300  0.75143300  0.75143300  1
  C  C10  1  0.72387900  0.25169800  0.25169800  1
  C  C11  1  0.25169800  0.72387900  0.25169800  1
  C  C12  1  0.25169800  0.25169800  0.72387900  1
  C  C13  1  0.25587400  0.25587400  0.25587400  1
