# generated using pymatgen
data_Cu8Ni2C3
_symmetry_space_group_name_H-M   'P 1'
_cell_length_a   9.33789800
_cell_length_b   9.45596000
_cell_length_c   13.96060000
_cell_angle_alpha   90.00000000
_cell_angle_beta   90.00000000
_cell_angle_gamma   90.00000000
_symmetry_Int_Tables_number   1
_chemical_formula_structural   Cu8Ni2C3
_chemical_formula_sum   'Cu64 Ni16 C24'
_cell_volume   1232.70408728
_cell_formula_units_Z   8
loop_
 _symmetry_equiv_pos_site_id
 _symmetry_equiv_pos_as_xyz
  1  'x, y, z'
loop_
 _atom_site_type_symbol
 _atom_site_label
 _atom_site_symmetry_multiplicity
 _atom_site_fract_x
 _atom_site_fract_y
 _atom_site_fract_z
 _atom_site_occupancy
  C  C0  1  0.77984700  0.96649800  0.37378200  1
  C  C1  1  0.72015300  0.96649800  0.87378200  1
  C  C2  1  0.04553500  0.77581100  0.37239100  1
  C  C3  1  0.45446500  0.77581100  0.87239100  1
  C  C4  1  0.95446500  0.72418900  0.87239100  1
  C  C5  1  0.54553500  0.72418900  0.37239100  1
  C  C6  1  0.27984700  0.53350200  0.37378200  1
  C  C7  1  0.22015300  0.53350200  0.87378200  1
  C  C8  1  0.77984700  0.46649800  0.12621800  1
  C  C9  1  0.72015300  0.46649800  0.62621800  1
  C  C10  1  0.45446500  0.27581100  0.62760900  1
  C  C11  1  0.04553500  0.27581100  0.12760900  1
  C  C12  1  0.54553500  0.22418900  0.12760900  1
  C  C13  1  0.95446500  0.22418900  0.62760900  1
  C  C14  1  0.22015300  0.03350200  0.62621800  1
  C  C15  1  0.27984700  0.03350200  0.12621800  1
  C  C16  1  0.89763900  0.86103900  0.12269300  1
  C  C17  1  0.60236100  0.86103900  0.62269300  1
  C  C18  1  0.39763900  0.63896100  0.12269300  1
  C  C19  1  0.10236100  0.63896100  0.62269300  1
  C  C20  1  0.89763900  0.36103900  0.37730700  1
  C  C21  1  0.60236100  0.36103900  0.87730700  1
  C  C22  1  0.39763900  0.13896100  0.37730700  1
  C  C23  1  0.10236100  0.13896100  0.87730700  1
  Ni  Ni24  1  0.92984300  0.92539000  0.72800900  1
  Ni  Ni25  1  0.57015700  0.92539000  0.22800900  1
  Ni  Ni26  1  0.31230400  0.83944000  0.49047600  1
  Ni  Ni27  1  0.18769600  0.83944000  0.99047600  1
  Ni  Ni28  1  0.81230400  0.66056000  0.49047600  1
  Ni  Ni29  1  0.68769600  0.66056000  0.99047600  1
  Ni  Ni30  1  0.07015700  0.57461000  0.22800900  1
  Ni  Ni31  1  0.42984300  0.57461000  0.72800900  1
  Ni  Ni32  1  0.57015700  0.42539000  0.27199100  1
  Ni  Ni33  1  0.92984300  0.42539000  0.77199100  1
  Ni  Ni34  1  0.31230400  0.33944000  0.00952400  1
  Ni  Ni35  1  0.18769600  0.33944000  0.50952400  1
  Ni  Ni36  1  0.81230400  0.16056000  0.00952400  1
  Ni  Ni37  1  0.68769600  0.16056000  0.50952400  1
  Ni  Ni38  1  0.42984300  0.07461000  0.77199100  1
  Ni  Ni39  1  0.07015700  0.07461000  0.27199100  1
  Cu  Cu40  1  0.29937400  0.99520000  0.47719400  1
  Cu  Cu41  1  0.20062600  0.99520000  0.97719400  1
  Cu  Cu42  1  0.00308700  0.98287700  0.34523300  1
  Cu  Cu43  1  0.49691300  0.98287700  0.84523300  1
  Cu  Cu44  1  0.53897300  0.97404600  0.32861600  1
  Cu  Cu45  1  0.96102700  0.97404600  0.82861600  1
  Cu  Cu46  1  0.76980900  0.92689400  0.72296800  1
  Cu  Cu47  1  0.73019100  0.92689400  0.22296800  1
  Cu  Cu48  1  0.26844300  0.81284700  0.08098300  1
  Cu  Cu49  1  0.23155700  0.81284700  0.58098300  1
  Cu  Cu50  1  0.03477200  0.79524600  0.00266100  1
  Cu  Cu51  1  0.46522800  0.79524600  0.50266100  1
  Cu  Cu52  1  0.98570700  0.77778600  0.72236800  1
  Cu  Cu53  1  0.51429300  0.77778600  0.22236800  1
  Cu  Cu54  1  0.25508900  0.75879100  0.40751300  1
  Cu  Cu55  1  0.24491100  0.75879100  0.90751300  1
  Cu  Cu56  1  0.75508900  0.74120900  0.40751300  1
  Cu  Cu57  1  0.74491100  0.74120900  0.90751300  1
  Cu  Cu58  1  0.01429300  0.72221400  0.22236800  1
  Cu  Cu59  1  0.48570700  0.72221400  0.72236800  1
  Cu  Cu60  1  0.96522800  0.70475400  0.50266100  1
  Cu  Cu61  1  0.53477200  0.70475400  0.00266100  1
  Cu  Cu62  1  0.76844300  0.68715300  0.08098300  1
  Cu  Cu63  1  0.73155700  0.68715300  0.58098300  1
  Cu  Cu64  1  0.23019100  0.57310600  0.22296800  1
  Cu  Cu65  1  0.26980900  0.57310600  0.72296800  1
  Cu  Cu66  1  0.46102700  0.52595400  0.82861600  1
  Cu  Cu67  1  0.03897300  0.52595400  0.32861600  1
  Cu  Cu68  1  0.50308700  0.51712300  0.34523300  1
  Cu  Cu69  1  0.99691300  0.51712300  0.84523300  1
  Cu  Cu70  1  0.79937400  0.50480000  0.47719400  1
  Cu  Cu71  1  0.70062600  0.50480000  0.97719400  1
  Cu  Cu72  1  0.29937400  0.49520000  0.02280600  1
  Cu  Cu73  1  0.20062600  0.49520000  0.52280600  1
  Cu  Cu74  1  0.49691300  0.48287700  0.65476700  1
  Cu  Cu75  1  0.00308700  0.48287700  0.15476700  1
  Cu  Cu76  1  0.53897300  0.47404600  0.17138400  1
  Cu  Cu77  1  0.96102700  0.47404600  0.67138400  1
  Cu  Cu78  1  0.73019100  0.42689400  0.27703200  1
  Cu  Cu79  1  0.76980900  0.42689400  0.77703200  1
  Cu  Cu80  1  0.26844300  0.31284700  0.41901700  1
  Cu  Cu81  1  0.23155700  0.31284700  0.91901700  1
  Cu  Cu82  1  0.46522800  0.29524600  0.99733900  1
  Cu  Cu83  1  0.03477200  0.29524600  0.49733900  1
  Cu  Cu84  1  0.51429300  0.27778600  0.27763200  1
  Cu  Cu85  1  0.98570700  0.27778600  0.77763200  1
  Cu  Cu86  1  0.25508900  0.25879100  0.09248700  1
  Cu  Cu87  1  0.24491100  0.25879100  0.59248700  1
  Cu  Cu88  1  0.75508900  0.24120900  0.09248700  1
  Cu  Cu89  1  0.74491100  0.24120900  0.59248700  1
  Cu  Cu90  1  0.48570700  0.22221400  0.77763200  1
  Cu  Cu91  1  0.01429300  0.22221400  0.27763200  1
  Cu  Cu92  1  0.53477200  0.20475400  0.49733900  1
  Cu  Cu93  1  0.96522800  0.20475400  0.99733900  1
  Cu  Cu94  1  0.76844300  0.18715300  0.41901700  1
  Cu  Cu95  1  0.73155700  0.18715300  0.91901700  1
  Cu  Cu96  1  0.26980900  0.07310600  0.77703200  1
  Cu  Cu97  1  0.23019100  0.07310600  0.27703200  1
  Cu  Cu98  1  0.46102700  0.02595400  0.67138400  1
  Cu  Cu99  1  0.03897300  0.02595400  0.17138400  1
  Cu  Cu100  1  0.99691300  0.01712300  0.65476700  1
  Cu  Cu101  1  0.50308700  0.01712300  0.15476700  1
  Cu  Cu102  1  0.79937400  0.00480000  0.02280600  1
  Cu  Cu103  1  0.70062600  0.00480000  0.52280600  1
