# generated using pymatgen
data_Cu7(NiC10)3
_symmetry_space_group_name_H-M   'P 1'
_cell_length_a   2.81507400
_cell_length_b   11.50002814
_cell_length_c   11.49959934
_cell_angle_alpha   112.66123084
_cell_angle_beta   90.10479520
_cell_angle_gamma   97.01990895
_symmetry_Int_Tables_number   1
_chemical_formula_structural   Cu7(NiC10)3
_chemical_formula_sum   'Cu7 Ni3 C30'
_cell_volume   340.47905881
_cell_formula_units_Z   1
loop_
 _symmetry_equiv_pos_site_id
 _symmetry_equiv_pos_as_xyz
  1  'x, y, z'
loop_
 _atom_site_type_symbol
 _atom_site_label
 _atom_site_symmetry_multiplicity
 _atom_site_fract_x
 _atom_site_fract_y
 _atom_site_fract_z
 _atom_site_occupancy
  C  C0  1  0.30217600  0.59880500  0.34996200  1
  C  C1  1  0.30106200  0.60353500  0.85305800  1
  C  C2  1  0.10127900  0.20329800  0.95310900  1
  C  C3  1  0.10476700  0.19819900  0.44543000  1
  C  C4  1  0.49491700  0.99747900  0.74500600  1
  C  C5  1  0.50508300  0.00252100  0.25499400  1
  C  C6  1  0.69782400  0.40119500  0.65003800  1
  C  C7  1  0.69893800  0.39646500  0.14694200  1
  C  C8  1  0.89872100  0.79670200  0.04689100  1
  C  C9  1  0.89523300  0.80180100  0.55457000  1
  Ni  Ni10  1  0.10335800  0.19897000  0.19881000  1
  Ni  Ni11  1  0.50000000  0.00000000  0.50000000  1
  Ni  Ni12  1  0.89664200  0.80103000  0.80119000  1
  Cu  Cu13  1  0.09539100  0.19375600  0.69878600  1
  Cu  Cu14  1  0.30183600  0.60102800  0.10222300  1
  Cu  Cu15  1  0.30278100  0.60544400  0.60006400  1
  Cu  Cu16  1  0.69721900  0.39455600  0.39993600  1
  Cu  Cu17  1  0.50000000  0.00000000  0.00000000  1
  Cu  Cu18  1  0.69816400  0.39897200  0.89777700  1
  Cu  Cu19  1  0.90460900  0.80624400  0.30121400  1
  C  C20  1  0.19565900  0.40409000  0.51799300  1
  C  C21  1  0.02017100  0.01785000  0.12099400  1
  C  C22  1  0.39585900  0.80205900  0.91559300  1
  C  C23  1  0.20092200  0.38121700  0.27850600  1
  C  C24  1  0.19887900  0.39995000  0.78527700  1
  C  C25  1  0.99929600  0.00336400  0.38839600  1
  C  C26  1  0.00070400  0.99663600  0.61160400  1
  C  C27  1  0.40772100  0.81833500  0.41828300  1
  C  C28  1  0.20146100  0.40043300  0.01004700  1
  C  C29  1  0.97982900  0.98215000  0.87900600  1
  C  C30  1  0.59927400  0.19942300  0.81277500  1
  C  C31  1  0.79907800  0.61878300  0.72149400  1
  C  C32  1  0.60696000  0.20020600  0.31232400  1
  C  C33  1  0.59227900  0.18166500  0.58171700  1
  C  C34  1  0.40072600  0.80057700  0.18722500  1
  C  C35  1  0.80434100  0.59591000  0.48200700  1
  C  C36  1  0.79853900  0.59956700  0.98995300  1
  C  C37  1  0.80112100  0.60005000  0.21472300  1
  C  C38  1  0.39304000  0.79979400  0.68767600  1
  C  C39  1  0.60414100  0.19794100  0.08440700  1
