# generated using pymatgen
data_Cu(NiC5)4
_symmetry_space_group_name_H-M   'P 1'
_cell_length_a   11.91407000
_cell_length_b   14.44647800
_cell_length_c   21.60299300
_cell_angle_alpha   90.00000000
_cell_angle_beta   90.00000000
_cell_angle_gamma   90.00000000
_symmetry_Int_Tables_number   1
_chemical_formula_structural   Cu(NiC5)4
_chemical_formula_sum   'Cu8 Ni32 C160'
_cell_volume   3718.22830738
_cell_formula_units_Z   8
loop_
 _symmetry_equiv_pos_site_id
 _symmetry_equiv_pos_as_xyz
  1  'x, y, z'
loop_
 _atom_site_type_symbol
 _atom_site_label
 _atom_site_symmetry_multiplicity
 _atom_site_fract_x
 _atom_site_fract_y
 _atom_site_fract_z
 _atom_site_occupancy
  C  C0  1  0.92167400  0.52333700  0.35339900  1
  C  C1  1  0.75590500  0.98046300  0.97606500  1
  C  C2  1  0.57832600  0.02333700  0.35339900  1
  C  C3  1  0.04543200  0.97188400  0.84654000  1
  C  C4  1  0.04543200  0.97188400  0.65346000  1
  C  C5  1  0.24409500  0.01953700  0.47606500  1
  C  C6  1  0.75590500  0.98046300  0.52393500  1
  C  C7  1  0.95456800  0.02811600  0.34654000  1
  C  C8  1  0.74409500  0.48046300  0.52393500  1
  C  C9  1  0.95456800  0.02811600  0.15346000  1
  C  C10  1  0.57832600  0.02333700  0.14660100  1
  C  C11  1  0.45456800  0.47188400  0.84654000  1
  C  C12  1  0.25590500  0.51953700  0.47606500  1
  C  C13  1  0.42167400  0.97666300  0.85339900  1
  C  C14  1  0.07832600  0.47666300  0.64660100  1
  C  C15  1  0.76447500  0.36880300  0.75000000  1
  C  C16  1  0.54543200  0.52811600  0.34654000  1
  C  C17  1  0.23552500  0.63119700  0.25000000  1
  C  C18  1  0.92167400  0.52333700  0.14660100  1
  C  C19  1  0.73552500  0.86880300  0.75000000  1
  C  C20  1  0.24409500  0.01953700  0.02393500  1
  C  C21  1  0.07832600  0.47666300  0.85339900  1
  C  C22  1  0.42167400  0.97666300  0.64660100  1
  C  C23  1  0.26447500  0.13119700  0.25000000  1
  C  C24  1  0.45456800  0.47188400  0.65346000  1
  C  C25  1  0.25590500  0.51953700  0.02393500  1
  C  C26  1  0.54543200  0.52811600  0.15346000  1
  C  C27  1  0.74409500  0.48046300  0.97606500  1
  Ni  Ni28  1  0.48110700  0.22242900  0.75000000  1
  Ni  Ni29  1  0.54257400  0.72862000  0.57579900  1
  Ni  Ni30  1  0.45166000  0.73031900  0.75000000  1
  Ni  Ni31  1  0.93019700  0.72113300  0.57647100  1
  Ni  Ni32  1  0.45742600  0.27138000  0.42420100  1
  Ni  Ni33  1  0.54834000  0.26968100  0.25000000  1
  Ni  Ni34  1  0.04257400  0.77138000  0.42420100  1
  Ni  Ni35  1  0.95742600  0.22862000  0.92420100  1
  Ni  Ni36  1  0.95742600  0.22862000  0.57579900  1
  Ni  Ni37  1  0.01889300  0.72242900  0.75000000  1
  Ni  Ni38  1  0.73604400  0.74892500  0.40587400  1
  Ni  Ni39  1  0.93019700  0.72113300  0.92352900  1
  Ni  Ni40  1  0.73604400  0.74892500  0.09412600  1
  Ni  Ni41  1  0.76395600  0.24892500  0.09412600  1
  Ni  Ni42  1  0.76395600  0.24892500  0.40587400  1
  Ni  Ni43  1  0.98110700  0.27757100  0.25000000  1
  Ni  Ni44  1  0.54257400  0.72862000  0.92420100  1
  Ni  Ni45  1  0.51889300  0.77757100  0.25000000  1
  Ni  Ni46  1  0.43019700  0.77886700  0.42352900  1
  Ni  Ni47  1  0.04257400  0.77138000  0.07579900  1
  Ni  Ni48  1  0.26395600  0.25107500  0.59412600  1
  Ni  Ni49  1  0.95166000  0.76968100  0.25000000  1
  Ni  Ni50  1  0.56980300  0.22113300  0.57647100  1
  Ni  Ni51  1  0.23604400  0.75107500  0.90587400  1
  Ni  Ni52  1  0.04834000  0.23031900  0.75000000  1
  Ni  Ni53  1  0.06980300  0.27886700  0.07647100  1
  Ni  Ni54  1  0.43019700  0.77886700  0.07647100  1
  Ni  Ni55  1  0.23604400  0.75107500  0.59412600  1
  Ni  Ni56  1  0.56980300  0.22113300  0.92352900  1
  Ni  Ni57  1  0.06980300  0.27886700  0.42352900  1
  Ni  Ni58  1  0.26395600  0.25107500  0.90587400  1
  Ni  Ni59  1  0.45742600  0.27138000  0.07579900  1
  Cu  Cu60  1  0.76683200  0.13307000  0.66205900  1
  Cu  Cu61  1  0.23316800  0.86693000  0.33794100  1
  Cu  Cu62  1  0.76683200  0.13307000  0.83794100  1
  Cu  Cu63  1  0.23316800  0.86693000  0.16205900  1
  Cu  Cu64  1  0.73316800  0.63307000  0.83794100  1
  Cu  Cu65  1  0.26683200  0.36693000  0.33794100  1
  Cu  Cu66  1  0.73316800  0.63307000  0.66205900  1
  Cu  Cu67  1  0.26683200  0.36693000  0.16205900  1
  C  C68  1  0.73383200  0.68026000  0.25000000  1
  C  C69  1  0.23383200  0.81974000  0.75000000  1
  C  C70  1  0.76616800  0.18026000  0.25000000  1
  C  C71  1  0.26616800  0.31974000  0.75000000  1
  C  C72  1  0.39136700  0.30999400  0.18555100  1
  C  C73  1  0.41392600  0.15043600  0.08972900  1
  C  C74  1  0.76057700  0.37705200  0.40847300  1
  C  C75  1  0.76476700  0.16715300  0.91660400  1
  C  C76  1  0.26057700  0.12294800  0.90847300  1
  C  C77  1  0.22514100  0.98141000  0.33089000  1
  C  C78  1  0.10863300  0.80999400  0.31444900  1
  C  C79  1  0.38058800  0.76218700  0.52498300  1
  C  C80  1  0.22514100  0.98141000  0.16911000  1
  C  C81  1  0.60898100  0.34307500  0.59031700  1
  C  C82  1  0.86238800  0.68233900  0.68576100  1
  C  C83  1  0.26476700  0.33284700  0.41660400  1
  C  C84  1  0.11941200  0.26218700  0.97501700  1
  C  C85  1  0.09164100  0.75483100  0.52530500  1
  C  C86  1  0.92833400  0.26259600  0.14992500  1
  C  C87  1  0.10898100  0.15692500  0.40968300  1
  C  C88  1  0.09164100  0.75483100  0.97469500  1
  C  C89  1  0.77485900  0.01859000  0.66911000  1
  C  C90  1  0.00025100  0.64782200  0.25000000  1
  C  C91  1  0.46897100  0.65608800  0.25000000  1
  C  C92  1  0.51115500  0.60451800  0.93530800  1
  C  C93  1  0.54137300  0.09640300  0.93385800  1
  C  C94  1  0.36238800  0.81766100  0.18576100  1
  C  C95  1  0.39101900  0.65692500  0.40968300  1
  C  C96  1  0.57166600  0.76259600  0.14992500  1
  C  C97  1  0.92769700  0.39738300  0.25000000  1
  C  C98  1  0.07166600  0.73740400  0.85007500  1
  C  C99  1  0.90835900  0.24516900  0.47469500  1
  C  C100  1  0.91392600  0.34956400  0.91027100  1
  C  C101  1  0.01115500  0.89548200  0.06469200  1
  C  C102  1  0.58607400  0.84956400  0.91027100  1
  C  C103  1  0.40083200  0.74603500  0.85043000  1
  C  C104  1  0.27485900  0.48141000  0.33089000  1
  C  C105  1  0.48884500  0.39548200  0.06469200  1
  C  C106  1  0.88058800  0.73781300  0.02498300  1
  C  C107  1  0.27485900  0.48141000  0.16911000  1
  C  C108  1  0.91392600  0.34956400  0.58972900  1
  C  C109  1  0.07166600  0.73740400  0.64992500  1
  C  C110  1  0.36238800  0.81766100  0.31423900  1
  C  C111  1  0.49974900  0.14782200  0.25000000  1
  C  C112  1  0.54137300  0.09640300  0.56614200  1
  C  C113  1  0.39101900  0.65692500  0.09031700  1
  C  C114  1  0.48884500  0.39548200  0.43530800  1
  C  C115  1  0.76857800  0.12004700  0.40332400  1
  C  C116  1  0.51115500  0.60451800  0.56469200  1
  C  C117  1  0.08607400  0.65043600  0.08972900  1
  C  C118  1  0.77485900  0.01859000  0.83089000  1
  C  C119  1  0.95862700  0.59640300  0.93385800  1
  C  C120  1  0.23142200  0.87995300  0.59667600  1
  C  C121  1  0.04137300  0.40359700  0.06614200  1
  C  C122  1  0.92833400  0.26259600  0.35007500  1
  C  C123  1  0.11941200  0.26218700  0.52498300  1
  C  C124  1  0.01115500  0.89548200  0.43530800  1
  C  C125  1  0.90835900  0.24516900  0.02530500  1
  C  C126  1  0.86238800  0.68233900  0.81423900  1
  C  C127  1  0.26476700  0.33284700  0.08339600  1
  C  C128  1  0.09764800  0.10920500  0.75000000  1
  C  C129  1  0.60898100  0.34307500  0.90968300  1
  C  C130  1  0.73142200  0.62004700  0.40332400  1
  C  C131  1  0.73142200  0.62004700  0.09667600  1
  C  C132  1  0.96897100  0.84391200  0.75000000  1
  C  C133  1  0.26057700  0.12294800  0.59152700  1
  C  C134  1  0.40235200  0.60920500  0.75000000  1
  C  C135  1  0.76476700  0.16715300  0.58339600  1
  C  C136  1  0.90235200  0.89079500  0.25000000  1
  C  C137  1  0.10898100  0.15692500  0.09031700  1
  C  C138  1  0.89101900  0.84307500  0.90968300  1
  C  C139  1  0.61941200  0.23781300  0.47501700  1
  C  C140  1  0.76057700  0.37705200  0.09152700  1
  C  C141  1  0.73942300  0.87705200  0.09152700  1
  C  C142  1  0.57166600  0.76259600  0.35007500  1
  C  C143  1  0.98884500  0.10451800  0.56469200  1
  C  C144  1  0.23942300  0.62294800  0.59152700  1
  C  C145  1  0.63761200  0.18233900  0.68576100  1
  C  C146  1  0.26857800  0.37995300  0.90332400  1
  C  C147  1  0.60863300  0.69000600  0.81444900  1
  C  C148  1  0.98884500  0.10451800  0.93530800  1
  C  C149  1  0.58607400  0.84956400  0.58972900  1
  C  C150  1  0.23523300  0.83284700  0.41660400  1
  C  C151  1  0.23142200  0.87995300  0.90332400  1
  C  C152  1  0.45862700  0.90359700  0.43385800  1
  C  C153  1  0.45862700  0.90359700  0.06614200  1
  C  C154  1  0.07230300  0.60261700  0.75000000  1
  C  C155  1  0.08607400  0.65043600  0.41027100  1
  C  C156  1  0.42833400  0.23740400  0.85007500  1
  C  C157  1  0.60863300  0.69000600  0.68555100  1
  C  C158  1  0.61941200  0.23781300  0.02498300  1
  C  C159  1  0.59916800  0.25396500  0.14957000  1
  C  C160  1  0.42769700  0.10261700  0.75000000  1
  C  C161  1  0.89136700  0.19000600  0.68555100  1
  C  C162  1  0.13761200  0.31766100  0.18576100  1
  C  C163  1  0.88058800  0.73781300  0.47501700  1
  C  C164  1  0.41392600  0.15043600  0.41027100  1
  C  C165  1  0.09916800  0.24603500  0.64957000  1
  C  C166  1  0.59164100  0.74516900  0.47469500  1
  C  C167  1  0.39136700  0.30999400  0.31444900  1
  C  C168  1  0.23523300  0.83284700  0.08339600  1
  C  C169  1  0.76857800  0.12004700  0.09667600  1
  C  C170  1  0.72514100  0.51859000  0.66911000  1
  C  C171  1  0.72514100  0.51859000  0.83089000  1
  C  C172  1  0.59164100  0.74516900  0.02530500  1
  C  C173  1  0.40083200  0.74603500  0.64957000  1
  C  C174  1  0.59764800  0.39079500  0.25000000  1
  C  C175  1  0.09916800  0.24603500  0.85043000  1
  C  C176  1  0.13761200  0.31766100  0.31423900  1
  C  C177  1  0.40835900  0.25483100  0.52530500  1
  C  C178  1  0.03102900  0.15608800  0.25000000  1
  C  C179  1  0.50025100  0.85217800  0.75000000  1
  C  C180  1  0.89136700  0.19000600  0.81444900  1
  C  C181  1  0.10863300  0.80999400  0.18555100  1
  C  C182  1  0.42833400  0.23740400  0.64992500  1
  C  C183  1  0.90083200  0.75396500  0.35043000  1
  C  C184  1  0.59916800  0.25396500  0.35043000  1
  C  C185  1  0.04137300  0.40359700  0.43385800  1
  C  C186  1  0.90083200  0.75396500  0.14957000  1
  C  C187  1  0.40835900  0.25483100  0.97469500  1
  C  C188  1  0.73942300  0.87705200  0.40847300  1
  C  C189  1  0.57230300  0.89738300  0.25000000  1
  C  C190  1  0.53102900  0.34391200  0.75000000  1
  C  C191  1  0.63761200  0.18233900  0.81423900  1
  C  C192  1  0.95862700  0.59640300  0.56614200  1
  C  C193  1  0.23942300  0.62294800  0.90847300  1
  C  C194  1  0.26857800  0.37995300  0.59667600  1
  C  C195  1  0.99974900  0.35217800  0.75000000  1
  C  C196  1  0.73523300  0.66715300  0.91660400  1
  C  C197  1  0.38058800  0.76218700  0.97501700  1
  C  C198  1  0.89101900  0.84307500  0.59031700  1
  C  C199  1  0.73523300  0.66715300  0.58339600  1
