# generated using pymatgen
data_Cu(NiC3)2
_symmetry_space_group_name_H-M   'P 1'
_cell_length_a   5.71217203
_cell_length_b   5.71217203
_cell_length_c   7.47159990
_cell_angle_alpha   70.73226204
_cell_angle_beta   70.73226204
_cell_angle_gamma   73.65317614
_symmetry_Int_Tables_number   1
_chemical_formula_structural   Cu(NiC3)2
_chemical_formula_sum   'Cu2 Ni4 C12'
_cell_volume   213.13194205
_cell_formula_units_Z   2
loop_
 _symmetry_equiv_pos_site_id
 _symmetry_equiv_pos_as_xyz
  1  'x, y, z'
loop_
 _atom_site_type_symbol
 _atom_site_label
 _atom_site_symmetry_multiplicity
 _atom_site_fract_x
 _atom_site_fract_y
 _atom_site_fract_z
 _atom_site_occupancy
  Ni  Ni0  1  0.82880500  0.82880500  0.67145700  1
  Ni  Ni1  1  0.82141800  0.82141800  0.17319200  1
  Ni  Ni2  1  0.17119500  0.17119500  0.32854300  1
  Ni  Ni3  1  0.17858200  0.17858200  0.82680800  1
  Cu  Cu4  1  0.50000000  0.50000000  0.50000000  1
  Cu  Cu5  1  0.50000000  0.50000000  0.00000000  1
  C  C6  1  0.12477000  0.53214100  0.17153100  1
  C  C7  1  0.80643500  0.19356500  0.50000000  1
  C  C8  1  0.39826100  0.39826100  0.80510200  1
  C  C9  1  0.73883700  0.73883700  0.46644500  1
  C  C10  1  0.06565900  0.06565900  0.12922200  1
  C  C11  1  0.26116300  0.26116300  0.53355500  1
  C  C12  1  0.60173900  0.60173900  0.19489800  1
  C  C13  1  0.93434100  0.93434100  0.87077800  1
  C  C14  1  0.87523000  0.46785900  0.82846900  1
  C  C15  1  0.19356500  0.80643500  0.50000000  1
  C  C16  1  0.53214100  0.12477000  0.17153100  1
  C  C17  1  0.46785900  0.87523000  0.82846900  1
