# generated using pymatgen
data_Cu5NiC2
_symmetry_space_group_name_H-M   'P 1'
_cell_length_a   3.86421920
_cell_length_b   3.86421920
_cell_length_c   15.23165000
_cell_angle_alpha   90.00000000
_cell_angle_beta   90.00000000
_cell_angle_gamma   119.42535736
_symmetry_Int_Tables_number   1
_chemical_formula_structural   Cu5NiC2
_chemical_formula_sum   'Cu10 Ni2 C4'
_cell_volume   198.10108452
_cell_formula_units_Z   2
loop_
 _symmetry_equiv_pos_site_id
 _symmetry_equiv_pos_as_xyz
  1  'x, y, z'
loop_
 _atom_site_type_symbol
 _atom_site_label
 _atom_site_symmetry_multiplicity
 _atom_site_fract_x
 _atom_site_fract_y
 _atom_site_fract_z
 _atom_site_occupancy
  C  C0  1  0.32876100  0.66448900  0.59294800  1
  C  C1  1  0.32876100  0.66448900  0.90705200  1
  C  C2  1  0.66448900  0.32876100  0.09294800  1
  C  C3  1  0.66448900  0.32876100  0.40705200  1
  Ni  Ni4  1  0.83011200  0.91498800  0.75000000  1
  Ni  Ni5  1  0.91498800  0.83011200  0.25000000  1
  Cu  Cu6  1  0.33120500  0.66403700  0.05727800  1
  Cu  Cu7  1  0.00922100  0.00506100  0.82586000  1
  Cu  Cu8  1  0.00922100  0.00506100  0.67414000  1
  Cu  Cu9  1  0.00506100  0.00922100  0.17414000  1
  Cu  Cu10  1  0.00506100  0.00922100  0.32586000  1
  Cu  Cu11  1  0.33120500  0.66403700  0.44272200  1
  Cu  Cu12  1  0.44977700  0.72340900  0.75000000  1
  Cu  Cu13  1  0.66403700  0.33120500  0.55727800  1
  Cu  Cu14  1  0.66403700  0.33120500  0.94272200  1
  Cu  Cu15  1  0.72340900  0.44977700  0.25000000  1
