# generated using pymatgen
data_Cu(NiC10)3
_symmetry_space_group_name_H-M   'P 1'
_cell_length_a   8.90410416
_cell_length_b   8.90410416
_cell_length_c   8.90410398
_cell_angle_alpha   58.59126825
_cell_angle_beta   58.59126825
_cell_angle_gamma   58.59125901
_symmetry_Int_Tables_number   1
_chemical_formula_structural   Cu(NiC10)3
_chemical_formula_sum   'Cu1 Ni3 C30'
_cell_volume   483.10002754
_cell_formula_units_Z   1
loop_
 _symmetry_equiv_pos_site_id
 _symmetry_equiv_pos_as_xyz
  1  'x, y, z'
loop_
 _atom_site_type_symbol
 _atom_site_label
 _atom_site_symmetry_multiplicity
 _atom_site_fract_x
 _atom_site_fract_y
 _atom_site_fract_z
 _atom_site_occupancy
  Ni  Ni0  1  0.85808100  0.85808100  0.85808100  1
  Ni  Ni1  1  0.64171100  0.64171100  0.64171100  1
  Ni  Ni2  1  0.35879700  0.35879700  0.35879700  1
  C  C3  1  0.25149400  0.53747100  0.96565100  1
  C  C4  1  0.96565100  0.25149400  0.53747100  1
  C  C5  1  0.53747100  0.96565100  0.25149400  1
  C  C6  1  0.46922600  0.03356500  0.74542900  1
  C  C7  1  0.03356500  0.74542900  0.46922600  1
  C  C8  1  0.74542900  0.46922600  0.03356500  1
  Cu  Cu9  1  0.14148900  0.14148900  0.14148900  1
  C  C10  1  0.72744900  0.49030800  0.86114200  1
  C  C11  1  0.49030800  0.86114200  0.72744900  1
  C  C12  1  0.08149300  0.71426100  0.93276400  1
  C  C13  1  0.86114200  0.72744900  0.49030800  1
  C  C14  1  0.42328500  0.55605200  0.78655800  1
  C  C15  1  0.21593800  0.36179400  0.00230700  1
  C  C16  1  0.93276400  0.08149300  0.71426100  1
  C  C17  1  0.78655800  0.42328500  0.55605200  1
  C  C18  1  0.55605200  0.78655800  0.42328500  1
  C  C19  1  0.63432800  0.00305900  0.78129500  1
  C  C20  1  0.28616700  0.06627900  0.92480500  1
  C  C21  1  0.00305900  0.78129500  0.63432800  1
  C  C22  1  0.00230700  0.21593800  0.36179400  1
  C  C23  1  0.71426100  0.93276400  0.08149300  1
  C  C24  1  0.36179400  0.00230700  0.21593800  1
  C  C25  1  0.43548700  0.21138300  0.57913300  1
  C  C26  1  0.21138300  0.57913300  0.43548700  1
  C  C27  1  0.06627900  0.92480500  0.28616700  1
  C  C28  1  0.78129500  0.63432800  0.00305900  1
  C  C29  1  0.57913300  0.43548700  0.21138300  1
  C  C30  1  0.13477900  0.27969500  0.50732300  1
  C  C31  1  0.92480500  0.28616700  0.06627900  1
  C  C32  1  0.50732300  0.13477900  0.27969500  1
  C  C33  1  0.27969500  0.50732300  0.13477900  1
