# generated using pymatgen
data_Cu2NiC6
_symmetry_space_group_name_H-M   'P 1'
_cell_length_a   6.18686000
_cell_length_b   6.00821400
_cell_length_c   18.03654055
_cell_angle_alpha   79.45914914
_cell_angle_beta   90.00000000
_cell_angle_gamma   90.00000000
_symmetry_Int_Tables_number   1
_chemical_formula_structural   Cu2NiC6
_chemical_formula_sum   'Cu8 Ni4 C24'
_cell_volume   659.13981135
_cell_formula_units_Z   4
loop_
 _symmetry_equiv_pos_site_id
 _symmetry_equiv_pos_as_xyz
  1  'x, y, z'
loop_
 _atom_site_type_symbol
 _atom_site_label
 _atom_site_symmetry_multiplicity
 _atom_site_fract_x
 _atom_site_fract_y
 _atom_site_fract_z
 _atom_site_occupancy
  C  C0  1  0.25599200  0.96252000  0.82201300  1
  C  C1  1  0.76044300  0.96002400  0.83583600  1
  C  C2  1  0.16836200  0.91150900  0.97124100  1
  C  C3  1  0.24400800  0.96252000  0.32201300  1
  C  C4  1  0.73955700  0.96002400  0.33583600  1
  C  C5  1  0.33163800  0.91150900  0.47124100  1
  C  C6  1  0.74185200  0.53709500  0.49840400  1
  C  C7  1  0.28281600  0.52567600  0.66981200  1
  C  C8  1  0.73670700  0.52196600  0.67305000  1
  C  C9  1  0.23670700  0.47803400  0.82695000  1
  C  C10  1  0.75814800  0.53709500  0.99840400  1
  C  C11  1  0.78281600  0.47432400  0.83018800  1
  C  C12  1  0.21718400  0.52567600  0.16981200  1
  C  C13  1  0.24185200  0.46290500  0.00159600  1
  C  C14  1  0.76329300  0.52196600  0.17305000  1
  C  C15  1  0.26329300  0.47803400  0.32695000  1
  C  C16  1  0.71718400  0.47432400  0.33018800  1
  C  C17  1  0.25814800  0.46290500  0.50159600  1
  C  C18  1  0.66836200  0.08849100  0.52875900  1
  C  C19  1  0.26044300  0.03997600  0.66416400  1
  C  C20  1  0.75599200  0.03748000  0.67798700  1
  C  C21  1  0.83163800  0.08849100  0.02875900  1
  C  C22  1  0.23955700  0.03997600  0.16416400  1
  C  C23  1  0.74400800  0.03748000  0.17798700  1
  Ni  Ni24  1  0.00549500  0.81771100  0.56769600  1
  Ni  Ni25  1  0.49450500  0.81771100  0.06769600  1
  Ni  Ni26  1  0.50549500  0.18228900  0.93230400  1
  Ni  Ni27  1  0.99450500  0.18228900  0.43230400  1
  Cu  Cu28  1  0.50964300  0.73933400  0.75231600  1
  Cu  Cu29  1  0.01219200  0.68698900  0.89900700  1
  Cu  Cu30  1  0.99035700  0.73933400  0.25231600  1
  Cu  Cu31  1  0.48780800  0.68698900  0.39900700  1
  Cu  Cu32  1  0.51219200  0.31301100  0.60099300  1
  Cu  Cu33  1  0.00964300  0.26066600  0.74768400  1
  Cu  Cu34  1  0.98780800  0.31301100  0.10099300  1
  Cu  Cu35  1  0.49035700  0.26066600  0.24768400  1
