# generated using pymatgen
data_Cu(NiC3)2
_symmetry_space_group_name_H-M   'P 1'
_cell_length_a   9.03815300
_cell_length_b   10.65887500
_cell_length_c   19.81893800
_cell_angle_alpha   90.00000000
_cell_angle_beta   90.00000000
_cell_angle_gamma   90.00000000
_symmetry_Int_Tables_number   1
_chemical_formula_structural   Cu(NiC3)2
_chemical_formula_sum   'Cu16 Ni32 C96'
_cell_volume   1909.28797400
_cell_formula_units_Z   16
loop_
 _symmetry_equiv_pos_site_id
 _symmetry_equiv_pos_as_xyz
  1  'x, y, z'
loop_
 _atom_site_type_symbol
 _atom_site_label
 _atom_site_symmetry_multiplicity
 _atom_site_fract_x
 _atom_site_fract_y
 _atom_site_fract_z
 _atom_site_occupancy
  C  C0  1  0.94423600  0.79305800  0.48209600  1
  C  C1  1  0.44423600  0.70694200  0.51790400  1
  C  C2  1  0.05576400  0.29305800  0.01790400  1
  C  C3  1  0.55576400  0.20694200  0.98209600  1
  C  C4  1  0.05576400  0.20694200  0.51790400  1
  C  C5  1  0.55576400  0.29305800  0.48209600  1
  C  C6  1  0.94423600  0.70694200  0.98209600  1
  C  C7  1  0.44423600  0.79305800  0.01790400  1
  C  C8  1  0.95076100  0.86335200  0.40215300  1
  C  C9  1  0.45076100  0.63664800  0.59784700  1
  C  C10  1  0.04923900  0.36335200  0.09784700  1
  C  C11  1  0.54923900  0.13664800  0.90215300  1
  C  C12  1  0.04923900  0.13664800  0.59784700  1
  C  C13  1  0.54923900  0.36335200  0.40215300  1
  C  C14  1  0.95076100  0.63664800  0.90215300  1
  C  C15  1  0.45076100  0.86335200  0.09784700  1
  C  C16  1  0.78091800  0.85590300  0.56276900  1
  C  C17  1  0.28091800  0.64409700  0.43723100  1
  C  C18  1  0.21908200  0.35590300  0.93723100  1
  C  C19  1  0.71908200  0.14409700  0.06276900  1
  C  C20  1  0.21908200  0.14409700  0.43723100  1
  C  C21  1  0.71908200  0.35590300  0.56276900  1
  C  C22  1  0.78091800  0.64409700  0.06276900  1
  C  C23  1  0.28091800  0.85590300  0.93723100  1
  C  C24  1  0.67368900  0.99657700  0.55113700  1
  C  C25  1  0.17368900  0.50342300  0.44886300  1
  C  C26  1  0.32631100  0.49657700  0.94886300  1
  C  C27  1  0.82631100  0.00342300  0.05113700  1
  C  C28  1  0.32631100  0.00342300  0.44886300  1
  C  C29  1  0.82631100  0.49657700  0.55113700  1
  C  C30  1  0.67368900  0.50342300  0.05113700  1
  C  C31  1  0.17368900  0.99657700  0.94886300  1
  C  C32  1  0.60576300  0.82203100  0.26551600  1
  C  C33  1  0.10576300  0.67796900  0.73448400  1
  C  C34  1  0.39423700  0.32203100  0.23448400  1
  C  C35  1  0.89423700  0.17796900  0.76551600  1
  C  C36  1  0.39423700  0.17796900  0.73448400  1
  C  C37  1  0.89423700  0.32203100  0.26551600  1
  C  C38  1  0.60576300  0.67796900  0.76551600  1
  C  C39  1  0.10576300  0.82203100  0.23448400  1
  C  C40  1  0.61058300  0.87913600  0.35003600  1
  C  C41  1  0.11058300  0.62086400  0.64996400  1
  C  C42  1  0.38941700  0.37913600  0.14996400  1
  C  C43  1  0.88941700  0.12086400  0.85003600  1
  C  C44  1  0.38941700  0.12086400  0.64996400  1
  C  C45  1  0.88941700  0.37913600  0.35003600  1
  C  C46  1  0.61058300  0.62086400  0.85003600  1
  C  C47  1  0.11058300  0.87913600  0.14996400  1
  C  C48  1  0.86351800  0.03926800  0.20141000  1
  C  C49  1  0.36351800  0.46073200  0.79859000  1
  C  C50  1  0.13648200  0.53926800  0.29859000  1
  C  C51  1  0.63648200  0.96073200  0.70141000  1
  C  C52  1  0.13648200  0.96073200  0.79859000  1
  C  C53  1  0.63648200  0.53926800  0.20141000  1
  C  C54  1  0.86351800  0.46073200  0.70141000  1
  C  C55  1  0.36351800  0.03926800  0.29859000  1
  C  C56  1  0.77221600  0.89367300  0.18547200  1
  C  C57  1  0.27221600  0.60632700  0.81452800  1
  C  C58  1  0.22778400  0.39367300  0.31452800  1
  C  C59  1  0.72778400  0.10632700  0.68547200  1
  C  C60  1  0.22778400  0.10632700  0.81452800  1
  C  C61  1  0.72778400  0.39367300  0.18547200  1
  C  C62  1  0.77221600  0.60632700  0.68547200  1
  C  C63  1  0.27221600  0.89367300  0.31452800  1
  C  C64  1  0.80719100  0.94173000  0.47259100  1
  C  C65  1  0.30719100  0.55827000  0.52740900  1
  C  C66  1  0.19280900  0.44173000  0.02740900  1
  C  C67  1  0.69280900  0.05827000  0.97259100  1
  C  C68  1  0.19280900  0.05827000  0.52740900  1
  C  C69  1  0.69280900  0.44173000  0.47259100  1
  C  C70  1  0.80719100  0.55827000  0.97259100  1
  C  C71  1  0.30719100  0.94173000  0.02740900  1
  C  C72  1  0.75649700  0.95854200  0.28173500  1
  C  C73  1  0.25649700  0.54145800  0.71826500  1
  C  C74  1  0.24350300  0.45854200  0.21826500  1
  C  C75  1  0.74350300  0.04145800  0.78173500  1
  C  C76  1  0.24350300  0.04145800  0.71826500  1
  C  C77  1  0.74350300  0.45854200  0.28173500  1
  C  C78  1  0.75649700  0.54145800  0.78173500  1
  C  C79  1  0.25649700  0.95854200  0.21826500  1
  C  C80  1  0.73105700  0.06569800  0.42323500  1
  C  C81  1  0.23105700  0.43430200  0.57676500  1
  C  C82  1  0.26894300  0.56569800  0.07676500  1
  C  C83  1  0.76894300  0.93430200  0.92323500  1
  C  C84  1  0.26894300  0.93430200  0.57676500  1
  C  C85  1  0.76894300  0.56569800  0.42323500  1
  C  C86  1  0.73105700  0.43430200  0.92323500  1
  C  C87  1  0.23105700  0.06569800  0.07676500  1
  C  C88  1  0.85232200  0.06344400  0.33689300  1
  C  C89  1  0.35232200  0.43655600  0.66310700  1
  C  C90  1  0.14767800  0.56344400  0.16310700  1
  C  C91  1  0.64767800  0.93655600  0.83689300  1
  C  C92  1  0.14767800  0.93655600  0.66310700  1
  C  C93  1  0.64767800  0.56344400  0.33689300  1
  C  C94  1  0.85232200  0.43655600  0.83689300  1
  C  C95  1  0.35232200  0.06344400  0.16310700  1
  Ni  Ni96  1  0.91219700  0.86600400  0.45092100  1
  Ni  Ni97  1  0.41219700  0.63399600  0.54907900  1
  Ni  Ni98  1  0.08780300  0.36600400  0.04907900  1
  Ni  Ni99  1  0.58780300  0.13399600  0.95092100  1
  Ni  Ni100  1  0.08780300  0.13399600  0.54907900  1
  Ni  Ni101  1  0.58780300  0.36600400  0.45092100  1
  Ni  Ni102  1  0.91219700  0.63399600  0.95092100  1
  Ni  Ni103  1  0.41219700  0.86600400  0.04907900  1
  Ni  Ni104  1  0.74801400  0.93036400  0.53336400  1
  Ni  Ni105  1  0.24801400  0.56963600  0.46663600  1
  Ni  Ni106  1  0.25198600  0.43036400  0.96663600  1
  Ni  Ni107  1  0.75198600  0.06963600  0.03336400  1
  Ni  Ni108  1  0.25198600  0.06963600  0.46663600  1
  Ni  Ni109  1  0.75198600  0.43036400  0.53336400  1
  Ni  Ni110  1  0.74801400  0.56963600  0.03336400  1
  Ni  Ni111  1  0.24801400  0.93036400  0.96663600  1
  Ni  Ni112  1  0.65344500  0.88013400  0.30199000  1
  Ni  Ni113  1  0.15344500  0.61986600  0.69801000  1
  Ni  Ni114  1  0.34655500  0.38013400  0.19801000  1
  Ni  Ni115  1  0.84655500  0.11986600  0.80199000  1
  Ni  Ni116  1  0.34655500  0.11986600  0.69801000  1
  Ni  Ni117  1  0.84655500  0.38013400  0.30199000  1
  Ni  Ni118  1  0.65344500  0.61986600  0.80199000  1
  Ni  Ni119  1  0.15344500  0.88013400  0.19801000  1
  Ni  Ni120  1  0.80522800  0.96166000  0.21889900  1
  Ni  Ni121  1  0.30522800  0.53834000  0.78110100  1
  Ni  Ni122  1  0.19477200  0.46166000  0.28110100  1
  Ni  Ni123  1  0.69477200  0.03834000  0.71889900  1
  Ni  Ni124  1  0.19477200  0.03834000  0.78110100  1
  Ni  Ni125  1  0.69477200  0.46166000  0.21889900  1
  Ni  Ni126  1  0.80522800  0.53834000  0.71889900  1
  Ni  Ni127  1  0.30522800  0.96166000  0.28110100  1
  Cu  Cu128  1  0.93206600  0.67828300  0.57508900  1
  Cu  Cu129  1  0.43206600  0.82171700  0.42491100  1
  Cu  Cu130  1  0.06793400  0.17828300  0.92491100  1
  Cu  Cu131  1  0.56793400  0.32171700  0.07508900  1
  Cu  Cu132  1  0.06793400  0.32171700  0.42491100  1
  Cu  Cu133  1  0.56793400  0.17828300  0.57508900  1
  Cu  Cu134  1  0.93206600  0.82171700  0.07508900  1
  Cu  Cu135  1  0.43206600  0.67828300  0.92491100  1
  Cu  Cu136  1  0.54665000  0.72070200  0.17825800  1
  Cu  Cu137  1  0.04665000  0.77929800  0.82174200  1
  Cu  Cu138  1  0.45335000  0.22070200  0.32174200  1
  Cu  Cu139  1  0.95335000  0.27929800  0.67825800  1
  Cu  Cu140  1  0.45335000  0.27929800  0.82174200  1
  Cu  Cu141  1  0.95335000  0.22070200  0.17825800  1
  Cu  Cu142  1  0.54665000  0.77929800  0.67825800  1
  Cu  Cu143  1  0.04665000  0.72070200  0.32174200  1
