# generated using pymatgen
data_Cu3NiC14
_symmetry_space_group_name_H-M   'P 1'
_cell_length_a   8.90544656
_cell_length_b   8.90544656
_cell_length_c   8.90544704
_cell_angle_alpha   58.80269738
_cell_angle_beta   58.80269738
_cell_angle_gamma   58.80270075
_symmetry_Int_Tables_number   1
_chemical_formula_structural   Cu3NiC14
_chemical_formula_sum   'Cu6 Ni2 C28'
_cell_volume   485.74930168
_cell_formula_units_Z   2
loop_
 _symmetry_equiv_pos_site_id
 _symmetry_equiv_pos_as_xyz
  1  'x, y, z'
loop_
 _atom_site_type_symbol
 _atom_site_label
 _atom_site_symmetry_multiplicity
 _atom_site_fract_x
 _atom_site_fract_y
 _atom_site_fract_z
 _atom_site_occupancy
  C  C0  1  0.14521100  0.14521100  0.14521100  1
  C  C1  1  0.84400700  0.84400700  0.84400700  1
  C  C2  1  0.64905000  0.64905000  0.64905000  1
  C  C3  1  0.35193500  0.35193500  0.35193500  1
  Ni  Ni4  1  0.98591500  0.98591500  0.98591500  1
  Ni  Ni5  1  0.49908600  0.49908600  0.49908600  1
  Cu  Cu6  1  0.04736500  0.75109700  0.45378800  1
  Cu  Cu7  1  0.75109700  0.45378800  0.04736500  1
  Cu  Cu8  1  0.45378800  0.04736500  0.75109700  1
  Cu  Cu9  1  0.53923100  0.96448300  0.24813500  1
  Cu  Cu10  1  0.24813500  0.53923100  0.96448300  1
  Cu  Cu11  1  0.96448300  0.24813500  0.53923100  1
  C  C12  1  0.47327200  0.89513700  0.70558500  1
  C  C13  1  0.89513700  0.70558500  0.47327200  1
  C  C14  1  0.73397000  0.94173200  0.07780000  1
  C  C15  1  0.70558500  0.47327200  0.89513700  1
  C  C16  1  0.38462700  0.01541100  0.18190500  1
  C  C17  1  0.55528000  0.77195700  0.40663800  1
  C  C18  1  0.07780000  0.73397000  0.94173200  1
  C  C19  1  0.40663800  0.55528000  0.77195700  1
  C  C20  1  0.01069400  0.79883600  0.61534600  1
  C  C21  1  0.77195700  0.40663800  0.55528000  1
  C  C22  1  0.08014100  0.91853500  0.26625300  1
  C  C23  1  0.79883600  0.61534600  0.01069400  1
  C  C24  1  0.18190500  0.38462700  0.01541100  1
  C  C25  1  0.94173200  0.07780000  0.73397000  1
  C  C26  1  0.23926400  0.58317000  0.43574500  1
  C  C27  1  0.01541100  0.18190500  0.38462700  1
  C  C28  1  0.58317000  0.43574500  0.23926400  1
  C  C29  1  0.91853500  0.26625300  0.08014100  1
  C  C30  1  0.43574500  0.23926400  0.58317000  1
  C  C31  1  0.61534600  0.01069400  0.79883600  1
  C  C32  1  0.30158000  0.51109600  0.11672400  1
  C  C33  1  0.26625300  0.08014100  0.91853500  1
  C  C34  1  0.11672400  0.30158000  0.51109600  1
  C  C35  1  0.51109600  0.11672400  0.30158000  1
