# generated using pymatgen
data_Cu2NiC
_symmetry_space_group_name_H-M   'P 1'
_cell_length_a   4.92997400
_cell_length_b   13.43636900
_cell_length_c   14.12367700
_cell_angle_alpha   90.00000000
_cell_angle_beta   90.00000000
_cell_angle_gamma   90.00000000
_symmetry_Int_Tables_number   1
_chemical_formula_structural   Cu2NiC
_chemical_formula_sum   'Cu24 Ni12 C12'
_cell_volume   935.56577949
_cell_formula_units_Z   12
loop_
 _symmetry_equiv_pos_site_id
 _symmetry_equiv_pos_as_xyz
  1  'x, y, z'
loop_
 _atom_site_type_symbol
 _atom_site_label
 _atom_site_symmetry_multiplicity
 _atom_site_fract_x
 _atom_site_fract_y
 _atom_site_fract_z
 _atom_site_occupancy
  C  C0  1  0.00000000  0.02799300  0.87955800  1
  C  C1  1  0.00000000  0.97200700  0.12044200  1
  C  C2  1  0.00000000  0.47200700  0.37955800  1
  C  C3  1  0.00000000  0.52799300  0.62044200  1
  C  C4  1  0.00000000  0.37983100  0.95998600  1
  C  C5  1  0.00000000  0.62016900  0.04001400  1
  C  C6  1  0.00000000  0.12016900  0.45998600  1
  C  C7  1  0.00000000  0.87983100  0.54001400  1
  Ni  Ni8  1  0.50000000  0.50607900  0.81064600  1
  Ni  Ni9  1  0.50000000  0.49392100  0.18935400  1
  Ni  Ni10  1  0.50000000  0.99392100  0.31064600  1
  Ni  Ni11  1  0.50000000  0.00607900  0.68935400  1
  Ni  Ni12  1  0.50000000  0.18017900  0.99668800  1
  Ni  Ni13  1  0.50000000  0.81982100  0.00331200  1
  Ni  Ni14  1  0.50000000  0.31982100  0.49668800  1
  Ni  Ni15  1  0.50000000  0.68017900  0.50331200  1
  Ni  Ni16  1  0.00000000  0.24300200  0.72405200  1
  Ni  Ni17  1  0.00000000  0.75699800  0.27594800  1
  Ni  Ni18  1  0.00000000  0.25699800  0.22405200  1
  Ni  Ni19  1  0.00000000  0.74300200  0.77594800  1
  C  C20  1  0.50000000  0.23787400  0.73425600  1
  C  C21  1  0.50000000  0.76212600  0.26574400  1
  C  C22  1  0.50000000  0.26212600  0.23425600  1
  C  C23  1  0.50000000  0.73787400  0.76574400  1
  Cu  Cu24  1  0.00000000  0.40768900  0.86124900  1
  Cu  Cu25  1  0.00000000  0.59231100  0.13875100  1
  Cu  Cu26  1  0.00000000  0.09231100  0.36124900  1
  Cu  Cu27  1  0.00000000  0.90768900  0.63875100  1
  Cu  Cu28  1  0.24979300  0.36770900  0.01013600  1
  Cu  Cu29  1  0.24979300  0.63229100  0.98986400  1
  Cu  Cu30  1  0.75020700  0.13229100  0.51013600  1
  Cu  Cu31  1  0.75020700  0.86770900  0.48986400  1
  Cu  Cu32  1  0.75020700  0.63229100  0.98986400  1
  Cu  Cu33  1  0.75020700  0.36770900  0.01013600  1
  Cu  Cu34  1  0.24979300  0.86770900  0.48986400  1
  Cu  Cu35  1  0.24979300  0.13229100  0.51013600  1
  Cu  Cu36  1  0.00000000  0.13203200  0.90563700  1
  Cu  Cu37  1  0.00000000  0.86796800  0.09436300  1
  Cu  Cu38  1  0.00000000  0.36796800  0.40563700  1
  Cu  Cu39  1  0.00000000  0.63203200  0.59436300  1
  Cu  Cu40  1  0.24989900  0.97543400  0.86858300  1
  Cu  Cu41  1  0.24989900  0.02456600  0.13141700  1
  Cu  Cu42  1  0.75010100  0.52456600  0.36858300  1
  Cu  Cu43  1  0.75010100  0.47543400  0.63141700  1
  Cu  Cu44  1  0.75010100  0.02456600  0.13141700  1
  Cu  Cu45  1  0.75010100  0.97543400  0.86858300  1
  Cu  Cu46  1  0.24989900  0.47543400  0.63141700  1
  Cu  Cu47  1  0.24989900  0.52456600  0.36858300  1
