# generated using pymatgen
data_Cu3Ni3C2
_symmetry_space_group_name_H-M   'P 1'
_cell_length_a   5.17339500
_cell_length_b   5.22743202
_cell_length_c   13.23778591
_cell_angle_alpha   91.15346869
_cell_angle_beta   90.23210034
_cell_angle_gamma   119.53039602
_symmetry_Int_Tables_number   1
_chemical_formula_structural   Cu3Ni3C2
_chemical_formula_sum   'Cu9 Ni9 C6'
_cell_volume   311.38786492
_cell_formula_units_Z   3
loop_
 _symmetry_equiv_pos_site_id
 _symmetry_equiv_pos_as_xyz
  1  'x, y, z'
loop_
 _atom_site_type_symbol
 _atom_site_label
 _atom_site_symmetry_multiplicity
 _atom_site_fract_x
 _atom_site_fract_y
 _atom_site_fract_z
 _atom_site_occupancy
  C  C0  1  0.99544500  0.97301600  0.48723100  1
  C  C1  1  0.95268300  0.98187400  0.99863300  1
  C  C2  1  0.64140200  0.32489400  0.15754000  1
  C  C3  1  0.37626900  0.67530600  0.32924000  1
  C  C4  1  0.71621600  0.34739000  0.66538500  1
  C  C5  1  0.33320500  0.63997100  0.82493900  1
  Ni  Ni6  1  0.34927900  0.24979100  0.08288300  1
  Ni  Ni7  1  0.97713500  0.57342100  0.75207200  1
  Ni  Ni8  1  0.77598800  0.09077300  0.08217800  1
  Ni  Ni9  1  0.08362500  0.75981700  0.41713300  1
  Ni  Ni10  1  0.41050500  0.42806000  0.75002700  1
  Ni  Ni11  1  0.57924900  0.58173600  0.25412300  1
  Ni  Ni12  1  0.91024700  0.25294300  0.58847500  1
  Ni  Ni13  1  0.67054100  0.76247800  0.91901700  1
  Ni  Ni14  1  0.66244500  0.90791700  0.41917300  1
  Cu  Cu15  1  0.99846800  0.42053200  0.25411500  1
  Cu  Cu16  1  0.40796700  0.99787400  0.25114300  1
  Cu  Cu17  1  0.32542000  0.08618000  0.58711000  1
  Cu  Cu18  1  0.07429700  0.33417400  0.92010200  1
  Cu  Cu19  1  0.25688500  0.33851200  0.42057100  1
  Cu  Cu20  1  0.58023300  0.00866500  0.75052000  1
  Cu  Cu21  1  0.24589000  0.92350900  0.92048500  1
  Cu  Cu22  1  0.74073200  0.66587900  0.58493900  1
  Cu  Cu23  1  0.93587300  0.67528600  0.08296500  1
