# generated using pymatgen
data_CuNiC7
_symmetry_space_group_name_H-M   'P 1'
_cell_length_a   14.33139022
_cell_length_b   14.33139022
_cell_length_c   14.33139022
_cell_angle_alpha   109.47122063
_cell_angle_beta   109.47122063
_cell_angle_gamma   109.47122063
_symmetry_Int_Tables_number   1
_chemical_formula_structural   CuNiC7
_chemical_formula_sum   'Cu16 Ni16 C112'
_cell_volume   2265.91217471
_cell_formula_units_Z   16
loop_
 _symmetry_equiv_pos_site_id
 _symmetry_equiv_pos_as_xyz
  1  'x, y, z'
loop_
 _atom_site_type_symbol
 _atom_site_label
 _atom_site_symmetry_multiplicity
 _atom_site_fract_x
 _atom_site_fract_y
 _atom_site_fract_z
 _atom_site_occupancy
  C  C0  1  0.50000000  0.00000000  0.72582700  1
  C  C1  1  0.00000000  0.72582700  0.50000000  1
  C  C2  1  0.72582700  0.50000000  0.00000000  1
  C  C3  1  0.77417300  0.77417300  0.77417300  1
  C  C4  1  0.35054200  0.28564000  0.89839700  1
  C  C5  1  0.93509800  0.14945800  0.04785500  1
  C  C6  1  0.21436000  0.56490200  0.61275700  1
  C  C7  1  0.14945800  0.04785500  0.93509800  1
  C  C8  1  0.56490200  0.61275700  0.21436000  1
  C  C9  1  0.28564000  0.89839700  0.35054200  1
  C  C10  1  0.61275700  0.21436000  0.56490200  1
  C  C11  1  0.89839700  0.35054200  0.28564000  1
  C  C12  1  0.04785500  0.93509800  0.14945800  1
  C  C13  1  0.88724300  0.45214500  0.60160300  1
  C  C14  1  0.60160300  0.88724300  0.45214500  1
  C  C15  1  0.45214500  0.60160300  0.88724300  1
  Ni  Ni16  1  0.49271500  0.22122800  0.05997100  1
  Ni  Ni17  1  0.72851400  0.00728500  0.06725700  1
  Ni  Ni18  1  0.27877200  0.77148600  0.83874300  1
  Ni  Ni19  1  0.00728500  0.06725700  0.72851400  1
  Ni  Ni20  1  0.77148600  0.83874300  0.27877200  1
  Ni  Ni21  1  0.22122800  0.05997100  0.49271500  1
  Ni  Ni22  1  0.83874300  0.27877200  0.77148600  1
  Ni  Ni23  1  0.05997100  0.49271500  0.22122800  1
  Ni  Ni24  1  0.06725700  0.72851400  0.00728500  1
  Ni  Ni25  1  0.66125700  0.43274300  0.44002900  1
  Ni  Ni26  1  0.44002900  0.66125700  0.43274300  1
  Ni  Ni27  1  0.43274300  0.44002900  0.66125700  1
  Ni  Ni28  1  0.24480500  0.50000000  0.00000000  1
  Ni  Ni29  1  0.25519500  0.25519500  0.25519500  1
  Ni  Ni30  1  0.00000000  0.24480500  0.50000000  1
  Ni  Ni31  1  0.50000000  0.00000000  0.24480500  1
  Cu  Cu32  1  0.47818500  0.23079100  0.92906000  1
  Cu  Cu33  1  0.75260700  0.02181500  0.95087500  1
  Cu  Cu34  1  0.26920900  0.74739300  0.69826900  1
  Cu  Cu35  1  0.02181500  0.95087500  0.75260700  1
  Cu  Cu36  1  0.74739300  0.69826900  0.26920900  1
  Cu  Cu37  1  0.23079100  0.92906000  0.47818500  1
  Cu  Cu38  1  0.69826900  0.26920900  0.74739300  1
  Cu  Cu39  1  0.92906000  0.47818500  0.23079100  1
  Cu  Cu40  1  0.95087500  0.75260700  0.02181500  1
  Cu  Cu41  1  0.80173100  0.54912500  0.57094000  1
  Cu  Cu42  1  0.57094000  0.80173100  0.54912500  1
  Cu  Cu43  1  0.54912500  0.57094000  0.80173100  1
  Cu  Cu44  1  0.37609400  0.50000000  0.00000000  1
  Cu  Cu45  1  0.12390600  0.12390600  0.12390600  1
  Cu  Cu46  1  0.00000000  0.37609400  0.50000000  1
  Cu  Cu47  1  0.50000000  0.00000000  0.37609400  1
  C  C48  1  0.56293300  0.34502500  0.96819200  1
  C  C49  1  0.78209200  0.93706700  0.90525900  1
  C  C50  1  0.15497500  0.71790800  0.62316700  1
  C  C51  1  0.93706700  0.90525900  0.78209200  1
  C  C52  1  0.71790800  0.62316700  0.15497500  1
  C  C53  1  0.34502500  0.96819200  0.56293300  1
  C  C54  1  0.62316700  0.15497500  0.71790800  1
  C  C55  1  0.96819200  0.56293300  0.34502500  1
  C  C56  1  0.90525900  0.78209200  0.93706700  1
  C  C57  1  0.87683300  0.59474100  0.53180800  1
  C  C58  1  0.53180800  0.87683300  0.59474100  1
  C  C59  1  0.59474100  0.53180800  0.87683300  1
  C  C60  1  0.35545000  0.21119100  0.87696600  1
  C  C61  1  0.85574200  0.14455000  0.02151600  1
  C  C62  1  0.28880900  0.64425800  0.66577500  1
  C  C63  1  0.14455000  0.02151600  0.85574200  1
  C  C64  1  0.64425800  0.66577500  0.28880900  1
  C  C65  1  0.21119100  0.87696600  0.35545000  1
  C  C66  1  0.66577500  0.28880900  0.64425800  1
  C  C67  1  0.87696600  0.35545000  0.21119100  1
  C  C68  1  0.02151600  0.85574200  0.14455000  1
  C  C69  1  0.83422500  0.47848400  0.62303400  1
  C  C70  1  0.62303400  0.83422500  0.47848400  1
  C  C71  1  0.47848400  0.62303400  0.83422500  1
  C  C72  1  0.47877400  0.13422100  0.85635100  1
  C  C73  1  0.65544700  0.02122600  0.87757700  1
  C  C74  1  0.36577900  0.84455300  0.72213000  1
  C  C75  1  0.02122600  0.87757700  0.65544700  1
  C  C76  1  0.84455300  0.72213000  0.36577900  1
  C  C77  1  0.13422100  0.85635100  0.47877400  1
  C  C78  1  0.72213000  0.36577900  0.84455300  1
  C  C79  1  0.85635100  0.47877400  0.13422100  1
  C  C80  1  0.87757700  0.65544700  0.02122600  1
  C  C81  1  0.77787000  0.62242300  0.64364900  1
  C  C82  1  0.64364900  0.77787000  0.62242300  1
  C  C83  1  0.62242300  0.64364900  0.77787000  1
  C  C84  1  0.44695000  0.52393300  0.11505400  1
  C  C85  1  0.07698400  0.05305000  0.16810400  1
  C  C86  1  0.97606700  0.42301600  0.59112000  1
  C  C87  1  0.05305000  0.16810400  0.07698400  1
  C  C88  1  0.42301600  0.59112000  0.97606700  1
  C  C89  1  0.52393300  0.11505400  0.44695000  1
  C  C90  1  0.59112000  0.97606700  0.42301600  1
  C  C91  1  0.11505400  0.44695000  0.52393300  1
  C  C92  1  0.16810400  0.07698400  0.05305000  1
  C  C93  1  0.90888000  0.33189600  0.38494600  1
  C  C94  1  0.38494600  0.90888000  0.33189600  1
  C  C95  1  0.33189600  0.38494600  0.90888000  1
  C  C96  1  0.41365000  0.11700900  0.02952600  1
  C  C97  1  0.70335900  0.08635000  0.11587600  1
  C  C98  1  0.38299100  0.79664100  0.91251700  1
  C  C99  1  0.08635000  0.11587600  0.70335900  1
  C  C100  1  0.79664100  0.91251700  0.38299100  1
  C  C101  1  0.11700900  0.02952600  0.41365000  1
  C  C102  1  0.91251700  0.38299100  0.79664100  1
  C  C103  1  0.02952600  0.41365000  0.11700900  1
  C  C104  1  0.11587600  0.70335900  0.08635000  1
  C  C105  1  0.58748300  0.38412400  0.47047400  1
  C  C106  1  0.47047400  0.58748300  0.38412400  1
  C  C107  1  0.38412400  0.47047400  0.58748300  1
  C  C108  1  0.47685400  0.30151800  0.12398600  1
  C  C109  1  0.82466300  0.02314600  0.14713200  1
  C  C110  1  0.19848200  0.67533700  0.82246800  1
  C  C111  1  0.02314600  0.14713200  0.82466300  1
  C  C112  1  0.67533700  0.82246800  0.19848200  1
  C  C113  1  0.30151800  0.12398600  0.47685400  1
  C  C114  1  0.82246800  0.19848200  0.67533700  1
  C  C115  1  0.12398600  0.47685400  0.30151800  1
  C  C116  1  0.14713200  0.82466300  0.02314600  1
  C  C117  1  0.67753200  0.35286800  0.37601400  1
  C  C118  1  0.37601400  0.67753200  0.35286800  1
  C  C119  1  0.35286800  0.37601400  0.67753200  1
  C  C120  1  0.59778900  0.23929000  0.12159800  1
  C  C121  1  0.64150100  0.90221100  0.02380800  1
  C  C122  1  0.26071000  0.85849900  0.88230700  1
  C  C123  1  0.90221100  0.02380800  0.64150100  1
  C  C124  1  0.85849900  0.88230700  0.26071000  1
  C  C125  1  0.23929000  0.12159800  0.59778900  1
  C  C126  1  0.88230700  0.26071000  0.85849900  1
  C  C127  1  0.12159800  0.59778900  0.23929000  1
  C  C128  1  0.02380800  0.64150100  0.90221100  1
  C  C129  1  0.61769300  0.47619200  0.37840200  1
  C  C130  1  0.37840200  0.61769300  0.47619200  1
  C  C131  1  0.47619200  0.37840200  0.61769300  1
  C  C132  1  0.27389200  0.60244200  0.08205700  1
  C  C133  1  0.32855000  0.22610800  0.30816500  1
  C  C134  1  0.89755800  0.17145000  0.47961500  1
  C  C135  1  0.22610800  0.30816500  0.32855000  1
  C  C136  1  0.17145000  0.47961500  0.89755800  1
  C  C137  1  0.60244200  0.08205700  0.27389200  1
  C  C138  1  0.47961500  0.89755800  0.17145000  1
  C  C139  1  0.08205700  0.27389200  0.60244200  1
  C  C140  1  0.30816500  0.32855000  0.22610800  1
  C  C141  1  0.02038500  0.19183500  0.41794300  1
  C  C142  1  0.41794300  0.02038500  0.19183500  1
  C  C143  1  0.19183500  0.41794300  0.02038500  1
