# generated using pymatgen
data_Cu6NiC7
_symmetry_space_group_name_H-M   'P 1'
_cell_length_a   7.17308732
_cell_length_b   7.17366877
_cell_length_c   10.65597807
_cell_angle_alpha   102.73672116
_cell_angle_beta   90.66144402
_cell_angle_gamma   67.69781487
_symmetry_Int_Tables_number   1
_chemical_formula_structural   Cu6NiC7
_chemical_formula_sum   'Cu24 Ni4 C28'
_cell_volume   493.24482737
_cell_formula_units_Z   4
loop_
 _symmetry_equiv_pos_site_id
 _symmetry_equiv_pos_as_xyz
  1  'x, y, z'
loop_
 _atom_site_type_symbol
 _atom_site_label
 _atom_site_symmetry_multiplicity
 _atom_site_fract_x
 _atom_site_fract_y
 _atom_site_fract_z
 _atom_site_occupancy
  C  C0  1  0.85825100  0.42531600  0.13407900  1
  C  C1  1  0.10825400  0.67530100  0.13405500  1
  C  C2  1  0.35825200  0.92531500  0.13407900  1
  C  C3  1  0.60824500  0.17531100  0.13405500  1
  C  C4  1  0.14175700  0.57469300  0.86594400  1
  C  C5  1  0.39176200  0.82468600  0.86592300  1
  C  C6  1  0.64174500  0.07470200  0.86594300  1
  C  C7  1  0.89175400  0.32469400  0.86592300  1
  C  C8  1  0.96285800  0.11176300  0.29778100  1
  C  C9  1  0.21289500  0.36178900  0.29777900  1
  C  C10  1  0.46285600  0.61175900  0.29777900  1
  C  C11  1  0.71289600  0.86179000  0.29778000  1
  C  C12  1  0.03711700  0.88820800  0.70220900  1
  C  C13  1  0.28714500  0.13824500  0.70221100  1
  C  C14  1  0.53711400  0.38820700  0.70221300  1
  C  C15  1  0.78714300  0.63824600  0.70221100  1
  C  C16  1  0.82178200  0.53499500  0.42641000  1
  C  C17  1  0.07177700  0.78499400  0.42640700  1
  C  C18  1  0.32178400  0.03499300  0.42640900  1
  C  C19  1  0.57177600  0.28499400  0.42640700  1
  C  C20  1  0.17822400  0.46501100  0.57358900  1
  C  C21  1  0.42823000  0.71500600  0.57358400  1
  C  C22  1  0.67822300  0.96501300  0.57358800  1
  C  C23  1  0.92822700  0.21500800  0.57358500  1
  C  C24  1  0.50024900  0.50022700  0.00005200  1
  C  C25  1  0.74970800  0.74981000  0.00001200  1
  C  C26  1  0.00006900  0.00019100  0.00002700  1
  C  C27  1  0.24981200  0.24967100  0.00001800  1
  Ni  Ni28  1  0.99998600  0.49997700  0.99999500  1
  Ni  Ni29  1  0.25002000  0.75002400  0.99999200  1
  Ni  Ni30  1  0.49998000  0.99997800  0.99999300  1
  Ni  Ni31  1  0.75002700  0.25002200  0.99999500  1
  Cu  Cu32  1  0.10642900  0.18082900  0.14878700  1
  Cu  Cu33  1  0.35640400  0.43084600  0.14878300  1
  Cu  Cu34  1  0.60642400  0.68083600  0.14878800  1
  Cu  Cu35  1  0.85639200  0.93083600  0.14878400  1
  Cu  Cu36  1  0.89357100  0.81916000  0.85118700  1
  Cu  Cu37  1  0.14360500  0.06916900  0.85122000  1
  Cu  Cu38  1  0.39359000  0.31916700  0.85118800  1
  Cu  Cu39  1  0.64361600  0.56916300  0.85121900  1
  Cu  Cu40  1  0.96355100  0.60977100  0.29245400  1
  Cu  Cu41  1  0.21351400  0.85984000  0.29249700  1
  Cu  Cu42  1  0.46355200  0.10976800  0.29245500  1
  Cu  Cu43  1  0.71350900  0.35984300  0.29249600  1
  Cu  Cu44  1  0.03644100  0.39022500  0.70754700  1
  Cu  Cu45  1  0.28651200  0.64017500  0.70750600  1
  Cu  Cu46  1  0.53644400  0.89022300  0.70755000  1
  Cu  Cu47  1  0.78650700  0.14017900  0.70750600  1
  Cu  Cu48  1  0.07127200  0.28630300  0.42998500  1
  Cu  Cu49  1  0.32124900  0.53633200  0.42999300  1
  Cu  Cu50  1  0.57127300  0.78630000  0.42998200  1
  Cu  Cu51  1  0.82124900  0.03633300  0.42999200  1
  Cu  Cu52  1  0.92873300  0.71370200  0.57001000  1
  Cu  Cu53  1  0.17875600  0.96367800  0.57001400  1
  Cu  Cu54  1  0.42873500  0.21370000  0.57000900  1
  Cu  Cu55  1  0.67875500  0.46368000  0.57001700  1
