# generated using pymatgen
data_Cu8Ni4C15
_symmetry_space_group_name_H-M   'P 1'
_cell_length_a   6.50360600
_cell_length_b   11.11710200
_cell_length_c   12.44044900
_cell_angle_alpha   90.00000000
_cell_angle_beta   90.00000000
_cell_angle_gamma   90.00000000
_symmetry_Int_Tables_number   1
_chemical_formula_structural   Cu8Ni4C15
_chemical_formula_sum   'Cu32 Ni16 C60'
_cell_volume   899.46002906
_cell_formula_units_Z   4
loop_
 _symmetry_equiv_pos_site_id
 _symmetry_equiv_pos_as_xyz
  1  'x, y, z'
loop_
 _atom_site_type_symbol
 _atom_site_label
 _atom_site_symmetry_multiplicity
 _atom_site_fract_x
 _atom_site_fract_y
 _atom_site_fract_z
 _atom_site_occupancy
  C  C0  1  0.50000000  0.50000000  0.00000000  1
  C  C1  1  0.50000000  0.00000000  0.50000000  1
  C  C2  1  0.00000000  0.50000000  0.50000000  1
  C  C3  1  0.00000000  0.00000000  0.00000000  1
  C  C4  1  0.24259500  0.65160900  0.25829000  1
  C  C5  1  0.75740500  0.15160900  0.24171000  1
  C  C6  1  0.25740500  0.34839100  0.75829000  1
  C  C7  1  0.74259500  0.84839100  0.74171000  1
  C  C8  1  0.75740500  0.34839100  0.74171000  1
  C  C9  1  0.24259500  0.84839100  0.75829000  1
  C  C10  1  0.74259500  0.65160900  0.24171000  1
  C  C11  1  0.25740500  0.15160900  0.25829000  1
  C  C12  1  0.36113000  0.71998700  0.15998100  1
  C  C13  1  0.63887000  0.21998700  0.34001900  1
  C  C14  1  0.13887000  0.28001300  0.65998100  1
  C  C15  1  0.86113000  0.78001300  0.84001900  1
  C  C16  1  0.63887000  0.28001300  0.84001900  1
  C  C17  1  0.36113000  0.78001300  0.65998100  1
  C  C18  1  0.86113000  0.71998700  0.34001900  1
  C  C19  1  0.13887000  0.21998700  0.15998100  1
  C  C20  1  0.53396300  0.74806400  0.89365500  1
  C  C21  1  0.46603700  0.24806400  0.60634500  1
  C  C22  1  0.96603700  0.25193600  0.39365500  1
  C  C23  1  0.03396300  0.75193600  0.10634500  1
  C  C24  1  0.46603700  0.25193600  0.10634500  1
  C  C25  1  0.53396300  0.75193600  0.39365500  1
  C  C26  1  0.03396300  0.74806400  0.60634500  1
  C  C27  1  0.96603700  0.24806400  0.89365500  1
  C  C28  1  0.29435300  0.75085900  0.95282500  1
  C  C29  1  0.70564700  0.25085900  0.54717500  1
  C  C30  1  0.20564700  0.24914100  0.45282500  1
  C  C31  1  0.79435300  0.74914100  0.04717500  1
  C  C32  1  0.70564700  0.24914100  0.04717500  1
  C  C33  1  0.29435300  0.74914100  0.45282500  1
  C  C34  1  0.79435300  0.75085900  0.54717500  1
  C  C35  1  0.20564700  0.25085900  0.95282500  1
  C  C36  1  0.81728200  0.35902900  0.21655600  1
  C  C37  1  0.18271800  0.85902900  0.28344400  1
  C  C38  1  0.68271800  0.64097100  0.71655600  1
  C  C39  1  0.31728200  0.14097100  0.78344400  1
  C  C40  1  0.18271800  0.64097100  0.78344400  1
  C  C41  1  0.81728200  0.14097100  0.71655600  1
  C  C42  1  0.31728200  0.35902900  0.28344400  1
  C  C43  1  0.68271800  0.85902900  0.21655600  1
  C  C44  1  0.97219300  0.48149700  0.23782300  1
  C  C45  1  0.02780700  0.98149700  0.26217700  1
  C  C46  1  0.52780700  0.51850300  0.73782300  1
  C  C47  1  0.47219300  0.01850300  0.76217700  1
  C  C48  1  0.02780700  0.51850300  0.76217700  1
  C  C49  1  0.97219300  0.01850300  0.73782300  1
  C  C50  1  0.47219300  0.48149700  0.26217700  1
  C  C51  1  0.52780700  0.98149700  0.23782300  1
  C  C52  1  0.94323400  0.43213300  0.11319800  1
  C  C53  1  0.05676600  0.93213300  0.38680200  1
  C  C54  1  0.55676600  0.56786700  0.61319800  1
  C  C55  1  0.44323400  0.06786700  0.88680200  1
  C  C56  1  0.05676600  0.56786700  0.88680200  1
  C  C57  1  0.94323400  0.06786700  0.61319800  1
  C  C58  1  0.44323400  0.43213300  0.38680200  1
  C  C59  1  0.55676600  0.93213300  0.11319800  1
  Ni  Ni60  1  0.43673700  0.70769200  0.94838400  1
  Ni  Ni61  1  0.56326300  0.20769200  0.55161600  1
  Ni  Ni62  1  0.06326300  0.29230800  0.44838400  1
  Ni  Ni63  1  0.93673700  0.79230800  0.05161600  1
  Ni  Ni64  1  0.56326300  0.29230800  0.05161600  1
  Ni  Ni65  1  0.43673700  0.79230800  0.44838400  1
  Ni  Ni66  1  0.93673700  0.70769200  0.55161600  1
  Ni  Ni67  1  0.06326300  0.20769200  0.94838400  1
  Ni  Ni68  1  0.86440100  0.44286700  0.18528400  1
  Ni  Ni69  1  0.13559900  0.94286700  0.31471600  1
  Ni  Ni70  1  0.63559900  0.55713300  0.68528400  1
  Ni  Ni71  1  0.36440100  0.05713300  0.81471600  1
  Ni  Ni72  1  0.13559900  0.55713300  0.81471600  1
  Ni  Ni73  1  0.86440100  0.05713300  0.68528400  1
  Ni  Ni74  1  0.36440100  0.44286700  0.31471600  1
  Ni  Ni75  1  0.63559900  0.94286700  0.18528400  1
  Cu  Cu76  1  0.24959600  0.49390900  0.07048000  1
  Cu  Cu77  1  0.75040400  0.99390900  0.42952000  1
  Cu  Cu78  1  0.25040400  0.50609100  0.57048000  1
  Cu  Cu79  1  0.74959600  0.00609100  0.92952000  1
  Cu  Cu80  1  0.75040400  0.50609100  0.92952000  1
  Cu  Cu81  1  0.24959600  0.00609100  0.57048000  1
  Cu  Cu82  1  0.74959600  0.49390900  0.42952000  1
  Cu  Cu83  1  0.25040400  0.99390900  0.07048000  1
  Cu  Cu84  1  0.52992200  0.70172700  0.05099500  1
  Cu  Cu85  1  0.47007800  0.20172700  0.44900500  1
  Cu  Cu86  1  0.97007800  0.29827300  0.55099500  1
  Cu  Cu87  1  0.02992200  0.79827300  0.94900500  1
  Cu  Cu88  1  0.47007800  0.29827300  0.94900500  1
  Cu  Cu89  1  0.52992200  0.79827300  0.55099500  1
  Cu  Cu90  1  0.02992200  0.70172700  0.44900500  1
  Cu  Cu91  1  0.97007800  0.20172700  0.05099500  1
  Cu  Cu92  1  0.69117500  0.51894800  0.17186900  1
  Cu  Cu93  1  0.30882500  0.01894800  0.32813100  1
  Cu  Cu94  1  0.80882500  0.48105200  0.67186900  1
  Cu  Cu95  1  0.19117500  0.98105200  0.82813100  1
  Cu  Cu96  1  0.30882500  0.48105200  0.82813100  1
  Cu  Cu97  1  0.69117500  0.98105200  0.67186900  1
  Cu  Cu98  1  0.19117500  0.51894800  0.32813100  1
  Cu  Cu99  1  0.80882500  0.01894800  0.17186900  1
  Cu  Cu100  1  0.26363600  0.73086500  0.22187300  1
  Cu  Cu101  1  0.73636400  0.23086500  0.27812700  1
  Cu  Cu102  1  0.23636400  0.26913500  0.72187300  1
  Cu  Cu103  1  0.76363600  0.76913500  0.77812700  1
  Cu  Cu104  1  0.73636400  0.26913500  0.77812700  1
  Cu  Cu105  1  0.26363600  0.76913500  0.72187300  1
  Cu  Cu106  1  0.76363600  0.73086500  0.27812700  1
  Cu  Cu107  1  0.23636400  0.23086500  0.22187300  1
