# generated using pymatgen
data_Cu2NiC8
_symmetry_space_group_name_H-M   'P 1'
_cell_length_a   9.66013300
_cell_length_b   10.28380400
_cell_length_c   14.39065100
_cell_angle_alpha   90.00000000
_cell_angle_beta   90.00000000
_cell_angle_gamma   90.00000000
_symmetry_Int_Tables_number   1
_chemical_formula_structural   Cu2NiC8
_chemical_formula_sum   'Cu16 Ni8 C64'
_cell_volume   1429.60921025
_cell_formula_units_Z   8
loop_
 _symmetry_equiv_pos_site_id
 _symmetry_equiv_pos_as_xyz
  1  'x, y, z'
loop_
 _atom_site_type_symbol
 _atom_site_label
 _atom_site_symmetry_multiplicity
 _atom_site_fract_x
 _atom_site_fract_y
 _atom_site_fract_z
 _atom_site_occupancy
  Ni  Ni0  1  0.72393900  0.53347000  0.61028500  1
  Ni  Ni1  1  0.22393900  0.96653000  0.61028500  1
  Ni  Ni2  1  0.22393900  0.46653000  0.88971500  1
  Ni  Ni3  1  0.27606100  0.96653000  0.11028500  1
  Ni  Ni4  1  0.27606100  0.46653000  0.38971500  1
  Ni  Ni5  1  0.77606100  0.03347000  0.38971500  1
  Ni  Ni6  1  0.72393900  0.03347000  0.88971500  1
  Ni  Ni7  1  0.77606100  0.53347000  0.11028500  1
  Cu  Cu8  1  0.00391900  0.22445000  0.06023600  1
  Cu  Cu9  1  0.50391900  0.77555000  0.43976400  1
  Cu  Cu10  1  0.31493500  0.10543100  0.84898000  1
  Cu  Cu11  1  0.81493500  0.89456900  0.65102000  1
  Cu  Cu12  1  0.18506500  0.60543100  0.15102000  1
  Cu  Cu13  1  0.99608100  0.77555000  0.93976400  1
  Cu  Cu14  1  0.00391900  0.72445000  0.43976400  1
  Cu  Cu15  1  0.49608100  0.72445000  0.93976400  1
  Cu  Cu16  1  0.99608100  0.27555000  0.56023600  1
  Cu  Cu17  1  0.81493500  0.39456900  0.84898000  1
  Cu  Cu18  1  0.50391900  0.27555000  0.06023600  1
  Cu  Cu19  1  0.68506500  0.89456900  0.15102000  1
  Cu  Cu20  1  0.18506500  0.10543100  0.34898000  1
  Cu  Cu21  1  0.31493500  0.60543100  0.65102000  1
  Cu  Cu22  1  0.68506500  0.39456900  0.34898000  1
  Cu  Cu23  1  0.49608100  0.22445000  0.56023600  1
  C  C24  1  0.88838200  0.82742700  0.37546400  1
  C  C25  1  0.50011700  0.08129500  0.84759400  1
  C  C26  1  0.26755200  0.27006000  0.82065700  1
  C  C27  1  0.76889700  0.50354500  0.26910100  1
  C  C28  1  0.62464300  0.16687600  0.00618300  1
  C  C29  1  0.50011700  0.58129500  0.65240600  1
  C  C30  1  0.59326700  0.89340200  0.36553400  1
  C  C31  1  0.90673300  0.89340200  0.86553400  1
  C  C32  1  0.41102700  0.85994900  0.52857600  1
  C  C33  1  0.73110300  0.00354500  0.73089900  1
  C  C34  1  0.75590500  0.42730200  0.96510000  1
  C  C35  1  0.58897300  0.14005100  0.47142400  1
  C  C36  1  0.24409500  0.57269800  0.03490000  1
  C  C37  1  0.23110300  0.99645500  0.76910100  1
  C  C38  1  0.73110300  0.50354500  0.76910100  1
  C  C39  1  0.76755200  0.22994000  0.82065700  1
  C  C40  1  0.08897300  0.35994900  0.47142400  1
  C  C41  1  0.23110300  0.49645500  0.73089900  1
  C  C42  1  0.37535700  0.83312400  0.99381700  1
  C  C43  1  0.76755200  0.72994000  0.67934300  1
  C  C44  1  0.91102700  0.14005100  0.97142400  1
  C  C45  1  0.73244800  0.22994000  0.32065700  1
  C  C46  1  0.23244800  0.77006000  0.17934300  1
  C  C47  1  0.41102700  0.35994900  0.97142400  1
  C  C48  1  0.99988300  0.58129500  0.15240600  1
  C  C49  1  0.74409500  0.92730200  0.03490000  1
  C  C50  1  0.76889700  0.00354500  0.23089900  1
  C  C51  1  0.12464300  0.83312400  0.49381700  1
  C  C52  1  0.99988300  0.08129500  0.34759400  1
  C  C53  1  0.91102700  0.64005100  0.52857600  1
  C  C54  1  0.26755200  0.77006000  0.67934300  1
  C  C55  1  0.58897300  0.64005100  0.02857600  1
  C  C56  1  0.12464300  0.33312400  0.00618300  1
  C  C57  1  0.59326700  0.39340200  0.13446600  1
  C  C58  1  0.38838200  0.67257300  0.37546400  1
  C  C59  1  0.40673300  0.10659800  0.63446600  1
  C  C60  1  0.00011700  0.41870500  0.84759400  1
  C  C61  1  0.88838200  0.32742700  0.12453600  1
  C  C62  1  0.11161800  0.17257300  0.62453600  1
  C  C63  1  0.87535700  0.16687600  0.50618300  1
  C  C64  1  0.11161800  0.67257300  0.87546400  1
  C  C65  1  0.74409500  0.42730200  0.46510000  1
  C  C66  1  0.00011700  0.91870500  0.65240600  1
  C  C67  1  0.62464300  0.66687600  0.49381700  1
  C  C68  1  0.90673300  0.39340200  0.63446600  1
  C  C69  1  0.08897300  0.85994900  0.02857600  1
  C  C70  1  0.38838200  0.17257300  0.12453600  1
  C  C71  1  0.25590500  0.07269800  0.96510000  1
  C  C72  1  0.75590500  0.92730200  0.53490000  1
  C  C73  1  0.73244800  0.72994000  0.17934300  1
  C  C74  1  0.09326700  0.10659800  0.13446600  1
  C  C75  1  0.09326700  0.60659800  0.36553400  1
  C  C76  1  0.26889700  0.99645500  0.26910100  1
  C  C77  1  0.40673300  0.60659800  0.86553400  1
  C  C78  1  0.37535700  0.33312400  0.50618300  1
  C  C79  1  0.49988300  0.41870500  0.34759400  1
  C  C80  1  0.61161800  0.32742700  0.62453600  1
  C  C81  1  0.61161800  0.82742700  0.87546400  1
  C  C82  1  0.49988300  0.91870500  0.15240600  1
  C  C83  1  0.25590500  0.57269800  0.53490000  1
  C  C84  1  0.23244800  0.27006000  0.32065700  1
  C  C85  1  0.26889700  0.49645500  0.23089900  1
  C  C86  1  0.87535700  0.66687600  0.99381700  1
  C  C87  1  0.24409500  0.07269800  0.46510000  1
