# generated using pymatgen
data_Cu2Ni3C31
_symmetry_space_group_name_H-M   'P 1'
_cell_length_a   8.48515777
_cell_length_b   8.48515642
_cell_length_c   8.48515679
_cell_angle_alpha   61.06575562
_cell_angle_beta   61.06575083
_cell_angle_gamma   61.06574995
_symmetry_Int_Tables_number   1
_chemical_formula_structural   Cu2Ni3C31
_chemical_formula_sum   'Cu2 Ni3 C31'
_cell_volume   442.34648565
_cell_formula_units_Z   1
loop_
 _symmetry_equiv_pos_site_id
 _symmetry_equiv_pos_as_xyz
  1  'x, y, z'
loop_
 _atom_site_type_symbol
 _atom_site_label
 _atom_site_symmetry_multiplicity
 _atom_site_fract_x
 _atom_site_fract_y
 _atom_site_fract_z
 _atom_site_occupancy
  C  C0  1  0.85519000  0.85519000  0.85519000  1
  Ni  Ni1  1  0.14507900  0.14507900  0.14507900  1
  Ni  Ni2  1  0.35623600  0.35623600  0.35623600  1
  Ni  Ni3  1  0.64395000  0.64395000  0.64395000  1
  Cu  Cu4  1  0.00083900  0.00083900  0.00083900  1
  Cu  Cu5  1  0.50068700  0.50068700  0.50068700  1
  C  C6  1  0.74953200  0.45240700  0.04590600  1
  C  C7  1  0.04590600  0.74953200  0.45240700  1
  C  C8  1  0.45240700  0.04590600  0.74953200  1
  C  C9  1  0.25087500  0.54562800  0.95381100  1
  C  C10  1  0.54562800  0.95381100  0.25087500  1
  C  C11  1  0.95381100  0.25087500  0.54562800  1
  C  C12  1  0.11015400  0.31763900  0.50726100  1
  C  C13  1  0.31763900  0.50726100  0.11015400  1
  C  C14  1  0.06052100  0.90863600  0.25539600  1
  C  C15  1  0.50726100  0.11015400  0.31763900  1
  C  C16  1  0.99265600  0.82225800  0.61463700  1
  C  C17  1  0.24398600  0.59318300  0.44477000  1
  C  C18  1  0.25539600  0.06052100  0.90863600  1
  C  C19  1  0.44477000  0.24398600  0.59318300  1
  C  C20  1  0.18070400  0.39078600  0.99505500  1
  C  C21  1  0.59318300  0.44477000  0.24398600  1
  C  C22  1  0.09000200  0.74619400  0.93678600  1
  C  C23  1  0.39078600  0.99505500  0.18070400  1
  C  C24  1  0.61463700  0.99265600  0.82225800  1
  C  C25  1  0.90863600  0.25539600  0.06052100  1
  C  C26  1  0.40728300  0.56273900  0.75370800  1
  C  C27  1  0.82225800  0.61463700  0.99265600  1
  C  C28  1  0.56273900  0.75370800  0.40728300  1
  C  C29  1  0.74619400  0.93678600  0.09000200  1
  C  C30  1  0.75370800  0.40728300  0.56273900  1
  C  C31  1  0.99505500  0.18070400  0.39078600  1
  C  C32  1  0.49520900  0.89099400  0.67930300  1
  C  C33  1  0.93678600  0.09000200  0.74619400  1
  C  C34  1  0.67930300  0.49520900  0.89099400  1
  C  C35  1  0.89099400  0.67930300  0.49520900  1
