# generated using pymatgen
data_Cu6Ni3C13
_symmetry_space_group_name_H-M   'P 1'
_cell_length_a   11.32299539
_cell_length_b   10.03246202
_cell_length_c   15.90045525
_cell_angle_alpha   90.00000000
_cell_angle_beta   117.35206244
_cell_angle_gamma   90.00000000
_symmetry_Int_Tables_number   1
_chemical_formula_structural   Cu6Ni3C13
_chemical_formula_sum   'Cu48 Ni24 C104'
_cell_volume   1604.31349212
_cell_formula_units_Z   8
loop_
 _symmetry_equiv_pos_site_id
 _symmetry_equiv_pos_as_xyz
  1  'x, y, z'
loop_
 _atom_site_type_symbol
 _atom_site_label
 _atom_site_symmetry_multiplicity
 _atom_site_fract_x
 _atom_site_fract_y
 _atom_site_fract_z
 _atom_site_occupancy
  C  C0  1  0.26534426  0.45849238  0.75826844  1
  C  C1  1  0.73465574  0.95849238  0.74173156  1
  C  C2  1  0.73465574  0.54150762  0.24173156  1
  C  C3  1  0.26534426  0.04150762  0.25826844  1
  C  C4  1  0.99533617  0.46155531  0.67493615  1
  C  C5  1  0.00466383  0.96155531  0.82506385  1
  C  C6  1  0.00466383  0.53844469  0.32506385  1
  C  C7  1  0.99533617  0.03844469  0.17493615  1
  C  C8  1  0.12459173  0.37673820  0.85855718  1
  C  C9  1  0.87540827  0.87673820  0.64144282  1
  C  C10  1  0.87540827  0.62326180  0.14144282  1
  C  C11  1  0.12459173  0.12326180  0.35855718  1
  C  C12  1  0.12566076  0.65671690  0.69479967  1
  C  C13  1  0.87433924  0.15671690  0.80520033  1
  C  C14  1  0.87433924  0.34328310  0.30520033  1
  C  C15  1  0.12566076  0.84328310  0.19479967  1
  C  C16  1  0.13486701  0.32802705  0.61389670  1
  C  C17  1  0.86513299  0.82802705  0.88610330  1
  C  C18  1  0.86513299  0.67197295  0.38610330  1
  C  C19  1  0.13486701  0.17197295  0.11389670  1
  C  C20  1  0.36321512  0.57387341  0.65838995  1
  C  C21  1  0.63678488  0.07387341  0.84161005  1
  C  C22  1  0.63678488  0.42612659  0.34161005  1
  C  C23  1  0.36321512  0.92612659  0.15838995  1
  C  C24  1  0.38528915  0.67665568  0.74881666  1
  C  C25  1  0.61471085  0.17665568  0.75118334  1
  C  C26  1  0.61471085  0.32334432  0.25118334  1
  C  C27  1  0.38528915  0.82334432  0.24881666  1
  C  C28  1  0.48760179  0.54819147  0.76293530  1
  C  C29  1  0.51239821  0.04819147  0.73706470  1
  C  C30  1  0.51239821  0.45180853  0.23706470  1
  C  C31  1  0.48760179  0.95180853  0.26293530  1
  C  C32  1  0.37304880  0.41494543  0.93862135  1
  C  C33  1  0.62695120  0.91494543  0.56137865  1
  C  C34  1  0.62695120  0.58505457  0.06137865  1
  C  C35  1  0.37304880  0.08505457  0.43862135  1
  C  C36  1  0.35395409  0.57961762  0.91894188  1
  C  C37  1  0.64604591  0.07961762  0.58105812  1
  C  C38  1  0.64604591  0.42038238  0.08105812  1
  C  C39  1  0.35395409  0.92038238  0.41894188  1
  C  C40  1  0.47602911  0.49952401  0.91037460  1
  C  C41  1  0.52397089  0.99952401  0.58962540  1
  C  C42  1  0.52397089  0.50047599  0.08962540  1
  C  C43  1  0.47602911  0.00047599  0.41037460  1
  C  C44  1  0.47241347  0.31664252  0.81149092  1
  C  C45  1  0.52758653  0.81664252  0.68850908  1
  C  C46  1  0.52758653  0.68335748  0.18850908  1
  C  C47  1  0.47241347  0.18335748  0.31149092  1
  C  C48  1  0.36413217  0.27428315  0.70090053  1
  C  C49  1  0.63586783  0.77428315  0.79909947  1
  C  C50  1  0.63586783  0.72571685  0.29909947  1
  C  C51  1  0.36413217  0.22571685  0.20090053  1
  C  C52  1  0.34814736  0.22041049  0.79559233  1
  C  C53  1  0.65185264  0.72041049  0.70440767  1
  C  C54  1  0.65185264  0.77958951  0.20440767  1
  C  C55  1  0.34814736  0.27958951  0.29559233  1
  C  C56  1  0.92008222  0.49713914  0.80096463  1
  C  C57  1  0.07991778  0.99713914  0.69903537  1
  C  C58  1  0.07991778  0.50286086  0.19903537  1
  C  C59  1  0.92008222  0.00286086  0.30096463  1
  C  C60  1  0.78913689  0.44909848  0.70301729  1
  C  C61  1  0.21086311  0.94909848  0.79698271  1
  C  C62  1  0.21086311  0.55090152  0.29698271  1
  C  C63  1  0.78913689  0.05090152  0.20301729  1
  C  C64  1  0.83996840  0.60064931  0.71175088  1
  C  C65  1  0.16003160  0.10064931  0.78824912  1
  C  C66  1  0.16003160  0.39935069  0.28824912  1
  C  C67  1  0.83996840  0.89935069  0.21175088  1
  C  C68  1  0.91223154  0.55684027  0.51965158  1
  C  C69  1  0.08776846  0.05684027  0.98034842  1
  C  C70  1  0.08776846  0.44315973  0.48034842  1
  C  C71  1  0.91223154  0.94315973  0.01965158  1
  C  C72  1  0.92821650  0.74484143  0.21221846  1
  C  C73  1  0.07178350  0.24484143  0.28778154  1
  C  C74  1  0.07178350  0.25515857  0.78778154  1
  C  C75  1  0.92821650  0.75515857  0.71221846  1
  C  C76  1  0.80915745  0.59000869  0.56055092  1
  C  C77  1  0.19084255  0.09000869  0.93944908  1
  C  C78  1  0.19084255  0.40999131  0.43944908  1
  C  C79  1  0.80915745  0.90999131  0.06055092  1
  C  C80  1  0.86928674  0.24183157  0.64216777  1
  C  C81  1  0.13071326  0.74183157  0.85783223  1
  C  C82  1  0.13071326  0.75816843  0.35783223  1
  C  C83  1  0.86928674  0.25816843  0.14216777  1
  C  C84  1  0.91353071  0.27195822  0.55799041  1
  C  C85  1  0.08646929  0.77195822  0.94200959  1
  C  C86  1  0.08646929  0.72804178  0.44200959  1
  C  C87  1  0.91353071  0.22804178  0.05799041  1
  C  C88  1  0.78526738  0.34893983  0.55826547  1
  C  C89  1  0.21473262  0.84893983  0.94173453  1
  C  C90  1  0.21473262  0.65106017  0.44173453  1
  C  C91  1  0.78526738  0.15106017  0.05826547  1
  C  C92  1  0.47012282  0.40636490  0.52142242  1
  C  C93  1  0.52987718  0.90636490  0.97857758  1
  C  C94  1  0.52987718  0.59363510  0.47857758  1
  C  C95  1  0.47012282  0.09363510  0.02142242  1
  C  C96  1  0.21050386  0.08140328  0.54843809  1
  C  C97  1  0.78949614  0.58140328  0.95156191  1
  C  C98  1  0.78949614  0.91859672  0.45156191  1
  C  C99  1  0.21050386  0.41859672  0.04843809  1
  C  C100  1  0.26861721  0.88605330  0.61796141  1
  C  C101  1  0.73138279  0.38605330  0.88203859  1
  C  C102  1  0.73138279  0.11394670  0.38203859  1
  C  C103  1  0.26861721  0.61394670  0.11796141  1
  Ni  Ni104  1  0.39077873  0.58064951  0.72939140  1
  Ni  Ni105  1  0.60922127  0.08064951  0.77060860  1
  Ni  Ni106  1  0.60922127  0.41935049  0.27060860  1
  Ni  Ni107  1  0.39077873  0.91935049  0.22939140  1
  Ni  Ni108  1  0.37897890  0.49185044  0.89802187  1
  Ni  Ni109  1  0.62102110  0.99185044  0.60197813  1
  Ni  Ni110  1  0.62102110  0.50814956  0.10197813  1
  Ni  Ni111  1  0.37897890  0.00814956  0.39802187  1
  Ni  Ni112  1  0.37338821  0.29965326  0.76623134  1
  Ni  Ni113  1  0.62661179  0.79965326  0.73376866  1
  Ni  Ni114  1  0.62661179  0.70034674  0.23376866  1
  Ni  Ni115  1  0.37338821  0.20034674  0.26623134  1
  Ni  Ni116  1  0.87452658  0.50544475  0.72858414  1
  Ni  Ni117  1  0.12547342  0.00544475  0.77141586  1
  Ni  Ni118  1  0.12547342  0.49455525  0.27141586  1
  Ni  Ni119  1  0.87452658  0.99455525  0.22858414  1
  Ni  Ni120  1  0.90896520  0.58829327  0.57993178  1
  Ni  Ni121  1  0.09103480  0.08829327  0.92006822  1
  Ni  Ni122  1  0.09103480  0.41170673  0.42006822  1
  Ni  Ni123  1  0.90896520  0.91170673  0.07993178  1
  Ni  Ni124  1  0.87992490  0.31581772  0.60136499  1
  Ni  Ni125  1  0.12007510  0.81581772  0.89863501  1
  Ni  Ni126  1  0.12007510  0.68418228  0.39863501  1
  Ni  Ni127  1  0.87992490  0.18418228  0.10136499  1
  Cu  Cu128  1  0.11114938  0.34316383  0.79389229  1
  Cu  Cu129  1  0.88885062  0.84316383  0.70610771  1
  Cu  Cu130  1  0.88885062  0.65683617  0.20610771  1
  Cu  Cu131  1  0.11114938  0.15683617  0.29389229  1
  Cu  Cu132  1  0.13599589  0.59717222  0.74712783  1
  Cu  Cu133  1  0.86400411  0.09717222  0.75287217  1
  Cu  Cu134  1  0.86400411  0.40282778  0.25287217  1
  Cu  Cu135  1  0.13599589  0.90282778  0.24712783  1
  Cu  Cu136  1  0.13169056  0.42010195  0.63523847  1
  Cu  Cu137  1  0.86830944  0.92010195  0.86476153  1
  Cu  Cu138  1  0.86830944  0.57989805  0.36476153  1
  Cu  Cu139  1  0.13169056  0.07989805  0.13523847  1
  Cu  Cu140  1  0.15044584  0.80861994  0.60091353  1
  Cu  Cu141  1  0.84955416  0.30861994  0.89908647  1
  Cu  Cu142  1  0.84955416  0.19138006  0.39908647  1
  Cu  Cu143  1  0.15044584  0.69138006  0.10091353  1
  Cu  Cu144  1  0.34770954  0.83104774  0.57388184  1
  Cu  Cu145  1  0.65229046  0.33104774  0.92611816  1
  Cu  Cu146  1  0.65229046  0.16895226  0.42611816  1
  Cu  Cu147  1  0.34770954  0.66895226  0.07388184  1
  Cu  Cu148  1  0.35072508  0.92462905  0.71733365  1
  Cu  Cu149  1  0.64927492  0.42462905  0.78266635  1
  Cu  Cu150  1  0.64927492  0.07537095  0.28266635  1
  Cu  Cu151  1  0.35072508  0.57537095  0.21733365  1
  Cu  Cu152  1  0.34120949  0.14064349  0.57391107  1
  Cu  Cu153  1  0.65879051  0.64064349  0.92608893  1
  Cu  Cu154  1  0.65879051  0.85935651  0.42608893  1
  Cu  Cu155  1  0.34120949  0.35935651  0.07391107  1
  Cu  Cu156  1  0.13487124  0.15055577  0.58975304  1
  Cu  Cu157  1  0.86512876  0.65055577  0.91024696  1
  Cu  Cu158  1  0.86512876  0.84944423  0.41024696  1
  Cu  Cu159  1  0.13487124  0.34944423  0.08975304  1
  Cu  Cu160  1  0.13351540  0.05027694  0.44657654  1
  Cu  Cu161  1  0.86648460  0.55027694  0.05342346  1
  Cu  Cu162  1  0.86648460  0.94972306  0.55342346  1
  Cu  Cu163  1  0.13351540  0.44972306  0.94657654  1
  Cu  Cu164  1  0.39847069  0.45028165  0.57339620  1
  Cu  Cu165  1  0.60152931  0.95028165  0.92660380  1
  Cu  Cu166  1  0.60152931  0.54971835  0.42660380  1
  Cu  Cu167  1  0.39847069  0.04971835  0.07339620  1
  Cu  Cu168  1  0.38256927  0.33942994  0.43125859  1
  Cu  Cu169  1  0.61743073  0.83942994  0.06874141  1
  Cu  Cu170  1  0.61743073  0.66057006  0.56874141  1
  Cu  Cu171  1  0.38256927  0.16057006  0.93125859  1
  Cu  Cu172  1  0.59541090  0.33564864  0.57837512  1
  Cu  Cu173  1  0.40458910  0.83564864  0.92162488  1
  Cu  Cu174  1  0.40458910  0.66435136  0.42162488  1
  Cu  Cu175  1  0.59541090  0.16435136  0.07837512  1
