# generated using pymatgen
data_Cu2(NiC2)5
_symmetry_space_group_name_H-M   'P 1'
_cell_length_a   14.03322100
_cell_length_b   7.50205700
_cell_length_c   9.40669685
_cell_angle_alpha   76.49269458
_cell_angle_beta   90.00000000
_cell_angle_gamma   90.00000000
_symmetry_Int_Tables_number   1
_chemical_formula_structural   Cu2(NiC2)5
_chemical_formula_sum   'Cu8 Ni20 C40'
_cell_volume   962.92639251
_cell_formula_units_Z   4
loop_
 _symmetry_equiv_pos_site_id
 _symmetry_equiv_pos_as_xyz
  1  'x, y, z'
loop_
 _atom_site_type_symbol
 _atom_site_label
 _atom_site_symmetry_multiplicity
 _atom_site_fract_x
 _atom_site_fract_y
 _atom_site_fract_z
 _atom_site_occupancy
  C  C0  1  0.07797700  0.21429000  0.69577500  1
  C  C1  1  0.57797700  0.78571000  0.80422500  1
  C  C2  1  0.92202300  0.78571000  0.30422500  1
  C  C3  1  0.42202300  0.21429000  0.19577500  1
  Ni  Ni4  1  0.41544400  0.80104500  0.21449800  1
  Ni  Ni5  1  0.91544400  0.19895500  0.28550200  1
  Ni  Ni6  1  0.58455600  0.19895500  0.78550200  1
  Ni  Ni7  1  0.08455600  0.80104500  0.71449800  1
  Ni  Ni8  1  0.84931700  0.12982200  0.74692400  1
  Ni  Ni9  1  0.34931700  0.87017800  0.75307600  1
  Ni  Ni10  1  0.15068300  0.87017800  0.25307600  1
  Ni  Ni11  1  0.65068300  0.12982200  0.24692400  1
  Ni  Ni12  1  0.66928900  0.44591000  0.96352700  1
  Ni  Ni13  1  0.16928900  0.55409000  0.53647300  1
  Ni  Ni14  1  0.33071100  0.55409000  0.03647300  1
  Ni  Ni15  1  0.83071100  0.44591000  0.46352700  1
  Ni  Ni16  1  0.89115300  0.56227600  0.75391600  1
  Ni  Ni17  1  0.39115300  0.43772400  0.74608400  1
  Ni  Ni18  1  0.10884700  0.43772400  0.24608400  1
  Ni  Ni19  1  0.60884700  0.56227600  0.25391600  1
  Ni  Ni20  1  0.75370000  0.68732200  0.49962300  1
  Ni  Ni21  1  0.25370000  0.31267800  0.00037700  1
  Ni  Ni22  1  0.24630000  0.31267800  0.50037700  1
  Ni  Ni23  1  0.74630000  0.68732200  0.99962300  1
  Cu  Cu24  1  0.02600000  0.68697000  0.65326200  1
  Cu  Cu25  1  0.52600000  0.31303000  0.84673800  1
  Cu  Cu26  1  0.97400000  0.31303000  0.34673800  1
  Cu  Cu27  1  0.47400000  0.68697000  0.15326200  1
  Cu  Cu28  1  0.70438500  0.98146100  0.45455200  1
  Cu  Cu29  1  0.20438500  0.01853900  0.04544800  1
  Cu  Cu30  1  0.29561500  0.01853900  0.54544800  1
  Cu  Cu31  1  0.79561500  0.98146100  0.95455200  1
  C  C32  1  0.01348600  0.79618600  0.49965400  1
  C  C33  1  0.51348600  0.20381400  0.00034600  1
  C  C34  1  0.98651400  0.20381400  0.50034600  1
  C  C35  1  0.48651400  0.79618600  0.99965400  1
  C  C36  1  0.83751200  0.47161300  0.77926700  1
  C  C37  1  0.33751200  0.52838700  0.72073300  1
  C  C38  1  0.16248800  0.52838700  0.22073300  1
  C  C39  1  0.66248800  0.47161300  0.27926700  1
  C  C40  1  0.09391200  0.52488100  0.66192000  1
  C  C41  1  0.59391200  0.47511900  0.83808000  1
  C  C42  1  0.90608800  0.47511900  0.33808000  1
  C  C43  1  0.40608800  0.52488100  0.16192000  1
  C  C44  1  0.01433600  0.41988700  0.01844900  1
  C  C45  1  0.51433600  0.58011300  0.48155100  1
  C  C46  1  0.98566400  0.58011300  0.98155100  1
  C  C47  1  0.48566400  0.41988700  0.51844900  1
  C  C48  1  0.63914600  0.00305100  0.30783600  1
  C  C49  1  0.13914600  0.99694900  0.19216400  1
  C  C50  1  0.36085400  0.99694900  0.69216400  1
  C  C51  1  0.86085400  0.00305100  0.80783600  1
  C  C52  1  0.63992800  0.90802600  0.57699200  1
  C  C53  1  0.13992800  0.09197400  0.92300800  1
  C  C54  1  0.36007200  0.09197400  0.42300800  1
  C  C55  1  0.86007200  0.90802600  0.07699200  1
  C  C56  1  0.77036100  0.80920200  0.43431100  1
  C  C57  1  0.27036100  0.19079800  0.06568900  1
  C  C58  1  0.22963900  0.19079800  0.56568900  1
  C  C59  1  0.72963900  0.80920200  0.93431100  1
  C  C60  1  0.71695400  0.43497400  0.04946000  1
  C  C61  1  0.21695400  0.56502600  0.45054000  1
  C  C62  1  0.28304600  0.56502600  0.95054000  1
  C  C63  1  0.78304600  0.43497400  0.54946000  1
  C  C64  1  0.15026200  0.63308200  0.32774700  1
  C  C65  1  0.65026200  0.36691800  0.17225300  1
  C  C66  1  0.84973800  0.36691800  0.67225300  1
  C  C67  1  0.34973800  0.63308200  0.82774700  1
