# generated using pymatgen
data_CuNi3C14
_symmetry_space_group_name_H-M   'P 1'
_cell_length_a   8.35559900
_cell_length_b   10.08254900
_cell_length_c   12.04543308
_cell_angle_alpha   84.77262970
_cell_angle_beta   90.00000000
_cell_angle_gamma   90.00000000
_symmetry_Int_Tables_number   1
_chemical_formula_structural   CuNi3C14
_chemical_formula_sum   'Cu4 Ni12 C56'
_cell_volume   1010.55591399
_cell_formula_units_Z   4
loop_
 _symmetry_equiv_pos_site_id
 _symmetry_equiv_pos_as_xyz
  1  'x, y, z'
loop_
 _atom_site_type_symbol
 _atom_site_label
 _atom_site_symmetry_multiplicity
 _atom_site_fract_x
 _atom_site_fract_y
 _atom_site_fract_z
 _atom_site_occupancy
  C  C0  1  0.03235600  0.00133100  0.21495800  1
  C  C1  1  0.46764400  0.50133100  0.21495800  1
  C  C2  1  0.53235600  0.49866900  0.78504200  1
  C  C3  1  0.96764400  0.99866900  0.78504200  1
  C  C4  1  0.81963900  0.29990400  0.28720100  1
  C  C5  1  0.68036100  0.79990400  0.28720100  1
  C  C6  1  0.31437900  0.00467900  0.45369800  1
  C  C7  1  0.18562100  0.50467900  0.45369800  1
  C  C8  1  0.81437900  0.49532100  0.54630200  1
  C  C9  1  0.68562100  0.99532100  0.54630200  1
  C  C10  1  0.31963900  0.20009600  0.71279900  1
  C  C11  1  0.18036100  0.70009600  0.71279900  1
  Ni  Ni12  1  0.85542300  0.28663700  0.99479000  1
  Ni  Ni13  1  0.64457700  0.78663700  0.99479000  1
  Ni  Ni14  1  0.52779100  0.10202200  0.22679800  1
  Ni  Ni15  1  0.97220900  0.60202200  0.22679800  1
  Ni  Ni16  1  0.51223300  0.29739200  0.49469500  1
  Ni  Ni17  1  0.01223300  0.20260800  0.50530500  1
  Ni  Ni18  1  0.98776700  0.79739200  0.49469500  1
  Ni  Ni19  1  0.48776700  0.70260800  0.50530500  1
  Ni  Ni20  1  0.02779100  0.39797800  0.77320200  1
  Ni  Ni21  1  0.47220900  0.89797800  0.77320200  1
  Ni  Ni22  1  0.35542300  0.21336300  0.00521000  1
  Ni  Ni23  1  0.14457700  0.71336300  0.00521000  1
  Cu  Cu24  1  0.23534900  0.00106800  0.01820300  1
  Cu  Cu25  1  0.26465100  0.50106800  0.01820300  1
  Cu  Cu26  1  0.73534900  0.49893200  0.98179700  1
  Cu  Cu27  1  0.76465100  0.99893200  0.98179700  1
  C  C28  1  0.69521400  0.40446900  0.99223400  1
  C  C29  1  0.80478600  0.90446900  0.99223400  1
  C  C30  1  0.50733400  0.11221600  0.07579800  1
  C  C31  1  0.30731600  0.33967500  0.07963300  1
  C  C32  1  0.99266600  0.61221600  0.07579800  1
  C  C33  1  0.19268400  0.83967500  0.07963300  1
  C  C34  1  0.91080300  0.24390000  0.12848200  1
  C  C35  1  0.58919700  0.74390000  0.12848200  1
  C  C36  1  0.59307400  0.25688600  0.25155900  1
  C  C37  1  0.81697900  0.49320400  0.24722500  1
  C  C38  1  0.34668400  0.05315200  0.28060000  1
  C  C39  1  0.90692600  0.75688600  0.25155900  1
  C  C40  1  0.68302100  0.99320400  0.24722500  1
  C  C41  1  0.15331600  0.55315200  0.28060000  1
  C  C42  1  0.97826600  0.18637800  0.36492800  1
  C  C43  1  0.52173400  0.68637800  0.36492800  1
  C  C44  1  0.36567900  0.37777400  0.41386700  1
  C  C45  1  0.13432100  0.87777400  0.41386700  1
  C  C46  1  0.69444800  0.36846100  0.45641600  1
  C  C47  1  0.52308700  0.12872800  0.47614800  1
  C  C48  1  0.80555200  0.86846100  0.45641600  1
  C  C49  1  0.97691300  0.62872800  0.47614800  1
  C  C50  1  0.02308700  0.37127200  0.52385200  1
  C  C51  1  0.19444800  0.13153900  0.54358400  1
  C  C52  1  0.47691300  0.87127200  0.52385200  1
  C  C53  1  0.30555200  0.63153900  0.54358400  1
  C  C54  1  0.86567900  0.12222600  0.58613300  1
  C  C55  1  0.63432100  0.62222600  0.58613300  1
  C  C56  1  0.47826600  0.31362200  0.63507200  1
  C  C57  1  0.02173400  0.81362200  0.63507200  1
  C  C58  1  0.84668400  0.44684800  0.71940000  1
  C  C59  1  0.09307400  0.24311400  0.74844100  1
  C  C60  1  0.65331600  0.94684800  0.71940000  1
  C  C61  1  0.18302100  0.50679600  0.75277500  1
  C  C62  1  0.40692600  0.74311400  0.74844100  1
  C  C63  1  0.31697900  0.00679600  0.75277500  1
  C  C64  1  0.41080300  0.25610000  0.87151800  1
  C  C65  1  0.08919700  0.75610000  0.87151800  1
  C  C66  1  0.80731600  0.16032500  0.92036700  1
  C  C67  1  0.00733400  0.38778400  0.92420200  1
  C  C68  1  0.69268400  0.66032500  0.92036700  1
  C  C69  1  0.49266600  0.88778400  0.92420200  1
  C  C70  1  0.19521400  0.09553100  0.00776600  1
  C  C71  1  0.30478600  0.59553100  0.00776600  1
