# generated using pymatgen
data_Cu3NiC36
_symmetry_space_group_name_H-M   'P 1'
_cell_length_a   8.73691800
_cell_length_b   8.77083717
_cell_length_c   8.77675100
_cell_angle_alpha   61.25785038
_cell_angle_beta   60.90277580
_cell_angle_gamma   61.51481944
_symmetry_Int_Tables_number   1
_chemical_formula_structural   Cu3NiC36
_chemical_formula_sum   'Cu3 Ni1 C36'
_cell_volume   488.65084624
_cell_formula_units_Z   1
loop_
 _symmetry_equiv_pos_site_id
 _symmetry_equiv_pos_as_xyz
  1  'x, y, z'
loop_
 _atom_site_type_symbol
 _atom_site_label
 _atom_site_symmetry_multiplicity
 _atom_site_fract_x
 _atom_site_fract_y
 _atom_site_fract_z
 _atom_site_occupancy
  C  C0  1  0.73416000  0.15947000  0.35645100  1
  C  C1  1  0.31179700  0.82934600  0.64506100  1
  C  C2  1  0.64306200  0.30914600  0.83488200  1
  C  C3  1  0.82900200  0.64152300  0.31366800  1
  Ni  Ni4  1  0.85417700  0.84859900  0.85429200  1
  Cu  Cu5  1  0.14593900  0.14806800  0.14348600  1
  Cu  Cu6  1  0.35423600  0.35831400  0.35423000  1
  Cu  Cu7  1  0.65169200  0.64965700  0.65822900  1
  C  C8  1  0.03574200  0.99748900  0.98986900  1
  C  C9  1  0.46478300  0.51911000  0.50225600  1
  C  C10  1  0.05134000  0.74949300  0.43966600  1
  C  C11  1  0.44597600  0.04484300  0.74973700  1
  C  C12  1  0.75193800  0.43874200  0.04858900  1
  C  C13  1  0.24896300  0.54046600  0.96116600  1
  C  C14  1  0.54535700  0.96116200  0.25331200  1
  C  C15  1  0.95183700  0.24878700  0.53675600  1
  C  C16  1  0.12622900  0.26796700  0.51000700  1
  C  C17  1  0.28620600  0.53024300  0.11630100  1
  C  C18  1  0.06656200  0.91803500  0.26248900  1
  C  C19  1  0.55661400  0.11148200  0.28501200  1
  C  C20  1  0.98554200  0.81291600  0.61161700  1
  C  C21  1  0.23355900  0.59393200  0.44354000  1
  C  C22  1  0.26096200  0.08236800  0.90648700  1
  C  C23  1  0.47514800  0.21431300  0.58075600  1
  C  C24  1  0.16887700  0.39502700  0.01018200  1
  C  C25  1  0.60046100  0.43697400  0.23675400  1
  C  C26  1  0.10159200  0.74346000  0.90287500  1
  C  C27  1  0.38396000  0.02562900  0.18885300  1
  C  C28  1  0.61174300  0.97391500  0.82258300  1
  C  C29  1  0.90934800  0.25287800  0.07608000  1
  C  C30  1  0.41685500  0.54113500  0.77675600  1
  C  C31  1  0.82023800  0.60640600  0.98195900  1
  C  C32  1  0.54247200  0.77976300  0.42029900  1
  C  C33  1  0.73968800  0.89687000  0.10067500  1
  C  C34  1  0.77467500  0.41999000  0.55132300  1
  C  C35  1  0.96738400  0.18734300  0.39056400  1
  C  C36  1  0.46225800  0.88790900  0.70449100  1
  C  C37  1  0.89963200  0.09800600  0.73850600  1
  C  C38  1  0.69245500  0.46252800  0.89958900  1
  C  C39  1  0.89753800  0.69369800  0.46365400  1
