# generated using pymatgen
data_CuNiC34
_symmetry_space_group_name_H-M   'P 1'
_cell_length_a   8.62920587
_cell_length_b   8.62920587
_cell_length_c   8.62920614
_cell_angle_alpha   59.92284300
_cell_angle_beta   59.92284300
_cell_angle_gamma   59.92284077
_symmetry_Int_Tables_number   1
_chemical_formula_structural   CuNiC34
_chemical_formula_sum   'Cu1 Ni1 C34'
_cell_volume   453.56207650
_cell_formula_units_Z   1
loop_
 _symmetry_equiv_pos_site_id
 _symmetry_equiv_pos_as_xyz
  1  'x, y, z'
loop_
 _atom_site_type_symbol
 _atom_site_label
 _atom_site_symmetry_multiplicity
 _atom_site_fract_x
 _atom_site_fract_y
 _atom_site_fract_z
 _atom_site_occupancy
  C  C0  1  0.99976000  0.99976000  0.99976000  1
  C  C1  1  0.14072000  0.14072000  0.14072000  1
  C  C2  1  0.35512800  0.35512800  0.35512800  1
  C  C3  1  0.85814500  0.85814500  0.85814500  1
  Ni  Ni4  1  0.50064300  0.50064300  0.50064300  1
  Cu  Cu5  1  0.64306300  0.64306300  0.64306300  1
  C  C6  1  0.75016300  0.03956100  0.46000600  1
  C  C7  1  0.95728500  0.54153300  0.24922700  1
  C  C8  1  0.54153300  0.24922700  0.95728500  1
  C  C9  1  0.46000600  0.75016300  0.03956100  1
  C  C10  1  0.03956100  0.46000600  0.75016300  1
  C  C11  1  0.24922700  0.95728500  0.54153300  1
  C  C12  1  0.91563700  0.06176800  0.26847100  1
  C  C13  1  0.80624600  0.99987000  0.62453100  1
  C  C14  1  0.73218300  0.08446500  0.94343600  1
  C  C15  1  0.88276700  0.49355700  0.69316100  1
  C  C16  1  0.58474300  0.23542900  0.44354000  1
  C  C17  1  0.76539100  0.55490200  0.41462400  1
  C  C18  1  0.94343600  0.73218300  0.08446500  1
  C  C19  1  0.19283400  0.00175700  0.37687900  1
  C  C20  1  0.49869000  0.30800600  0.12187900  1
  C  C21  1  0.37687900  0.19283400  0.00175700  1
  C  C22  1  0.30800600  0.12187900  0.49869000  1
  C  C23  1  0.55490200  0.41462400  0.76539000  1
  C  C24  1  0.44354000  0.58474300  0.23542900  1
  C  C25  1  0.69316100  0.88276700  0.49355700  1
  C  C26  1  0.62453100  0.80624600  0.99987000  1
  C  C27  1  0.49355700  0.69316100  0.88276700  1
  C  C28  1  0.06176800  0.26847100  0.91563700  1
  C  C29  1  0.23542900  0.44354000  0.58474300  1
  C  C30  1  0.41462400  0.76539000  0.55490200  1
  C  C31  1  0.12187900  0.49869000  0.30800600  1
  C  C32  1  0.00175700  0.37687900  0.19283400  1
  C  C33  1  0.99987000  0.62453100  0.80624600  1
  C  C34  1  0.26847100  0.91563700  0.06176800  1
  C  C35  1  0.08446500  0.94343600  0.73218300  1
