# generated using pymatgen
data_Cu7Ni3C5
_symmetry_space_group_name_H-M   'P 1'
_cell_length_a   4.81551986
_cell_length_b   4.81551986
_cell_length_c   15.71467203
_cell_angle_alpha   89.92120847
_cell_angle_beta   89.92120847
_cell_angle_gamma   88.63875254
_symmetry_Int_Tables_number   1
_chemical_formula_structural   Cu7Ni3C5
_chemical_formula_sum   'Cu14 Ni6 C10'
_cell_volume   364.30765336
_cell_formula_units_Z   2
loop_
 _symmetry_equiv_pos_site_id
 _symmetry_equiv_pos_as_xyz
  1  'x, y, z'
loop_
 _atom_site_type_symbol
 _atom_site_label
 _atom_site_symmetry_multiplicity
 _atom_site_fract_x
 _atom_site_fract_y
 _atom_site_fract_z
 _atom_site_occupancy
  C  C0  1  0.96632500  0.98072200  0.39533000  1
  C  C1  1  0.01927800  0.03367500  0.60467000  1
  C  C2  1  0.97197100  0.02038600  0.79971700  1
  C  C3  1  0.97534600  0.02465400  0.00000000  1
  C  C4  1  0.97961400  0.02802900  0.20028300  1
  C  C5  1  0.49748100  0.50251900  0.50000000  1
  C  C6  1  0.51227500  0.48910900  0.89836100  1
  C  C7  1  0.50863200  0.47003200  0.69237800  1
  C  C8  1  0.51089100  0.48772500  0.10163900  1
  C  C9  1  0.52996800  0.49136800  0.30762200  1
  Ni  Ni10  1  0.80485300  0.20083600  0.70513700  1
  Ni  Ni11  1  0.81223700  0.18558100  0.90003000  1
  Ni  Ni12  1  0.81441900  0.18776300  0.09997000  1
  Ni  Ni13  1  0.79916400  0.19514700  0.29486300  1
  Ni  Ni14  1  0.32109200  0.32907600  0.59625200  1
  Ni  Ni15  1  0.67092400  0.67890800  0.40374800  1
  Cu  Cu16  1  0.79397800  0.20602200  0.50000000  1
  Cu  Cu17  1  0.29921800  0.29811700  0.40067300  1
  Cu  Cu18  1  0.30061000  0.29680600  0.79512700  1
  Cu  Cu19  1  0.29601200  0.29242200  0.99978800  1
  Cu  Cu20  1  0.30216900  0.30018100  0.20572700  1
  Cu  Cu21  1  0.70188300  0.70078200  0.59932700  1
  Cu  Cu22  1  0.69981900  0.69783100  0.79427300  1
  Cu  Cu23  1  0.70757800  0.70398800  0.00021200  1
  Cu  Cu24  1  0.70319400  0.69939000  0.20487300  1
  Cu  Cu25  1  0.19311800  0.80688200  0.50000000  1
  Cu  Cu26  1  0.19438900  0.80420600  0.90053100  1
  Cu  Cu27  1  0.21233800  0.79457300  0.71034300  1
  Cu  Cu28  1  0.20542700  0.78766200  0.28965700  1
  Cu  Cu29  1  0.19579400  0.80561100  0.09946900  1
