# generated using pymatgen
data_Cu7Ni5C6
_symmetry_space_group_name_H-M   'P 1'
_cell_length_a   5.11292100
_cell_length_b   5.76146183
_cell_length_c   14.52533042
_cell_angle_alpha   90.89496334
_cell_angle_beta   93.43635181
_cell_angle_gamma   90.11610399
_symmetry_Int_Tables_number   1
_chemical_formula_structural   Cu7Ni5C6
_chemical_formula_sum   'Cu14 Ni10 C12'
_cell_volume   427.06239474
_cell_formula_units_Z   2
loop_
 _symmetry_equiv_pos_site_id
 _symmetry_equiv_pos_as_xyz
  1  'x, y, z'
loop_
 _atom_site_type_symbol
 _atom_site_label
 _atom_site_symmetry_multiplicity
 _atom_site_fract_x
 _atom_site_fract_y
 _atom_site_fract_z
 _atom_site_occupancy
  C  C0  1  0.04526100  0.87808800  0.99550000  1
  C  C1  1  0.51435200  0.13366800  0.83371600  1
  C  C2  1  0.96707900  0.93892300  0.65789200  1
  C  C3  1  0.50886400  0.88432600  0.49751100  1
  C  C4  1  0.99162200  0.11623900  0.33807000  1
  C  C5  1  0.47582500  0.90577200  0.16690600  1
  C  C6  1  0.00815200  0.42092300  0.83943500  1
  C  C7  1  0.54223400  0.57163800  0.99475800  1
  C  C8  1  0.51889000  0.45943400  0.33740100  1
  C  C9  1  0.03882600  0.55250000  0.50429500  1
  C  C10  1  0.48186300  0.55986300  0.66764600  1
  C  C11  1  0.94562700  0.58496200  0.16134700  1
  Ni  Ni12  1  0.26334000  0.78127400  0.58670200  1
  Ni  Ni13  1  0.73462600  0.80471200  0.07988900  1
  Ni  Ni14  1  0.85643400  0.63234100  0.92421400  1
  Ni  Ni15  1  0.33440900  0.64438500  0.42533500  1
  Ni  Ni16  1  0.23173800  0.65234700  0.07201200  1
  Ni  Ni17  1  0.66000400  0.66446800  0.23800500  1
  Ni  Ni18  1  0.76429500  0.64692400  0.58979100  1
  Ni  Ni19  1  0.84010400  0.38363200  0.40731800  1
  Ni  Ni20  1  0.68093000  0.36982700  0.76454600  1
  Ni  Ni21  1  0.34746100  0.37030700  0.90686000  1
  Cu  Cu22  1  0.65206500  0.89590100  0.75005300  1
  Cu  Cu23  1  0.37122000  0.88617300  0.91210200  1
  Cu  Cu24  1  0.82150600  0.87414300  0.42236200  1
  Cu  Cu25  1  0.15924700  0.89763800  0.24380500  1
  Cu  Cu26  1  0.18259500  0.63287800  0.74730700  1
  Cu  Cu27  1  0.73639800  0.34290800  0.08268000  1
  Cu  Cu28  1  0.21679400  0.31659200  0.59533300  1
  Cu  Cu29  1  0.16874500  0.40349300  0.25391600  1
  Cu  Cu30  1  0.68991600  0.11553600  0.57482600  1
  Cu  Cu31  1  0.86864800  0.11839900  0.91995900  1
  Cu  Cu32  1  0.64799400  0.16786400  0.25671200  1
  Cu  Cu33  1  0.34137300  0.15080600  0.40936500  1
  Cu  Cu34  1  0.24863300  0.09629900  0.07952200  1
  Cu  Cu35  1  0.14293200  0.14481700  0.76290700  1
