# generated using pymatgen
data_Cu3Ni5C22
_symmetry_space_group_name_H-M   'P 1'
_cell_length_a   5.82163580
_cell_length_b   5.82163580
_cell_length_c   9.43879464
_cell_angle_alpha   88.88539802
_cell_angle_beta   88.88539802
_cell_angle_gamma   59.59379841
_symmetry_Int_Tables_number   1
_chemical_formula_structural   Cu3Ni5C22
_chemical_formula_sum   'Cu3 Ni5 C22'
_cell_volume   275.82642463
_cell_formula_units_Z   1
loop_
 _symmetry_equiv_pos_site_id
 _symmetry_equiv_pos_as_xyz
  1  'x, y, z'
loop_
 _atom_site_type_symbol
 _atom_site_label
 _atom_site_symmetry_multiplicity
 _atom_site_fract_x
 _atom_site_fract_y
 _atom_site_fract_z
 _atom_site_occupancy
  C  C0  1  0.82566800  0.82566800  0.45053500  1
  C  C1  1  0.34768400  0.83380200  0.45311900  1
  C  C2  1  0.83380200  0.34768400  0.45311900  1
  C  C3  1  0.17313100  0.66462900  0.94016900  1
  C  C4  1  0.66462900  0.17313100  0.94016900  1
  C  C5  1  0.16430200  0.16430200  0.94073400  1
  Ni  Ni6  1  0.82790300  0.82790300  0.71472000  1
  Ni  Ni7  1  0.65991700  0.65991700  0.98478200  1
  Ni  Ni8  1  0.16838800  0.66360800  0.21458900  1
  Ni  Ni9  1  0.66360800  0.16838800  0.21458900  1
  Ni  Ni10  1  0.32942600  0.32942600  0.48965200  1
  Cu  Cu11  1  0.33492200  0.83229200  0.71236600  1
  Cu  Cu12  1  0.83229200  0.33492200  0.71236600  1
  Cu  Cu13  1  0.16817100  0.16817100  0.21288600  1
  C  C14  1  0.83806600  0.83806600  0.10316900  1
  C  C15  1  0.52738700  0.96497000  0.85192800  1
  C  C16  1  0.32467000  0.82806900  0.09226100  1
  C  C17  1  0.67468700  0.67468700  0.59677400  1
  C  C18  1  0.96497000  0.52738700  0.85192800  1
  C  C19  1  0.52131900  0.52131900  0.85573100  1
  C  C20  1  0.15563700  0.66414100  0.59334900  1
  C  C21  1  0.82806900  0.32467000  0.09226100  1
  C  C22  1  0.48518400  0.48518400  0.33826100  1
  C  C23  1  0.66414100  0.15563700  0.59334900  1
  C  C24  1  0.34346600  0.34346600  0.10331300  1
  C  C25  1  0.03900400  0.49417800  0.34581600  1
  C  C26  1  0.49417800  0.03900400  0.34581600  1
  C  C27  1  0.16463500  0.16463500  0.58072300  1
  C  C28  1  0.99156000  0.99156000  0.32105000  1
  C  C29  1  0.98862600  0.98862600  0.82050800  1
