# generated using pymatgen
data_Cu3NiC32
_symmetry_space_group_name_H-M   'P 1'
_cell_length_a   8.40940477
_cell_length_b   8.40940470
_cell_length_c   8.40940559
_cell_angle_alpha   61.26049799
_cell_angle_beta   61.26049048
_cell_angle_gamma   61.26048795
_symmetry_Int_Tables_number   1
_chemical_formula_structural   Cu3NiC32
_chemical_formula_sum   'Cu3 Ni1 C32'
_cell_volume   432.43253950
_cell_formula_units_Z   1
loop_
 _symmetry_equiv_pos_site_id
 _symmetry_equiv_pos_as_xyz
  1  'x, y, z'
loop_
 _atom_site_type_symbol
 _atom_site_label
 _atom_site_symmetry_multiplicity
 _atom_site_fract_x
 _atom_site_fract_y
 _atom_site_fract_z
 _atom_site_occupancy
  Ni  Ni0  1  0.85676700  0.85676700  0.85676700  1
  Cu  Cu1  1  0.14322600  0.14322600  0.14322600  1
  Cu  Cu2  1  0.35843400  0.35843400  0.35843400  1
  Cu  Cu3  1  0.64247900  0.64247900  0.64247900  1
  C  C4  1  0.00051900  0.00051900  0.00051900  1
  C  C5  1  0.50130000  0.50130000  0.50130000  1
  C  C6  1  0.74957800  0.45258900  0.04437800  1
  C  C7  1  0.04437800  0.74957800  0.45258900  1
  C  C8  1  0.45258900  0.04437800  0.74957800  1
  C  C9  1  0.25168100  0.54375400  0.95663900  1
  C  C10  1  0.54375400  0.95663900  0.25168100  1
  C  C11  1  0.95663900  0.25168100  0.54375400  1
  C  C12  1  0.11557200  0.31607200  0.50873700  1
  C  C13  1  0.31607200  0.50873700  0.11557200  1
  C  C14  1  0.06155700  0.91133100  0.25356200  1
  C  C15  1  0.50873700  0.11557200  0.31607200  1
  C  C16  1  0.99363200  0.82089600  0.61458700  1
  C  C17  1  0.24439900  0.58968900  0.44640300  1
  C  C18  1  0.25356200  0.06155700  0.91133100  1
  C  C19  1  0.44640300  0.24439900  0.58968900  1
  C  C20  1  0.18535000  0.38566000  0.99251200  1
  C  C21  1  0.58968900  0.44640300  0.24439900  1
  C  C22  1  0.08990100  0.74475700  0.93814200  1
  C  C23  1  0.38566000  0.99251200  0.18535000  1
  C  C24  1  0.61458700  0.99363200  0.82089600  1
  C  C25  1  0.91133100  0.25356200  0.06155700  1
  C  C26  1  0.41130500  0.56056500  0.75492300  1
  C  C27  1  0.82089600  0.61458700  0.99363200  1
  C  C28  1  0.56056500  0.75492300  0.41130500  1
  C  C29  1  0.74475700  0.93814200  0.08990100  1
  C  C30  1  0.75492300  0.41130500  0.56056500  1
  C  C31  1  0.99251200  0.18535000  0.38566000  1
  C  C32  1  0.48884100  0.88694800  0.68331100  1
  C  C33  1  0.93814200  0.08990100  0.74475700  1
  C  C34  1  0.68331100  0.48884100  0.88694800  1
  C  C35  1  0.88694800  0.68331100  0.48884100  1
