# generated using pymatgen
data_Cu9Ni3C7
_symmetry_space_group_name_H-M   'P 1'
_cell_length_a   5.95410600
_cell_length_b   6.00913059
_cell_length_c   6.03792767
_cell_angle_alpha   99.87926994
_cell_angle_beta   99.27753667
_cell_angle_gamma   98.91735371
_symmetry_Int_Tables_number   1
_chemical_formula_structural   Cu9Ni3C7
_chemical_formula_sum   'Cu9 Ni3 C7'
_cell_volume   206.30325233
_cell_formula_units_Z   1
loop_
 _symmetry_equiv_pos_site_id
 _symmetry_equiv_pos_as_xyz
  1  'x, y, z'
loop_
 _atom_site_type_symbol
 _atom_site_label
 _atom_site_symmetry_multiplicity
 _atom_site_fract_x
 _atom_site_fract_y
 _atom_site_fract_z
 _atom_site_occupancy
  C  C0  1  0.85152500  0.65959800  0.40930800  1
  C  C1  1  0.69445100  0.40009900  0.86910400  1
  C  C2  1  0.12095900  0.32911200  0.59892000  1
  C  C3  1  0.59519900  0.12665200  0.31939600  1
  C  C4  1  0.32392300  0.63549600  0.15110300  1
  C  C5  1  0.99833800  0.00180700  0.99402400  1
  C  C6  1  0.42791900  0.88212000  0.69132400  1
  Ni  Ni7  1  0.31716800  0.95071300  0.10228500  1
  Ni  Ni8  1  0.57529500  0.82309500  0.41852900  1
  Ni  Ni9  1  0.69426000  0.05380800  0.89365400  1
  Cu  Cu10  1  0.92207200  0.68247100  0.04931100  1
  Cu  Cu11  1  0.93393000  0.10563200  0.30865100  1
  Cu  Cu12  1  0.56339200  0.40859200  0.17928200  1
  Cu  Cu13  1  0.79351100  0.39086500  0.57391100  1
  Cu  Cu14  1  0.38726900  0.17452100  0.56517900  1
  Cu  Cu15  1  0.17485100  0.56601300  0.40345300  1
  Cu  Cu16  1  0.42223300  0.60177800  0.82875200  1
  Cu  Cu17  1  0.07894400  0.88171700  0.68666700  1
  Cu  Cu18  1  0.12475800  0.32591200  0.95714800  1
