# generated using pymatgen
data_Cu(NiC)2
_symmetry_space_group_name_H-M   'P 1'
_cell_length_a   14.39928104
_cell_length_b   14.39928104
_cell_length_c   14.39928104
_cell_angle_alpha   154.22856705
_cell_angle_beta   154.22856705
_cell_angle_gamma   36.76747182
_symmetry_Int_Tables_number   1
_chemical_formula_structural   Cu(NiC)2
_chemical_formula_sum   'Cu8 Ni16 C16'
_cell_volume   563.59908470
_cell_formula_units_Z   8
loop_
 _symmetry_equiv_pos_site_id
 _symmetry_equiv_pos_as_xyz
  1  'x, y, z'
loop_
 _atom_site_type_symbol
 _atom_site_label
 _atom_site_symmetry_multiplicity
 _atom_site_fract_x
 _atom_site_fract_y
 _atom_site_fract_z
 _atom_site_occupancy
  C  C0  1  0.87500000  0.12500000  0.75000000  1
  C  C1  1  0.37500000  0.12500000  0.25000000  1
  C  C2  1  0.87500000  0.62500000  0.75000000  1
  C  C3  1  0.20756100  0.45852900  0.25096800  1
  C  C4  1  0.54147100  0.79243900  0.74903200  1
  C  C5  1  0.41832200  0.91832200  0.50000000  1
  C  C6  1  0.04340800  0.79243900  0.25096800  1
  C  C7  1  0.66832200  0.66832200  0.00000000  1
  C  C8  1  0.20756100  0.95659200  0.74903200  1
  C  C9  1  0.87500000  0.12500000  0.25000000  1
  C  C10  1  0.54243900  0.29340800  0.75096800  1
  C  C11  1  0.08167800  0.58167800  0.50000000  1
  C  C12  1  0.33167800  0.33167800  0.00000000  1
  C  C13  1  0.20852900  0.45756100  0.75096800  1
  C  C14  1  0.70659200  0.45756100  0.24903200  1
  C  C15  1  0.54243900  0.79147100  0.24903200  1
  Ni  Ni16  1  0.12603600  0.36254200  0.23650600  1
  Ni  Ni17  1  0.28778100  0.55360300  0.26582200  1
  Ni  Ni18  1  0.97804100  0.71221900  0.26582200  1
  Ni  Ni19  1  0.44639700  0.71221900  0.73417800  1
  Ni  Ni20  1  0.11046900  0.87396400  0.23650600  1
  Ni  Ni21  1  0.63745800  0.87396400  0.76349400  1
  Ni  Ni22  1  0.28778100  0.02195900  0.73417800  1
  Ni  Ni23  1  0.62396400  0.36046900  0.73650600  1
  Ni  Ni24  1  0.12603600  0.88953100  0.76349400  1
  Ni  Ni25  1  0.46221900  0.22804100  0.76582200  1
  Ni  Ni26  1  0.11254200  0.37603600  0.73650600  1
  Ni  Ni27  1  0.30360300  0.53778100  0.76582200  1
  Ni  Ni28  1  0.77195900  0.53778100  0.23417800  1
  Ni  Ni29  1  0.63953100  0.37603600  0.26349400  1
  Ni  Ni30  1  0.46221900  0.69639700  0.23417800  1
  Ni  Ni31  1  0.62396400  0.88745800  0.26349400  1
  Cu  Cu32  1  0.79948000  0.59172800  0.79224800  1
  Cu  Cu33  1  0.34172800  0.04948000  0.29224800  1
  Cu  Cu34  1  0.75723300  0.04948000  0.70775200  1
  Cu  Cu35  1  0.79948000  0.00723300  0.20775200  1
  Cu  Cu36  1  0.95052000  0.24276700  0.29224800  1
  Cu  Cu37  1  0.99276700  0.20052000  0.79224800  1
  Cu  Cu38  1  0.40827200  0.20052000  0.20775200  1
  Cu  Cu39  1  0.95052000  0.65827200  0.70775200  1
