# generated using pymatgen
data_Cu3Ni2C3
_symmetry_space_group_name_H-M   'P 1'
_cell_length_a   5.64570259
_cell_length_b   5.64570259
_cell_length_c   10.56948300
_cell_angle_alpha   90.00000000
_cell_angle_beta   90.00000000
_cell_angle_gamma   138.05897494
_symmetry_Int_Tables_number   1
_chemical_formula_structural   Cu3Ni2C3
_chemical_formula_sum   'Cu6 Ni4 C6'
_cell_volume   225.16643369
_cell_formula_units_Z   2
loop_
 _symmetry_equiv_pos_site_id
 _symmetry_equiv_pos_as_xyz
  1  'x, y, z'
loop_
 _atom_site_type_symbol
 _atom_site_label
 _atom_site_symmetry_multiplicity
 _atom_site_fract_x
 _atom_site_fract_y
 _atom_site_fract_z
 _atom_site_occupancy
  C  C0  1  0.80811900  0.19188100  0.25000000  1
  C  C1  1  0.85606200  0.14393800  0.94333400  1
  C  C2  1  0.85606200  0.14393800  0.55666600  1
  C  C3  1  0.19188100  0.80811900  0.75000000  1
  C  C4  1  0.14393800  0.85606200  0.05666600  1
  C  C5  1  0.14393800  0.85606200  0.44333400  1
  Ni  Ni6  1  0.69965600  0.30034400  0.42105300  1
  Ni  Ni7  1  0.69965600  0.30034400  0.07894700  1
  Ni  Ni8  1  0.30034400  0.69965600  0.57894700  1
  Ni  Ni9  1  0.30034400  0.69965600  0.92105300  1
  Cu  Cu10  1  0.75224800  0.24775200  0.75000000  1
  Cu  Cu11  1  0.95653000  0.04347000  0.11597300  1
  Cu  Cu12  1  0.95653000  0.04347000  0.38402700  1
  Cu  Cu13  1  0.24775200  0.75224800  0.25000000  1
  Cu  Cu14  1  0.04347000  0.95653000  0.88402700  1
  Cu  Cu15  1  0.04347000  0.95653000  0.61597300  1
