# generated using pymatgen
data_Cu3Ni3C14
_symmetry_space_group_name_H-M   'P 1'
_cell_length_a   9.21827962
_cell_length_b   9.21827962
_cell_length_c   13.33573846
_cell_angle_alpha   84.09943526
_cell_angle_beta   84.09943526
_cell_angle_gamma   75.68317455
_symmetry_Int_Tables_number   1
_chemical_formula_structural   Cu3Ni3C14
_chemical_formula_sum   'Cu12 Ni12 C56'
_cell_volume   1088.68886314
_cell_formula_units_Z   4
loop_
 _symmetry_equiv_pos_site_id
 _symmetry_equiv_pos_as_xyz
  1  'x, y, z'
loop_
 _atom_site_type_symbol
 _atom_site_label
 _atom_site_symmetry_multiplicity
 _atom_site_fract_x
 _atom_site_fract_y
 _atom_site_fract_z
 _atom_site_occupancy
  C  C0  1  0.16323600  0.83676400  0.75000000  1
  C  C1  1  0.83676400  0.16323600  0.25000000  1
  C  C2  1  0.43216900  0.56783100  0.75000000  1
  C  C3  1  0.56783100  0.43216900  0.25000000  1
  C  C4  1  0.85781700  0.79455400  0.85121100  1
  C  C5  1  0.20544600  0.14218300  0.64878900  1
  C  C6  1  0.14218300  0.20544600  0.14878900  1
  C  C7  1  0.79455400  0.85781700  0.35121100  1
  C  C8  1  0.43722200  0.31185400  0.96596200  1
  C  C9  1  0.68814600  0.56277800  0.53403800  1
  C  C10  1  0.56277800  0.68814600  0.03403800  1
  C  C11  1  0.31185400  0.43722200  0.46596200  1
  C  C12  1  0.32205700  0.49865700  0.95134200  1
  C  C13  1  0.50134300  0.67794300  0.54865800  1
  C  C14  1  0.67794300  0.50134300  0.04865800  1
  C  C15  1  0.49865700  0.32205700  0.45134200  1
  C  C16  1  0.28221900  0.35047900  0.88862800  1
  C  C17  1  0.64952100  0.71778100  0.61137200  1
  C  C18  1  0.71778100  0.64952100  0.11137200  1
  C  C19  1  0.35047900  0.28221900  0.38862800  1
  C  C20  1  0.80782600  0.42786100  0.84073100  1
  C  C21  1  0.57213900  0.19217400  0.65926900  1
  C  C22  1  0.19217400  0.57213900  0.15926900  1
  C  C23  1  0.42786100  0.80782600  0.34073100  1
  C  C24  1  0.97891100  0.46353800  0.87321000  1
  C  C25  1  0.53646200  0.02108900  0.62679000  1
  C  C26  1  0.02108900  0.53646200  0.12679000  1
  C  C27  1  0.46353800  0.97891100  0.37321000  1
  C  C28  1  0.91772000  0.51997800  0.74810800  1
  C  C29  1  0.48002200  0.08228000  0.75189200  1
  C  C30  1  0.08228000  0.48002200  0.25189200  1
  C  C31  1  0.51997800  0.91772000  0.24810800  1
  C  C32  1  0.71649400  0.12149300  0.85198700  1
  C  C33  1  0.87850700  0.28350600  0.64801300  1
  C  C34  1  0.28350600  0.87850700  0.14801300  1
  C  C35  1  0.12149300  0.71649400  0.35198700  1
  C  C36  1  0.80822800  0.05289900  0.96639800  1
  C  C37  1  0.94710100  0.19177200  0.53360200  1
  C  C38  1  0.19177200  0.94710100  0.03360200  1
  C  C39  1  0.05289900  0.80822800  0.46639800  1
  C  C40  1  0.60726100  0.09460500  0.96916400  1
  C  C41  1  0.90539500  0.39273900  0.53083600  1
  C  C42  1  0.39273900  0.90539500  0.03083600  1
  C  C43  1  0.09460500  0.60726100  0.46916400  1
  Ni  Ni44  1  0.37113900  0.39534800  0.91360100  1
  Ni  Ni45  1  0.60465200  0.62886100  0.58639900  1
  Ni  Ni46  1  0.62886100  0.60465200  0.08639900  1
  Ni  Ni47  1  0.39534800  0.37113900  0.41360100  1
  Ni  Ni48  1  0.88100200  0.50657400  0.82874900  1
  Ni  Ni49  1  0.49342600  0.11899800  0.67125100  1
  Ni  Ni50  1  0.11899800  0.49342600  0.17125100  1
  Ni  Ni51  1  0.50657400  0.88100200  0.32874900  1
  Ni  Ni52  1  0.71236900  0.05158600  0.92373100  1
  Ni  Ni53  1  0.94841400  0.28763100  0.57626900  1
  Ni  Ni54  1  0.28763100  0.94841400  0.07626900  1
  Ni  Ni55  1  0.05158600  0.71236900  0.42373100  1
  Cu  Cu56  1  0.23863000  0.59224200  0.68595100  1
  Cu  Cu57  1  0.40775800  0.76137000  0.81404900  1
  Cu  Cu58  1  0.76137000  0.40775800  0.31404900  1
  Cu  Cu59  1  0.59224200  0.23863000  0.18595100  1
  Cu  Cu60  1  0.03998200  0.76857500  0.92530200  1
  Cu  Cu61  1  0.23142500  0.96001800  0.57469800  1
  Cu  Cu62  1  0.96001800  0.23142500  0.07469800  1
  Cu  Cu63  1  0.76857500  0.03998200  0.42530200  1
  Cu  Cu64  1  0.89817300  0.86406100  0.70565900  1
  Cu  Cu65  1  0.13593900  0.10182700  0.79434100  1
  Cu  Cu66  1  0.10182700  0.13593900  0.29434100  1
  Cu  Cu67  1  0.86406100  0.89817300  0.20565900  1
  C  C68  1  0.47468900  0.42221300  0.82712700  1
  C  C69  1  0.57778700  0.52531100  0.67287300  1
  C  C70  1  0.52531100  0.57778700  0.17287300  1
  C  C71  1  0.42221300  0.47468900  0.32712700  1
  C  C72  1  0.79147200  0.64713900  0.86308300  1
  C  C73  1  0.35286100  0.20852800  0.63691700  1
  C  C74  1  0.20852800  0.35286100  0.13691700  1
  C  C75  1  0.64713900  0.79147200  0.36308300  1
  C  C76  1  0.71151000  0.90028900  0.90526600  1
  C  C77  1  0.09971100  0.28849000  0.59473400  1
  C  C78  1  0.28849000  0.09971100  0.09473400  1
  C  C79  1  0.90028900  0.71151000  0.40526600  1
