# generated using pymatgen
data_CuNi5C4
_symmetry_space_group_name_H-M   'P 1'
_cell_length_a   9.06984900
_cell_length_b   9.81348475
_cell_length_c   9.95126823
_cell_angle_alpha   96.15590822
_cell_angle_beta   92.12541781
_cell_angle_gamma   96.29236987
_symmetry_Int_Tables_number   1
_chemical_formula_structural   CuNi5C4
_chemical_formula_sum   'Cu6 Ni30 C24'
_cell_volume   874.24859437
_cell_formula_units_Z   6
loop_
 _symmetry_equiv_pos_site_id
 _symmetry_equiv_pos_as_xyz
  1  'x, y, z'
loop_
 _atom_site_type_symbol
 _atom_site_label
 _atom_site_symmetry_multiplicity
 _atom_site_fract_x
 _atom_site_fract_y
 _atom_site_fract_z
 _atom_site_occupancy
  C  C0  1  0.84890700  0.49051300  0.19239500  1
  C  C1  1  0.79380500  0.78974800  0.37110200  1
  C  C2  1  0.55593100  0.13524400  0.39811800  1
  C  C3  1  0.44406900  0.86475600  0.60188200  1
  C  C4  1  0.20619500  0.21025200  0.62889800  1
  C  C5  1  0.15109300  0.50948700  0.80760500  1
  C  C6  1  0.81826900  0.41480500  0.53470400  1
  C  C7  1  0.85152200  0.92106600  0.03681400  1
  C  C8  1  0.58915700  0.64563700  0.96296900  1
  C  C9  1  0.41084300  0.35436300  0.03703100  1
  C  C10  1  0.14847800  0.07893400  0.96318600  1
  C  C11  1  0.18173100  0.58519500  0.46529600  1
  C  C12  1  0.62601900  0.13908000  0.06622800  1
  C  C13  1  0.54713200  0.50751200  0.32876700  1
  C  C14  1  0.45286800  0.49248800  0.67123300  1
  C  C15  1  0.37398100  0.86092000  0.93377200  1
  C  C16  1  0.24661700  0.60910900  0.14238000  1
  C  C17  1  0.16836000  0.03945200  0.34338100  1
  C  C18  1  0.91137200  0.22139900  0.84006200  1
  C  C19  1  0.05852700  0.83370200  0.70863000  1
  C  C20  1  0.94147300  0.16629800  0.29137000  1
  C  C21  1  0.08862800  0.77860100  0.15993800  1
  C  C22  1  0.83164000  0.96054800  0.65661900  1
  C  C23  1  0.75338300  0.39089100  0.85762000  1
  Ni  Ni24  1  0.85586700  0.14300300  0.97248100  1
  Ni  Ni25  1  0.96448700  0.88572700  0.57365800  1
  Ni  Ni26  1  0.84783900  0.12851300  0.69581300  1
  Ni  Ni27  1  0.70121600  0.48624300  0.74482700  1
  Ni  Ni28  1  0.90907400  0.75185500  0.16175100  1
  Ni  Ni29  1  0.93197900  0.32826600  0.33197600  1
  Ni  Ni30  1  0.06916800  0.09450400  0.19225000  1
  Ni  Ni31  1  0.75538300  0.55614900  0.39984600  1
  Ni  Ni32  1  0.63066100  0.30125100  0.93870400  1
  Ni  Ni33  1  0.58538600  0.53565900  0.14150200  1
  Ni  Ni34  1  0.78162500  0.07959400  0.22952300  1
  Ni  Ni35  1  0.43601900  0.72585100  0.79075800  1
  Ni  Ni36  1  0.48932700  0.28048000  0.60215200  1
  Ni  Ni37  1  0.56260700  0.36690800  0.50194200  1
  Ni  Ni38  1  0.59859600  0.91006400  0.01040600  1
  Ni  Ni39  1  0.40140400  0.08993600  0.98959400  1
  Ni  Ni40  1  0.43739300  0.63309200  0.49805800  1
  Ni  Ni41  1  0.51067300  0.71952000  0.39784800  1
  Ni  Ni42  1  0.56398100  0.27414900  0.20924200  1
  Ni  Ni43  1  0.21837500  0.92040600  0.77047700  1
  Ni  Ni44  1  0.41461400  0.46434100  0.85849800  1
  Ni  Ni45  1  0.36933900  0.69874900  0.06129600  1
  Ni  Ni46  1  0.24461700  0.44385100  0.60015400  1
  Ni  Ni47  1  0.93083200  0.90549600  0.80775000  1
  Ni  Ni48  1  0.06802100  0.67173400  0.66802400  1
  Ni  Ni49  1  0.09092600  0.24814500  0.83824900  1
  Ni  Ni50  1  0.29878400  0.51375700  0.25517300  1
  Ni  Ni51  1  0.15216100  0.87148700  0.30418700  1
  Ni  Ni52  1  0.03551300  0.11427300  0.42634200  1
  Ni  Ni53  1  0.14413300  0.85699700  0.02751900  1
  Cu  Cu54  1  0.83788800  0.51759900  0.97136300  1
  Cu  Cu55  1  0.72969900  0.97490800  0.50638900  1
  Cu  Cu56  1  0.67627900  0.88452300  0.70958700  1
  Cu  Cu57  1  0.32372100  0.11547700  0.29041300  1
  Cu  Cu58  1  0.27030100  0.02509200  0.49361100  1
  Cu  Cu59  1  0.16211200  0.48240100  0.02863700  1
