# generated using pymatgen
data_CuNi5C3
_symmetry_space_group_name_H-M   'P 1'
_cell_length_a   5.54545894
_cell_length_b   5.54545894
_cell_length_c   7.37952375
_cell_angle_alpha   70.22991696
_cell_angle_beta   70.22991696
_cell_angle_gamma   71.13525788
_symmetry_Int_Tables_number   1
_chemical_formula_structural   CuNi5C3
_chemical_formula_sum   'Cu2 Ni10 C6'
_cell_volume   195.29931346
_cell_formula_units_Z   2
loop_
 _symmetry_equiv_pos_site_id
 _symmetry_equiv_pos_as_xyz
  1  'x, y, z'
loop_
 _atom_site_type_symbol
 _atom_site_label
 _atom_site_symmetry_multiplicity
 _atom_site_fract_x
 _atom_site_fract_y
 _atom_site_fract_z
 _atom_site_occupancy
  C  C0  1  0.82390100  0.82390100  0.65451800  1
  C  C1  1  0.50000000  0.50000000  0.50000000  1
  C  C2  1  0.81905500  0.81905500  0.17225000  1
  C  C3  1  0.50000000  0.50000000  0.00000000  1
  C  C4  1  0.17609900  0.17609900  0.34548200  1
  C  C5  1  0.18094500  0.18094500  0.82775000  1
  Ni  Ni6  1  0.81446200  0.18553800  0.50000000  1
  Ni  Ni7  1  0.13802900  0.52474500  0.16239900  1
  Ni  Ni8  1  0.40908800  0.40908800  0.78549800  1
  Ni  Ni9  1  0.71924500  0.71924500  0.46531200  1
  Ni  Ni10  1  0.59091200  0.59091200  0.21450200  1
  Ni  Ni11  1  0.28075500  0.28075500  0.53468800  1
  Ni  Ni12  1  0.52474500  0.13802900  0.16239900  1
  Ni  Ni13  1  0.18553800  0.81446200  0.50000000  1
  Ni  Ni14  1  0.86197100  0.47525500  0.83760100  1
  Ni  Ni15  1  0.47525500  0.86197100  0.83760100  1
  Cu  Cu16  1  0.06017100  0.06017100  0.12967000  1
  Cu  Cu17  1  0.93982900  0.93982900  0.87033000  1
