# generated using pymatgen
data_Cu2(NiC4)3
_symmetry_space_group_name_H-M   'P 1'
_cell_length_a   9.83222000
_cell_length_b   9.83222000
_cell_length_c   5.80475900
_cell_angle_alpha   90.00000000
_cell_angle_beta   90.00000000
_cell_angle_gamma   90.00000000
_symmetry_Int_Tables_number   1
_chemical_formula_structural   Cu2(NiC4)3
_chemical_formula_sum   'Cu4 Ni6 C24'
_cell_volume   561.16085541
_cell_formula_units_Z   2
loop_
 _symmetry_equiv_pos_site_id
 _symmetry_equiv_pos_as_xyz
  1  'x, y, z'
loop_
 _atom_site_type_symbol
 _atom_site_label
 _atom_site_symmetry_multiplicity
 _atom_site_fract_x
 _atom_site_fract_y
 _atom_site_fract_z
 _atom_site_occupancy
  Ni  Ni0  1  0.00000000  0.00000000  0.00000000  1
  Ni  Ni1  1  0.67927600  0.17927600  0.50000000  1
  Ni  Ni2  1  0.17927600  0.32072400  0.50000000  1
  Ni  Ni3  1  0.50000000  0.50000000  0.00000000  1
  Ni  Ni4  1  0.82072400  0.67927600  0.50000000  1
  Ni  Ni5  1  0.32072400  0.82072400  0.50000000  1
  Cu  Cu6  1  0.36692600  0.13307400  0.00000000  1
  Cu  Cu7  1  0.86692600  0.36692600  0.00000000  1
  Cu  Cu8  1  0.13307400  0.63307400  0.00000000  1
  Cu  Cu9  1  0.63307400  0.86692600  0.00000000  1
  C  C10  1  0.50000000  0.00000000  0.23327100  1
  C  C11  1  0.50000000  0.00000000  0.76672900  1
  C  C12  1  0.22089400  0.05544200  0.26024600  1
  C  C13  1  0.22089400  0.05544200  0.73975400  1
  C  C14  1  0.70346300  0.20346300  0.00000000  1
  C  C15  1  0.94455800  0.22089400  0.26024600  1
  C  C16  1  0.94455800  0.22089400  0.73975400  1
  C  C17  1  0.44455800  0.27910600  0.26024600  1
  C  C18  1  0.44455800  0.27910600  0.73975400  1
  C  C19  1  0.20346300  0.29653700  0.00000000  1
  C  C20  1  0.72089400  0.44455800  0.26024600  1
  C  C21  1  0.72089400  0.44455800  0.73975400  1
  C  C22  1  0.00000000  0.50000000  0.23327100  1
  C  C23  1  0.00000000  0.50000000  0.76672900  1
  C  C24  1  0.27910600  0.55544200  0.26024600  1
  C  C25  1  0.27910600  0.55544200  0.73975400  1
  C  C26  1  0.79653700  0.70346300  0.00000000  1
  C  C27  1  0.55544200  0.72089400  0.26024600  1
  C  C28  1  0.55544200  0.72089400  0.73975400  1
  C  C29  1  0.05544200  0.77910600  0.26024600  1
  C  C30  1  0.05544200  0.77910600  0.73975400  1
  C  C31  1  0.29653700  0.79653700  0.00000000  1
  C  C32  1  0.77910600  0.94455800  0.26024600  1
  C  C33  1  0.77910600  0.94455800  0.73975400  1
