# generated using pymatgen
data_CuNiC24
_symmetry_space_group_name_H-M   'P 1'
_cell_length_a   7.21470200
_cell_length_b   9.24263500
_cell_length_c   18.73481200
_cell_angle_alpha   90.00000000
_cell_angle_beta   90.00000000
_cell_angle_gamma   90.00000000
_symmetry_Int_Tables_number   1
_chemical_formula_structural   CuNiC24
_chemical_formula_sum   'Cu4 Ni4 C96'
_cell_volume   1249.29079364
_cell_formula_units_Z   4
loop_
 _symmetry_equiv_pos_site_id
 _symmetry_equiv_pos_as_xyz
  1  'x, y, z'
loop_
 _atom_site_type_symbol
 _atom_site_label
 _atom_site_symmetry_multiplicity
 _atom_site_fract_x
 _atom_site_fract_y
 _atom_site_fract_z
 _atom_site_occupancy
  Ni  Ni0  1  0.93343300  0.64580600  0.25000000  1
  Ni  Ni1  1  0.56656700  0.14580600  0.25000000  1
  Ni  Ni2  1  0.06656700  0.35419400  0.75000000  1
  Ni  Ni3  1  0.43343300  0.85419400  0.75000000  1
  Cu  Cu4  1  0.00000000  0.50000000  0.50000000  1
  Cu  Cu5  1  0.50000000  0.00000000  0.00000000  1
  Cu  Cu6  1  0.00000000  0.50000000  0.00000000  1
  Cu  Cu7  1  0.50000000  0.00000000  0.50000000  1
  C  C8  1  0.61157400  0.56277800  0.44018800  1
  C  C9  1  0.88842600  0.06277800  0.05981200  1
  C  C10  1  0.38842600  0.43722200  0.94018800  1
  C  C11  1  0.11157400  0.93722200  0.55981200  1
  C  C12  1  0.38842600  0.43722200  0.55981200  1
  C  C13  1  0.11157400  0.93722200  0.94018800  1
  C  C14  1  0.61157400  0.56277800  0.05981200  1
  C  C15  1  0.88842600  0.06277800  0.44018800  1
  C  C16  1  0.73241200  0.82476900  0.34292000  1
  C  C17  1  0.76758800  0.32476900  0.15708000  1
  C  C18  1  0.26758800  0.17523100  0.84292000  1
  C  C19  1  0.23241200  0.67523100  0.65708000  1
  C  C20  1  0.26758800  0.17523100  0.65708000  1
  C  C21  1  0.23241200  0.67523100  0.84292000  1
  C  C22  1  0.73241200  0.82476900  0.15708000  1
  C  C23  1  0.76758800  0.32476900  0.34292000  1
  C  C24  1  0.90369200  0.77001700  0.38598100  1
  C  C25  1  0.59630800  0.27001700  0.11401900  1
  C  C26  1  0.09630800  0.22998300  0.88598100  1
  C  C27  1  0.40369200  0.72998300  0.61401900  1
  C  C28  1  0.09630800  0.22998300  0.61401900  1
  C  C29  1  0.40369200  0.72998300  0.88598100  1
  C  C30  1  0.90369200  0.77001700  0.11401900  1
  C  C31  1  0.59630800  0.27001700  0.38598100  1
  C  C32  1  0.52265900  0.65275900  0.25000000  1
  C  C33  1  0.97734100  0.15275900  0.25000000  1
  C  C34  1  0.47734100  0.34724100  0.75000000  1
  C  C35  1  0.02265900  0.84724100  0.75000000  1
  C  C36  1  0.58573500  0.49126500  0.25000000  1
  C  C37  1  0.91426500  0.99126500  0.25000000  1
  C  C38  1  0.41426500  0.50873500  0.75000000  1
  C  C39  1  0.08573500  0.00873500  0.75000000  1
  C  C40  1  0.26221700  0.81496000  0.29090800  1
  C  C41  1  0.23778300  0.31496000  0.20909200  1
  C  C42  1  0.73778300  0.18504000  0.79090800  1
  C  C43  1  0.76221700  0.68504000  0.70909200  1
  C  C44  1  0.73778300  0.18504000  0.70909200  1
  C  C45  1  0.76221700  0.68504000  0.79090800  1
  C  C46  1  0.26221700  0.81496000  0.20909200  1
  C  C47  1  0.23778300  0.31496000  0.29090800  1
  C  C48  1  0.33704600  0.69145500  0.45285300  1
  C  C49  1  0.16295400  0.19145500  0.04714700  1
  C  C50  1  0.66295400  0.30854500  0.95285300  1
  C  C51  1  0.83704600  0.80854500  0.54714700  1
  C  C52  1  0.66295400  0.30854500  0.54714700  1
  C  C53  1  0.83704600  0.80854500  0.95285300  1
  C  C54  1  0.33704600  0.69145500  0.04714700  1
  C  C55  1  0.16295400  0.19145500  0.45285300  1
  C  C56  1  0.03535000  0.46333900  0.34646700  1
  C  C57  1  0.46465000  0.96333900  0.15353300  1
  C  C58  1  0.96465000  0.53666100  0.84646700  1
  C  C59  1  0.53535000  0.03666100  0.65353300  1
  C  C60  1  0.96465000  0.53666100  0.65353300  1
  C  C61  1  0.53535000  0.03666100  0.84646700  1
  C  C62  1  0.03535000  0.46333900  0.15353300  1
  C  C63  1  0.46465000  0.96333900  0.34646700  1
  C  C64  1  0.44358300  0.79008900  0.52032600  1
  C  C65  1  0.05641700  0.29008900  0.97967400  1
  C  C66  1  0.55641700  0.20991100  0.02032600  1
  C  C67  1  0.94358300  0.70991100  0.47967400  1
  C  C68  1  0.55641700  0.20991100  0.47967400  1
  C  C69  1  0.94358300  0.70991100  0.02032600  1
  C  C70  1  0.44358300  0.79008900  0.97967400  1
  C  C71  1  0.05641700  0.29008900  0.52032600  1
  C  C72  1  0.26672800  0.54070400  0.50084500  1
  C  C73  1  0.23327200  0.04070400  0.99915500  1
  C  C74  1  0.73327200  0.45929600  0.00084500  1
  C  C75  1  0.76672800  0.95929600  0.49915500  1
  C  C76  1  0.73327200  0.45929600  0.49915500  1
  C  C77  1  0.76672800  0.95929600  0.00084500  1
  C  C78  1  0.26672800  0.54070400  0.99915500  1
  C  C79  1  0.23327200  0.04070400  0.50084500  1
  C  C80  1  0.53072400  0.61990700  0.40658300  1
  C  C81  1  0.96927600  0.11990700  0.09341700  1
  C  C82  1  0.46927600  0.38009300  0.90658300  1
  C  C83  1  0.03072400  0.88009300  0.59341700  1
  C  C84  1  0.46927600  0.38009300  0.59341700  1
  C  C85  1  0.03072400  0.88009300  0.90658300  1
  C  C86  1  0.53072400  0.61990700  0.09341700  1
  C  C87  1  0.96927600  0.11990700  0.40658300  1
  C  C88  1  0.86371000  0.79857100  0.33716500  1
  C  C89  1  0.63629000  0.29857100  0.16283500  1
  C  C90  1  0.13629000  0.20142900  0.83716500  1
  C  C91  1  0.36371000  0.70142900  0.66283500  1
  C  C92  1  0.13629000  0.20142900  0.66283500  1
  C  C93  1  0.36371000  0.70142900  0.83716500  1
  C  C94  1  0.86371000  0.79857100  0.16283500  1
  C  C95  1  0.63629000  0.29857100  0.33716500  1
  C  C96  1  0.63240900  0.58961900  0.25000000  1
  C  C97  1  0.86759100  0.08961900  0.25000000  1
  C  C98  1  0.36759100  0.41038100  0.75000000  1
  C  C99  1  0.13240900  0.91038100  0.75000000  1
  C  C100  1  0.22057700  0.75548100  0.25000000  1
  C  C101  1  0.27942300  0.25548100  0.25000000  1
  C  C102  1  0.77942300  0.24451900  0.75000000  1
  C  C103  1  0.72057700  0.74451900  0.75000000  1
