# generated using pymatgen
data_Cu2Ni3C19
_symmetry_space_group_name_H-M   'P 1'
_cell_length_a   5.89669452
_cell_length_b   5.89669452
_cell_length_c   8.67607233
_cell_angle_alpha   88.91131634
_cell_angle_beta   88.91131634
_cell_angle_gamma   59.57147964
_symmetry_Int_Tables_number   1
_chemical_formula_structural   Cu2Ni3C19
_chemical_formula_sum   'Cu2 Ni3 C19'
_cell_volume   260.06110795
_cell_formula_units_Z   1
loop_
 _symmetry_equiv_pos_site_id
 _symmetry_equiv_pos_as_xyz
  1  'x, y, z'
loop_
 _atom_site_type_symbol
 _atom_site_label
 _atom_site_symmetry_multiplicity
 _atom_site_fract_x
 _atom_site_fract_y
 _atom_site_fract_z
 _atom_site_occupancy
  C  C0  1  0.83006100  0.83006100  0.20816400  1
  C  C1  1  0.66066300  0.16840000  0.71082100  1
  C  C2  1  0.16840000  0.66066300  0.71082100  1
  Ni  Ni3  1  0.83176300  0.33157100  0.20470300  1
  Ni  Ni4  1  0.33157100  0.83176300  0.20470300  1
  Ni  Ni5  1  0.16603200  0.16603200  0.70762500  1
  Cu  Cu6  1  0.66753500  0.66753500  0.48935800  1
  Cu  Cu7  1  0.33265500  0.33265500  0.98820700  1
  C  C8  1  0.82501500  0.34687100  0.59992500  1
  C  C9  1  0.52724400  0.52724400  0.34871600  1
  C  C10  1  0.67130700  0.67130700  0.09385400  1
  C  C11  1  0.99392200  0.99392200  0.31106200  1
  C  C12  1  0.99526800  0.99526800  0.81452200  1
  C  C13  1  0.34687100  0.82501500  0.59992500  1
  C  C14  1  0.95166100  0.53331700  0.34625400  1
  C  C15  1  0.53331700  0.95166100  0.34625400  1
  C  C16  1  0.17417900  0.17417900  0.10011800  1
  C  C17  1  0.83110800  0.83110800  0.60213400  1
  C  C18  1  0.48128000  0.04852400  0.84612700  1
  C  C19  1  0.04852400  0.48128000  0.84612700  1
  C  C20  1  0.33915000  0.33915000  0.59829900  1
  C  C21  1  0.65269400  0.16891300  0.09892200  1
  C  C22  1  0.47665200  0.47665200  0.84045900  1
  C  C23  1  0.16891300  0.65269400  0.09892200  1
