# generated using pymatgen
data_Cu(NiC)2
_symmetry_space_group_name_H-M   'P 1'
_cell_length_a   5.48004051
_cell_length_b   5.48004051
_cell_length_c   14.61213032
_cell_angle_alpha   89.93815551
_cell_angle_beta   89.93815551
_cell_angle_gamma   59.76883754
_symmetry_Int_Tables_number   1
_chemical_formula_structural   Cu(NiC)2
_chemical_formula_sum   'Cu6 Ni12 C12'
_cell_volume   379.13600256
_cell_formula_units_Z   6
loop_
 _symmetry_equiv_pos_site_id
 _symmetry_equiv_pos_as_xyz
  1  'x, y, z'
loop_
 _atom_site_type_symbol
 _atom_site_label
 _atom_site_symmetry_multiplicity
 _atom_site_fract_x
 _atom_site_fract_y
 _atom_site_fract_z
 _atom_site_occupancy
  C  C0  1  0.99624500  0.00024900  0.64294700  1
  C  C1  1  0.00024900  0.99624500  0.14294700  1
  C  C2  1  0.67695100  0.67778200  0.80990100  1
  C  C3  1  0.67827900  0.67391600  0.52402600  1
  C  C4  1  0.67778200  0.67695100  0.30990100  1
  C  C5  1  0.67391600  0.67827900  0.02402600  1
  C  C6  1  0.32608400  0.32172100  0.97597400  1
  C  C7  1  0.32221800  0.32304900  0.69009900  1
  C  C8  1  0.32172100  0.32608400  0.47597400  1
  C  C9  1  0.32304900  0.32221800  0.19009900  1
  C  C10  1  0.99975100  0.00375500  0.85705300  1
  C  C11  1  0.00375500  0.99975100  0.35705300  1
  Ni  Ni12  1  0.00361800  0.29160700  0.75190600  1
  Ni  Ni13  1  0.29160700  0.00361800  0.25190600  1
  Ni  Ni14  1  0.36805200  0.95602300  0.91770400  1
  Ni  Ni15  1  0.95602300  0.36805200  0.41770400  1
  Ni  Ni16  1  0.33888200  0.03453200  0.58463400  1
  Ni  Ni17  1  0.03453200  0.33888200  0.08463400  1
  Ni  Ni18  1  0.96546800  0.66111800  0.91536600  1
  Ni  Ni19  1  0.66111800  0.96546800  0.41536600  1
  Ni  Ni20  1  0.04397700  0.63194800  0.58229600  1
  Ni  Ni21  1  0.63194800  0.04397700  0.08229600  1
  Ni  Ni22  1  0.70839300  0.99638200  0.74809400  1
  Ni  Ni23  1  0.99638200  0.70839300  0.24809400  1
  Cu  Cu24  1  0.66545400  0.35565200  0.91804600  1
  Cu  Cu25  1  0.35565200  0.66545400  0.41804600  1
  Cu  Cu26  1  0.64434800  0.33454600  0.58195400  1
  Cu  Cu27  1  0.33454600  0.64434800  0.08195400  1
  Cu  Cu28  1  0.31133600  0.68866400  0.75000000  1
  Cu  Cu29  1  0.68866400  0.31133600  0.25000000  1
