# generated using pymatgen
data_CuNi4C11
_symmetry_space_group_name_H-M   'P 1'
_cell_length_a   22.05537700
_cell_length_b   11.04832400
_cell_length_c   16.91252637
_cell_angle_alpha   60.47507953
_cell_angle_beta   90.00000000
_cell_angle_gamma   90.00000000
_symmetry_Int_Tables_number   1
_chemical_formula_structural   CuNi4C11
_chemical_formula_sum   'Cu4 Ni16 C44'
_cell_volume   3585.99124521
_cell_formula_units_Z   4
loop_
 _symmetry_equiv_pos_site_id
 _symmetry_equiv_pos_as_xyz
  1  'x, y, z'
loop_
 _atom_site_type_symbol
 _atom_site_label
 _atom_site_symmetry_multiplicity
 _atom_site_fract_x
 _atom_site_fract_y
 _atom_site_fract_z
 _atom_site_occupancy
  Ni  Ni0  1  0.64807200  0.56510800  0.49578100  1
  Ni  Ni1  1  0.85192800  0.56510800  0.99578100  1
  Ni  Ni2  1  0.35192800  0.43489200  0.50421900  1
  Ni  Ni3  1  0.14807200  0.43489200  0.00421900  1
  Ni  Ni4  1  0.55922400  0.10891100  0.57571800  1
  Ni  Ni5  1  0.94077600  0.10891100  0.07571800  1
  Ni  Ni6  1  0.44077600  0.89108900  0.42428200  1
  Ni  Ni7  1  0.05922400  0.89108900  0.92428200  1
  Ni  Ni8  1  0.40304300  0.25781200  0.69039900  1
  Ni  Ni9  1  0.09695700  0.25781200  0.19039900  1
  Ni  Ni10  1  0.59695700  0.74218800  0.30960100  1
  Ni  Ni11  1  0.90304300  0.74218800  0.80960100  1
  Ni  Ni12  1  0.50810700  0.68855000  0.59311700  1
  Ni  Ni13  1  0.99189300  0.68855000  0.09311700  1
  Ni  Ni14  1  0.49189300  0.31145000  0.40688300  1
  Ni  Ni15  1  0.00810700  0.31145000  0.90688300  1
  Cu  Cu16  1  0.53916000  0.51678000  0.55063500  1
  Cu  Cu17  1  0.96084000  0.51678000  0.05063500  1
  Cu  Cu18  1  0.46084000  0.48322000  0.44936500  1
  Cu  Cu19  1  0.03916000  0.48322000  0.94936500  1
  C  C20  1  0.56492800  0.30568500  0.69833400  1
  C  C21  1  0.93507200  0.30568500  0.19833400  1
  C  C22  1  0.43507200  0.69431500  0.30166600  1
  C  C23  1  0.06492800  0.69431500  0.80166600  1
  C  C24  1  0.61985900  0.71182600  0.40838800  1
  C  C25  1  0.88014100  0.71182600  0.90838800  1
  C  C26  1  0.38014100  0.28817400  0.59161200  1
  C  C27  1  0.11985900  0.28817400  0.09161200  1
  C  C28  1  0.67461100  0.60185800  0.56090500  1
  C  C29  1  0.82538900  0.60185800  0.06090500  1
  C  C30  1  0.32538900  0.39814200  0.43909500  1
  C  C31  1  0.17461100  0.39814200  0.93909500  1
  C  C32  1  0.65952000  0.45275200  0.47489500  1
  C  C33  1  0.84048000  0.45275200  0.97489500  1
  C  C34  1  0.34048000  0.54724800  0.52510500  1
  C  C35  1  0.15952000  0.54724800  0.02510500  1
  C  C36  1  0.61764100  0.16156000  0.53085300  1
  C  C37  1  0.88235900  0.16156000  0.03085300  1
  C  C38  1  0.38235900  0.83844000  0.46914700  1
  C  C39  1  0.11764100  0.83844000  0.96914700  1
  C  C40  1  0.53970100  0.99910800  0.66542400  1
  C  C41  1  0.96029900  0.99910800  0.16542400  1
  C  C42  1  0.46029900  0.00089200  0.33457600  1
  C  C43  1  0.03970100  0.00089200  0.83457600  1
  C  C44  1  0.43683800  0.12594700  0.73508300  1
  C  C45  1  0.06316200  0.12594700  0.23508300  1
  C  C46  1  0.56316200  0.87405300  0.26491700  1
  C  C47  1  0.93683800  0.87405300  0.76491700  1
  C  C48  1  0.38935300  0.36497100  0.71444400  1
  C  C49  1  0.11064700  0.36497100  0.21444400  1
  C  C50  1  0.61064700  0.63502900  0.28555600  1
  C  C51  1  0.88935300  0.63502900  0.78555600  1
  C  C52  1  0.50011800  0.81419100  0.48533600  1
  C  C53  1  0.99988200  0.81419100  0.98533600  1
  C  C54  1  0.49988200  0.18580900  0.51466400  1
  C  C55  1  0.00011800  0.18580900  0.01466400  1
  C  C56  1  0.45161800  0.64180700  0.64531400  1
  C  C57  1  0.04838200  0.64180700  0.14531400  1
  C  C58  1  0.54838200  0.35819300  0.35468600  1
  C  C59  1  0.95161800  0.35819300  0.85468600  1
  C  C60  1  0.57158700  0.69934100  0.61923100  1
  C  C61  1  0.92841300  0.69934100  0.11923100  1
  C  C62  1  0.42841300  0.30065900  0.38076900  1
  C  C63  1  0.07158700  0.30065900  0.88076900  1
