# generated using pymatgen
data_Cu(NiC4)7
_symmetry_space_group_name_H-M   'P 1'
_cell_length_a   18.76365100
_cell_length_b   5.24410500
_cell_length_c   10.93798543
_cell_angle_alpha   84.57682414
_cell_angle_beta   90.00000000
_cell_angle_gamma   90.00000000
_symmetry_Int_Tables_number   1
_chemical_formula_structural   Cu(NiC4)7
_chemical_formula_sum   'Cu2 Ni14 C56'
_cell_volume   1071.46433655
_cell_formula_units_Z   2
loop_
 _symmetry_equiv_pos_site_id
 _symmetry_equiv_pos_as_xyz
  1  'x, y, z'
loop_
 _atom_site_type_symbol
 _atom_site_label
 _atom_site_symmetry_multiplicity
 _atom_site_fract_x
 _atom_site_fract_y
 _atom_site_fract_z
 _atom_site_occupancy
  C  C0  1  0.97620600  0.79867800  0.80516500  1
  C  C1  1  0.52379400  0.79867800  0.80516500  1
  C  C2  1  0.02379400  0.20132200  0.19483500  1
  C  C3  1  0.47620600  0.20132200  0.19483500  1
  C  C4  1  0.25000000  0.80628100  0.72447400  1
  C  C5  1  0.75000000  0.75076100  0.01687200  1
  C  C6  1  0.25000000  0.24923900  0.98312800  1
  C  C7  1  0.75000000  0.19371900  0.27552600  1
  Ni  Ni8  1  0.87414000  0.82826700  0.53451200  1
  Ni  Ni9  1  0.62586000  0.82826700  0.53451200  1
  Ni  Ni10  1  0.75000000  0.62007100  0.66752200  1
  Ni  Ni11  1  0.40207000  0.73483000  0.04451300  1
  Ni  Ni12  1  0.09793000  0.73483000  0.04451300  1
  Ni  Ni13  1  0.91561600  0.67532400  0.29722700  1
  Ni  Ni14  1  0.58438400  0.67532400  0.29722700  1
  Ni  Ni15  1  0.41561600  0.32467600  0.70277300  1
  Ni  Ni16  1  0.08438400  0.32467600  0.70277300  1
  Ni  Ni17  1  0.90207000  0.26517000  0.95548700  1
  Ni  Ni18  1  0.59793000  0.26517000  0.95548700  1
  Ni  Ni19  1  0.25000000  0.37992900  0.33247800  1
  Ni  Ni20  1  0.12586000  0.17173300  0.46548800  1
  Ni  Ni21  1  0.37414000  0.17173300  0.46548800  1
  Cu  Cu22  1  0.25000000  0.80747400  0.28962600  1
  Cu  Cu23  1  0.75000000  0.19252600  0.71037400  1
  C  C24  1  0.34130500  0.93434700  0.52190400  1
  C  C25  1  0.15869500  0.93434700  0.52190400  1
  C  C26  1  0.40715600  0.97752100  0.11775700  1
  C  C27  1  0.09284400  0.97752100  0.11775700  1
  C  C28  1  0.75000000  0.84421100  0.74048800  1
  C  C29  1  0.92227600  0.84807400  0.64719100  1
  C  C30  1  0.57772400  0.84807400  0.64719100  1
  C  C31  1  0.46976300  0.74988700  0.95834100  1
  C  C32  1  0.03023700  0.74988700  0.95834100  1
  C  C33  1  0.96491200  0.90118000  0.24878100  1
  C  C34  1  0.53508800  0.90118000  0.24878100  1
  C  C35  1  0.33383900  0.71394800  0.97700600  1
  C  C36  1  0.16616100  0.71394800  0.97700600  1
  C  C37  1  0.92226900  0.67437400  0.44580900  1
  C  C38  1  0.57773100  0.67437400  0.44580900  1
  C  C39  1  0.84042700  0.69850300  0.25479100  1
  C  C40  1  0.65957300  0.69850300  0.25479100  1
  C  C41  1  0.81643800  0.60685100  0.57697200  1
  C  C42  1  0.68356200  0.60685100  0.57697200  1
  C  C43  1  0.25000000  0.64045600  0.25299700  1
  C  C44  1  0.45486200  0.57509400  0.72556100  1
  C  C45  1  0.04513800  0.57509400  0.72556100  1
  C  C46  1  0.91654100  0.49988400  0.85786400  1
  C  C47  1  0.58345900  0.49988400  0.85786400  1
  C  C48  1  0.41654100  0.50011600  0.14213600  1
  C  C49  1  0.08345900  0.50011600  0.14213600  1
  C  C50  1  0.95486200  0.42490600  0.27443900  1
  C  C51  1  0.54513800  0.42490600  0.27443900  1
  C  C52  1  0.75000000  0.35954400  0.74700300  1
  C  C53  1  0.31643800  0.39314900  0.42302800  1
  C  C54  1  0.18356200  0.39314900  0.42302800  1
  C  C55  1  0.15957300  0.30149700  0.74520900  1
  C  C56  1  0.34042700  0.30149700  0.74520900  1
  C  C57  1  0.42226900  0.32562600  0.55419100  1
  C  C58  1  0.07773100  0.32562600  0.55419100  1
  C  C59  1  0.83383900  0.28605200  0.02299400  1
  C  C60  1  0.66616100  0.28605200  0.02299400  1
  C  C61  1  0.46491200  0.09882000  0.75121900  1
  C  C62  1  0.03508800  0.09882000  0.75121900  1
  C  C63  1  0.96976300  0.25011300  0.04165900  1
  C  C64  1  0.53023700  0.25011300  0.04165900  1
  C  C65  1  0.42227600  0.15192600  0.35280900  1
  C  C66  1  0.07772400  0.15192600  0.35280900  1
  C  C67  1  0.25000000  0.15578900  0.25951200  1
  C  C68  1  0.90715600  0.02247900  0.88224300  1
  C  C69  1  0.59284400  0.02247900  0.88224300  1
  C  C70  1  0.65869500  0.06565300  0.47809600  1
  C  C71  1  0.84130500  0.06565300  0.47809600  1
