# generated using pymatgen
data_Cu8Ni5C6
_symmetry_space_group_name_H-M   'P 1'
_cell_length_a   5.89288300
_cell_length_b   6.34341300
_cell_length_c   34.43176012
_cell_angle_alpha   88.00519346
_cell_angle_beta   90.00000000
_cell_angle_gamma   90.00000000
_symmetry_Int_Tables_number   1
_chemical_formula_structural   Cu8Ni5C6
_chemical_formula_sum   'Cu32 Ni20 C24'
_cell_volume   1286.31330617
_cell_formula_units_Z   4
loop_
 _symmetry_equiv_pos_site_id
 _symmetry_equiv_pos_as_xyz
  1  'x, y, z'
loop_
 _atom_site_type_symbol
 _atom_site_label
 _atom_site_symmetry_multiplicity
 _atom_site_fract_x
 _atom_site_fract_y
 _atom_site_fract_z
 _atom_site_occupancy
  C  C0  1  0.25611700  0.71517000  0.01194300  1
  C  C1  1  0.24388300  0.71517000  0.51194300  1
  C  C2  1  0.67147900  0.72170000  0.74576900  1
  C  C3  1  0.82852100  0.72170000  0.24576900  1
  C  C4  1  0.14520500  0.69149100  0.33303100  1
  C  C5  1  0.30802200  0.69686300  0.66120000  1
  C  C6  1  0.19197800  0.69686300  0.16120000  1
  C  C7  1  0.35479500  0.69149100  0.83303100  1
  C  C8  1  0.68620000  0.67851100  0.91701700  1
  C  C9  1  0.66367500  0.74212200  0.58362400  1
  C  C10  1  0.81380000  0.67851100  0.41701700  1
  C  C11  1  0.83632500  0.74212200  0.08362400  1
  C  C12  1  0.16367500  0.25787800  0.91637600  1
  C  C13  1  0.31380000  0.32148900  0.08298300  1
  C  C14  1  0.18620000  0.32148900  0.58298300  1
  C  C15  1  0.33632500  0.25787800  0.41637600  1
  C  C16  1  0.80802200  0.30313700  0.83880000  1
  C  C17  1  0.64520500  0.30850900  0.16696900  1
  C  C18  1  0.69197800  0.30313700  0.33880000  1
  C  C19  1  0.85479500  0.30850900  0.66696900  1
  C  C20  1  0.32852100  0.27830000  0.25423100  1
  C  C21  1  0.17147900  0.27830000  0.75423100  1
  C  C22  1  0.75611700  0.28483000  0.48805700  1
  C  C23  1  0.74388300  0.28483000  0.98805700  1
  Ni  Ni24  1  0.99590100  0.46999300  0.71081400  1
  Ni  Ni25  1  0.50409900  0.46999300  0.21081400  1
  Ni  Ni26  1  0.43379400  0.49854100  0.13012800  1
  Ni  Ni27  1  0.46480400  0.46013800  0.36986600  1
  Ni  Ni28  1  0.06620600  0.49854100  0.63012800  1
  Ni  Ni29  1  0.03519600  0.46013800  0.86986600  1
  Ni  Ni30  1  0.53883900  0.43709000  0.44868000  1
  Ni  Ni31  1  0.47251800  0.50940800  0.04241700  1
  Ni  Ni32  1  0.96116100  0.43709000  0.94868000  1
  Ni  Ni33  1  0.02748200  0.50940800  0.54241700  1
  Ni  Ni34  1  0.97251800  0.49059200  0.45758300  1
  Ni  Ni35  1  0.46116100  0.56291000  0.55132000  1
  Ni  Ni36  1  0.52748200  0.49059200  0.95758300  1
  Ni  Ni37  1  0.03883900  0.56291000  0.05132000  1
  Ni  Ni38  1  0.96480400  0.53986200  0.13013400  1
  Ni  Ni39  1  0.93379400  0.50145900  0.36987200  1
  Ni  Ni40  1  0.53519600  0.53986200  0.63013400  1
  Ni  Ni41  1  0.56620600  0.50145900  0.86987200  1
  Ni  Ni42  1  0.49590100  0.53000700  0.78918600  1
  Ni  Ni43  1  0.00409900  0.53000700  0.28918600  1
  Cu  Cu44  1  0.59147400  0.04953800  0.96066800  1
  Cu  Cu45  1  0.55396400  0.94960000  0.53752400  1
  Cu  Cu46  1  0.90852600  0.04953800  0.46066800  1
  Cu  Cu47  1  0.94603600  0.94960000  0.03752400  1
  Cu  Cu48  1  0.37199000  0.81315400  0.90414600  1
  Cu  Cu49  1  0.37269700  0.89784500  0.60849900  1
  Cu  Cu50  1  0.12801000  0.81315400  0.40414600  1
  Cu  Cu51  1  0.12730300  0.89784500  0.10849900  1
  Cu  Cu52  1  0.63066100  0.88497400  0.82859000  1
  Cu  Cu53  1  0.65248100  0.85358300  0.68551500  1
  Cu  Cu54  1  0.84751900  0.85358300  0.18551500  1
  Cu  Cu55  1  0.86933900  0.88497400  0.32859000  1
  Cu  Cu56  1  0.37945200  0.88913800  0.74791300  1
  Cu  Cu57  1  0.12054800  0.88913800  0.24791300  1
  Cu  Cu58  1  0.50239500  0.49889700  0.28818600  1
  Cu  Cu59  1  0.99760500  0.49889700  0.78818600  1
  Cu  Cu60  1  0.49760500  0.50110300  0.71181400  1
  Cu  Cu61  1  0.00239500  0.50110300  0.21181400  1
  Cu  Cu62  1  0.62054800  0.11086200  0.25208700  1
  Cu  Cu63  1  0.87945200  0.11086200  0.75208700  1
  Cu  Cu64  1  0.15248100  0.14641700  0.81448500  1
  Cu  Cu65  1  0.36933900  0.11502600  0.17141000  1
  Cu  Cu66  1  0.13066100  0.11502600  0.67141000  1
  Cu  Cu67  1  0.34751900  0.14641700  0.31448500  1
  Cu  Cu68  1  0.62730300  0.10215500  0.39150100  1
  Cu  Cu69  1  0.62801000  0.18684600  0.09585400  1
  Cu  Cu70  1  0.87269700  0.10215500  0.89150100  1
  Cu  Cu71  1  0.87199000  0.18684600  0.59585400  1
  Cu  Cu72  1  0.05396400  0.05040000  0.96247600  1
  Cu  Cu73  1  0.09147400  0.95046200  0.53933200  1
  Cu  Cu74  1  0.44603600  0.05040000  0.46247600  1
  Cu  Cu75  1  0.40852600  0.95046200  0.03933200  1
