# generated using pymatgen
data_CuNiC9
_symmetry_space_group_name_H-M   'P 1'
_cell_length_a   9.35893300
_cell_length_b   9.74982100
_cell_length_c   10.64147400
_cell_angle_alpha   90.00000000
_cell_angle_beta   90.00000000
_cell_angle_gamma   90.00000000
_symmetry_Int_Tables_number   1
_chemical_formula_structural   CuNiC9
_chemical_formula_sum   'Cu8 Ni8 C72'
_cell_volume   971.01238421
_cell_formula_units_Z   8
loop_
 _symmetry_equiv_pos_site_id
 _symmetry_equiv_pos_as_xyz
  1  'x, y, z'
loop_
 _atom_site_type_symbol
 _atom_site_label
 _atom_site_symmetry_multiplicity
 _atom_site_fract_x
 _atom_site_fract_y
 _atom_site_fract_z
 _atom_site_occupancy
  Ni  Ni0  1  0.83465600  0.41275900  0.34367100  1
  Ni  Ni1  1  0.33465600  0.08724100  0.65632900  1
  Ni  Ni2  1  0.16534400  0.91275900  0.15632900  1
  Ni  Ni3  1  0.66534400  0.58724100  0.84367100  1
  Ni  Ni4  1  0.16534400  0.58724100  0.65632900  1
  Ni  Ni5  1  0.66534400  0.91275900  0.34367100  1
  Ni  Ni6  1  0.83465600  0.08724100  0.84367100  1
  Ni  Ni7  1  0.33465600  0.41275900  0.15632900  1
  C  C8  1  0.00889800  0.54494800  0.25670100  1
  C  C9  1  0.50889800  0.95505200  0.74329900  1
  C  C10  1  0.99110200  0.04494800  0.24329900  1
  C  C11  1  0.49110200  0.45505200  0.75670100  1
  C  C12  1  0.99110200  0.45505200  0.74329900  1
  C  C13  1  0.49110200  0.04494800  0.25670100  1
  C  C14  1  0.00889800  0.95505200  0.75670100  1
  C  C15  1  0.50889800  0.54494800  0.24329900  1
  C  C16  1  0.85898500  0.63582900  0.28502500  1
  C  C17  1  0.35898500  0.86417100  0.71497500  1
  C  C18  1  0.14101500  0.13582900  0.21497500  1
  C  C19  1  0.64101500  0.36417100  0.78502500  1
  C  C20  1  0.14101500  0.36417100  0.71497500  1
  C  C21  1  0.64101500  0.13582900  0.28502500  1
  C  C22  1  0.85898500  0.86417100  0.78502500  1
  C  C23  1  0.35898500  0.63582900  0.21497500  1
  C  C24  1  0.00491100  0.35863900  0.49356700  1
  C  C25  1  0.50491100  0.14136100  0.50643300  1
  C  C26  1  0.99508900  0.85863900  0.00643300  1
  C  C27  1  0.49508900  0.64136100  0.99356700  1
  C  C28  1  0.99508900  0.64136100  0.50643300  1
  C  C29  1  0.49508900  0.85863900  0.49356700  1
  C  C30  1  0.00491100  0.14136100  0.99356700  1
  C  C31  1  0.50491100  0.35863900  0.00643300  1
  C  C32  1  0.93717100  0.21722200  0.42302200  1
  C  C33  1  0.43717100  0.28277800  0.57697800  1
  C  C34  1  0.06282900  0.71722200  0.07697800  1
  C  C35  1  0.56282900  0.78277800  0.92302200  1
  C  C36  1  0.06282900  0.78277800  0.57697800  1
  C  C37  1  0.56282900  0.71722200  0.42302200  1
  C  C38  1  0.93717100  0.28277800  0.92302200  1
  C  C39  1  0.43717100  0.21722200  0.07697800  1
  C  C40  1  0.89031700  0.30036300  0.16241000  1
  C  C41  1  0.39031700  0.19963700  0.83759000  1
  C  C42  1  0.10968300  0.80036300  0.33759000  1
  C  C43  1  0.60968300  0.69963700  0.66241000  1
  C  C44  1  0.10968300  0.69963700  0.83759000  1
  C  C45  1  0.60968300  0.80036300  0.16241000  1
  C  C46  1  0.89031700  0.19963700  0.66241000  1
  C  C47  1  0.39031700  0.30036300  0.33759000  1
  C  C48  1  0.71629200  0.34381700  0.16583600  1
  C  C49  1  0.21629200  0.15618300  0.83416400  1
  C  C50  1  0.28370800  0.84381700  0.33416400  1
  C  C51  1  0.78370800  0.65618300  0.66583600  1
  C  C52  1  0.28370800  0.65618300  0.83416400  1
  C  C53  1  0.78370800  0.84381700  0.16583600  1
  C  C54  1  0.71629200  0.15618300  0.66583600  1
  C  C55  1  0.21629200  0.34381700  0.33416400  1
  Cu  Cu56  1  0.65239300  0.45483200  0.42786200  1
  Cu  Cu57  1  0.15239300  0.04516800  0.57213800  1
  Cu  Cu58  1  0.34760700  0.95483200  0.07213800  1
  Cu  Cu59  1  0.84760700  0.54516800  0.92786200  1
  Cu  Cu60  1  0.34760700  0.54516800  0.57213800  1
  Cu  Cu61  1  0.84760700  0.95483200  0.42786200  1
  Cu  Cu62  1  0.65239300  0.04516800  0.92786200  1
  Cu  Cu63  1  0.15239300  0.45483200  0.07213800  1
  C  C64  1  0.92432000  0.55924900  0.31744000  1
  C  C65  1  0.42432000  0.94075100  0.68256000  1
  C  C66  1  0.07568000  0.05924900  0.18256000  1
  C  C67  1  0.57568000  0.44075100  0.81744000  1
  C  C68  1  0.07568000  0.44075100  0.68256000  1
  C  C69  1  0.57568000  0.05924900  0.31744000  1
  C  C70  1  0.92432000  0.94075100  0.81744000  1
  C  C71  1  0.42432000  0.55924900  0.18256000  1
  C  C72  1  0.96139600  0.31932400  0.41265800  1
  C  C73  1  0.46139600  0.18067600  0.58734200  1
  C  C74  1  0.03860400  0.81932400  0.08734200  1
  C  C75  1  0.53860400  0.68067600  0.91265800  1
  C  C76  1  0.03860400  0.68067600  0.58734200  1
  C  C77  1  0.53860400  0.81932400  0.41265800  1
  C  C78  1  0.96139600  0.18067600  0.91265800  1
  C  C79  1  0.46139600  0.31932400  0.08734200  1
  C  C80  1  0.80255800  0.31412400  0.21822500  1
  C  C81  1  0.30255800  0.18587600  0.78177500  1
  C  C82  1  0.19744200  0.81412400  0.28177500  1
  C  C83  1  0.69744200  0.68587600  0.71822500  1
  C  C84  1  0.19744200  0.68587600  0.78177500  1
  C  C85  1  0.69744200  0.81412400  0.21822500  1
  C  C86  1  0.80255800  0.18587600  0.71822500  1
  C  C87  1  0.30255800  0.31412400  0.28177500  1
