# generated using pymatgen
data_CuNiC18
_symmetry_space_group_name_H-M   'P 1'
_cell_length_a   9.23414348
_cell_length_b   8.38855570
_cell_length_c   8.41952492
_cell_angle_alpha   60.45380375
_cell_angle_beta   63.16288880
_cell_angle_gamma   90.35393989
_symmetry_Int_Tables_number   1
_chemical_formula_structural   CuNiC18
_chemical_formula_sum   'Cu2 Ni2 C36'
_cell_volume   483.77372243
_cell_formula_units_Z   2
loop_
 _symmetry_equiv_pos_site_id
 _symmetry_equiv_pos_as_xyz
  1  'x, y, z'
loop_
 _atom_site_type_symbol
 _atom_site_label
 _atom_site_symmetry_multiplicity
 _atom_site_fract_x
 _atom_site_fract_y
 _atom_site_fract_z
 _atom_site_occupancy
  C  C0  1  0.12599600  0.74517100  0.19556200  1
  C  C1  1  0.13638200  0.32027900  0.94145200  1
  C  C2  1  0.37471200  0.17844400  0.37650100  1
  C  C3  1  0.62528800  0.82155600  0.62349900  1
  C  C4  1  0.86361800  0.67972100  0.05854800  1
  C  C5  1  0.87400400  0.25482900  0.80443800  1
  Ni  Ni6  1  0.56523300  0.85972100  0.28423800  1
  Ni  Ni7  1  0.43476700  0.14027900  0.71576200  1
  Cu  Cu8  1  0.03307300  0.34405600  0.31459400  1
  Cu  Cu9  1  0.96692700  0.65594400  0.68540600  1
  C  C10  1  0.24450200  0.04914600  0.22095700  1
  C  C11  1  0.24735200  0.45967200  0.49140200  1
  C  C12  1  0.24053500  0.73673800  0.81063600  1
  C  C13  1  0.75946500  0.26326200  0.18936400  1
  C  C14  1  0.75264800  0.54032800  0.50859800  1
  C  C15  1  0.75549800  0.95085400  0.77904300  1
  C  C16  1  0.12168500  0.83673200  0.37471700  1
  C  C17  1  0.25289300  0.13113800  0.00846400  1
  C  C18  1  0.17020100  0.17082000  0.31656600  1
  C  C19  1  0.17019800  0.48335700  0.34774800  1
  C  C20  1  0.09947400  0.45646900  0.69079700  1
  C  C21  1  0.10305200  0.76688300  0.74195000  1
  C  C22  1  0.41299900  0.05018300  0.21261200  1
  C  C23  1  0.27359300  0.26082900  0.58056700  1
  C  C24  1  0.40256500  0.62514400  0.36123200  1
  C  C25  1  0.17920800  0.51827400  0.99365200  1
  C  C26  1  0.23586500  0.86087700  0.89672600  1
  C  C27  1  0.41458600  0.78768700  0.62161300  1
  C  C28  1  0.58541400  0.21231300  0.37838700  1
  C  C29  1  0.76413500  0.13912300  0.10327400  1
  C  C30  1  0.82079200  0.48172600  0.00634800  1
  C  C31  1  0.59743500  0.37485600  0.63876800  1
  C  C32  1  0.72640700  0.73917100  0.41943300  1
  C  C33  1  0.58700100  0.94981700  0.78738800  1
  C  C34  1  0.89694800  0.23311700  0.25805000  1
  C  C35  1  0.90052600  0.54353100  0.30920300  1
  C  C36  1  0.82980200  0.51664300  0.65225200  1
  C  C37  1  0.82979900  0.82918000  0.68343400  1
  C  C38  1  0.74710700  0.86886200  0.99153600  1
  C  C39  1  0.87831500  0.16326800  0.62528300  1
