# generated using pymatgen
data_CuNi2C33
_symmetry_space_group_name_H-M   'P 1'
_cell_length_a   8.56691952
_cell_length_b   8.56691952
_cell_length_c   8.56691977
_cell_angle_alpha   60.42681117
_cell_angle_beta   60.42681117
_cell_angle_gamma   60.42681664
_symmetry_Int_Tables_number   1
_chemical_formula_structural   CuNi2C33
_chemical_formula_sum   'Cu1 Ni2 C33'
_cell_volume   448.87989295
_cell_formula_units_Z   1
loop_
 _symmetry_equiv_pos_site_id
 _symmetry_equiv_pos_as_xyz
  1  'x, y, z'
loop_
 _atom_site_type_symbol
 _atom_site_label
 _atom_site_symmetry_multiplicity
 _atom_site_fract_x
 _atom_site_fract_y
 _atom_site_fract_z
 _atom_site_occupancy
  C  C0  1  0.85704100  0.85704100  0.85704100  1
  C  C1  1  0.64393000  0.64393000  0.64393000  1
  C  C2  1  0.35563900  0.35563900  0.35563900  1
  Ni  Ni3  1  0.00304700  0.00304700  0.00304700  1
  Ni  Ni4  1  0.50089800  0.50089800  0.50089800  1
  Cu  Cu5  1  0.14258400  0.14258400  0.14258400  1
  C  C6  1  0.75109000  0.45511700  0.04345500  1
  C  C7  1  0.45511700  0.04345500  0.75109000  1
  C  C8  1  0.04345500  0.75109000  0.45511700  1
  C  C9  1  0.95731500  0.24802000  0.54109300  1
  C  C10  1  0.54109300  0.95731500  0.24802000  1
  C  C11  1  0.24802000  0.54109300  0.95731500  1
  C  C12  1  0.88106300  0.68487400  0.50553900  1
  C  C13  1  0.68487400  0.50553900  0.88106300  1
  C  C14  1  0.94416300  0.08500800  0.73876300  1
  C  C15  1  0.50553900  0.88106300  0.68487400  1
  C  C16  1  0.98739000  0.19192700  0.38605300  1
  C  C17  1  0.76290200  0.41416100  0.56574700  1
  C  C18  1  0.73876300  0.94416300  0.08500800  1
  C  C19  1  0.56574700  0.76290200  0.41416100  1
  C  C20  1  0.80925000  0.62155500  0.99923000  1
  C  C21  1  0.41416100  0.56574700  0.76290200  1
  C  C22  1  0.91107700  0.26343400  0.05321600  1
  C  C23  1  0.62155500  0.99923000  0.80925000  1
  C  C24  1  0.38605300  0.98739000  0.19192700  1
  C  C25  1  0.08500800  0.73876300  0.94416300  1
  C  C26  1  0.58382400  0.44548000  0.23609900  1
  C  C27  1  0.19192700  0.38605300  0.98739000  1
  C  C28  1  0.44548000  0.23609900  0.58382400  1
  C  C29  1  0.26343400  0.05321600  0.91107700  1
  C  C30  1  0.23609900  0.58382400  0.44548000  1
  C  C31  1  0.99923000  0.80925000  0.62155500  1
  C  C32  1  0.49958200  0.12206300  0.30837200  1
  C  C33  1  0.05321600  0.91107700  0.26343400  1
  C  C34  1  0.30837200  0.49958200  0.12206300  1
  C  C35  1  0.12206300  0.30837200  0.49958200  1
