# generated using pymatgen
data_Cu(NiC)2
_symmetry_space_group_name_H-M   'P 1'
_cell_length_a   5.17154268
_cell_length_b   5.17154268
_cell_length_c   15.72121023
_cell_angle_alpha   76.62115917
_cell_angle_beta   76.62115917
_cell_angle_gamma   33.61200660
_symmetry_Int_Tables_number   1
_chemical_formula_structural   Cu(NiC)2
_chemical_formula_sum   'Cu4 Ni8 C8'
_cell_volume   225.85159494
_cell_formula_units_Z   4
loop_
 _symmetry_equiv_pos_site_id
 _symmetry_equiv_pos_as_xyz
  1  'x, y, z'
loop_
 _atom_site_type_symbol
 _atom_site_label
 _atom_site_symmetry_multiplicity
 _atom_site_fract_x
 _atom_site_fract_y
 _atom_site_fract_z
 _atom_site_occupancy
  C  C0  1  0.76258100  0.76258100  0.91380700  1
  C  C1  1  0.00064900  0.00064900  0.66831500  1
  C  C2  1  0.23014300  0.23014300  0.42414300  1
  C  C3  1  0.99935100  0.99935100  0.33168500  1
  C  C4  1  0.23741900  0.23741900  0.08619300  1
  C  C5  1  0.23279500  0.23279500  0.75764100  1
  C  C6  1  0.76985700  0.76985700  0.57585600  1
  C  C7  1  0.76720500  0.76720500  0.24235900  1
  Ni  Ni8  1  0.85236300  0.85236300  0.78505500  1
  Ni  Ni9  1  0.14763700  0.14763700  0.21494500  1
  Ni  Ni10  1  0.14818500  0.14818500  0.55106300  1
  Ni  Ni11  1  0.37867700  0.37867700  0.29421000  1
  Ni  Ni12  1  0.61903300  0.61903300  0.37099300  1
  Ni  Ni13  1  0.38096700  0.38096700  0.62900700  1
  Ni  Ni14  1  0.85181500  0.85181500  0.44893700  1
  Ni  Ni15  1  0.62132300  0.62132300  0.70579000  1
  Cu  Cu16  1  0.64747500  0.64747500  0.04398000  1
  Cu  Cu17  1  0.35252500  0.35252500  0.95602000  1
  Cu  Cu18  1  0.14791300  0.14791300  0.87946300  1
  Cu  Cu19  1  0.85208700  0.85208700  0.12053700  1
