# generated using pymatgen
data_Cu4Ni6C7
_symmetry_space_group_name_H-M   'P 1'
_cell_length_a   9.31296900
_cell_length_b   4.26059700
_cell_length_c   16.90555860
_cell_angle_alpha   87.96665870
_cell_angle_beta   90.00000000
_cell_angle_gamma   90.00000000
_symmetry_Int_Tables_number   1
_chemical_formula_structural   Cu4Ni6C7
_chemical_formula_sum   'Cu8 Ni12 C14'
_cell_volume   670.37004511
_cell_formula_units_Z   2
loop_
 _symmetry_equiv_pos_site_id
 _symmetry_equiv_pos_as_xyz
  1  'x, y, z'
loop_
 _atom_site_type_symbol
 _atom_site_label
 _atom_site_symmetry_multiplicity
 _atom_site_fract_x
 _atom_site_fract_y
 _atom_site_fract_z
 _atom_site_occupancy
  C  C0  1  0.16691100  0.24939300  0.90195600  1
  C  C1  1  0.66691100  0.75060700  0.09804400  1
  C  C2  1  0.83308900  0.75060700  0.09804400  1
  C  C3  1  0.33308900  0.24939300  0.90195600  1
  C  C4  1  0.25000000  0.73905000  0.04184700  1
  C  C5  1  0.75000000  0.26095000  0.95815300  1
  C  C6  1  0.25000000  0.74655000  0.51189100  1
  C  C7  1  0.75000000  0.25345000  0.48810900  1
  C  C8  1  0.01043200  0.18877000  0.26799300  1
  C  C9  1  0.51043200  0.81123000  0.73200700  1
  C  C10  1  0.98956800  0.81123000  0.73200700  1
  C  C11  1  0.48956800  0.18877000  0.26799300  1
  C  C12  1  0.75000000  0.58694700  0.24511200  1
  C  C13  1  0.25000000  0.41305300  0.75488800  1
  Ni  Ni14  1  0.25000000  0.71124100  0.21882900  1
  Ni  Ni15  1  0.75000000  0.28875900  0.78117100  1
  Ni  Ni16  1  0.03144600  0.23111300  0.08801700  1
  Ni  Ni17  1  0.53144600  0.76888700  0.91198300  1
  Ni  Ni18  1  0.96855400  0.76888700  0.91198300  1
  Ni  Ni19  1  0.46855400  0.23111300  0.08801700  1
  Ni  Ni20  1  0.25000000  0.25598300  0.39534700  1
  Ni  Ni21  1  0.75000000  0.74401700  0.60465300  1
  Ni  Ni22  1  0.05033400  0.23721500  0.58538100  1
  Ni  Ni23  1  0.55033400  0.76278500  0.41461900  1
  Ni  Ni24  1  0.94966600  0.76278500  0.41461900  1
  Ni  Ni25  1  0.44966600  0.23721500  0.58538100  1
  Cu  Cu26  1  0.75000000  0.32509500  0.28765900  1
  Cu  Cu27  1  0.25000000  0.67490500  0.71234100  1
  Cu  Cu28  1  0.25000000  0.24896500  0.93805500  1
  Cu  Cu29  1  0.75000000  0.75103500  0.06194500  1
  Cu  Cu30  1  0.87217800  0.70559600  0.22250100  1
  Cu  Cu31  1  0.37217800  0.29440400  0.77749900  1
  Cu  Cu32  1  0.12782200  0.29440400  0.77749900  1
  Cu  Cu33  1  0.62782200  0.70559600  0.22250100  1
