# generated using pymatgen
data_Cu7NiC3
_symmetry_space_group_name_H-M   'P 1'
_cell_length_a   9.45442818
_cell_length_b   6.50636001
_cell_length_c   5.51388099
_cell_angle_alpha   89.99916403
_cell_angle_beta   86.74998356
_cell_angle_gamma   89.99439185
_symmetry_Int_Tables_number   1
_chemical_formula_structural   Cu7NiC3
_chemical_formula_sum   'Cu14 Ni2 C6'
_cell_volume   338.63487665
_cell_formula_units_Z   2
loop_
 _symmetry_equiv_pos_site_id
 _symmetry_equiv_pos_as_xyz
  1  'x, y, z'
loop_
 _atom_site_type_symbol
 _atom_site_label
 _atom_site_symmetry_multiplicity
 _atom_site_fract_x
 _atom_site_fract_y
 _atom_site_fract_z
 _atom_site_occupancy
  C  C0  1  0.20325800  0.49269800  0.22448400  1
  C  C1  1  0.79675100  0.99269200  0.77550300  1
  C  C2  1  0.33383000  0.76770600  0.78943500  1
  C  C3  1  0.66614700  0.26757600  0.21055600  1
  C  C4  1  0.44430200  0.26105700  0.71955500  1
  C  C5  1  0.55570800  0.76090100  0.28041200  1
  Ni  Ni6  1  0.08511700  0.74160100  0.71542700  1
  Ni  Ni7  1  0.91485100  0.24166100  0.28457700  1
  Cu  Cu8  1  0.04135900  0.24896800  0.32318100  1
  Cu  Cu9  1  0.13964600  0.74385300  0.93507300  1
  Cu  Cu10  1  0.19180400  0.73428700  0.54388400  1
  Cu  Cu11  1  0.33659100  0.04940800  0.79051600  1
  Cu  Cu12  1  0.33368800  0.45857800  0.80490400  1
  Cu  Cu13  1  0.40537100  0.74536300  0.12541100  1
  Cu  Cu14  1  0.48197200  0.25445700  0.41116100  1
  Cu  Cu15  1  0.51805900  0.75455900  0.58888400  1
  Cu  Cu16  1  0.59466300  0.24547900  0.87455900  1
  Cu  Cu17  1  0.66628600  0.95852700  0.19502600  1
  Cu  Cu18  1  0.66343000  0.54930800  0.20951500  1
  Cu  Cu19  1  0.80818100  0.23426600  0.45613600  1
  Cu  Cu20  1  0.86035300  0.24383600  0.06494600  1
  Cu  Cu21  1  0.95863100  0.74891800  0.67685600  1
