# generated using pymatgen
data_Cu11NiC6
_symmetry_space_group_name_H-M   'P 1'
_cell_length_a   4.69589845
_cell_length_b   4.69589845
_cell_length_c   9.33444800
_cell_angle_alpha   90.00000000
_cell_angle_beta   90.00000000
_cell_angle_gamma   90.43241528
_symmetry_Int_Tables_number   1
_chemical_formula_structural   Cu11NiC6
_chemical_formula_sum   'Cu11 Ni1 C6'
_cell_volume   205.83236608
_cell_formula_units_Z   1
loop_
 _symmetry_equiv_pos_site_id
 _symmetry_equiv_pos_as_xyz
  1  'x, y, z'
loop_
 _atom_site_type_symbol
 _atom_site_label
 _atom_site_symmetry_multiplicity
 _atom_site_fract_x
 _atom_site_fract_y
 _atom_site_fract_z
 _atom_site_occupancy
  C  C0  1  0.00012200  0.00012200  0.50000000  1
  C  C1  1  0.00535800  0.00535800  0.16270800  1
  C  C2  1  0.00535800  0.00535800  0.83729200  1
  C  C3  1  0.48668100  0.48668100  0.00000000  1
  C  C4  1  0.50280100  0.50280100  0.66671400  1
  C  C5  1  0.50280100  0.50280100  0.33328600  1
  Ni  Ni6  1  0.19297100  0.19297100  0.00000000  1
  Cu  Cu7  1  0.19790900  0.19790900  0.66697000  1
  Cu  Cu8  1  0.19790900  0.19790900  0.33303000  1
  Cu  Cu9  1  0.30259700  0.69531300  0.83342900  1
  Cu  Cu10  1  0.30259700  0.69531300  0.16657100  1
  Cu  Cu11  1  0.30468100  0.69756600  0.50000000  1
  Cu  Cu12  1  0.69531300  0.30259700  0.83342900  1
  Cu  Cu13  1  0.69531300  0.30259700  0.16657100  1
  Cu  Cu14  1  0.69756600  0.30468100  0.50000000  1
  Cu  Cu15  1  0.80785300  0.80785300  0.67002800  1
  Cu  Cu16  1  0.79428900  0.79428900  0.00000000  1
  Cu  Cu17  1  0.80785300  0.80785300  0.32997200  1
