# generated using pymatgen
data_CuNiC2
_symmetry_space_group_name_H-M   'P 1'
_cell_length_a   4.70034000
_cell_length_b   4.99916700
_cell_length_c   5.77286000
_cell_angle_alpha   90.00000000
_cell_angle_beta   90.00000000
_cell_angle_gamma   90.00000000
_symmetry_Int_Tables_number   1
_chemical_formula_structural   CuNiC2
_chemical_formula_sum   'Cu4 Ni4 C8'
_cell_volume   135.64942090
_cell_formula_units_Z   4
loop_
 _symmetry_equiv_pos_site_id
 _symmetry_equiv_pos_as_xyz
  1  'x, y, z'
loop_
 _atom_site_type_symbol
 _atom_site_label
 _atom_site_symmetry_multiplicity
 _atom_site_fract_x
 _atom_site_fract_y
 _atom_site_fract_z
 _atom_site_occupancy
  Ni  Ni0  1  0.99980600  0.08317200  0.62522500  1
  Ni  Ni1  1  0.49980600  0.91682800  0.37477500  1
  Ni  Ni2  1  0.49980600  0.41682800  0.12522500  1
  Ni  Ni3  1  0.99980600  0.58317200  0.87477500  1
  Cu  Cu4  1  0.99931800  0.08516400  0.12509200  1
  Cu  Cu5  1  0.99931800  0.58516400  0.37490800  1
  Cu  Cu6  1  0.49931800  0.41483600  0.62509200  1
  Cu  Cu7  1  0.49931800  0.91483600  0.87490800  1
  C  C8  1  0.37849700  0.58420200  0.87258000  1
  C  C9  1  0.37437900  0.07946600  0.12277900  1
  C  C10  1  0.87849700  0.41579800  0.12742000  1
  C  C11  1  0.87849700  0.91579800  0.37258000  1
  C  C12  1  0.87437900  0.42053400  0.62277900  1
  C  C13  1  0.87437900  0.92053400  0.87722100  1
  C  C14  1  0.37437900  0.57946600  0.37722100  1
  C  C15  1  0.37849700  0.08420200  0.62742000  1
