# generated using pymatgen
data_Cu5Ni3C20
_symmetry_space_group_name_H-M   'P 1'
_cell_length_a   6.12379715
_cell_length_b   6.12379715
_cell_length_c   9.84656547
_cell_angle_alpha   89.57912841
_cell_angle_beta   89.57912841
_cell_angle_gamma   59.79402517
_symmetry_Int_Tables_number   1
_chemical_formula_structural   Cu5Ni3C20
_chemical_formula_sum   'Cu5 Ni3 C20'
_cell_volume   319.10695137
_cell_formula_units_Z   1
loop_
 _symmetry_equiv_pos_site_id
 _symmetry_equiv_pos_as_xyz
  1  'x, y, z'
loop_
 _atom_site_type_symbol
 _atom_site_label
 _atom_site_symmetry_multiplicity
 _atom_site_fract_x
 _atom_site_fract_y
 _atom_site_fract_z
 _atom_site_occupancy
  C  C0  1  0.67147800  0.67147800  0.90000400  1
  C  C1  1  0.00526100  0.00526100  0.00179600  1
  C  C2  1  0.01246300  0.01246300  0.49176600  1
  C  C3  1  0.33606100  0.33606100  0.38278300  1
  Ni  Ni4  1  0.82724900  0.82724900  0.21780400  1
  Ni  Ni5  1  0.66353600  0.16866700  0.71541800  1
  Ni  Ni6  1  0.16866700  0.66353600  0.71541800  1
  Cu  Cu7  1  0.82416500  0.34045200  0.21314300  1
  Cu  Cu8  1  0.65476100  0.65476100  0.48662600  1
  Cu  Cu9  1  0.34045200  0.82416500  0.21314300  1
  Cu  Cu10  1  0.17073800  0.17073800  0.71890300  1
  Cu  Cu11  1  0.32323800  0.32323800  0.00274100  1
  C  C12  1  0.83004900  0.31311300  0.60467500  1
  C  C13  1  0.51562500  0.51562500  0.32711000  1
  C  C14  1  0.67078000  0.67078000  0.10123300  1
  C  C15  1  0.99727400  0.99727400  0.30842800  1
  C  C16  1  0.98976900  0.98976900  0.81959100  1
  C  C17  1  0.31311300  0.83004900  0.60467500  1
  C  C18  1  0.96669400  0.52127200  0.33238000  1
  C  C19  1  0.52127200  0.96669400  0.33238000  1
  C  C20  1  0.16084900  0.16084900  0.10018600  1
  C  C21  1  0.83911800  0.83911800  0.60493400  1
  C  C22  1  0.49078700  0.04772200  0.84486000  1
  C  C23  1  0.04772200  0.49078700  0.84486000  1
  C  C24  1  0.34625200  0.34625200  0.59881000  1
  C  C25  1  0.66991300  0.15644700  0.09743300  1
  C  C26  1  0.48658100  0.48658100  0.83071600  1
  C  C27  1  0.15644700  0.66991300  0.09743300  1
