# generated using pymatgen
data_Cu(NiC4)2
_symmetry_space_group_name_H-M   'P 1'
_cell_length_a   7.40909227
_cell_length_b   7.40909227
_cell_length_c   7.37199620
_cell_angle_alpha   88.66118730
_cell_angle_beta   88.66118730
_cell_angle_gamma   61.89642893
_symmetry_Int_Tables_number   1
_chemical_formula_structural   Cu(NiC4)2
_chemical_formula_sum   'Cu2 Ni4 C16'
_cell_volume   356.83749395
_cell_formula_units_Z   2
loop_
 _symmetry_equiv_pos_site_id
 _symmetry_equiv_pos_as_xyz
  1  'x, y, z'
loop_
 _atom_site_type_symbol
 _atom_site_label
 _atom_site_symmetry_multiplicity
 _atom_site_fract_x
 _atom_site_fract_y
 _atom_site_fract_z
 _atom_site_occupancy
  C  C0  1  0.29665600  0.00553100  0.64503600  1
  C  C1  1  0.99446900  0.70334400  0.85496400  1
  C  C2  1  0.70334400  0.99446900  0.35496400  1
  C  C3  1  0.00553100  0.29665600  0.14503600  1
  Ni  Ni4  1  0.77930200  0.42144200  0.64205400  1
  Ni  Ni5  1  0.57855800  0.22069800  0.85794600  1
  Ni  Ni6  1  0.22069800  0.57855800  0.35794600  1
  Ni  Ni7  1  0.42144200  0.77930200  0.14205400  1
  Cu  Cu8  1  0.57614200  0.42385800  0.75000000  1
  Cu  Cu9  1  0.42385800  0.57614200  0.25000000  1
  C  C10  1  0.82869200  0.28334500  0.48743700  1
  C  C11  1  0.71665500  0.17130800  0.01256300  1
  C  C12  1  0.17130800  0.71665500  0.51256300  1
  C  C13  1  0.28334500  0.82869200  0.98743700  1
  C  C14  1  0.70635000  0.63566000  0.59076800  1
  C  C15  1  0.36434000  0.29365000  0.90923200  1
  C  C16  1  0.29365000  0.36434000  0.40923200  1
  C  C17  1  0.63566000  0.70635000  0.09076800  1
  C  C18  1  0.94726500  0.34761100  0.77363100  1
  C  C19  1  0.65238900  0.05273500  0.72636900  1
  C  C20  1  0.05273500  0.65238900  0.22636900  1
  C  C21  1  0.34761100  0.94726500  0.27363100  1
