# generated using pymatgen
data_CuNi2C3
_symmetry_space_group_name_H-M   'P 1'
_cell_length_a   5.75484615
_cell_length_b   5.75484615
_cell_length_c   12.88540800
_cell_angle_alpha   90.00000000
_cell_angle_beta   90.00000000
_cell_angle_gamma   120.00000168
_symmetry_Int_Tables_number   1
_chemical_formula_structural   CuNi2C3
_chemical_formula_sum   'Cu4 Ni8 C12'
_cell_volume   369.56959471
_cell_formula_units_Z   4
loop_
 _symmetry_equiv_pos_site_id
 _symmetry_equiv_pos_as_xyz
  1  'x, y, z'
loop_
 _atom_site_type_symbol
 _atom_site_label
 _atom_site_symmetry_multiplicity
 _atom_site_fract_x
 _atom_site_fract_y
 _atom_site_fract_z
 _atom_site_occupancy
  Ni  Ni0  1  0.00000000  0.67694800  0.50000000  1
  Ni  Ni1  1  0.00000000  0.32305200  0.00000000  1
  Ni  Ni2  1  0.33333300  0.66666700  0.75000000  1
  Ni  Ni3  1  0.32305200  0.32305200  0.50000000  1
  Ni  Ni4  1  0.32305200  0.00000000  0.00000000  1
  Ni  Ni5  1  0.67694800  0.67694800  0.00000000  1
  Ni  Ni6  1  0.66666700  0.33333300  0.25000000  1
  Ni  Ni7  1  0.67694800  0.00000000  0.50000000  1
  Cu  Cu8  1  0.33333300  0.66666700  0.25000000  1
  Cu  Cu9  1  0.00000000  0.00000000  0.25000000  1
  Cu  Cu10  1  0.00000000  0.00000000  0.75000000  1
  Cu  Cu11  1  0.66666700  0.33333300  0.75000000  1
  C  C12  1  0.05288500  0.71913300  0.33747300  1
  C  C13  1  0.28086700  0.94711500  0.16252700  1
  C  C14  1  0.05288500  0.33375200  0.16252700  1
  C  C15  1  0.28086700  0.33375200  0.33747300  1
  C  C16  1  0.66624800  0.94711500  0.33747300  1
  C  C17  1  0.33375200  0.28086700  0.66252700  1
  C  C18  1  0.66624800  0.71913300  0.16252700  1
  C  C19  1  0.33375200  0.05288500  0.83747300  1
  C  C20  1  0.71913300  0.66624800  0.83747300  1
  C  C21  1  0.94711500  0.66624800  0.66252700  1
  C  C22  1  0.71913300  0.05288500  0.66252700  1
  C  C23  1  0.94711500  0.28086700  0.83747300  1
