# generated using pymatgen
data_CuNi4C11
_symmetry_space_group_name_H-M   'P 1'
_cell_length_a   5.99346200
_cell_length_b   5.99346200
_cell_length_c   6.15734625
_cell_angle_alpha   59.29034648
_cell_angle_beta   59.29034648
_cell_angle_gamma   61.78355708
_symmetry_Int_Tables_number   1
_chemical_formula_structural   CuNi4C11
_chemical_formula_sum   'Cu1 Ni4 C11'
_cell_volume   156.62861876
_cell_formula_units_Z   1
loop_
 _symmetry_equiv_pos_site_id
 _symmetry_equiv_pos_as_xyz
  1  'x, y, z'
loop_
 _atom_site_type_symbol
 _atom_site_label
 _atom_site_symmetry_multiplicity
 _atom_site_fract_x
 _atom_site_fract_y
 _atom_site_fract_z
 _atom_site_occupancy
  C  C0  1  0.50000000  0.00000000  0.50000000  1
  C  C1  1  0.00000000  0.00000000  0.50000000  1
  C  C2  1  0.00000000  0.50000000  0.50000000  1
  Ni  Ni3  1  0.50000000  0.50000000  0.50000000  1
  Ni  Ni4  1  0.00000000  0.00000000  0.00000000  1
  Ni  Ni5  1  0.50000000  0.00000000  0.00000000  1
  Ni  Ni6  1  0.00000000  0.50000000  0.00000000  1
  Cu  Cu7  1  0.50000000  0.50000000  0.00000000  1
  C  C8  1  0.26109900  0.26109900  0.19644800  1
  C  C9  1  0.76990300  0.25585500  0.24247200  1
  C  C10  1  0.25585500  0.76990300  0.24247200  1
  C  C11  1  0.74552100  0.74552100  0.27339100  1
  C  C12  1  0.25447900  0.25447900  0.72660900  1
  C  C13  1  0.74414500  0.23009700  0.75752800  1
  C  C14  1  0.23009700  0.74414500  0.75752800  1
  C  C15  1  0.73890100  0.73890100  0.80355300  1
