# generated using pymatgen
data_Cu3NiC24
_symmetry_space_group_name_H-M   'P 1'
_cell_length_a   5.97581400
_cell_length_b   4.73186700
_cell_length_c   10.18402746
_cell_angle_alpha   89.96936057
_cell_angle_beta   90.00000000
_cell_angle_gamma   90.00000000
_symmetry_Int_Tables_number   1
_chemical_formula_structural   Cu3NiC24
_chemical_formula_sum   'Cu3 Ni1 C24'
_cell_volume   287.97122914
_cell_formula_units_Z   1
loop_
 _symmetry_equiv_pos_site_id
 _symmetry_equiv_pos_as_xyz
  1  'x, y, z'
loop_
 _atom_site_type_symbol
 _atom_site_label
 _atom_site_symmetry_multiplicity
 _atom_site_fract_x
 _atom_site_fract_y
 _atom_site_fract_z
 _atom_site_occupancy
  C  C0  1  0.24999700  0.00008300  0.99887800  1
  C  C1  1  0.75000300  0.00008300  0.99887800  1
  C  C2  1  0.74920100  0.49987100  0.50145300  1
  C  C3  1  0.25079900  0.49987100  0.50145300  1
  Ni  Ni4  1  0.00000000  0.97676200  0.27812600  1
  Cu  Cu5  1  0.50000000  0.01917800  0.72484100  1
  Cu  Cu6  1  0.50000000  0.47948200  0.22244300  1
  Cu  Cu7  1  0.00000000  0.52063800  0.77633200  1
  C  C8  1  0.00000000  0.08559300  0.59650600  1
  C  C9  1  0.00000000  0.41546500  0.09161600  1
  C  C10  1  0.50000000  0.58382700  0.90536900  1
  C  C11  1  0.50000000  0.91517400  0.40677800  1
  C  C12  1  0.00000000  0.20457000  0.45461300  1
  C  C13  1  0.20661100  0.22563500  0.66690900  1
  C  C14  1  0.79338900  0.22563500  0.66690900  1
  C  C15  1  0.50000000  0.23974400  0.39937000  1
  C  C16  1  0.50000000  0.25981100  0.90022100  1
  C  C17  1  0.20775300  0.27804800  0.16243400  1
  C  C18  1  0.79224700  0.27804800  0.16243400  1
  C  C19  1  0.00000000  0.29609900  0.94976100  1
  C  C20  1  0.50000000  0.70162900  0.04820100  1
  C  C21  1  0.70584600  0.72504400  0.83458300  1
  C  C22  1  0.29415400  0.72504400  0.83458300  1
  C  C23  1  0.00000000  0.73874700  0.09645400  1
  C  C24  1  0.00000000  0.76117600  0.60083800  1
  C  C25  1  0.70397100  0.77245500  0.33543600  1
  C  C26  1  0.29602900  0.77245500  0.33543600  1
  C  C27  1  0.50000000  0.79983100  0.54915000  1
