# generated using pymatgen
data_CuNi7C4
_symmetry_space_group_name_H-M   'P 1'
_cell_length_a   7.39932284
_cell_length_b   7.39932284
_cell_length_c   4.46117907
_cell_angle_alpha   89.89017573
_cell_angle_beta   89.89017573
_cell_angle_gamma   95.33595091
_symmetry_Int_Tables_number   1
_chemical_formula_structural   CuNi7C4
_chemical_formula_sum   'Cu2 Ni14 C8'
_cell_volume   243.19002856
_cell_formula_units_Z   2
loop_
 _symmetry_equiv_pos_site_id
 _symmetry_equiv_pos_as_xyz
  1  'x, y, z'
loop_
 _atom_site_type_symbol
 _atom_site_label
 _atom_site_symmetry_multiplicity
 _atom_site_fract_x
 _atom_site_fract_y
 _atom_site_fract_z
 _atom_site_occupancy
  C  C0  1  0.94954800  0.56295800  0.52305800  1
  C  C1  1  0.05044300  0.94955700  0.50000000  1
  C  C2  1  0.43704200  0.05045200  0.47694200  1
  C  C3  1  0.55407900  0.44592100  0.50000000  1
  C  C4  1  0.21044300  0.30057600  0.98574600  1
  C  C5  1  0.30260000  0.69740000  0.00000000  1
  C  C6  1  0.69942400  0.78955700  0.01425400  1
  C  C7  1  0.80095200  0.19904800  0.00000000  1
  Ni  Ni8  1  0.01945200  0.15799800  0.76858700  1
  Ni  Ni9  1  0.15397900  0.51912000  0.77528200  1
  Ni  Ni10  1  0.51760500  0.65281300  0.76834900  1
  Ni  Ni11  1  0.26492900  0.90645500  0.72817900  1
  Ni  Ni12  1  0.40761100  0.26254200  0.72446800  1
  Ni  Ni13  1  0.90545700  0.77041800  0.74069200  1
  Ni  Ni14  1  0.76730900  0.40784700  0.73472300  1
  Ni  Ni15  1  0.22958200  0.09454300  0.25930800  1
  Ni  Ni16  1  0.73745800  0.59238900  0.27553200  1
  Ni  Ni17  1  0.09354500  0.73507100  0.27182100  1
  Ni  Ni18  1  0.59215300  0.23269100  0.26527700  1
  Ni  Ni19  1  0.48088000  0.84602100  0.22471800  1
  Ni  Ni20  1  0.84200200  0.98054800  0.23141300  1
  Ni  Ni21  1  0.34718700  0.48239500  0.23165100  1
  Cu  Cu22  1  0.64231500  0.00599900  0.74017200  1
  Cu  Cu23  1  0.99400100  0.35768500  0.25982800  1
