# generated using pymatgen
data_Cu(NiC)2
_symmetry_space_group_name_H-M   'P 1'
_cell_length_a   8.83730500
_cell_length_b   8.84177540
_cell_length_c   8.85100553
_cell_angle_alpha   109.45514518
_cell_angle_beta   109.55653873
_cell_angle_gamma   109.27718575
_symmetry_Int_Tables_number   1
_chemical_formula_structural   Cu(NiC)2
_chemical_formula_sum   'Cu8 Ni16 C16'
_cell_volume   533.20611255
_cell_formula_units_Z   8
loop_
 _symmetry_equiv_pos_site_id
 _symmetry_equiv_pos_as_xyz
  1  'x, y, z'
loop_
 _atom_site_type_symbol
 _atom_site_label
 _atom_site_symmetry_multiplicity
 _atom_site_fract_x
 _atom_site_fract_y
 _atom_site_fract_z
 _atom_site_occupancy
  C  C0  1  0.03349400  0.78429800  0.75226900  1
  C  C1  1  0.49467100  0.00385500  0.99615400  1
  C  C2  1  0.20957700  0.23972600  0.97365500  1
  C  C3  1  0.28673500  0.75162700  0.53549700  1
  C  C4  1  0.24397800  0.46962200  0.70973700  1
  C  C5  1  0.25179500  0.97212800  0.22614000  1
  C  C6  1  0.98688500  0.00120500  0.49472900  1
  C  C7  1  0.99542700  0.49581700  0.00858000  1
  C  C8  1  0.49464900  0.48845800  0.48819800  1
  C  C9  1  0.54177600  0.28040800  0.74980200  1
  C  C10  1  0.46401900  0.71143900  0.24685300  1
  C  C11  1  0.73543100  0.52452700  0.27466400  1
  C  C12  1  0.75649800  0.04277800  0.78142500  1
  C  C13  1  0.72816900  0.26494000  0.47488200  1
  C  C14  1  0.78116000  0.74922200  0.04435900  1
  C  C15  1  0.97338700  0.22318400  0.25753300  1
  Ni  Ni16  1  0.26252000  0.72938200  0.77172800  1
  Ni  Ni17  1  0.23608600  0.73543400  0.27012500  1
  Ni  Ni18  1  0.96264700  0.99714400  0.72592300  1
  Ni  Ni19  1  0.23972900  0.47032800  0.46074300  1
  Ni  Ni20  1  0.77542400  0.54858000  0.54316800  1
  Ni  Ni21  1  0.49665300  0.03332000  0.76040300  1
  Ni  Ni22  1  0.72238900  0.77146100  0.26970600  1
  Ni  Ni23  1  0.00113900  0.26508200  0.04527700  1
  Ni  Ni24  1  0.03716500  0.00040900  0.26648400  1
  Ni  Ni25  1  0.46213800  0.22805800  0.46671000  1
  Ni  Ni26  1  0.45141100  0.45337600  0.22025300  1
  Ni  Ni27  1  0.78338500  0.27506500  0.73195400  1
  Ni  Ni28  1  0.96934700  0.24095300  0.51030600  1
  Ni  Ni29  1  0.26555800  0.03533900  0.01311100  1
  Ni  Ni30  1  0.72954700  0.26376300  0.22463400  1
  Ni  Ni31  1  0.76165800  0.49587700  0.03686600  1
  Cu  Cu32  1  0.23205000  0.50394000  0.95507700  1
  Cu  Cu33  1  0.04330500  0.77120200  0.48726200  1
  Cu  Cu34  1  0.71680300  0.93839000  0.98138500  1
  Cu  Cu35  1  0.53799400  0.54939900  0.77688300  1
  Cu  Cu36  1  0.55622000  0.77517000  0.54238300  1
  Cu  Cu37  1  0.98445300  0.71800000  0.95026500  1
  Cu  Cu38  1  0.28426600  0.23986100  0.74283400  1
  Cu  Cu39  1  0.51046300  0.95723400  0.23204400  1
