# generated using pymatgen
data_Cu3NiC
_symmetry_space_group_name_H-M   'P 1'
_cell_length_a   5.74896800
_cell_length_b   4.71283679
_cell_length_c   12.65350768
_cell_angle_alpha   90.19291389
_cell_angle_beta   90.13346454
_cell_angle_gamma   101.36408856
_symmetry_Int_Tables_number   1
_chemical_formula_structural   Cu3NiC
_chemical_formula_sum   'Cu12 Ni4 C4'
_cell_volume   336.10871077
_cell_formula_units_Z   4
loop_
 _symmetry_equiv_pos_site_id
 _symmetry_equiv_pos_as_xyz
  1  'x, y, z'
loop_
 _atom_site_type_symbol
 _atom_site_label
 _atom_site_symmetry_multiplicity
 _atom_site_fract_x
 _atom_site_fract_y
 _atom_site_fract_z
 _atom_site_occupancy
  C  C0  1  0.20030100  0.65605700  0.30725200  1
  C  C1  1  0.19799500  0.15416800  0.19305500  1
  C  C2  1  0.80025000  0.34390600  0.69254900  1
  C  C3  1  0.80129400  0.84527600  0.80713300  1
  Ni  Ni4  1  0.68933800  0.13363500  0.38625500  1
  Ni  Ni5  1  0.69248200  0.63984300  0.11450500  1
  Ni  Ni6  1  0.30926300  0.86378200  0.61436900  1
  Ni  Ni7  1  0.30839200  0.36310500  0.88583300  1
  Cu  Cu8  1  0.27244500  0.36312000  0.28754000  1
  Cu  Cu9  1  0.27294800  0.86287000  0.21263100  1
  Cu  Cu10  1  0.72687700  0.63604700  0.71247500  1
  Cu  Cu11  1  0.72703600  0.13664400  0.78725100  1
  Cu  Cu12  1  0.56213900  0.86064900  0.39747100  1
  Cu  Cu13  1  0.04101700  0.21907600  0.11509500  1
  Cu  Cu14  1  0.95788100  0.27866600  0.61490500  1
  Cu  Cu15  1  0.43803300  0.63501600  0.89762800  1
  Cu  Cu16  1  0.43929900  0.13499400  0.60214800  1
  Cu  Cu17  1  0.95860400  0.78137100  0.88514300  1
  Cu  Cu18  1  0.04309200  0.72253100  0.38485400  1
  Cu  Cu19  1  0.56131300  0.36924300  0.10190900  1
