# generated using pymatgen
data_Cu3Ni3C22
_symmetry_space_group_name_H-M   'P 1'
_cell_length_a   6.01283618
_cell_length_b   6.01283618
_cell_length_c   9.85820461
_cell_angle_alpha   89.32181693
_cell_angle_beta   89.32181693
_cell_angle_gamma   59.98188789
_symmetry_Int_Tables_number   1
_chemical_formula_structural   Cu3Ni3C22
_chemical_formula_sum   'Cu3 Ni3 C22'
_cell_volume   308.57969947
_cell_formula_units_Z   1
loop_
 _symmetry_equiv_pos_site_id
 _symmetry_equiv_pos_as_xyz
  1  'x, y, z'
loop_
 _atom_site_type_symbol
 _atom_site_label
 _atom_site_symmetry_multiplicity
 _atom_site_fract_x
 _atom_site_fract_y
 _atom_site_fract_z
 _atom_site_occupancy
  C  C0  1  0.66569600  0.66569600  0.10442900  1
  C  C1  1  0.99803200  0.99803200  0.00680500  1
  C  C2  1  0.00259600  0.00259600  0.50866000  1
  C  C3  1  0.33248300  0.33248300  0.60245000  1
  Ni  Ni4  1  0.34164400  0.83342400  0.78486600  1
  Ni  Ni5  1  0.83342400  0.34164400  0.78486600  1
  Ni  Ni6  1  0.17022800  0.17022800  0.28247400  1
  Cu  Cu7  1  0.82435100  0.82435100  0.78809500  1
  Cu  Cu8  1  0.17066300  0.65944400  0.28688100  1
  Cu  Cu9  1  0.65944400  0.17066300  0.28688100  1
  C  C10  1  0.66925100  0.66925100  0.50628900  1
  C  C11  1  0.33824300  0.33824300  0.00974500  1
  C  C12  1  0.32660900  0.84443100  0.39895400  1
  C  C13  1  0.51846000  0.51846000  0.66630100  1
  C  C14  1  0.65166500  0.65166500  0.89739600  1
  C  C15  1  0.00538500  0.00538500  0.69528500  1
  C  C16  1  0.00395100  0.00395100  0.19199300  1
  C  C17  1  0.84443100  0.32660900  0.39895400  1
  C  C18  1  0.50483200  0.96390300  0.65672000  1
  C  C19  1  0.96390300  0.50483200  0.65672000  1
  C  C20  1  0.16552700  0.16552700  0.89610700  1
  C  C21  1  0.84283800  0.84283800  0.40284400  1
  C  C22  1  0.03472100  0.47341600  0.16034100  1
  C  C23  1  0.47341600  0.03472100  0.16034100  1
  C  C24  1  0.32650900  0.32650900  0.39389100  1
  C  C25  1  0.16921100  0.67874000  0.90072600  1
  C  C26  1  0.48271300  0.48271300  0.16255000  1
  C  C27  1  0.67874000  0.16921100  0.90072600  1
