# generated using pymatgen
data_CuNi4C5
_symmetry_space_group_name_H-M   'P 1'
_cell_length_a   10.78981425
_cell_length_b   10.78981425
_cell_length_c   10.78981425
_cell_angle_alpha   164.20672403
_cell_angle_beta   164.20672403
_cell_angle_gamma   22.40693818
_symmetry_Int_Tables_number   1
_chemical_formula_structural   CuNi4C5
_chemical_formula_sum   'Cu1 Ni4 C5'
_cell_volume   93.03224134
_cell_formula_units_Z   1
loop_
 _symmetry_equiv_pos_site_id
 _symmetry_equiv_pos_as_xyz
  1  'x, y, z'
loop_
 _atom_site_type_symbol
 _atom_site_label
 _atom_site_symmetry_multiplicity
 _atom_site_fract_x
 _atom_site_fract_y
 _atom_site_fract_z
 _atom_site_occupancy
  C  C0  1  0.00000000  0.00000000  0.00000000  1
  C  C1  1  0.60182600  0.60182600  0.00000000  1
  C  C2  1  0.19962800  0.19962800  0.00000000  1
  C  C3  1  0.80037200  0.80037200  0.00000000  1
  C  C4  1  0.39817400  0.39817400  0.00000000  1
  Ni  Ni5  1  0.09985200  0.09985200  0.00000000  1
  Ni  Ni6  1  0.70021800  0.70021800  0.00000000  1
  Ni  Ni7  1  0.29978200  0.29978200  0.00000000  1
  Ni  Ni8  1  0.90014800  0.90014800  0.00000000  1
  Cu  Cu9  1  0.50000000  0.50000000  0.00000000  1
