# generated using pymatgen
data_Cu5NiC
_symmetry_space_group_name_H-M   'P 1'
_cell_length_a   5.00546100
_cell_length_b   11.39416600
_cell_length_c   17.89222881
_cell_angle_alpha   83.69737880
_cell_angle_beta   90.00000000
_cell_angle_gamma   90.00000000
_symmetry_Int_Tables_number   1
_chemical_formula_structural   Cu5NiC
_chemical_formula_sum   'Cu40 Ni8 C8'
_cell_volume   1014.28078604
_cell_formula_units_Z   8
loop_
 _symmetry_equiv_pos_site_id
 _symmetry_equiv_pos_as_xyz
  1  'x, y, z'
loop_
 _atom_site_type_symbol
 _atom_site_label
 _atom_site_symmetry_multiplicity
 _atom_site_fract_x
 _atom_site_fract_y
 _atom_site_fract_z
 _atom_site_occupancy
  C  C0  1  0.23755900  0.05412500  0.84882400  1
  C  C1  1  0.26244100  0.55412500  0.34882400  1
  C  C2  1  0.76244100  0.94587500  0.15117600  1
  C  C3  1  0.73755900  0.44587500  0.65117600  1
  C  C4  1  0.84930600  0.93821200  0.64865000  1
  C  C5  1  0.65069400  0.43821200  0.14865000  1
  C  C6  1  0.15069400  0.06178800  0.35135000  1
  C  C7  1  0.34930600  0.56178800  0.85135000  1
  Ni  Ni8  1  0.79936400  0.18472000  0.91999000  1
  Ni  Ni9  1  0.70063600  0.68472000  0.41999000  1
  Ni  Ni10  1  0.20063600  0.81528000  0.08001000  1
  Ni  Ni11  1  0.29936400  0.31528000  0.58001000  1
  Ni  Ni12  1  0.28187200  0.80411600  0.57935700  1
  Ni  Ni13  1  0.21812800  0.30411600  0.07935700  1
  Ni  Ni14  1  0.71812800  0.19588400  0.42064300  1
  Ni  Ni15  1  0.78187200  0.69588400  0.92064300  1
  Cu  Cu16  1  0.81248300  0.02012800  0.78076100  1
  Cu  Cu17  1  0.68751700  0.52012800  0.28076100  1
  Cu  Cu18  1  0.18751700  0.97987200  0.21923900  1
  Cu  Cu19  1  0.31248300  0.47987200  0.71923900  1
  Cu  Cu20  1  0.27299800  0.97713400  0.71627000  1
  Cu  Cu21  1  0.22700200  0.47713400  0.21627000  1
  Cu  Cu22  1  0.72700200  0.02286600  0.28373000  1
  Cu  Cu23  1  0.77299800  0.52286600  0.78373000  1
  Cu  Cu24  1  0.29889900  0.19321400  0.79466600  1
  Cu  Cu25  1  0.20110100  0.69321400  0.29466600  1
  Cu  Cu26  1  0.70110100  0.80678600  0.20533400  1
  Cu  Cu27  1  0.79889900  0.30678600  0.70533400  1
  Cu  Cu28  1  0.15968100  0.91703600  0.90430100  1
  Cu  Cu29  1  0.34031900  0.41703600  0.40430100  1
  Cu  Cu30  1  0.84031900  0.08296400  0.09569900  1
  Cu  Cu31  1  0.65968100  0.58296400  0.59569900  1
  Cu  Cu32  1  0.92394200  0.07299400  0.59026900  1
  Cu  Cu33  1  0.57605800  0.57299400  0.09026900  1
  Cu  Cu34  1  0.07605800  0.92700600  0.40973100  1
  Cu  Cu35  1  0.42394200  0.42700600  0.90973100  1
  Cu  Cu36  1  0.79583400  0.80259300  0.70753300  1
  Cu  Cu37  1  0.70416600  0.30259300  0.20753300  1
  Cu  Cu38  1  0.20416600  0.19740700  0.29246700  1
  Cu  Cu39  1  0.29583400  0.69740700  0.79246700  1
  Cu  Cu40  1  0.63617600  0.95277700  0.82212400  1
  Cu  Cu41  1  0.86382400  0.45277700  0.32212400  1
  Cu  Cu42  1  0.36382400  0.04722300  0.17787600  1
  Cu  Cu43  1  0.13617600  0.54722300  0.67787600  1
  Cu  Cu44  1  0.53584500  0.09913400  0.93404700  1
  Cu  Cu45  1  0.96415500  0.59913400  0.43404700  1
  Cu  Cu46  1  0.46415500  0.90086600  0.06595300  1
  Cu  Cu47  1  0.03584500  0.40086600  0.56595300  1
  Cu  Cu48  1  0.44951800  0.04363200  0.67447300  1
  Cu  Cu49  1  0.05048200  0.54363200  0.17447300  1
  Cu  Cu50  1  0.55048200  0.95636800  0.32552700  1
  Cu  Cu51  1  0.94951800  0.45636800  0.82552700  1
  Cu  Cu52  1  0.55140600  0.88581600  0.56714200  1
  Cu  Cu53  1  0.94859400  0.38581600  0.06714200  1
  Cu  Cu54  1  0.44859400  0.11418400  0.43285800  1
  Cu  Cu55  1  0.05140600  0.61418400  0.93285800  1
