# generated using pymatgen
data_Cu(NiC12)3
_symmetry_space_group_name_H-M   'P 1'
_cell_length_a   8.42636100
_cell_length_b   8.47764950
_cell_length_c   8.80748293
_cell_angle_alpha   61.24927317
_cell_angle_beta   61.76742629
_cell_angle_gamma   62.46691103
_symmetry_Int_Tables_number   1
_chemical_formula_structural   Cu(NiC12)3
_chemical_formula_sum   'Cu1 Ni3 C36'
_cell_volume   463.00161231
_cell_formula_units_Z   1
loop_
 _symmetry_equiv_pos_site_id
 _symmetry_equiv_pos_as_xyz
  1  'x, y, z'
loop_
 _atom_site_type_symbol
 _atom_site_label
 _atom_site_symmetry_multiplicity
 _atom_site_fract_x
 _atom_site_fract_y
 _atom_site_fract_z
 _atom_site_occupancy
  C  C0  1  0.02235600  0.99113300  0.98851000  1
  C  C1  1  0.75302400  0.14980800  0.35841300  1
  C  C2  1  0.48366200  0.51539200  0.48630600  1
  C  C3  1  0.22847200  0.84343300  0.66060400  1
  C  C4  1  0.66054200  0.21198000  0.85440300  1
  C  C5  1  0.83630700  0.67676500  0.20451500  1
  Ni  Ni6  1  0.14209900  0.14545200  0.13655900  1
  Ni  Ni7  1  0.35907300  0.35883900  0.35548000  1
  Ni  Ni8  1  0.64837000  0.64284500  0.64924000  1
  Cu  Cu9  1  0.85549600  0.85294300  0.83942000  1
  C  C10  1  0.05804000  0.74913500  0.44926800  1
  C  C11  1  0.44761300  0.05108500  0.74500600  1
  C  C12  1  0.75008900  0.45325000  0.05032200  1
  C  C13  1  0.25347000  0.54137000  0.96750200  1
  C  C14  1  0.53721800  0.96753700  0.24977000  1
  C  C15  1  0.95246300  0.24985500  0.53955600  1
  C  C16  1  0.12788800  0.29889500  0.49157400  1
  C  C17  1  0.31164600  0.50337700  0.12510700  1
  C  C18  1  0.05467300  0.91813700  0.26604400  1
  C  C19  1  0.51694500  0.12064300  0.31255200  1
  C  C20  1  0.24661200  0.58564700  0.42378800  1
  C  C21  1  0.05197600  0.79674300  0.59946700  1
  C  C22  1  0.25415400  0.07154100  0.89140800  1
  C  C23  1  0.45349900  0.23639000  0.57017600  1
  C  C24  1  0.59133700  0.42982300  0.24402500  1
  C  C25  1  0.19756900  0.38043000  0.99439300  1
  C  C26  1  0.09188800  0.73290400  0.95108300  1
  C  C27  1  0.36537700  0.01230100  0.20283900  1
  C  C28  1  0.60467100  0.03249000  0.80213900  1
  C  C29  1  0.90563900  0.25691000  0.08142600  1
  C  C30  1  0.80450100  0.61738400  0.02375100  1
  C  C31  1  0.41232000  0.56624400  0.77537600  1
  C  C32  1  0.56013700  0.76883200  0.39955900  1
  C  C33  1  0.72364600  0.96230300  0.08592900  1
  C  C34  1  0.95254300  0.21024000  0.38854500  1
  C  C35  1  0.76111600  0.40896200  0.58211800  1
  C  C36  1  0.49212700  0.88453000  0.68827000  1
  C  C37  1  0.94965900  0.07951900  0.72458300  1
  C  C38  1  0.69601600  0.47862700  0.89795200  1
  C  C39  1  0.88576800  0.69531000  0.49402300  1
