# generated using pymatgen
data_CuNi3C10
_symmetry_space_group_name_H-M   'P 1'
_cell_length_a   8.55303356
_cell_length_b   8.53284815
_cell_length_c   8.54068084
_cell_angle_alpha   90.13260985
_cell_angle_beta   90.01964377
_cell_angle_gamma   90.06631878
_symmetry_Int_Tables_number   1
_chemical_formula_structural   CuNi3C10
_chemical_formula_sum   'Cu4 Ni12 C40'
_cell_volume   623.31159497
_cell_formula_units_Z   4
loop_
 _symmetry_equiv_pos_site_id
 _symmetry_equiv_pos_as_xyz
  1  'x, y, z'
loop_
 _atom_site_type_symbol
 _atom_site_label
 _atom_site_symmetry_multiplicity
 _atom_site_fract_x
 _atom_site_fract_y
 _atom_site_fract_z
 _atom_site_occupancy
  C  C0  1  0.99470000  0.99383800  0.99364300  1
  C  C1  1  0.25530600  0.25651700  0.25554000  1
  C  C2  1  0.24315400  0.74348800  0.75638800  1
  C  C3  1  0.50624300  0.00604500  0.49399000  1
  C  C4  1  0.49393600  0.50629300  0.00614800  1
  C  C5  1  0.75610900  0.24366600  0.74450300  1
  C  C6  1  0.74353300  0.75566500  0.24335700  1
  C  C7  1  0.00679600  0.49430400  0.50665500  1
  Ni  Ni8  1  0.12293900  0.12565700  0.62560200  1
  Ni  Ni9  1  0.12558300  0.37575500  0.87459100  1
  Ni  Ni10  1  0.12651000  0.62496500  0.12346000  1
  Ni  Ni11  1  0.37193200  0.37638900  0.62346800  1
  Ni  Ni12  1  0.37585000  0.62278100  0.37393000  1
  Ni  Ni13  1  0.37591300  0.87240900  0.12458400  1
  Ni  Ni14  1  0.62292000  0.37363400  0.37292500  1
  Ni  Ni15  1  0.62563600  0.12445500  0.12549200  1
  Ni  Ni16  1  0.62651600  0.87603300  0.87765100  1
  Ni  Ni17  1  0.87306900  0.12524900  0.37709700  1
  Ni  Ni18  1  0.87669800  0.87586300  0.62741300  1
  Ni  Ni19  1  0.87669100  0.62706000  0.87368700  1
  Cu  Cu20  1  0.12485600  0.87454800  0.37481600  1
  Cu  Cu21  1  0.37463400  0.12488500  0.87506600  1
  Cu  Cu22  1  0.62493400  0.62480500  0.62557400  1
  Cu  Cu23  1  0.87530600  0.37552800  0.12477900  1
  C  C24  1  0.11383000  0.11040400  0.38558200  1
  C  C25  1  0.11245600  0.88502600  0.61372500  1
  C  C26  1  0.10905800  0.60926400  0.89091400  1
  C  C27  1  0.13671800  0.13516500  0.86278900  1
  C  C28  1  0.11335500  0.38645900  0.11460100  1
  C  C29  1  0.14078700  0.35921200  0.64056100  1
  C  C30  1  0.13769500  0.63939300  0.36628900  1
  C  C31  1  0.13615700  0.86368900  0.13659900  1
  C  C32  1  0.36654500  0.13633500  0.64223500  1
  C  C33  1  0.36438600  0.36088700  0.86389300  1
  C  C34  1  0.35906800  0.64041200  0.14065500  1
  C  C35  1  0.38698700  0.61293300  0.61495500  1
  C  C36  1  0.35783100  0.86556900  0.36469900  1
  C  C37  1  0.39070900  0.38996300  0.39050100  1
  C  C38  1  0.38579400  0.11501700  0.10767200  1
  C  C39  1  0.38453000  0.88917500  0.88724700  1
  C  C40  1  0.61615500  0.39299400  0.61343200  1
  C  C41  1  0.61399200  0.61431100  0.38805100  1
  C  C42  1  0.60925500  0.89067700  0.10966300  1
  C  C43  1  0.63643300  0.36470600  0.13708100  1
  C  C44  1  0.61338800  0.11371200  0.88542000  1
  C  C45  1  0.64048900  0.14018000  0.35963700  1
  C  C46  1  0.63574900  0.85725500  0.63405700  1
  C  C47  1  0.63451600  0.63757400  0.86154500  1
  C  C48  1  0.86588700  0.36312600  0.35864300  1
  C  C49  1  0.86411800  0.14038000  0.13603600  1
  C  C50  1  0.85903400  0.85974400  0.85951500  1
  C  C51  1  0.89228900  0.88649500  0.38378500  1
  C  C52  1  0.86320500  0.63554900  0.63610000  1
  C  C53  1  0.89058500  0.10976200  0.60952900  1
  C  C54  1  0.88539100  0.38519400  0.89128400  1
  C  C55  1  0.88384100  0.60974100  0.11308500  1
