# generated using pymatgen
data_Cu2Ni4C5
_symmetry_space_group_name_H-M   'P 1'
_cell_length_a   5.13182000
_cell_length_b   5.13729789
_cell_length_c   15.12146696
_cell_angle_alpha   80.53896912
_cell_angle_beta   81.10528486
_cell_angle_gamma   60.43959529
_symmetry_Int_Tables_number   1
_chemical_formula_structural   Cu2Ni4C5
_chemical_formula_sum   'Cu6 Ni12 C15'
_cell_volume   340.79172354
_cell_formula_units_Z   3
loop_
 _symmetry_equiv_pos_site_id
 _symmetry_equiv_pos_as_xyz
  1  'x, y, z'
loop_
 _atom_site_type_symbol
 _atom_site_label
 _atom_site_symmetry_multiplicity
 _atom_site_fract_x
 _atom_site_fract_y
 _atom_site_fract_z
 _atom_site_occupancy
  C  C0  1  0.45660800  0.28734600  0.64044300  1
  C  C1  1  0.84209300  0.34254900  0.50019000  1
  C  C2  1  0.87680100  0.04786900  0.35941100  1
  C  C3  1  0.15790700  0.65745100  0.49981000  1
  C  C4  1  0.33426300  0.83380500  0.00007800  1
  C  C5  1  0.12319900  0.95213100  0.64058900  1
  C  C6  1  0.66573700  0.16619500  0.99992200  1
  C  C7  1  0.50000000  0.00000000  0.50000000  1
  C  C8  1  0.54339200  0.71265400  0.35955700  1
  C  C9  1  0.61098600  0.44368700  0.16872900  1
  C  C10  1  0.05158900  0.22866200  0.83280100  1
  C  C11  1  0.27373500  0.11644400  0.16731800  1
  C  C12  1  0.38901400  0.55631300  0.83127100  1
  C  C13  1  0.72626500  0.88355600  0.83268200  1
  C  C14  1  0.94841100  0.77133800  0.16719900  1
  Ni  Ni15  1  0.67566300  0.53415600  0.90650200  1
  Ni  Ni16  1  0.90272700  0.42130000  0.23594800  1
  Ni  Ni17  1  0.09727300  0.57870000  0.76405200  1
  Ni  Ni18  1  0.96192700  0.12791500  0.09424200  1
  Ni  Ni19  1  0.26395600  0.75666400  0.23486900  1
  Ni  Ni20  1  0.40181800  0.91435200  0.76525700  1
  Ni  Ni21  1  0.37901600  0.19023100  0.90553200  1
  Ni  Ni22  1  0.32433700  0.46584400  0.09349800  1
  Ni  Ni23  1  0.59818200  0.08564800  0.23474300  1
  Ni  Ni24  1  0.73604400  0.24333600  0.76513100  1
  Ni  Ni25  1  0.62098400  0.80976900  0.09446800  1
  Ni  Ni26  1  0.03807300  0.87208500  0.90575800  1
  Cu  Cu27  1  0.54983100  0.35834200  0.42077900  1
  Cu  Cu28  1  0.80624200  0.99760600  0.57965800  1
  Cu  Cu29  1  0.19375800  0.00239400  0.42034200  1
  Cu  Cu30  1  0.16312100  0.28624800  0.57676200  1
  Cu  Cu31  1  0.45016900  0.64165800  0.57922100  1
  Cu  Cu32  1  0.83687900  0.71375200  0.42323800  1
