# generated using pymatgen
data_Cu(NiC2)3
_symmetry_space_group_name_H-M   'P 1'
_cell_length_a   6.94881183
_cell_length_b   6.94881183
_cell_length_c   6.94881125
_cell_angle_alpha   92.29217516
_cell_angle_beta   92.29217516
_cell_angle_gamma   92.29216969
_symmetry_Int_Tables_number   1
_chemical_formula_structural   Cu(NiC2)3
_chemical_formula_sum   'Cu2 Ni6 C12'
_cell_volume   334.70263191
_cell_formula_units_Z   2
loop_
 _symmetry_equiv_pos_site_id
 _symmetry_equiv_pos_as_xyz
  1  'x, y, z'
loop_
 _atom_site_type_symbol
 _atom_site_label
 _atom_site_symmetry_multiplicity
 _atom_site_fract_x
 _atom_site_fract_y
 _atom_site_fract_z
 _atom_site_occupancy
  Ni  Ni0  1  0.43971000  0.74627000  0.93211400  1
  Ni  Ni1  1  0.25373000  0.06788600  0.56029000  1
  Ni  Ni2  1  0.06788600  0.56029000  0.25373000  1
  Ni  Ni3  1  0.93211400  0.43971000  0.74627000  1
  Ni  Ni4  1  0.74627000  0.93211400  0.43971000  1
  Ni  Ni5  1  0.56029000  0.25373000  0.06788600  1
  Cu  Cu6  1  0.00000000  0.00000000  0.00000000  1
  Cu  Cu7  1  0.50000000  0.50000000  0.50000000  1
  C  C8  1  0.07894100  0.70237300  0.93581800  1
  C  C9  1  0.29762700  0.06418200  0.92105900  1
  C  C10  1  0.20349000  0.41226500  0.53944800  1
  C  C11  1  0.06418200  0.92105900  0.29762700  1
  C  C12  1  0.58773500  0.46055200  0.79651000  1
  C  C13  1  0.46055200  0.79651000  0.58773500  1
  C  C14  1  0.53944800  0.20349000  0.41226500  1
  C  C15  1  0.41226500  0.53944800  0.20349000  1
  C  C16  1  0.93581800  0.07894100  0.70237300  1
  C  C17  1  0.79651000  0.58773500  0.46055200  1
  C  C18  1  0.70237300  0.93581800  0.07894100  1
  C  C19  1  0.92105900  0.29762700  0.06418200  1
