# generated using pymatgen
data_Cu5NiC3
_symmetry_space_group_name_H-M   'P 1'
_cell_length_a   4.70557300
_cell_length_b   5.63377629
_cell_length_c   7.76328394
_cell_angle_alpha   86.00598670
_cell_angle_beta   89.29604418
_cell_angle_gamma   89.14702684
_symmetry_Int_Tables_number   1
_chemical_formula_structural   Cu5NiC3
_chemical_formula_sum   'Cu10 Ni2 C6'
_cell_volume   205.27014846
_cell_formula_units_Z   2
loop_
 _symmetry_equiv_pos_site_id
 _symmetry_equiv_pos_as_xyz
  1  'x, y, z'
loop_
 _atom_site_type_symbol
 _atom_site_label
 _atom_site_symmetry_multiplicity
 _atom_site_fract_x
 _atom_site_fract_y
 _atom_site_fract_z
 _atom_site_occupancy
  C  C0  1  0.48980600  0.33503200  0.67387300  1
  C  C1  1  0.51019400  0.66496800  0.32612700  1
  C  C2  1  0.50000000  0.00000000  0.00000000  1
  C  C3  1  0.00073300  0.16867400  0.33595100  1
  C  C4  1  0.00000000  0.50000000  0.00000000  1
  C  C5  1  0.99926700  0.83132600  0.66404900  1
  Ni  Ni6  1  0.69710700  0.70419900  0.09799900  1
  Ni  Ni7  1  0.30289300  0.29580100  0.90200100  1
  Cu  Cu8  1  0.79996200  0.20395900  0.10500600  1
  Cu  Cu9  1  0.80491100  0.86897100  0.43228600  1
  Cu  Cu10  1  0.80516700  0.53290300  0.76562800  1
  Cu  Cu11  1  0.69927200  0.03563900  0.76667400  1
  Cu  Cu12  1  0.69391200  0.36631900  0.43980400  1
  Cu  Cu13  1  0.30072800  0.96436100  0.23332600  1
  Cu  Cu14  1  0.30608800  0.63368100  0.56019600  1
  Cu  Cu15  1  0.20003800  0.79604100  0.89499400  1
  Cu  Cu16  1  0.19483300  0.46709700  0.23437200  1
  Cu  Cu17  1  0.19508900  0.13102900  0.56771400  1
