# generated using pymatgen
data_CuNi9C10
_symmetry_space_group_name_H-M   'P 1'
_cell_length_a   7.16022333
_cell_length_b   7.16022333
_cell_length_c   10.59678254
_cell_angle_alpha   78.19941109
_cell_angle_beta   78.19941109
_cell_angle_gamma   25.62852901
_symmetry_Int_Tables_number   1
_chemical_formula_structural   CuNi9C10
_chemical_formula_sum   'Cu1 Ni9 C10'
_cell_volume   229.76303761
_cell_formula_units_Z   1
loop_
 _symmetry_equiv_pos_site_id
 _symmetry_equiv_pos_as_xyz
  1  'x, y, z'
loop_
 _atom_site_type_symbol
 _atom_site_label
 _atom_site_symmetry_multiplicity
 _atom_site_fract_x
 _atom_site_fract_y
 _atom_site_fract_z
 _atom_site_occupancy
  Ni  Ni0  1  0.50000000  0.50000000  0.50000000  1
  Ni  Ni1  1  0.89999200  0.89999200  0.29995400  1
  Ni  Ni2  1  0.79977900  0.79977900  0.60107600  1
  Ni  Ni3  1  0.39949000  0.39949000  0.80228600  1
  Ni  Ni4  1  0.30140400  0.30140400  0.09837600  1
  Ni  Ni5  1  0.20022100  0.20022100  0.39892400  1
  Ni  Ni6  1  0.60051000  0.60051000  0.19771400  1
  Ni  Ni7  1  0.69859600  0.69859600  0.90162400  1
  Ni  Ni8  1  0.10000800  0.10000800  0.70004600  1
  Cu  Cu9  1  0.00000000  0.00000000  0.00000000  1
  C  C10  1  0.94995600  0.94995600  0.65083500  1
  C  C11  1  0.05004400  0.05004400  0.34916500  1
  C  C12  1  0.54840200  0.54840200  0.85399400  1
  C  C13  1  0.45159800  0.45159800  0.14600600  1
  C  C14  1  0.34988900  0.34988900  0.44960400  1
  C  C15  1  0.75086700  0.75086700  0.24952400  1
  C  C16  1  0.65011100  0.65011100  0.55039600  1
  C  C17  1  0.85040800  0.85040800  0.95035900  1
  C  C18  1  0.14959200  0.14959200  0.04964100  1
  C  C19  1  0.24913300  0.24913300  0.75047600  1
