# generated using pymatgen
data_Cu7NiC4
_symmetry_space_group_name_H-M   'P 1'
_cell_length_a   8.35700967
_cell_length_b   8.35633023
_cell_length_c   8.62658520
_cell_angle_alpha   87.57754667
_cell_angle_beta   87.57231292
_cell_angle_gamma   104.01762450
_symmetry_Int_Tables_number   1
_chemical_formula_structural   Cu7NiC4
_chemical_formula_sum   'Cu28 Ni4 C16'
_cell_volume   583.10622933
_cell_formula_units_Z   4
loop_
 _symmetry_equiv_pos_site_id
 _symmetry_equiv_pos_as_xyz
  1  'x, y, z'
loop_
 _atom_site_type_symbol
 _atom_site_label
 _atom_site_symmetry_multiplicity
 _atom_site_fract_x
 _atom_site_fract_y
 _atom_site_fract_z
 _atom_site_occupancy
  C  C0  1  0.36096700  0.85371100  0.21365100  1
  C  C1  1  0.86094700  0.35367600  0.21363300  1
  C  C2  1  0.60356700  0.61088800  0.21361400  1
  C  C3  1  0.10364000  0.11096900  0.21354900  1
  C  C4  1  0.63901100  0.14630700  0.78637100  1
  C  C5  1  0.13906400  0.64635100  0.78633600  1
  C  C6  1  0.39640900  0.38904800  0.78648200  1
  C  C7  1  0.89644000  0.88906300  0.78645100  1
  C  C8  1  0.27131300  0.52131100  0.33488500  1
  C  C9  1  0.72869400  0.47862600  0.66518400  1
  C  C10  1  0.77127900  0.02126600  0.33484800  1
  C  C11  1  0.22879400  0.97878300  0.66499300  1
  C  C12  1  0.48576500  0.23563300  0.41996400  1
  C  C13  1  0.98571900  0.73560500  0.41998700  1
  C  C14  1  0.51431700  0.76430900  0.58003000  1
  C  C15  1  0.01430900  0.26438100  0.58003500  1
  Ni  Ni16  1  0.73876800  0.98873600  0.05464300  1
  Ni  Ni17  1  0.23872300  0.48870500  0.05464100  1
  Ni  Ni18  1  0.26121100  0.01129800  0.94528100  1
  Ni  Ni19  1  0.76123200  0.51128200  0.94539700  1
  Cu  Cu20  1  0.27574600  0.02580200  0.08941800  1
  Cu  Cu21  1  0.77575000  0.52581600  0.08950500  1
  Cu  Cu22  1  0.72418600  0.97421800  0.91056000  1
  Cu  Cu23  1  0.22420200  0.47421300  0.91057000  1
  Cu  Cu24  1  0.85411400  0.10403900  0.11321400  1
  Cu  Cu25  1  0.35406200  0.60401400  0.11324300  1
  Cu  Cu26  1  0.14591400  0.89602600  0.88662400  1
  Cu  Cu27  1  0.64590600  0.39595100  0.88681900  1
  Cu  Cu28  1  0.64074500  0.89068400  0.16218100  1
  Cu  Cu29  1  0.14065100  0.39065700  0.16213000  1
  Cu  Cu30  1  0.35928300  0.10938500  0.83776800  1
  Cu  Cu31  1  0.85927700  0.60931500  0.83787900  1
  Cu  Cu32  1  0.45562700  0.70567900  0.39724200  1
  Cu  Cu33  1  0.95571700  0.20577000  0.39720200  1
  Cu  Cu34  1  0.54434000  0.29428000  0.60280000  1
  Cu  Cu35  1  0.04432700  0.79429200  0.60281900  1
  Cu  Cu36  1  0.31814700  0.06799400  0.44966500  1
  Cu  Cu37  1  0.81811900  0.56793400  0.44980900  1
  Cu  Cu38  1  0.68186900  0.93202400  0.55023800  1
  Cu  Cu39  1  0.18183800  0.43213100  0.55029600  1
  Cu  Cu40  1  0.43959500  0.39162100  0.31059100  1
  Cu  Cu41  1  0.93961800  0.89161500  0.31056700  1
  Cu  Cu42  1  0.64172000  0.18960000  0.31045900  1
  Cu  Cu43  1  0.14167800  0.68956900  0.31052300  1
  Cu  Cu44  1  0.35831900  0.81041500  0.68949100  1
  Cu  Cu45  1  0.85829700  0.31034500  0.68953000  1
  Cu  Cu46  1  0.56038100  0.60830100  0.68946900  1
  Cu  Cu47  1  0.06040400  0.10835900  0.68941800  1
