# generated using pymatgen
data_Cu9NiC40
_symmetry_space_group_name_H-M   'P 1'
_cell_length_a   5.59716400
_cell_length_b   5.59716400
_cell_length_c   19.31652700
_cell_angle_alpha   90.00000000
_cell_angle_beta   90.00000000
_cell_angle_gamma   90.00000000
_symmetry_Int_Tables_number   1
_chemical_formula_structural   Cu9NiC40
_chemical_formula_sum   'Cu9 Ni1 C40'
_cell_volume   605.15288737
_cell_formula_units_Z   1
loop_
 _symmetry_equiv_pos_site_id
 _symmetry_equiv_pos_as_xyz
  1  'x, y, z'
loop_
 _atom_site_type_symbol
 _atom_site_label
 _atom_site_symmetry_multiplicity
 _atom_site_fract_x
 _atom_site_fract_y
 _atom_site_fract_z
 _atom_site_occupancy
  C  C0  1  0.50000000  0.00000000  0.39977900  1
  C  C1  1  0.00000000  0.50000000  0.39977900  1
  C  C2  1  0.00000000  0.50000000  0.60022100  1
  C  C3  1  0.50000000  0.00000000  0.60022100  1
  C  C4  1  0.00000000  0.50000000  0.00000000  1
  C  C5  1  0.50000000  0.00000000  0.00000000  1
  C  C6  1  0.00000000  0.50000000  0.80071300  1
  C  C7  1  0.00000000  0.50000000  0.19928700  1
  C  C8  1  0.50000000  0.00000000  0.80071300  1
  C  C9  1  0.50000000  0.00000000  0.19928700  1
  Ni  Ni10  1  0.50000000  0.50000000  0.50000000  1
  Cu  Cu11  1  0.00000000  0.00000000  0.69988800  1
  Cu  Cu12  1  0.00000000  0.00000000  0.50000000  1
  Cu  Cu13  1  0.00000000  0.00000000  0.09948900  1
  Cu  Cu14  1  0.00000000  0.00000000  0.90051100  1
  Cu  Cu15  1  0.00000000  0.00000000  0.30011200  1
  Cu  Cu16  1  0.50000000  0.50000000  0.70609800  1
  Cu  Cu17  1  0.50000000  0.50000000  0.09875600  1
  Cu  Cu18  1  0.50000000  0.50000000  0.90124400  1
  Cu  Cu19  1  0.50000000  0.50000000  0.29390200  1
  C  C20  1  0.74221700  0.25778300  0.28370000  1
  C  C21  1  0.50000000  0.50000000  0.60252600  1
  C  C22  1  0.50000000  0.50000000  0.39747400  1
  C  C23  1  0.50000000  0.50000000  0.00000000  1
  C  C24  1  0.50000000  0.50000000  0.80880100  1
  C  C25  1  0.50000000  0.50000000  0.19119900  1
  C  C26  1  0.75107200  0.75107200  0.50000000  1
  C  C27  1  0.74221700  0.74221700  0.71630000  1
  C  C28  1  0.75048400  0.75048400  0.90472900  1
  C  C29  1  0.75048400  0.75048400  0.09527100  1
  C  C30  1  0.74221700  0.74221700  0.28370000  1
  C  C31  1  0.74221700  0.25778300  0.71630000  1
  C  C32  1  0.25778300  0.74221700  0.28370000  1
  C  C33  1  0.00000000  0.00000000  0.60931600  1
  C  C34  1  0.75107200  0.24892800  0.50000000  1
  C  C35  1  0.75048400  0.24951600  0.09527100  1
  C  C36  1  0.00000000  0.00000000  0.39068400  1
  C  C37  1  0.75048400  0.24951600  0.90472900  1
  C  C38  1  0.00000000  0.00000000  0.80468700  1
  C  C39  1  0.00000000  0.00000000  0.00000000  1
  C  C40  1  0.00000000  0.00000000  0.19531300  1
  C  C41  1  0.25778300  0.25778300  0.71630000  1
  C  C42  1  0.24892800  0.24892800  0.50000000  1
  C  C43  1  0.24951600  0.24951600  0.09527100  1
  C  C44  1  0.24951600  0.24951600  0.90472900  1
  C  C45  1  0.25778300  0.25778300  0.28370000  1
  C  C46  1  0.24892800  0.75107200  0.50000000  1
  C  C47  1  0.25778300  0.74221700  0.71630000  1
  C  C48  1  0.24951600  0.75048400  0.90472900  1
  C  C49  1  0.24951600  0.75048400  0.09527100  1
