# generated using pymatgen
data_Cu3Ni3C22
_symmetry_space_group_name_H-M   'P 1'
_cell_length_a   5.91244400
_cell_length_b   5.91625894
_cell_length_c   9.59886826
_cell_angle_alpha   89.96863100
_cell_angle_beta   90.35349919
_cell_angle_gamma   119.83457325
_symmetry_Int_Tables_number   1
_chemical_formula_structural   Cu3Ni3C22
_chemical_formula_sum   'Cu3 Ni3 C22'
_cell_volume   291.25695945
_cell_formula_units_Z   1
loop_
 _symmetry_equiv_pos_site_id
 _symmetry_equiv_pos_as_xyz
  1  'x, y, z'
loop_
 _atom_site_type_symbol
 _atom_site_label
 _atom_site_symmetry_multiplicity
 _atom_site_fract_x
 _atom_site_fract_y
 _atom_site_fract_z
 _atom_site_occupancy
  C  C0  1  0.66258400  0.32922200  0.89270200  1
  C  C1  1  0.99817300  0.00434700  0.99485300  1
  C  C2  1  0.99960100  0.99912300  0.49733500  1
  C  C3  1  0.33294500  0.66804500  0.39578600  1
  Ni  Ni4  1  0.16642600  0.81999300  0.71971000  1
  Ni  Ni5  1  0.83263500  0.66094700  0.21476200  1
  Ni  Ni6  1  0.33971700  0.16824300  0.21554200  1
  Cu  Cu7  1  0.82998500  0.17069800  0.21306900  1
  Cu  Cu8  1  0.66040700  0.83080600  0.71375700  1
  Cu  Cu9  1  0.17219700  0.33424800  0.70986400  1
  C  C10  1  0.67277300  0.34037500  0.49140700  1
  C  C11  1  0.33703200  0.66240200  0.99069800  1
  C  C12  1  0.84236900  0.67422900  0.59988700  1
  C  C13  1  0.51891300  0.48353000  0.33440800  1
  C  C14  1  0.66090500  0.33807100  0.10326700  1
  C  C15  1  0.00254900  0.99981000  0.31062200  1
  C  C16  1  0.00505000  0.99996400  0.80934100  1
  C  C17  1  0.32770800  0.17068100  0.60358200  1
  C  C18  1  0.96165800  0.48846100  0.33807200  1
  C  C19  1  0.51438700  0.04138900  0.33930400  1
  C  C20  1  0.16365200  0.83451300  0.10263900  1
  C  C21  1  0.84932100  0.17416700  0.60440500  1
  C  C22  1  0.47381300  0.95921400  0.84026200  1
  C  C23  1  0.03502300  0.51333800  0.83473600  1
  C  C24  1  0.32677600  0.66800900  0.60351500  1
  C  C25  1  0.67517100  0.83056900  0.10017600  1
  C  C26  1  0.46939300  0.51011700  0.83308800  1
  C  C27  1  0.16913600  0.32579000  0.10105100  1
