# generated using pymatgen
data_Cu(NiC3)2
_symmetry_space_group_name_H-M   'P 1'
_cell_length_a   6.70511216
_cell_length_b   6.70511216
_cell_length_c   6.70511216
_cell_angle_alpha   145.50365989
_cell_angle_beta   130.65440744
_cell_angle_gamma   61.59784547
_symmetry_Int_Tables_number   1
_chemical_formula_structural   Cu(NiC3)2
_chemical_formula_sum   'Cu1 Ni2 C6'
_cell_volume   128.19950923
_cell_formula_units_Z   1
loop_
 _symmetry_equiv_pos_site_id
 _symmetry_equiv_pos_as_xyz
  1  'x, y, z'
loop_
 _atom_site_type_symbol
 _atom_site_label
 _atom_site_symmetry_multiplicity
 _atom_site_fract_x
 _atom_site_fract_y
 _atom_site_fract_z
 _atom_site_occupancy
  Ni  Ni0  1  0.66361500  0.66361500  0.00000000  1
  Ni  Ni1  1  0.33638500  0.33638500  0.00000000  1
  Cu  Cu2  1  0.00000000  0.00000000  0.00000000  1
  C  C3  1  0.91629200  0.14906600  0.76722700  1
  C  C4  1  0.77840000  0.50000000  0.27840000  1
  C  C5  1  0.38183900  0.14906600  0.23277300  1
  C  C6  1  0.61816100  0.85093400  0.76722700  1
  C  C7  1  0.22160000  0.50000000  0.72160000  1
  C  C8  1  0.08370800  0.85093400  0.23277300  1
