# generated using pymatgen
data_Cu8Ni4C65
_symmetry_space_group_name_H-M   'P 1'
_cell_length_a   9.35824148
_cell_length_b   9.39889883
_cell_length_c   18.72311151
_cell_angle_alpha   57.96576458
_cell_angle_beta   58.66300020
_cell_angle_gamma   58.00918722
_symmetry_Int_Tables_number   1
_chemical_formula_structural   Cu8Ni4C65
_chemical_formula_sum   'Cu8 Ni4 C65'
_cell_volume   1116.68726251
_cell_formula_units_Z   1
loop_
 _symmetry_equiv_pos_site_id
 _symmetry_equiv_pos_as_xyz
  1  'x, y, z'
loop_
 _atom_site_type_symbol
 _atom_site_label
 _atom_site_symmetry_multiplicity
 _atom_site_fract_x
 _atom_site_fract_y
 _atom_site_fract_z
 _atom_site_occupancy
  C  C0  1  0.12711400  0.38981900  0.37763600  1
  C  C1  1  0.44549900  0.59287500  0.22718100  1
  C  C2  1  0.64636600  0.24084300  0.43551500  1
  C  C3  1  0.10825200  0.39644600  0.87699600  1
  C  C4  1  0.90462700  0.64256200  0.12373600  1
  C  C5  1  0.07862500  0.94219600  0.48180300  1
  C  C6  1  0.37990200  0.60711800  0.75611900  1
  C  C7  1  0.68356400  0.22094100  0.93670400  1
  C  C8  1  0.88991900  0.59148500  0.62640800  1
  C  C9  1  0.14256800  0.13280400  0.08220600  1
  C  C10  1  0.38508800  0.34356100  0.17180300  1
  C  C11  1  0.14204400  0.13826700  0.58327100  1
  C  C12  1  0.37988900  0.33408100  0.67308900  1
  C  C13  1  0.64891200  0.64669800  0.32534200  1
  C  C14  1  0.87312300  0.84974300  0.41238800  1
  C  C15  1  0.64204100  0.64663800  0.83106400  1
  C  C16  1  0.90816900  0.83912000  0.89744500  1
  Ni  Ni17  1  0.04558000  0.73702200  0.23342800  1
  Ni  Ni18  1  0.43490400  0.03474100  0.38400300  1
  Ni  Ni19  1  0.04160100  0.74496600  0.68814800  1
  Ni  Ni20  1  0.44211800  0.03935100  0.88253800  1
  Cu  Cu21  1  0.74682500  0.47282800  0.02187100  1
  Cu  Cu22  1  0.26341100  0.51887800  0.47330900  1
  Cu  Cu23  1  0.54789300  0.94663700  0.12657400  1
  Cu  Cu24  1  0.00164200  0.24720800  0.27220800  1
  Cu  Cu25  1  0.74609200  0.46219000  0.52230700  1
  Cu  Cu26  1  0.26372500  0.51696400  0.97941700  1
  Cu  Cu27  1  0.55813800  0.94260600  0.62286600  1
  Cu  Cu28  1  0.01504100  0.24978200  0.76717600  1
  C  C29  1  0.31008100  0.46699700  0.06083400  1
  C  C30  1  0.05767600  0.92613200  0.15725000  1
  C  C31  1  0.50678900  0.10218800  0.15142800  1
  C  C32  1  0.21897000  0.56245500  0.21059700  1
  C  C33  1  0.59790000  0.03740800  0.40109600  1
  C  C34  1  0.25691500  0.06463900  0.46909200  1
  C  C35  1  0.40056900  0.21248800  0.29682400  1
  C  C36  1  0.59101100  0.43987800  0.11365100  1
  C  C37  1  0.22983100  0.36753200  0.47981800  1
  C  C38  1  0.09208400  0.69054300  0.47228300  1
  C  C39  1  0.37958800  0.97115000  0.11869100  1
  C  C40  1  0.75076200  0.00881400  0.31691400  1
  C  C41  1  0.92092100  0.31452800  0.03310400  1
  C  C42  1  0.76226200  0.65072400  0.99421900  1
  C  C43  1  0.42551500  0.55087600  0.38636500  1
  C  C44  1  0.31315800  0.46013700  0.55394700  1
  C  C45  1  0.58488600  0.76425700  0.20716000  1
  C  C46  1  0.05683400  0.93429900  0.65737600  1
  C  C47  1  0.71453200  0.93272300  0.04406900  1
  C  C48  1  0.53372300  0.10036600  0.63899500  1
  C  C49  1  0.21926700  0.56498200  0.69926800  1
  C  C50  1  0.60766300  0.04759300  0.89356000  1
  C  C51  1  0.02056400  0.23257100  0.18720800  1
  C  C52  1  0.80899900  0.40702800  0.29025800  1
  C  C53  1  0.49170400  0.85140400  0.37268000  1
  C  C54  1  0.27019800  0.07155700  0.96897200  1
  C  C55  1  0.95784800  0.07281300  0.36074600  1
  C  C56  1  0.39493500  0.21482400  0.79528500  1
  C  C57  1  0.71329500  0.47294700  0.44581800  1
  C  C58  1  0.59164100  0.42613100  0.61082300  1
  C  C59  1  0.23924100  0.35607400  0.99113000  1
  C  C60  1  0.09190300  0.68267500  0.97927000  1
  C  C61  1  0.86862600  0.70968400  0.25296000  1
  C  C62  1  0.39094600  0.98587300  0.60679200  1
  C  C63  1  0.75887800  0.01067600  0.81065200  1
  C  C64  1  0.92278600  0.30588600  0.53075900  1
  C  C65  1  0.76211400  0.63932400  0.49894700  1
  C  C66  1  0.42658500  0.54642600  0.89254700  1
  C  C67  1  0.05182100  0.71368700  0.32588800  1
  C  C68  1  0.58588700  0.76410300  0.70394900  1
  C  C69  1  0.72813000  0.91897100  0.53909300  1
  C  C70  1  0.02549100  0.25862500  0.67551500  1
  C  C71  1  0.82465200  0.40570700  0.79061800  1
  C  C72  1  0.49537200  0.85735700  0.87006600  1
  C  C73  1  0.98452600  0.07075200  0.84448000  1
  C  C74  1  0.70733800  0.47109200  0.95118600  1
  C  C75  1  0.85907100  0.71169800  0.76285200  1
  C  C76  1  0.08424400  0.70023600  0.82591500  1
