# generated using pymatgen
data_Cu(NiC12)2
_symmetry_space_group_name_H-M   'P 1'
_cell_length_a   10.61164822
_cell_length_b   10.52422481
_cell_length_c   10.19810692
_cell_angle_alpha   61.58215187
_cell_angle_beta   60.72171207
_cell_angle_gamma   57.69613606
_symmetry_Int_Tables_number   1
_chemical_formula_structural   Cu(NiC12)2
_chemical_formula_sum   'Cu2 Ni4 C48'
_cell_volume   803.33015930
_cell_formula_units_Z   2
loop_
 _symmetry_equiv_pos_site_id
 _symmetry_equiv_pos_as_xyz
  1  'x, y, z'
loop_
 _atom_site_type_symbol
 _atom_site_label
 _atom_site_symmetry_multiplicity
 _atom_site_fract_x
 _atom_site_fract_y
 _atom_site_fract_z
 _atom_site_occupancy
  C  C0  1  0.95023800  0.54976200  0.95023800  1
  C  C1  1  0.95170800  0.54829200  0.54829200  1
  C  C2  1  0.70170800  0.29829200  0.29829200  1
  C  C3  1  0.70023800  0.29976200  0.70023800  1
  C  C4  1  0.54976200  0.95023800  0.54976200  1
  C  C5  1  0.54829200  0.95170800  0.95170800  1
  C  C6  1  0.29829200  0.70170800  0.70170800  1
  C  C7  1  0.29976200  0.70023800  0.29976200  1
  Ni  Ni8  1  0.12500000  0.62500000  0.12500000  1
  Ni  Ni9  1  0.62500000  0.12500000  0.12500000  1
  Ni  Ni10  1  0.12500000  0.12500000  0.12500000  1
  Ni  Ni11  1  0.12500000  0.12500000  0.62500000  1
  C  C12  1  0.89362300  0.28708400  0.91209600  1
  C  C13  1  0.96291600  0.35637700  0.34280200  1
  C  C14  1  0.91209600  0.90719800  0.89362300  1
  C  C15  1  0.90719800  0.91209600  0.28708400  1
  C  C16  1  0.34280200  0.33790400  0.96291600  1
  C  C17  1  0.33790400  0.34280200  0.35637700  1
  C  C18  1  0.28708400  0.89362300  0.90719800  1
  C  C19  1  0.35637700  0.96291600  0.33790400  1
  Cu  Cu20  1  0.50000000  0.50000000  0.50000000  1
  Cu  Cu21  1  0.75000000  0.75000000  0.75000000  1
  C  C22  1  0.00690200  0.29468300  0.92195100  1
  C  C23  1  0.55508300  0.55333700  0.32387100  1
  C  C24  1  0.77317500  0.27461500  0.03490200  1
  C  C25  1  0.97538500  0.47682500  0.33269200  1
  C  C26  1  0.03490200  0.91730800  0.77317500  1
  C  C27  1  0.95724800  0.34777500  0.22210000  1
  C  C28  1  0.32387100  0.56770900  0.55508300  1
  C  C29  1  0.55333700  0.55508300  0.56770900  1
  C  C30  1  0.47287600  0.22210000  0.34777500  1
  C  C31  1  0.91730800  0.03490200  0.27461500  1
  C  C32  1  0.95531700  0.24309800  0.47353700  1
  C  C33  1  0.56770900  0.32387100  0.55333700  1
  C  C34  1  0.92195100  0.77646300  0.00690200  1
  C  C35  1  0.77646300  0.92195100  0.29468300  1
  C  C36  1  0.90222500  0.29275200  0.77712400  1
  C  C37  1  0.22210000  0.47287600  0.95724800  1
  C  C38  1  0.02790000  0.77712400  0.29275200  1
  C  C39  1  0.34777500  0.95724800  0.47287600  1
  C  C40  1  0.47353700  0.32804900  0.95531700  1
  C  C41  1  0.32804900  0.47353700  0.24309800  1
  C  C42  1  0.68229100  0.92612900  0.69666300  1
  C  C43  1  0.29468300  0.00690200  0.77646300  1
  C  C44  1  0.33269200  0.21509800  0.97538500  1
  C  C45  1  0.77712400  0.02790000  0.90222500  1
  C  C46  1  0.69666300  0.69491700  0.68229100  1
  C  C47  1  0.92612900  0.68229100  0.69491700  1
  C  C48  1  0.29275200  0.90222500  0.02790000  1
  C  C49  1  0.21509800  0.33269200  0.47682500  1
  C  C50  1  0.27461500  0.77317500  0.91730800  1
  C  C51  1  0.47682500  0.97538500  0.21509800  1
  C  C52  1  0.69491700  0.69666300  0.92612900  1
  C  C53  1  0.24309800  0.95531700  0.32804900  1
