# generated using pymatgen
data_CuNi12C17
_symmetry_space_group_name_H-M   'P 1'
_cell_length_a   7.25637778
_cell_length_b   7.25637778
_cell_length_c   11.46068600
_cell_angle_alpha   90.00000000
_cell_angle_beta   90.00000000
_cell_angle_gamma   99.95822243
_symmetry_Int_Tables_number   1
_chemical_formula_structural   CuNi12C17
_chemical_formula_sum   'Cu2 Ni24 C34'
_cell_volume   594.37092997
_cell_formula_units_Z   2
loop_
 _symmetry_equiv_pos_site_id
 _symmetry_equiv_pos_as_xyz
  1  'x, y, z'
loop_
 _atom_site_type_symbol
 _atom_site_label
 _atom_site_symmetry_multiplicity
 _atom_site_fract_x
 _atom_site_fract_y
 _atom_site_fract_z
 _atom_site_occupancy
  C  C0  1  0.10428600  0.10428600  0.50000000  1
  C  C1  1  0.60428600  0.60428600  0.00000000  1
  C  C2  1  0.10183800  0.29678400  0.31903300  1
  C  C3  1  0.29678400  0.10183800  0.68096700  1
  C  C4  1  0.60183800  0.79678400  0.18096700  1
  C  C5  1  0.79678400  0.60183800  0.81903300  1
  C  C6  1  0.07152100  0.96352400  0.30022000  1
  C  C7  1  0.96352400  0.07152100  0.69978000  1
  C  C8  1  0.57152100  0.46352400  0.19978000  1
  C  C9  1  0.46352400  0.57152100  0.80022000  1
  Ni  Ni10  1  0.10460200  0.45500300  0.17835100  1
  Ni  Ni11  1  0.45500300  0.10460200  0.82164900  1
  Ni  Ni12  1  0.60460200  0.95500300  0.32164900  1
  Ni  Ni13  1  0.95500300  0.60460200  0.67835100  1
  Ni  Ni14  1  0.05365100  0.69268200  0.25870700  1
  Ni  Ni15  1  0.69268200  0.05365100  0.74129300  1
  Ni  Ni16  1  0.55365100  0.19268200  0.24129300  1
  Ni  Ni17  1  0.19268200  0.55365100  0.75870700  1
  Ni  Ni18  1  0.48063000  0.99634300  0.50053100  1
  Ni  Ni19  1  0.99634300  0.48063000  0.49946900  1
  Ni  Ni20  1  0.98063000  0.49634300  0.99946900  1
  Ni  Ni21  1  0.49634300  0.98063000  0.00053100  1
  Ni  Ni22  1  0.69986100  0.99498100  0.50928200  1
  Ni  Ni23  1  0.99498100  0.69986100  0.49071800  1
  Ni  Ni24  1  0.19986100  0.49498100  0.99071800  1
  Ni  Ni25  1  0.49498100  0.19986100  0.00928200  1
  Ni  Ni26  1  0.02502300  0.14623700  0.04104600  1
  Ni  Ni27  1  0.14623700  0.02502300  0.95895400  1
  Ni  Ni28  1  0.52502300  0.64623700  0.45895400  1
  Ni  Ni29  1  0.64623700  0.52502300  0.54104600  1
  Ni  Ni30  1  0.91323200  0.00071600  0.93829200  1
  Ni  Ni31  1  0.00071600  0.91323200  0.06170800  1
  Ni  Ni32  1  0.41323200  0.50071600  0.56170800  1
  Ni  Ni33  1  0.50071600  0.41323200  0.43829200  1
  Cu  Cu34  1  0.01862500  0.01862500  0.00000000  1
  Cu  Cu35  1  0.51862500  0.51862500  0.50000000  1
  C  C36  1  0.11045400  0.28514700  0.43757800  1
  C  C37  1  0.28514700  0.11045400  0.56242200  1
  C  C38  1  0.61045400  0.78514700  0.06242200  1
  C  C39  1  0.78514700  0.61045400  0.93757800  1
  C  C40  1  0.08042800  0.94287400  0.41839600  1
  C  C41  1  0.94287400  0.08042800  0.58160400  1
  C  C42  1  0.58042800  0.44287400  0.08160400  1
  C  C43  1  0.44287400  0.58042800  0.91839600  1
  C  C44  1  0.08332300  0.13874700  0.24864700  1
  C  C45  1  0.13874700  0.08332300  0.75135300  1
  C  C46  1  0.58332300  0.63874700  0.25135300  1
  C  C47  1  0.63874700  0.58332300  0.74864700  1
  C  C48  1  0.10962400  0.46749800  0.26567200  1
  C  C49  1  0.46749800  0.10962400  0.73432800  1
  C  C50  1  0.60962400  0.96749800  0.23432800  1
  C  C51  1  0.96749800  0.60962400  0.76567200  1
  C  C52  1  0.04866900  0.81653000  0.22350100  1
  C  C53  1  0.81653000  0.04866900  0.77649900  1
  C  C54  1  0.54866900  0.31653000  0.27649900  1
  C  C55  1  0.31653000  0.54866900  0.72350100  1
  C  C56  1  0.58307500  0.93619400  0.46976900  1
  C  C57  1  0.93619400  0.58307500  0.53023100  1
  C  C58  1  0.08307500  0.43619400  0.03023100  1
  C  C59  1  0.43619400  0.08307500  0.96976900  1
