# generated using pymatgen
data_Cu3NiC30
_symmetry_space_group_name_H-M   'P 1'
_cell_length_a   8.92540099
_cell_length_b   8.92540099
_cell_length_c   8.92540072
_cell_angle_alpha   58.92197866
_cell_angle_beta   58.92197866
_cell_angle_gamma   58.92198500
_symmetry_Int_Tables_number   1
_chemical_formula_structural   Cu3NiC30
_chemical_formula_sum   'Cu3 Ni1 C30'
_cell_volume   490.39990151
_cell_formula_units_Z   1
loop_
 _symmetry_equiv_pos_site_id
 _symmetry_equiv_pos_as_xyz
  1  'x, y, z'
loop_
 _atom_site_type_symbol
 _atom_site_label
 _atom_site_symmetry_multiplicity
 _atom_site_fract_x
 _atom_site_fract_y
 _atom_site_fract_z
 _atom_site_occupancy
  Ni  Ni0  1  0.85895400  0.85895400  0.85895400  1
  C  C1  1  0.46933400  0.75062800  0.03426600  1
  C  C2  1  0.75062800  0.03426600  0.46933400  1
  C  C3  1  0.03426600  0.46933400  0.75062800  1
  C  C4  1  0.96269600  0.54102400  0.24599200  1
  C  C5  1  0.24599200  0.96269600  0.54102400  1
  C  C6  1  0.54102400  0.24599200  0.96269600  1
  Cu  Cu7  1  0.14246900  0.14246900  0.14246900  1
  Cu  Cu8  1  0.35769500  0.35769500  0.35769500  1
  Cu  Cu9  1  0.64270600  0.64270600  0.64270600  1
  C  C10  1  0.51172200  0.27883700  0.12922600  1
  C  C11  1  0.12922600  0.51172200  0.27883700  1
  C  C12  1  0.28887700  0.92146100  0.06003600  1
  C  C13  1  0.27883700  0.12922600  0.51172200  1
  C  C14  1  0.44073300  0.58258900  0.20987700  1
  C  C15  1  0.63859700  0.78176600  0.99936400  1
  C  C16  1  0.92146100  0.06003600  0.28887700  1
  C  C17  1  0.58258900  0.20987700  0.44073300  1
  C  C18  1  0.20987700  0.44073300  0.58258900  1
  C  C19  1  0.99022900  0.36805900  0.22006700  1
  C  C20  1  0.93557700  0.71394100  0.07547300  1
  C  C21  1  0.22006700  0.99022900  0.36805900  1
  C  C22  1  0.78176600  0.99936400  0.63859700  1
  C  C23  1  0.06003600  0.28887700  0.92146100  1
  C  C24  1  0.99936400  0.63859700  0.78176600  1
  C  C25  1  0.78642100  0.56422300  0.41976800  1
  C  C26  1  0.41976800  0.78642100  0.56422300  1
  C  C27  1  0.07547300  0.93557700  0.71394100  1
  C  C28  1  0.36805900  0.22006700  0.99022900  1
  C  C29  1  0.56422300  0.41976800  0.78642100  1
  C  C30  1  0.71991700  0.86637400  0.49110300  1
  C  C31  1  0.71394100  0.07547300  0.93557700  1
  C  C32  1  0.86637400  0.49110300  0.71991700  1
  C  C33  1  0.49110300  0.71991700  0.86637400  1
