# generated using pymatgen
data_CuNiC5
_symmetry_space_group_name_H-M   'P 1'
_cell_length_a   6.14553431
_cell_length_b   6.14553431
_cell_length_c   6.14553431
_cell_angle_alpha   121.36222894
_cell_angle_beta   118.58438625
_cell_angle_gamma   90.06305902
_symmetry_Int_Tables_number   1
_chemical_formula_structural   CuNiC5
_chemical_formula_sum   'Cu2 Ni2 C10'
_cell_volume   164.06657147
_cell_formula_units_Z   2
loop_
 _symmetry_equiv_pos_site_id
 _symmetry_equiv_pos_as_xyz
  1  'x, y, z'
loop_
 _atom_site_type_symbol
 _atom_site_label
 _atom_site_symmetry_multiplicity
 _atom_site_fract_x
 _atom_site_fract_y
 _atom_site_fract_z
 _atom_site_occupancy
  C  C0  1  0.12568400  0.87568400  0.25000000  1
  C  C1  1  0.87431600  0.12431600  0.75000000  1
  Ni  Ni2  1  0.50000000  0.50000000  0.50000000  1
  Ni  Ni3  1  0.50000000  0.00000000  0.00000000  1
  Cu  Cu4  1  0.00000000  0.50000000  0.50000000  1
  Cu  Cu5  1  0.50000000  0.50000000  0.00000000  1
  C  C6  1  0.72735400  0.25990400  0.46745000  1
  C  C7  1  0.29245300  0.25990400  0.03255000  1
  C  C8  1  0.73981200  0.25819100  0.01837900  1
  C  C9  1  0.73981200  0.72143300  0.48162100  1
  C  C10  1  0.26018800  0.27856700  0.51837900  1
  C  C11  1  0.26018800  0.74180900  0.98162100  1
  C  C12  1  0.70754700  0.74009600  0.96745000  1
  C  C13  1  0.27264600  0.74009600  0.53255000  1
