# generated using pymatgen
data_Cu9Ni15C32
_symmetry_space_group_name_H-M   'P 1'
_cell_length_a   5.85238555
_cell_length_b   5.85238555
_cell_length_c   19.30884358
_cell_angle_alpha   81.63536319
_cell_angle_beta   81.63536319
_cell_angle_gamma   59.55940626
_symmetry_Int_Tables_number   1
_chemical_formula_structural   Cu9Ni15C32
_chemical_formula_sum   'Cu9 Ni15 C32'
_cell_volume   562.10836581
_cell_formula_units_Z   1
loop_
 _symmetry_equiv_pos_site_id
 _symmetry_equiv_pos_as_xyz
  1  'x, y, z'
loop_
 _atom_site_type_symbol
 _atom_site_label
 _atom_site_symmetry_multiplicity
 _atom_site_fract_x
 _atom_site_fract_y
 _atom_site_fract_z
 _atom_site_occupancy
  Ni  Ni0  1  0.00000000  0.50000000  0.50000000  1
  Ni  Ni1  1  0.24980100  0.24980100  0.24920500  1
  Ni  Ni2  1  0.62722100  0.62722100  0.62569800  1
  Ni  Ni3  1  0.37277900  0.37277900  0.37430200  1
  Ni  Ni4  1  0.50000000  0.00000000  0.50000000  1
  Ni  Ni5  1  0.25064000  0.74943900  0.24955200  1
  Ni  Ni6  1  0.74943900  0.25064000  0.24955200  1
  Ni  Ni7  1  0.12525700  0.12525700  0.12472700  1
  Ni  Ni8  1  0.74936000  0.25056100  0.75044800  1
  Ni  Ni9  1  0.50000000  0.00000000  0.00000000  1
  Ni  Ni10  1  0.00000000  0.50000000  0.00000000  1
  Ni  Ni11  1  0.75019900  0.75019900  0.75079500  1
  Ni  Ni12  1  0.00000000  0.00000000  0.00000000  1
  Ni  Ni13  1  0.87474300  0.87474300  0.87527300  1
  Ni  Ni14  1  0.25056100  0.74936000  0.75044800  1
  Cu  Cu15  1  0.96954800  0.96954800  0.59330100  1
  Cu  Cu16  1  0.50000000  0.50000000  0.50000000  1
  Cu  Cu17  1  0.03045200  0.03045200  0.40669900  1
  Cu  Cu18  1  0.46851400  0.46851400  0.09304600  1
  Cu  Cu19  1  0.71816700  0.71816700  0.34292600  1
  Cu  Cu20  1  0.53148600  0.53148600  0.90695400  1
  Cu  Cu21  1  0.78232500  0.78232500  0.15664700  1
  Cu  Cu22  1  0.21767500  0.21767500  0.84335300  1
  Cu  Cu23  1  0.28183300  0.28183300  0.65707400  1
  C  C24  1  0.80079900  0.35724600  0.55995100  1
  C  C25  1  0.79494000  0.79494000  0.55939900  1
  C  C26  1  0.31421300  0.31421300  0.55081800  1
  C  C27  1  0.20506000  0.20506000  0.44060100  1
  C  C28  1  0.19920100  0.64275400  0.44004900  1
  C  C29  1  0.64275400  0.19920100  0.44004900  1
  C  C30  1  0.35724600  0.80079900  0.55995100  1
  C  C31  1  0.10472500  0.54249500  0.30747800  1
  C  C32  1  0.29229200  0.29229200  0.05904300  1
  C  C33  1  0.54217500  0.54217500  0.30818600  1
  C  C34  1  0.68578700  0.68578700  0.44918200  1
  C  C35  1  0.43250000  0.43250000  0.19859700  1
  C  C36  1  0.06719100  0.06719100  0.30049900  1
  C  C37  1  0.39558100  0.95453900  0.19110000  1
  C  C38  1  0.95453900  0.39558100  0.19110000  1
  C  C39  1  0.70569100  0.14501900  0.94184000  1
  C  C40  1  0.29430900  0.85498100  0.05816000  1
  C  C41  1  0.54249500  0.10472500  0.30747800  1
  C  C42  1  0.85498100  0.29430900  0.05816000  1
  C  C43  1  0.18293800  0.18293800  0.94901200  1
  C  C44  1  0.81706200  0.81706200  0.05098800  1
  C  C45  1  0.95825700  0.95825700  0.19058500  1
  C  C46  1  0.56750000  0.56750000  0.80140300  1
  C  C47  1  0.70770800  0.70770800  0.94095700  1
  C  C48  1  0.14501900  0.70569100  0.94184000  1
  C  C49  1  0.89527500  0.45750500  0.69252200  1
  C  C50  1  0.04546100  0.60441900  0.80890000  1
  C  C51  1  0.60441900  0.04546100  0.80890000  1
  C  C52  1  0.04174300  0.04174300  0.80941500  1
  C  C53  1  0.93280900  0.93280900  0.69950100  1
  C  C54  1  0.45782500  0.45782500  0.69181400  1
  C  C55  1  0.45750500  0.89527500  0.69252200  1
