# generated using pymatgen
data_Cu(NiC4)2
_symmetry_space_group_name_H-M   'P 1'
_cell_length_a   7.42255700
_cell_length_b   9.40371500
_cell_length_c   14.17945600
_cell_angle_alpha   90.00000000
_cell_angle_beta   90.00000000
_cell_angle_gamma   90.00000000
_symmetry_Int_Tables_number   1
_chemical_formula_structural   Cu(NiC4)2
_chemical_formula_sum   'Cu8 Ni16 C64'
_cell_volume   989.72050731
_cell_formula_units_Z   8
loop_
 _symmetry_equiv_pos_site_id
 _symmetry_equiv_pos_as_xyz
  1  'x, y, z'
loop_
 _atom_site_type_symbol
 _atom_site_label
 _atom_site_symmetry_multiplicity
 _atom_site_fract_x
 _atom_site_fract_y
 _atom_site_fract_z
 _atom_site_occupancy
  C  C0  1  0.05783000  0.66352700  0.02321000  1
  C  C1  1  0.44217000  0.66352700  0.02321000  1
  C  C2  1  0.99929100  0.20630500  0.04923200  1
  C  C3  1  0.50070900  0.20630500  0.04923200  1
  C  C4  1  0.09948300  0.36424200  0.05815400  1
  C  C5  1  0.40051700  0.36424200  0.05815400  1
  C  C6  1  0.03459400  0.93669400  0.13518800  1
  C  C7  1  0.46540600  0.93669400  0.13518800  1
  C  C8  1  0.46155300  0.79070900  0.19941300  1
  C  C9  1  0.03844700  0.79070900  0.19941300  1
  C  C10  1  0.59909700  0.92375900  0.22907500  1
  C  C11  1  0.90090300  0.92375900  0.22907500  1
  C  C12  1  0.09909700  0.42375900  0.27092500  1
  C  C13  1  0.40090300  0.42375900  0.27092500  1
  C  C14  1  0.53844700  0.29070900  0.30058700  1
  C  C15  1  0.96155300  0.29070900  0.30058700  1
  C  C16  1  0.96540600  0.43669400  0.36481200  1
  C  C17  1  0.53459400  0.43669400  0.36481200  1
  C  C18  1  0.90051700  0.86424200  0.44184600  1
  C  C19  1  0.59948300  0.86424200  0.44184600  1
  C  C20  1  0.00070900  0.70630500  0.45076800  1
  C  C21  1  0.49929100  0.70630500  0.45076800  1
  C  C22  1  0.55783000  0.16352700  0.47679000  1
  C  C23  1  0.94217000  0.16352700  0.47679000  1
  C  C24  1  0.05783000  0.83647300  0.52321000  1
  C  C25  1  0.44217000  0.83647300  0.52321000  1
  C  C26  1  0.99929100  0.29369500  0.54923200  1
  C  C27  1  0.50070900  0.29369500  0.54923200  1
  C  C28  1  0.09948300  0.13575800  0.55815400  1
  C  C29  1  0.40051700  0.13575800  0.55815400  1
  C  C30  1  0.03459400  0.56330600  0.63518800  1
  C  C31  1  0.46540600  0.56330600  0.63518800  1
  C  C32  1  0.03844700  0.70929100  0.69941300  1
  C  C33  1  0.46155300  0.70929100  0.69941300  1
  C  C34  1  0.59909700  0.57624100  0.72907500  1
  C  C35  1  0.90090300  0.57624100  0.72907500  1
  C  C36  1  0.09909700  0.07624100  0.77092500  1
  C  C37  1  0.40090300  0.07624100  0.77092500  1
  C  C38  1  0.53844700  0.20929100  0.80058700  1
  C  C39  1  0.96155300  0.20929100  0.80058700  1
  C  C40  1  0.53459400  0.06330600  0.86481200  1
  C  C41  1  0.96540600  0.06330600  0.86481200  1
  C  C42  1  0.59948300  0.63575800  0.94184600  1
  C  C43  1  0.90051700  0.63575800  0.94184600  1
  C  C44  1  0.49929100  0.79369500  0.95076800  1
  C  C45  1  0.00070900  0.79369500  0.95076800  1
  C  C46  1  0.55783000  0.33647300  0.97679000  1
  C  C47  1  0.94217000  0.33647300  0.97679000  1
  C  C48  1  0.75000000  0.78011300  0.08527700  1
  C  C49  1  0.25000000  0.28011300  0.41472300  1
  C  C50  1  0.75000000  0.71988700  0.58527700  1
  C  C51  1  0.25000000  0.21988700  0.91472300  1
  C  C52  1  0.75000000  0.59230300  0.16651200  1
  C  C53  1  0.25000000  0.09230300  0.33348800  1
  C  C54  1  0.75000000  0.90769700  0.66651200  1
  C  C55  1  0.25000000  0.40769700  0.83348800  1
  Ni  Ni56  1  0.04938300  0.29053400  0.01143900  1
  Ni  Ni57  1  0.45061700  0.29053400  0.01143900  1
  Ni  Ni58  1  0.54518500  0.86814500  0.17323400  1
  Ni  Ni59  1  0.95481500  0.86814500  0.17323400  1
  Ni  Ni60  1  0.04518500  0.36814500  0.32676600  1
  Ni  Ni61  1  0.45481500  0.36814500  0.32676600  1
  Ni  Ni62  1  0.95061700  0.79053400  0.48856100  1
  Ni  Ni63  1  0.54938300  0.79053400  0.48856100  1
  Ni  Ni64  1  0.04938300  0.20946600  0.51143900  1
  Ni  Ni65  1  0.45061700  0.20946600  0.51143900  1
  Ni  Ni66  1  0.54518500  0.63185500  0.67323400  1
  Ni  Ni67  1  0.95481500  0.63185500  0.67323400  1
  Ni  Ni68  1  0.04518500  0.13185500  0.82676600  1
  Ni  Ni69  1  0.45481500  0.13185500  0.82676600  1
  Ni  Ni70  1  0.54938300  0.70946600  0.98856100  1
  Ni  Ni71  1  0.95061700  0.70946600  0.98856100  1
  Cu  Cu72  1  0.75000000  0.00758500  0.00392600  1
  Cu  Cu73  1  0.25000000  0.56587100  0.15087700  1
  Cu  Cu74  1  0.75000000  0.06587100  0.34912300  1
  Cu  Cu75  1  0.25000000  0.50758500  0.49607400  1
  Cu  Cu76  1  0.75000000  0.49241500  0.50392600  1
  Cu  Cu77  1  0.25000000  0.93412900  0.65087700  1
  Cu  Cu78  1  0.75000000  0.43412900  0.84912300  1
  Cu  Cu79  1  0.25000000  0.99241500  0.99607400  1
  C  C80  1  0.75000000  0.44579700  0.13021800  1
  C  C81  1  0.25000000  0.10160400  0.23007100  1
  C  C82  1  0.75000000  0.60160400  0.26992900  1
  C  C83  1  0.25000000  0.94579700  0.36978200  1
  C  C84  1  0.75000000  0.05420300  0.63021800  1
  C  C85  1  0.25000000  0.39839600  0.73007100  1
  C  C86  1  0.75000000  0.89839600  0.76992900  1
  C  C87  1  0.25000000  0.55420300  0.86978200  1
