# generated using pymatgen
data_Cu12NiC27
_symmetry_space_group_name_H-M   'P 1'
_cell_length_a   10.53878500
_cell_length_b   12.89559700
_cell_length_c   14.38905666
_cell_angle_alpha   66.62768478
_cell_angle_beta   90.00000000
_cell_angle_gamma   90.00000000
_symmetry_Int_Tables_number   1
_chemical_formula_structural   Cu12NiC27
_chemical_formula_sum   'Cu48 Ni4 C108'
_cell_volume   1795.07108243
_cell_formula_units_Z   4
loop_
 _symmetry_equiv_pos_site_id
 _symmetry_equiv_pos_as_xyz
  1  'x, y, z'
loop_
 _atom_site_type_symbol
 _atom_site_label
 _atom_site_symmetry_multiplicity
 _atom_site_fract_x
 _atom_site_fract_y
 _atom_site_fract_z
 _atom_site_occupancy
  C  C0  1  0.53345000  0.20857000  0.10971400  1
  C  C1  1  0.03345000  0.29143000  0.89028600  1
  C  C2  1  0.46655000  0.79143000  0.89028600  1
  C  C3  1  0.96655000  0.70857000  0.10971400  1
  C  C4  1  0.36644900  0.03241400  0.34267500  1
  C  C5  1  0.86644900  0.46758600  0.65732500  1
  C  C6  1  0.63355100  0.96758600  0.65732500  1
  C  C7  1  0.13355100  0.53241400  0.34267500  1
  C  C8  1  0.36668700  0.96799200  0.13407300  1
  C  C9  1  0.86668700  0.53200800  0.86592700  1
  C  C10  1  0.63331300  0.03200800  0.86592700  1
  C  C11  1  0.13331300  0.46799200  0.13407300  1
  C  C12  1  0.28736400  0.97416000  0.96938500  1
  C  C13  1  0.78736400  0.52584000  0.03061500  1
  C  C14  1  0.71263600  0.02584000  0.03061500  1
  C  C15  1  0.21263600  0.47416000  0.96938500  1
  C  C16  1  0.16674400  0.92272700  0.06571000  1
  C  C17  1  0.66674400  0.57727300  0.93429000  1
  C  C18  1  0.83325600  0.07727300  0.93429000  1
  C  C19  1  0.33325600  0.42272700  0.06571000  1
  C  C20  1  0.20230600  0.07199700  0.00771900  1
  C  C21  1  0.70230600  0.42800300  0.99228100  1
  C  C22  1  0.79769400  0.92800300  0.99228100  1
  C  C23  1  0.29769400  0.57199700  0.00771900  1
  C  C24  1  0.50015500  0.81386700  0.12060300  1
  C  C25  1  0.00015500  0.68613300  0.87939700  1
  C  C26  1  0.49984500  0.18613300  0.87939700  1
  C  C27  1  0.99984500  0.31386700  0.12060300  1
  C  C28  1  0.52291700  0.82433800  0.24066400  1
  C  C29  1  0.02291700  0.67566200  0.75933600  1
  C  C30  1  0.47708300  0.17566200  0.75933600  1
  C  C31  1  0.97708300  0.32433800  0.24066400  1
  C  C32  1  0.38216400  0.75748500  0.21912200  1
  C  C33  1  0.88216400  0.74251500  0.78087800  1
  C  C34  1  0.61783600  0.24251500  0.78087800  1
  C  C35  1  0.11783600  0.25748500  0.21912200  1
  C  C36  1  0.38404100  0.44337400  0.81213200  1
  C  C37  1  0.88404100  0.05662600  0.18786800  1
  C  C38  1  0.61595900  0.55662600  0.18786800  1
  C  C39  1  0.11595900  0.94337400  0.81213200  1
  C  C40  1  0.53923400  0.45287400  0.75756600  1
  C  C41  1  0.03923400  0.04712600  0.24243400  1
  C  C42  1  0.46076600  0.54712600  0.24243400  1
  C  C43  1  0.96076600  0.95287400  0.75756600  1
  C  C44  1  0.48654200  0.56109300  0.79616100  1
  C  C45  1  0.98654200  0.93890700  0.20383900  1
  C  C46  1  0.51345800  0.43890700  0.20383900  1
  C  C47  1  0.01345800  0.06109300  0.79616100  1
  C  C48  1  0.28885100  0.42429400  0.67012900  1
  C  C49  1  0.78885100  0.07570600  0.32987100  1
  C  C50  1  0.71114900  0.57570600  0.32987100  1
  C  C51  1  0.21114900  0.92429400  0.67012900  1
  C  C52  1  0.32219700  0.52136200  0.54316900  1
  C  C53  1  0.82219700  0.97863800  0.45683100  1
  C  C54  1  0.67780300  0.47863800  0.45683100  1
  C  C55  1  0.17780300  0.02136200  0.54316900  1
  C  C56  1  0.44487500  0.42799800  0.61846100  1
  C  C57  1  0.94487500  0.07200200  0.38153900  1
  C  C58  1  0.55512500  0.57200200  0.38153900  1
  C  C59  1  0.05512500  0.92799800  0.61846100  1
  C  C60  1  0.58315900  0.59263400  0.58892800  1
  C  C61  1  0.08315900  0.90736600  0.41107200  1
  C  C62  1  0.41684100  0.40736600  0.41107200  1
  C  C63  1  0.91684100  0.09263400  0.58892800  1
  C  C64  1  0.46056800  0.69018000  0.51848900  1
  C  C65  1  0.96056800  0.80982000  0.48151100  1
  C  C66  1  0.53943200  0.30982000  0.48151100  1
  C  C67  1  0.03943200  0.19018000  0.51848900  1
  C  C68  1  0.52985100  0.70147700  0.62783000  1
  C  C69  1  0.02985100  0.79852300  0.37217000  1
  C  C70  1  0.47014900  0.29852300  0.37217000  1
  C  C71  1  0.97014900  0.20147700  0.62783000  1
  C  C72  1  0.21629800  0.57604500  0.71324600  1
  C  C73  1  0.71629800  0.92395500  0.28675400  1
  C  C74  1  0.78370200  0.42395500  0.28675400  1
  C  C75  1  0.28370200  0.07604500  0.71324600  1
  C  C76  1  0.32051300  0.69263200  0.69915000  1
  C  C77  1  0.82051300  0.80736800  0.30085000  1
  C  C78  1  0.67948700  0.30736800  0.30085000  1
  C  C79  1  0.17948700  0.19263200  0.69915000  1
  C  C80  1  0.25273300  0.68018200  0.58962200  1
  C  C81  1  0.75273300  0.81981800  0.41037800  1
  C  C82  1  0.74726700  0.31981800  0.41037800  1
  C  C83  1  0.24726700  0.18018200  0.58962200  1
  C  C84  1  0.24076100  0.98635700  0.03224100  1
  C  C85  1  0.74076100  0.51364300  0.96775900  1
  C  C86  1  0.75923900  0.01364300  0.96775900  1
  C  C87  1  0.25923900  0.48635700  0.03224100  1
  C  C88  1  0.45310400  0.82404600  0.18440200  1
  C  C89  1  0.95310400  0.67595400  0.81559800  1
  C  C90  1  0.54689600  0.17595400  0.81559800  1
  C  C91  1  0.04689600  0.32404600  0.18440200  1
  C  C92  1  0.45659700  0.50074200  0.76449100  1
  C  C93  1  0.95659700  0.99925800  0.23550900  1
  C  C94  1  0.54340300  0.49925800  0.23550900  1
  C  C95  1  0.04340300  0.00074200  0.76449100  1
  C  C96  1  0.36153800  0.47835700  0.61945500  1
  C  C97  1  0.86153800  0.02164300  0.38054500  1
  C  C98  1  0.63846200  0.52164300  0.38054500  1
  C  C99  1  0.13846200  0.97835700  0.61945500  1
  C  C100  1  0.50142100  0.64282200  0.59359500  1
  C  C101  1  0.00142100  0.85717800  0.40640500  1
  C  C102  1  0.49857900  0.35717800  0.40640500  1
  C  C103  1  0.99857900  0.14282200  0.59359500  1
  C  C104  1  0.28951300  0.63339800  0.66634300  1
  C  C105  1  0.78951300  0.86660200  0.33365700  1
  C  C106  1  0.71048700  0.36660200  0.33365700  1
  C  C107  1  0.21048700  0.13339800  0.66634300  1
  Ni  Ni108  1  0.40209000  0.56424400  0.66028800  1
  Ni  Ni109  1  0.90209000  0.93575600  0.33971200  1
  Ni  Ni110  1  0.59791000  0.43575600  0.33971200  1
  Ni  Ni111  1  0.09791000  0.06424400  0.66028800  1
  Cu  Cu112  1  0.70900300  0.15816700  0.10827400  1
  Cu  Cu113  1  0.20900300  0.34183300  0.89172600  1
  Cu  Cu114  1  0.29099700  0.84183300  0.89172600  1
  Cu  Cu115  1  0.79099700  0.65816700  0.10827400  1
  Cu  Cu116  1  0.70020600  0.24687300  0.14787300  1
  Cu  Cu117  1  0.20020600  0.25312700  0.85212700  1
  Cu  Cu118  1  0.29979400  0.75312700  0.85212700  1
  Cu  Cu119  1  0.79979400  0.74687300  0.14787300  1
  Cu  Cu120  1  0.45749500  0.28522100  0.19002300  1
  Cu  Cu121  1  0.95749500  0.21477900  0.80997700  1
  Cu  Cu122  1  0.54250500  0.71477900  0.80997700  1
  Cu  Cu123  1  0.04250500  0.78522100  0.19002300  1
  Cu  Cu124  1  0.36510800  0.20400800  0.18215300  1
  Cu  Cu125  1  0.86510800  0.29599200  0.81784700  1
  Cu  Cu126  1  0.63489200  0.79599200  0.81784700  1
  Cu  Cu127  1  0.13489200  0.70400800  0.18215300  1
  Cu  Cu128  1  0.19636900  0.09237000  0.35208600  1
  Cu  Cu129  1  0.69636900  0.40763000  0.64791400  1
  Cu  Cu130  1  0.80363100  0.90763000  0.64791400  1
  Cu  Cu131  1  0.30363100  0.59237000  0.35208600  1
  Cu  Cu132  1  0.29499800  0.13105400  0.40363200  1
  Cu  Cu133  1  0.79499800  0.36894600  0.59636800  1
  Cu  Cu134  1  0.70500200  0.86894600  0.59636800  1
  Cu  Cu135  1  0.20500200  0.63105400  0.40363200  1
  Cu  Cu136  1  0.53510900  0.08701000  0.35915700  1
  Cu  Cu137  1  0.03510900  0.41299000  0.64084300  1
  Cu  Cu138  1  0.46489100  0.91299000  0.64084300  1
  Cu  Cu139  1  0.96489100  0.58701000  0.35915700  1
  Cu  Cu140  1  0.54080600  0.04722400  0.27676600  1
  Cu  Cu141  1  0.04080600  0.45277600  0.72323400  1
  Cu  Cu142  1  0.45919400  0.95277600  0.72323400  1
  Cu  Cu143  1  0.95919400  0.54722400  0.27676600  1
  Cu  Cu144  1  0.48169700  0.07143600  0.08097900  1
  Cu  Cu145  1  0.98169700  0.42856400  0.91902100  1
  Cu  Cu146  1  0.51830300  0.92856400  0.91902100  1
  Cu  Cu147  1  0.01830300  0.57143600  0.08097900  1
  Cu  Cu148  1  0.29042000  0.98768200  0.23250200  1
  Cu  Cu149  1  0.79042000  0.51231800  0.76749800  1
  Cu  Cu150  1  0.70958000  0.01231800  0.76749800  1
  Cu  Cu151  1  0.20958000  0.48768200  0.23250200  1
  Cu  Cu152  1  0.50892300  0.30816900  0.98943900  1
  Cu  Cu153  1  0.00892300  0.19183100  0.01056100  1
  Cu  Cu154  1  0.49107700  0.69183100  0.01056100  1
  Cu  Cu155  1  0.99107700  0.80816900  0.98943900  1
  Cu  Cu156  1  0.36619900  0.89942600  0.43737600  1
  Cu  Cu157  1  0.86619900  0.60057400  0.56262400  1
  Cu  Cu158  1  0.63380100  0.10057400  0.56262400  1
  Cu  Cu159  1  0.13380100  0.39942600  0.43737600  1
