# generated using pymatgen
data_Cu11NiC4
_symmetry_space_group_name_H-M   'P 1'
_cell_length_a   5.23444400
_cell_length_b   5.44178781
_cell_length_c   17.47994114
_cell_angle_alpha   89.14479049
_cell_angle_beta   98.17809276
_cell_angle_gamma   118.12945299
_symmetry_Int_Tables_number   1
_chemical_formula_structural   Cu11NiC4
_chemical_formula_sum   'Cu22 Ni2 C8'
_cell_volume   433.85907254
_cell_formula_units_Z   2
loop_
 _symmetry_equiv_pos_site_id
 _symmetry_equiv_pos_as_xyz
  1  'x, y, z'
loop_
 _atom_site_type_symbol
 _atom_site_label
 _atom_site_symmetry_multiplicity
 _atom_site_fract_x
 _atom_site_fract_y
 _atom_site_fract_z
 _atom_site_occupancy
  C  C0  1  0.50000000  0.50000000  0.50000000  1
  C  C1  1  0.50000000  0.00000000  0.00000000  1
  C  C2  1  0.26621100  0.85618400  0.62202300  1
  C  C3  1  0.24918200  0.37625800  0.12542600  1
  C  C4  1  0.00302700  0.24513500  0.74808100  1
  C  C5  1  0.99697300  0.75486500  0.25191900  1
  C  C6  1  0.73378900  0.14381600  0.37797700  1
  C  C7  1  0.75081800  0.62374200  0.87457400  1
  Ni  Ni8  1  0.59307300  0.32518300  0.41579600  1
  Ni  Ni9  1  0.40692700  0.67481700  0.58420400  1
  Cu  Cu10  1  0.07942600  0.28275800  0.46109000  1
  Cu  Cu11  1  0.52688100  0.80751000  0.43496400  1
  Cu  Cu12  1  0.52223300  0.31153300  0.93820100  1
  Cu  Cu13  1  0.47311900  0.19249000  0.56503600  1
  Cu  Cu14  1  0.08126000  0.07600200  0.66171500  1
  Cu  Cu15  1  0.07334700  0.78756000  0.96325700  1
  Cu  Cu16  1  0.07289500  0.59075100  0.16275900  1
  Cu  Cu17  1  0.92057400  0.71724200  0.53891000  1
  Cu  Cu18  1  0.92665300  0.21244000  0.03674300  1
  Cu  Cu19  1  0.92710500  0.40924900  0.83724100  1
  Cu  Cu20  1  0.02691700  0.56336400  0.68755300  1
  Cu  Cu21  1  0.47776700  0.68846700  0.06179900  1
  Cu  Cu22  1  0.57251300  0.03326500  0.71217700  1
  Cu  Cu23  1  0.57316800  0.83734100  0.91046700  1
  Cu  Cu24  1  0.57156200  0.53811300  0.21377500  1
  Cu  Cu25  1  0.91874000  0.92399800  0.33828500  1
  Cu  Cu26  1  0.42843800  0.46188700  0.78622500  1
  Cu  Cu27  1  0.42683200  0.16265900  0.08953300  1
  Cu  Cu28  1  0.02070200  0.06357500  0.18805900  1
  Cu  Cu29  1  0.97308300  0.43663600  0.31244700  1
  Cu  Cu30  1  0.97929800  0.93642500  0.81194100  1
  Cu  Cu31  1  0.42748700  0.96673500  0.28782300  1
