# generated using pymatgen
data_Cu(Ni2C11)2
_symmetry_space_group_name_H-M   'P 1'
_cell_length_a   10.51934801
_cell_length_b   10.44594030
_cell_length_c   10.14181436
_cell_angle_alpha   61.43344288
_cell_angle_beta   60.70750997
_cell_angle_gamma   57.85904715
_symmetry_Int_Tables_number   1
_chemical_formula_structural   Cu(Ni2C11)2
_chemical_formula_sum   'Cu2 Ni8 C44'
_cell_volume   786.33624729
_cell_formula_units_Z   2
loop_
 _symmetry_equiv_pos_site_id
 _symmetry_equiv_pos_as_xyz
  1  'x, y, z'
loop_
 _atom_site_type_symbol
 _atom_site_label
 _atom_site_symmetry_multiplicity
 _atom_site_fract_x
 _atom_site_fract_y
 _atom_site_fract_z
 _atom_site_occupancy
  C  C0  1  0.95228800  0.54771200  0.95228800  1
  C  C1  1  0.95337300  0.54662700  0.54662700  1
  C  C2  1  0.70337300  0.29662700  0.29662700  1
  C  C3  1  0.70228800  0.29771200  0.70228800  1
  C  C4  1  0.54771200  0.95228800  0.54771200  1
  C  C5  1  0.54662700  0.95337300  0.95337300  1
  C  C6  1  0.29662700  0.70337300  0.70337300  1
  C  C7  1  0.29771200  0.70228800  0.29771200  1
  C  C8  1  0.12500000  0.62500000  0.12500000  1
  C  C9  1  0.62500000  0.12500000  0.12500000  1
  C  C10  1  0.12500000  0.12500000  0.12500000  1
  C  C11  1  0.12500000  0.12500000  0.62500000  1
  Ni  Ni12  1  0.89591000  0.28274400  0.91322000  1
  Ni  Ni13  1  0.96725600  0.35409000  0.34187400  1
  Ni  Ni14  1  0.91322000  0.90812600  0.89591000  1
  Ni  Ni15  1  0.90812600  0.91322000  0.28274400  1
  Ni  Ni16  1  0.34187400  0.33678000  0.96725600  1
  Ni  Ni17  1  0.33678000  0.34187400  0.35409000  1
  Ni  Ni18  1  0.28274400  0.89591000  0.90812600  1
  Ni  Ni19  1  0.35409000  0.96725600  0.33678000  1
  Cu  Cu20  1  0.50000000  0.50000000  0.50000000  1
  Cu  Cu21  1  0.75000000  0.75000000  0.75000000  1
  C  C22  1  0.00800100  0.28972300  0.92771500  1
  C  C23  1  0.55529500  0.55396500  0.32272400  1
  C  C24  1  0.77206100  0.27159700  0.03322500  1
  C  C25  1  0.97840300  0.47793900  0.32688300  1
  C  C26  1  0.03322500  0.92311700  0.77206100  1
  C  C27  1  0.96137100  0.34079400  0.22295700  1
  C  C28  1  0.32272400  0.56801500  0.55529500  1
  C  C29  1  0.55396500  0.55529500  0.56801500  1
  C  C30  1  0.47487800  0.22295700  0.34079400  1
  C  C31  1  0.92311700  0.03322500  0.27159700  1
  C  C32  1  0.96027700  0.24199900  0.47543900  1
  C  C33  1  0.56801500  0.32272400  0.55396500  1
  C  C34  1  0.92771500  0.77456100  0.00800100  1
  C  C35  1  0.77456100  0.92771500  0.28972300  1
  C  C36  1  0.90920600  0.28862900  0.77512200  1
  C  C37  1  0.22295700  0.47487800  0.96137100  1
  C  C38  1  0.02704300  0.77512200  0.28862900  1
  C  C39  1  0.34079400  0.96137100  0.47487800  1
  C  C40  1  0.47543900  0.32228500  0.96027700  1
  C  C41  1  0.32228500  0.47543900  0.24199900  1
  C  C42  1  0.68198500  0.92727600  0.69603500  1
  C  C43  1  0.28972300  0.00800100  0.77456100  1
  C  C44  1  0.32688300  0.21677500  0.97840300  1
  C  C45  1  0.77512200  0.02704300  0.90920600  1
  C  C46  1  0.69603500  0.69470500  0.68198500  1
  C  C47  1  0.92727600  0.68198500  0.69470500  1
  C  C48  1  0.28862900  0.90920600  0.02704300  1
  C  C49  1  0.21677500  0.32688300  0.47793900  1
  C  C50  1  0.27159700  0.77206100  0.92311700  1
  C  C51  1  0.47793900  0.97840300  0.21677500  1
  C  C52  1  0.69470500  0.69603500  0.92727600  1
  C  C53  1  0.24199900  0.96027700  0.32228500  1
