# generated using pymatgen
data_Cu(NiC3)2
_symmetry_space_group_name_H-M   'P 1'
_cell_length_a   6.64383851
_cell_length_b   6.64383851
_cell_length_c   6.64383851
_cell_angle_alpha   146.11808741
_cell_angle_beta   131.41474067
_cell_angle_gamma   60.54807222
_symmetry_Int_Tables_number   1
_chemical_formula_structural   Cu(NiC3)2
_chemical_formula_sum   'Cu1 Ni2 C6'
_cell_volume   121.44285636
_cell_formula_units_Z   1
loop_
 _symmetry_equiv_pos_site_id
 _symmetry_equiv_pos_as_xyz
  1  'x, y, z'
loop_
 _atom_site_type_symbol
 _atom_site_label
 _atom_site_symmetry_multiplicity
 _atom_site_fract_x
 _atom_site_fract_y
 _atom_site_fract_z
 _atom_site_occupancy
  Ni  Ni0  1  0.16621900  0.66621900  0.50000000  1
  Ni  Ni1  1  0.83378100  0.33378100  0.50000000  1
  Cu  Cu2  1  0.50000000  0.00000000  0.50000000  1
  C  C3  1  0.41441300  0.16011500  0.25429800  1
  C  C4  1  0.26578400  0.50000000  0.76578400  1
  C  C5  1  0.90581600  0.16011500  0.74570200  1
  C  C6  1  0.09418400  0.83988500  0.25429800  1
  C  C7  1  0.73421600  0.50000000  0.23421600  1
  C  C8  1  0.58558700  0.83988500  0.74570200  1
