# generated using pymatgen
data_Cu8Ni3C17
_symmetry_space_group_name_H-M   'P 1'
_cell_length_a   8.90475900
_cell_length_b   13.27807000
_cell_length_c   15.45327083
_cell_angle_alpha   69.62316429
_cell_angle_beta   90.00000000
_cell_angle_gamma   90.00000000
_symmetry_Int_Tables_number   1
_chemical_formula_structural   Cu8Ni3C17
_chemical_formula_sum   'Cu32 Ni12 C68'
_cell_volume   1712.82530244
_cell_formula_units_Z   4
loop_
 _symmetry_equiv_pos_site_id
 _symmetry_equiv_pos_as_xyz
  1  'x, y, z'
loop_
 _atom_site_type_symbol
 _atom_site_label
 _atom_site_symmetry_multiplicity
 _atom_site_fract_x
 _atom_site_fract_y
 _atom_site_fract_z
 _atom_site_occupancy
  C  C0  1  0.48765800  0.77260800  0.48725800  1
  C  C1  1  0.98765800  0.22739200  0.01274200  1
  C  C2  1  0.51234200  0.22739200  0.51274200  1
  C  C3  1  0.01234200  0.77260800  0.98725800  1
  C  C4  1  0.38389900  0.66465700  0.66714400  1
  C  C5  1  0.88389900  0.33534300  0.83285600  1
  C  C6  1  0.61610100  0.33534300  0.33285600  1
  C  C7  1  0.11610100  0.66465700  0.16714400  1
  C  C8  1  0.44226900  0.77665400  0.66879200  1
  C  C9  1  0.94226900  0.22334600  0.83120800  1
  C  C10  1  0.55773100  0.22334600  0.33120800  1
  C  C11  1  0.05773100  0.77665400  0.16879200  1
  C  C12  1  0.66284700  0.57151800  0.29660600  1
  C  C13  1  0.16284700  0.42848200  0.20339400  1
  C  C14  1  0.33715300  0.42848200  0.70339400  1
  C  C15  1  0.83715300  0.57151800  0.79660600  1
  C  C16  1  0.70797800  0.88601900  0.34537500  1
  C  C17  1  0.20797800  0.11398100  0.15462500  1
  C  C18  1  0.29202200  0.11398100  0.65462500  1
  C  C19  1  0.79202200  0.88601900  0.84537500  1
  C  C20  1  0.40414300  0.48944200  0.60723700  1
  C  C21  1  0.90414300  0.51055800  0.89276300  1
  C  C22  1  0.59585700  0.51055800  0.39276300  1
  C  C23  1  0.09585700  0.48944200  0.10723700  1
  C  C24  1  0.55107500  0.58170100  0.50954000  1
  C  C25  1  0.05107500  0.41829900  0.99046000  1
  C  C26  1  0.44892500  0.41829900  0.49046000  1
  C  C27  1  0.94892500  0.58170100  0.00954000  1
  C  C28  1  0.94245200  0.74567300  0.59856600  1
  C  C29  1  0.44245200  0.25432700  0.90143400  1
  C  C30  1  0.05754800  0.25432700  0.40143400  1
  C  C31  1  0.55754800  0.74567300  0.09856600  1
  C  C32  1  0.90108200  0.43702200  0.51765700  1
  C  C33  1  0.40108200  0.56297800  0.98234300  1
  C  C34  1  0.09891800  0.56297800  0.48234300  1
  C  C35  1  0.59891800  0.43702200  0.01765700  1
  C  C36  1  0.27012700  0.93789200  0.40276300  1
  C  C37  1  0.77012700  0.06210800  0.09723700  1
  C  C38  1  0.72987300  0.06210800  0.59723700  1
  C  C39  1  0.22987300  0.93789200  0.90276300  1
  C  C40  1  0.22224600  0.88607900  0.50665300  1
  C  C41  1  0.72224600  0.11392100  0.99334700  1
  C  C42  1  0.77775400  0.11392100  0.49334700  1
  C  C43  1  0.27775400  0.88607900  0.00665300  1
  C  C44  1  0.69800000  0.90845000  0.50506000  1
  C  C45  1  0.19800000  0.09155000  0.99494000  1
  C  C46  1  0.30200000  0.09155000  0.49494000  1
  C  C47  1  0.80200000  0.90845000  0.00506000  1
  C  C48  1  0.56266100  0.96132900  0.32018300  1
  C  C49  1  0.06266100  0.03867100  0.17981700  1
  C  C50  1  0.43733900  0.03867100  0.67981700  1
  C  C51  1  0.93733900  0.96132900  0.82018300  1
  C  C52  1  0.24169900  0.80617800  0.33463000  1
  C  C53  1  0.74169900  0.19382200  0.16537000  1
  C  C54  1  0.75830100  0.19382200  0.66537000  1
  C  C55  1  0.25830100  0.80617800  0.83463000  1
  C  C56  1  0.39519200  0.76374700  0.30778100  1
  C  C57  1  0.89519200  0.23625300  0.19221900  1
  C  C58  1  0.60480800  0.23625300  0.69221900  1
  C  C59  1  0.10480800  0.76374700  0.80778100  1
  C  C60  1  0.29541000  0.51409100  0.76787600  1
  C  C61  1  0.79541000  0.48590900  0.73212400  1
  C  C62  1  0.70459000  0.48590900  0.23212400  1
  C  C63  1  0.20459000  0.51409100  0.26787600  1
  C  C64  1  0.98687200  0.50869600  0.62120800  1
  C  C65  1  0.48687200  0.49130400  0.87879200  1
  C  C66  1  0.01312800  0.49130400  0.37879200  1
  C  C67  1  0.51312800  0.50869600  0.12120800  1
  Ni  Ni68  1  0.32126300  0.54634800  0.87977700  1
  Ni  Ni69  1  0.82126300  0.45365200  0.62022300  1
  Ni  Ni70  1  0.67873700  0.45365200  0.12022300  1
  Ni  Ni71  1  0.17873700  0.54634800  0.37977700  1
  Ni  Ni72  1  0.52179600  0.87075900  0.79292500  1
  Ni  Ni73  1  0.02179600  0.12924100  0.70707500  1
  Ni  Ni74  1  0.47820400  0.12924100  0.20707500  1
  Ni  Ni75  1  0.97820400  0.87075900  0.29292500  1
  Ni  Ni76  1  0.01213200  0.84472700  0.62631700  1
  Ni  Ni77  1  0.51213200  0.15527300  0.87368300  1
  Ni  Ni78  1  0.98786800  0.15527300  0.37368300  1
  Ni  Ni79  1  0.48786800  0.84472700  0.12631700  1
  Cu  Cu80  1  0.39254800  0.74084000  0.62987900  1
  Cu  Cu81  1  0.89254800  0.25916000  0.87012100  1
  Cu  Cu82  1  0.60745200  0.25916000  0.37012100  1
  Cu  Cu83  1  0.10745200  0.74084000  0.12987900  1
  Cu  Cu84  1  0.69927900  0.75302500  0.53564100  1
  Cu  Cu85  1  0.19927900  0.24697500  0.96435900  1
  Cu  Cu86  1  0.30072100  0.24697500  0.46435900  1
  Cu  Cu87  1  0.80072100  0.75302500  0.03564100  1
  Cu  Cu88  1  0.45897200  0.61644400  0.51855400  1
  Cu  Cu89  1  0.95897200  0.38355600  0.98144600  1
  Cu  Cu90  1  0.54102800  0.38355600  0.48144600  1
  Cu  Cu91  1  0.04102800  0.61644400  0.01855400  1
  Cu  Cu92  1  0.60883600  0.89830000  0.36870800  1
  Cu  Cu93  1  0.10883600  0.10170000  0.13129200  1
  Cu  Cu94  1  0.39116400  0.10170000  0.63129200  1
  Cu  Cu95  1  0.89116400  0.89830000  0.86870800  1
  Cu  Cu96  1  0.31036100  0.90740500  0.46557500  1
  Cu  Cu97  1  0.81036100  0.09259500  0.03442500  1
  Cu  Cu98  1  0.68963900  0.09259500  0.53442500  1
  Cu  Cu99  1  0.18963900  0.90740500  0.96557500  1
  Cu  Cu100  1  0.65091700  0.84964200  0.55544200  1
  Cu  Cu101  1  0.15091700  0.15035800  0.94455800  1
  Cu  Cu102  1  0.34908300  0.15035800  0.44455800  1
  Cu  Cu103  1  0.84908300  0.84964200  0.05544200  1
  Cu  Cu104  1  0.34624600  0.78473500  0.35548100  1
  Cu  Cu105  1  0.84624600  0.21526500  0.14451900  1
  Cu  Cu106  1  0.65375400  0.21526500  0.64451900  1
  Cu  Cu107  1  0.15375400  0.78473500  0.85548100  1
  Cu  Cu108  1  0.38998700  0.41562800  0.65248900  1
  Cu  Cu109  1  0.88998700  0.58437200  0.84751100  1
  Cu  Cu110  1  0.61001300  0.58437200  0.34751100  1
  Cu  Cu111  1  0.11001300  0.41562800  0.15248900  1
