# generated using pymatgen
data_CuNi2C7
_symmetry_space_group_name_H-M   'P 1'
_cell_length_a   15.26648300
_cell_length_b   9.45408100
_cell_length_c   17.73307268
_cell_angle_alpha   59.21060072
_cell_angle_beta   90.00000000
_cell_angle_gamma   90.00000000
_symmetry_Int_Tables_number   1
_chemical_formula_structural   CuNi2C7
_chemical_formula_sum   'Cu4 Ni8 C28'
_cell_volume   2198.68538121
_cell_formula_units_Z   4
loop_
 _symmetry_equiv_pos_site_id
 _symmetry_equiv_pos_as_xyz
  1  'x, y, z'
loop_
 _atom_site_type_symbol
 _atom_site_label
 _atom_site_symmetry_multiplicity
 _atom_site_fract_x
 _atom_site_fract_y
 _atom_site_fract_z
 _atom_site_occupancy
  Ni  Ni0  1  0.26906400  0.84911100  0.45572300  1
  Ni  Ni1  1  0.29345300  0.43865900  0.74808500  1
  Ni  Ni2  1  0.79345300  0.56134100  0.75191500  1
  Ni  Ni3  1  0.23093600  0.84911100  0.95572300  1
  Ni  Ni4  1  0.76906400  0.15088900  0.04427700  1
  Ni  Ni5  1  0.20654700  0.43865900  0.24808500  1
  Ni  Ni6  1  0.70654700  0.56134100  0.25191500  1
  Ni  Ni7  1  0.73093600  0.15088900  0.54427700  1
  Cu  Cu8  1  0.69543300  0.93556000  0.33510000  1
  Cu  Cu9  1  0.80456700  0.93556000  0.83510000  1
  Cu  Cu10  1  0.19543300  0.06444000  0.16490000  1
  Cu  Cu11  1  0.30456700  0.06444000  0.66490000  1
  C  C12  1  0.58779500  0.94296000  0.18921300  1
  C  C13  1  0.84964600  0.84430000  0.25999300  1
  C  C14  1  0.26291000  0.72058800  0.30685100  1
  C  C15  1  0.41330400  0.84194000  0.61864300  1
  C  C16  1  0.91220500  0.94296000  0.68921300  1
  C  C17  1  0.12188500  0.65339400  0.61194800  1
  C  C18  1  0.78214400  0.81793200  0.51444900  1
  C  C19  1  0.37223700  0.42860300  0.56766200  1
  C  C20  1  0.65035400  0.84430000  0.75999300  1
  C  C21  1  0.23709000  0.72058800  0.80685100  1
  C  C22  1  0.87223700  0.57139700  0.93233800  1
  C  C23  1  0.28214400  0.18206800  0.98555100  1
  C  C24  1  0.62188500  0.34660600  0.88805200  1
  C  C25  1  0.08669600  0.84194000  0.11864300  1
  C  C26  1  0.91330400  0.15806000  0.88135700  1
  C  C27  1  0.37811500  0.65339400  0.11194800  1
  C  C28  1  0.71785600  0.81793200  0.01444900  1
  C  C29  1  0.12776300  0.42860300  0.06766200  1
  C  C30  1  0.76291000  0.27941200  0.19314900  1
  C  C31  1  0.34964600  0.15570000  0.24000700  1
  C  C32  1  0.62776300  0.57139700  0.43233800  1
  C  C33  1  0.21785600  0.18206800  0.48555100  1
  C  C34  1  0.87811500  0.34660600  0.38805200  1
  C  C35  1  0.08779500  0.05704000  0.31078700  1
  C  C36  1  0.58669600  0.15806000  0.38135700  1
  C  C37  1  0.73709000  0.27941200  0.69314900  1
  C  C38  1  0.15035400  0.15570000  0.74000700  1
  C  C39  1  0.41220500  0.05704000  0.81078700  1
