# generated using pymatgen
data_Cu(NiC2)2
_symmetry_space_group_name_H-M   'P 1'
_cell_length_a   7.95781789
_cell_length_b   7.95781789
_cell_length_c   7.95781783
_cell_angle_alpha   107.99042198
_cell_angle_beta   107.99042198
_cell_angle_gamma   107.99042371
_symmetry_Int_Tables_number   1
_chemical_formula_structural   Cu(NiC2)2
_chemical_formula_sum   'Cu6 Ni12 C24'
_cell_volume   407.81910567
_cell_formula_units_Z   6
loop_
 _symmetry_equiv_pos_site_id
 _symmetry_equiv_pos_as_xyz
  1  'x, y, z'
loop_
 _atom_site_type_symbol
 _atom_site_label
 _atom_site_symmetry_multiplicity
 _atom_site_fract_x
 _atom_site_fract_y
 _atom_site_fract_z
 _atom_site_occupancy
  Ni  Ni0  1  0.29296900  0.88957800  0.07061700  1
  Ni  Ni1  1  0.92938300  0.70703100  0.11042200  1
  Ni  Ni2  1  0.39523500  0.62818000  0.22177500  1
  Ni  Ni3  1  0.11042200  0.92938300  0.70703100  1
  Ni  Ni4  1  0.77822600  0.60476500  0.37182000  1
  Ni  Ni5  1  0.37182000  0.77822600  0.60476500  1
  Ni  Ni6  1  0.62818000  0.22177400  0.39523500  1
  Ni  Ni7  1  0.22177500  0.39523500  0.62818000  1
  Ni  Ni8  1  0.88957800  0.07061700  0.29296900  1
  Ni  Ni9  1  0.60476500  0.37182000  0.77822500  1
  Ni  Ni10  1  0.07061700  0.29296900  0.88957800  1
  Ni  Ni11  1  0.70703100  0.11042200  0.92938300  1
  Cu  Cu12  1  0.73232500  0.96270900  0.55539300  1
  Cu  Cu13  1  0.44460700  0.26767500  0.03729100  1
  Cu  Cu14  1  0.03729100  0.44460700  0.26767500  1
  Cu  Cu15  1  0.96270900  0.55539300  0.73232500  1
  Cu  Cu16  1  0.55539300  0.73232500  0.96270900  1
  Cu  Cu17  1  0.26767500  0.03729100  0.44460700  1
  C  C18  1  0.80600100  0.83709100  0.13630800  1
  C  C19  1  0.40856600  0.75112300  0.08892100  1
  C  C20  1  0.16290900  0.86369200  0.19399900  1
  C  C21  1  0.24887700  0.91107900  0.59143400  1
  C  C22  1  0.48127500  0.78798400  0.45663200  1
  C  C23  1  0.16912700  0.45524400  0.12398000  1
  C  C24  1  0.87602000  0.83087300  0.54475600  1
  C  C25  1  0.91107900  0.59143400  0.24887700  1
  C  C26  1  0.54336800  0.51872500  0.21201600  1
  C  C27  1  0.21201600  0.54336800  0.51872500  1
  C  C28  1  0.86369200  0.19399900  0.16290900  1
  C  C29  1  0.54475600  0.87602000  0.83087300  1
  C  C30  1  0.45524400  0.12398000  0.16912700  1
  C  C31  1  0.13630800  0.80600100  0.83709100  1
  C  C32  1  0.78798400  0.45663200  0.48127500  1
  C  C33  1  0.45663200  0.48127500  0.78798400  1
  C  C34  1  0.08892100  0.40856600  0.75112300  1
  C  C35  1  0.12398000  0.16912700  0.45524400  1
  C  C36  1  0.83087300  0.54475600  0.87602000  1
  C  C37  1  0.51872500  0.21201600  0.54336800  1
  C  C38  1  0.75112300  0.08892100  0.40856600  1
  C  C39  1  0.83709100  0.13630800  0.80600100  1
  C  C40  1  0.59143400  0.24887700  0.91107900  1
  C  C41  1  0.19399900  0.16290900  0.86369200  1
