# generated using pymatgen
data_CuNiC4
_symmetry_space_group_name_H-M   'P 1'
_cell_length_a   8.32874800
_cell_length_b   4.91102900
_cell_length_c   8.56828823
_cell_angle_alpha   63.33710266
_cell_angle_beta   90.00000000
_cell_angle_gamma   90.00000000
_symmetry_Int_Tables_number   1
_chemical_formula_structural   CuNiC4
_chemical_formula_sum   'Cu4 Ni4 C16'
_cell_volume   313.19848964
_cell_formula_units_Z   4
loop_
 _symmetry_equiv_pos_site_id
 _symmetry_equiv_pos_as_xyz
  1  'x, y, z'
loop_
 _atom_site_type_symbol
 _atom_site_label
 _atom_site_symmetry_multiplicity
 _atom_site_fract_x
 _atom_site_fract_y
 _atom_site_fract_z
 _atom_site_occupancy
  Ni  Ni0  1  0.89623800  0.90452900  0.75292000  1
  Ni  Ni1  1  0.39623800  0.09547100  0.74708000  1
  Ni  Ni2  1  0.60376200  0.90452900  0.25292000  1
  Ni  Ni3  1  0.10376200  0.09547100  0.24708000  1
  Cu  Cu4  1  0.69848100  0.29719900  0.85572900  1
  Cu  Cu5  1  0.19848100  0.70280100  0.64427100  1
  Cu  Cu6  1  0.80151900  0.29719900  0.35572900  1
  Cu  Cu7  1  0.30151900  0.70280100  0.14427100  1
  C  C8  1  0.39041100  0.82904700  0.95087000  1
  C  C9  1  0.85820300  0.08410400  0.87094800  1
  C  C10  1  0.06932500  0.73108100  0.78590300  1
  C  C11  1  0.75396100  0.65811900  0.78686800  1
  C  C12  1  0.25396100  0.34188100  0.71313200  1
  C  C13  1  0.56932500  0.26891900  0.71409700  1
  C  C14  1  0.35820300  0.91589600  0.62905200  1
  C  C15  1  0.10958900  0.82904700  0.45087000  1
  C  C16  1  0.89041100  0.17095300  0.54913000  1
  C  C17  1  0.64179700  0.08410400  0.37094800  1
  C  C18  1  0.43067500  0.73108100  0.28590300  1
  C  C19  1  0.74603900  0.65811900  0.28686800  1
  C  C20  1  0.24603900  0.34188100  0.21313200  1
  C  C21  1  0.93067500  0.26891900  0.21409700  1
  C  C22  1  0.14179700  0.91589600  0.12905200  1
  C  C23  1  0.60958900  0.17095300  0.04913000  1
