# generated using pymatgen
data_CuNiC4
_symmetry_space_group_name_H-M   'P 1'
_cell_length_a   5.66133426
_cell_length_b   5.66133426
_cell_length_c   5.66133426
_cell_angle_alpha   106.79320024
_cell_angle_beta   106.79320024
_cell_angle_gamma   114.97126242
_symmetry_Int_Tables_number   1
_chemical_formula_structural   CuNiC4
_chemical_formula_sum   'Cu2 Ni2 C8'
_cell_volume   138.70540925
_cell_formula_units_Z   2
loop_
 _symmetry_equiv_pos_site_id
 _symmetry_equiv_pos_as_xyz
  1  'x, y, z'
loop_
 _atom_site_type_symbol
 _atom_site_label
 _atom_site_symmetry_multiplicity
 _atom_site_fract_x
 _atom_site_fract_y
 _atom_site_fract_z
 _atom_site_occupancy
  Ni  Ni0  1  0.75619700  0.25619700  0.50000000  1
  Ni  Ni1  1  0.50619700  0.50619700  0.00000000  1
  Cu  Cu2  1  0.24648800  0.74648800  0.50000000  1
  Cu  Cu3  1  0.99648800  0.99648800  0.00000000  1
  C  C4  1  0.94424100  0.74492700  0.19931300  1
  C  C5  1  0.45244100  0.25373000  0.19871100  1
  C  C6  1  0.99492700  0.29561400  0.30068700  1
  C  C7  1  0.50373000  0.80501900  0.30128900  1
  C  C8  1  0.50373000  0.20244100  0.69871100  1
  C  C9  1  0.99492700  0.69424100  0.69931300  1
  C  C10  1  0.05501900  0.25373000  0.80128900  1
  C  C11  1  0.54561400  0.74492700  0.80068700  1
