# generated using pymatgen
data_Cu3Ni3C22
_symmetry_space_group_name_H-M   'P 1'
_cell_length_a   6.15143785
_cell_length_b   6.04086671
_cell_length_c   9.86907192
_cell_angle_alpha   90.23716336
_cell_angle_beta   91.54654732
_cell_angle_gamma   119.71010629
_symmetry_Int_Tables_number   1
_chemical_formula_structural   Cu3Ni3C22
_chemical_formula_sum   'Cu3 Ni3 C22'
_cell_volume   318.34458318
_cell_formula_units_Z   1
loop_
 _symmetry_equiv_pos_site_id
 _symmetry_equiv_pos_as_xyz
  1  'x, y, z'
loop_
 _atom_site_type_symbol
 _atom_site_label
 _atom_site_symmetry_multiplicity
 _atom_site_fract_x
 _atom_site_fract_y
 _atom_site_fract_z
 _atom_site_occupancy
  C  C0  1  0.31283000  0.65789600  0.90522200  1
  C  C1  1  0.00334300  0.00116000  0.98445500  1
  C  C2  1  0.02106600  0.00971300  0.49260300  1
  C  C3  1  0.65132800  0.32817400  0.40899500  1
  Ni  Ni4  1  0.19186700  0.85247900  0.21466500  1
  Ni  Ni5  1  0.16914500  0.34114900  0.21725300  1
  Ni  Ni6  1  0.34486200  0.18979600  0.72292500  1
  Cu  Cu7  1  0.66451900  0.82530000  0.20833400  1
  Cu  Cu8  1  0.84570200  0.65997400  0.70511400  1
  Cu  Cu9  1  0.83194200  0.17006300  0.70832800  1
  C  C10  1  0.34096500  0.67123200  0.48867800  1
  C  C11  1  0.68131500  0.34013300  0.98469200  1
  C  C12  1  0.18144800  0.83515000  0.58914300  1
  C  C13  1  0.04675600  0.52103200  0.34034900  1
  C  C14  1  0.30108000  0.65105300  0.10987600  1
  C  C15  1  0.02040400  0.00668300  0.30404500  1
  C  C16  1  0.02382800  0.01022700  0.79900400  1
  C  C17  1  0.18765400  0.34723400  0.59624900  1
  C  C18  1  0.45907600  0.96271800  0.34131200  1
  C  C19  1  0.45400300  0.49454000  0.34046800  1
  C  C20  1  0.33226900  0.16312500  0.10723500  1
  C  C21  1  0.66425400  0.82973600  0.56905400  1
  C  C22  1  0.49781000  0.46772500  0.85381800  1
  C  C23  1  0.49644400  0.04053000  0.86049300  1
  C  C24  1  0.62314800  0.30816200  0.60806100  1
  C  C25  1  0.84627400  0.65814200  0.09326200  1
  C  C26  1  0.95396200  0.47491000  0.85749000  1
  C  C27  1  0.85271100  0.18226100  0.09671600  1
