# generated using pymatgen
data_Cu2NiC18
_symmetry_space_group_name_H-M   'P 1'
_cell_length_a   8.47854526
_cell_length_b   8.47854526
_cell_length_c   8.49177644
_cell_angle_alpha   64.08340127
_cell_angle_beta   64.08340127
_cell_angle_gamma   64.38125569
_symmetry_Int_Tables_number   1
_chemical_formula_structural   Cu2NiC18
_chemical_formula_sum   'Cu4 Ni2 C36'
_cell_volume   471.33907665
_cell_formula_units_Z   2
loop_
 _symmetry_equiv_pos_site_id
 _symmetry_equiv_pos_as_xyz
  1  'x, y, z'
loop_
 _atom_site_type_symbol
 _atom_site_label
 _atom_site_symmetry_multiplicity
 _atom_site_fract_x
 _atom_site_fract_y
 _atom_site_fract_z
 _atom_site_occupancy
  C  C0  1  0.25378000  0.16138900  0.09014300  1
  C  C1  1  0.16811000  0.26143500  0.59316200  1
  C  C2  1  0.99788300  0.49848300  0.23965900  1
  C  C3  1  0.65789400  0.34210600  0.50000000  1
  C  C4  1  0.33867800  0.66132200  0.00000000  1
  C  C5  1  0.83861100  0.74622000  0.90985700  1
  C  C6  1  0.50151700  0.00211700  0.76034100  1
  C  C7  1  0.73856500  0.83189000  0.40683800  1
  C  C8  1  0.64243800  0.13996300  0.89103700  1
  C  C9  1  0.14532400  0.64116200  0.39003100  1
  C  C10  1  0.86003700  0.35756200  0.10896300  1
  C  C11  1  0.35883800  0.85467600  0.60996900  1
  Ni  Ni12  1  0.25093700  0.45318900  0.79506700  1
  Ni  Ni13  1  0.54681100  0.74906300  0.20493300  1
  Cu  Cu14  1  0.95503800  0.04496200  0.50000000  1
  Cu  Cu15  1  0.44899900  0.24951700  0.29555700  1
  Cu  Cu16  1  0.04556900  0.95443100  0.00000000  1
  Cu  Cu17  1  0.75048300  0.55100100  0.70444300  1
  C  C18  1  0.11367000  0.01673500  0.55992000  1
  C  C19  1  0.01021700  0.11019600  0.06913400  1
  C  C20  1  0.09353700  0.42192100  0.99977600  1
  C  C21  1  0.41533700  0.25350400  0.81309800  1
  C  C22  1  0.30517300  0.62604300  0.77115400  1
  C  C23  1  0.19520800  0.48100000  0.62127200  1
  C  C24  1  0.76284200  0.06708700  0.65151300  1
  C  C25  1  0.42804800  0.10136000  0.49054900  1
  C  C26  1  0.25973300  0.40339600  0.30914700  1
  C  C27  1  0.61135200  0.31100100  0.26052300  1
  C  C28  1  0.47968400  0.17979700  0.14233700  1
  C  C29  1  0.93291300  0.23715800  0.34848700  1
  C  C30  1  0.06013400  0.76240800  0.15154300  1
  C  C31  1  0.51900000  0.80479200  0.37872800  1
  C  C32  1  0.37395700  0.69482700  0.22884600  1
  C  C33  1  0.74649600  0.58466300  0.18690200  1
  C  C34  1  0.57807900  0.90646300  0.00022400  1
  C  C35  1  0.23759200  0.93986600  0.84845700  1
  C  C36  1  0.82020300  0.52031600  0.85766300  1
  C  C37  1  0.68899800  0.38864800  0.73947700  1
  C  C38  1  0.59660400  0.74026700  0.69085300  1
  C  C39  1  0.89864000  0.57195200  0.50945100  1
  C  C40  1  0.98326500  0.88633000  0.44008000  1
  C  C41  1  0.88980400  0.98978300  0.93086600  1
