# generated using pymatgen
data_Cu5Ni7C6
_symmetry_space_group_name_H-M   'P 1'
_cell_length_a   4.58756231
_cell_length_b   5.67141485
_cell_length_c   15.31632543
_cell_angle_alpha   90.04375814
_cell_angle_beta   89.63088294
_cell_angle_gamma   89.69334750
_symmetry_Int_Tables_number   1
_chemical_formula_structural   Cu5Ni7C6
_chemical_formula_sum   'Cu10 Ni14 C12'
_cell_volume   398.48557670
_cell_formula_units_Z   2
loop_
 _symmetry_equiv_pos_site_id
 _symmetry_equiv_pos_as_xyz
  1  'x, y, z'
loop_
 _atom_site_type_symbol
 _atom_site_label
 _atom_site_symmetry_multiplicity
 _atom_site_fract_x
 _atom_site_fract_y
 _atom_site_fract_z
 _atom_site_occupancy
  C  C0  1  0.00184300  0.15188200  0.40922900  1
  C  C1  1  0.01430600  0.84577300  0.24041300  1
  C  C2  1  0.02176800  0.16303800  0.07933700  1
  C  C3  1  0.03020000  0.16231000  0.74318300  1
  C  C4  1  0.01929300  0.83947900  0.57921800  1
  C  C5  1  0.02493400  0.85578200  0.91192900  1
  C  C6  1  0.50451900  0.36107900  0.59208800  1
  C  C7  1  0.49470900  0.33980400  0.92155100  1
  C  C8  1  0.49691600  0.34793300  0.25461100  1
  C  C9  1  0.50702600  0.63317300  0.09364000  1
  C  C10  1  0.51044700  0.65065700  0.42428100  1
  C  C11  1  0.47936500  0.63780100  0.75109700  1
  Ni  Ni12  1  0.21805300  0.11142100  0.30019900  1
  Ni  Ni13  1  0.23259500  0.11523300  0.63582200  1
  Ni  Ni14  1  0.21910400  0.11799600  0.97062900  1
  Ni  Ni15  1  0.23586000  0.88446000  0.13476200  1
  Ni  Ni16  1  0.21791000  0.88391100  0.46877500  1
  Ni  Ni17  1  0.23716200  0.88678700  0.80108400  1
  Ni  Ni18  1  0.28019000  0.39816200  0.14661600  1
  Ni  Ni19  1  0.27705700  0.60362800  0.64521600  1
  Ni  Ni20  1  0.27648500  0.39779800  0.81295500  1
  Ni  Ni21  1  0.72739700  0.38464200  0.02793600  1
  Ni  Ni22  1  0.72557500  0.61524700  0.19619900  1
  Ni  Ni23  1  0.71545300  0.38042300  0.36408500  1
  Ni  Ni24  1  0.72645200  0.61264900  0.53117600  1
  Ni  Ni25  1  0.72464100  0.38604400  0.69488800  1
  Cu  Cu26  1  0.25357200  0.61671700  0.32057200  1
  Cu  Cu27  1  0.25834100  0.37796700  0.48630200  1
  Cu  Cu28  1  0.26973900  0.61835800  0.98451400  1
  Cu  Cu29  1  0.72825700  0.62515400  0.86145300  1
  Cu  Cu30  1  0.76801500  0.12162500  0.18175900  1
  Cu  Cu31  1  0.75275200  0.12368000  0.52469900  1
  Cu  Cu32  1  0.75664400  0.88080800  0.34653700  1
  Cu  Cu33  1  0.75503400  0.86840600  0.02273500  1
  Cu  Cu34  1  0.77499800  0.12743800  0.84955700  1
  Cu  Cu35  1  0.76338800  0.87273400  0.69095200  1
