# generated using pymatgen
data_Cu2Ni3C31
_symmetry_space_group_name_H-M   'P 1'
_cell_length_a   8.52973611
_cell_length_b   8.52973611
_cell_length_c   8.52973536
_cell_angle_alpha   61.18826570
_cell_angle_beta   61.18826570
_cell_angle_gamma   61.18826405
_symmetry_Int_Tables_number   1
_chemical_formula_structural   Cu2Ni3C31
_chemical_formula_sum   'Cu2 Ni3 C31'
_cell_volume   450.55572821
_cell_formula_units_Z   1
loop_
 _symmetry_equiv_pos_site_id
 _symmetry_equiv_pos_as_xyz
  1  'x, y, z'
loop_
 _atom_site_type_symbol
 _atom_site_label
 _atom_site_symmetry_multiplicity
 _atom_site_fract_x
 _atom_site_fract_y
 _atom_site_fract_z
 _atom_site_occupancy
  Ni  Ni0  1  0.85779700  0.85779700  0.85779700  1
  Ni  Ni1  1  0.64468600  0.64468600  0.64468600  1
  Ni  Ni2  1  0.35482600  0.35482600  0.35482600  1
  Cu  Cu3  1  0.00369300  0.00369300  0.00369300  1
  Cu  Cu4  1  0.50116600  0.50116600  0.50116600  1
  C  C5  1  0.14515600  0.14515600  0.14515600  1
  C  C6  1  0.95440500  0.24793800  0.54254600  1
  C  C7  1  0.54254600  0.95440500  0.24793800  1
  C  C8  1  0.74937700  0.45670200  0.04439500  1
  C  C9  1  0.45670200  0.04439500  0.74937700  1
  C  C10  1  0.04439500  0.74937700  0.45670200  1
  C  C11  1  0.24793800  0.54254600  0.95440500  1
  C  C12  1  0.88590300  0.67333500  0.51280000  1
  C  C13  1  0.67333500  0.51280000  0.88590300  1
  C  C14  1  0.94221400  0.09019100  0.74210200  1
  C  C15  1  0.51280000  0.88590300  0.67333500  1
  C  C16  1  0.98152800  0.18631200  0.39178700  1
  C  C17  1  0.75946400  0.41126900  0.56770500  1
  C  C18  1  0.74210200  0.94221400  0.09019100  1
  C  C19  1  0.56770500  0.75946400  0.41126900  1
  C  C20  1  0.81470200  0.62006300  0.99805500  1
  C  C21  1  0.41126900  0.56770500  0.75946400  1
  C  C22  1  0.90311700  0.26436700  0.05132200  1
  C  C23  1  0.62006300  0.99805500  0.81470200  1
  C  C24  1  0.39178700  0.98152800  0.18631200  1
  C  C25  1  0.09019100  0.74210200  0.94221400  1
  C  C26  1  0.58650500  0.44762300  0.23864100  1
  C  C27  1  0.18631200  0.39178700  0.98152800  1
  C  C28  1  0.44762300  0.23864100  0.58650500  1
  C  C29  1  0.26436700  0.05132200  0.90311700  1
  C  C30  1  0.23864100  0.58650500  0.44762300  1
  C  C31  1  0.99805500  0.81470200  0.62006300  1
  C  C32  1  0.49606600  0.11992600  0.31231700  1
  C  C33  1  0.05132200  0.90311700  0.26436700  1
  C  C34  1  0.31231700  0.49606600  0.11992600  1
  C  C35  1  0.11992600  0.31231700  0.49606600  1
