# generated using pymatgen
data_CuNiC4
_symmetry_space_group_name_H-M   'P 1'
_cell_length_a   4.57245100
_cell_length_b   11.79427600
_cell_length_c   4.95584400
_cell_angle_alpha   89.99995259
_cell_angle_beta   89.99967524
_cell_angle_gamma   90.00000486
_symmetry_Int_Tables_number   1
_chemical_formula_structural   CuNiC4
_chemical_formula_sum   'Cu4 Ni4 C16'
_cell_volume   267.26246761
_cell_formula_units_Z   4
loop_
 _symmetry_equiv_pos_site_id
 _symmetry_equiv_pos_as_xyz
  1  'x, y, z'
loop_
 _atom_site_type_symbol
 _atom_site_label
 _atom_site_symmetry_multiplicity
 _atom_site_fract_x
 _atom_site_fract_y
 _atom_site_fract_z
 _atom_site_occupancy
  Ni  Ni0  1  0.00000000  0.17150900  0.24999900  1
  Ni  Ni1  1  0.99999900  0.82849700  0.74999800  1
  Ni  Ni2  1  0.50000500  0.67151000  0.25000300  1
  Ni  Ni3  1  0.50000600  0.32849800  0.75000000  1
  Cu  Cu4  1  0.00000000  0.56562100  0.74999700  1
  Cu  Cu5  1  0.50000000  0.06562400  0.75000000  1
  Cu  Cu6  1  0.99999600  0.43437100  0.24999900  1
  Cu  Cu7  1  0.49999600  0.93437600  0.25000400  1
  C  C8  1  0.22945200  0.30912800  0.42419100  1
  C  C9  1  0.22945400  0.69086900  0.92419300  1
  C  C10  1  0.27054800  0.19086800  0.92419200  1
  C  C11  1  0.27055200  0.80913300  0.42419100  1
  C  C12  1  0.72944900  0.19086900  0.57580400  1
  C  C13  1  0.72944300  0.80913200  0.07580800  1
  C  C14  1  0.77055000  0.69086800  0.57581100  1
  C  C15  1  0.77054800  0.30912900  0.07580700  1
  C  C16  1  0.25735200  0.06096600  0.41570800  1
  C  C17  1  0.25735700  0.93903500  0.91571000  1
  C  C18  1  0.24264400  0.43903400  0.91570900  1
  C  C19  1  0.24264600  0.56096400  0.41570700  1
  C  C20  1  0.75735900  0.43903400  0.58429200  1
  C  C21  1  0.75735700  0.56096300  0.08429700  1
  C  C22  1  0.74264600  0.06096600  0.08428900  1
  C  C23  1  0.74264200  0.93903600  0.58429100  1
