# generated using pymatgen
data_Cu2(Ni2C3)7
_symmetry_space_group_name_H-M   'P 1'
_cell_length_a   6.91562900
_cell_length_b   11.44715100
_cell_length_c   21.09466600
_cell_angle_alpha   90.00000000
_cell_angle_beta   90.00000000
_cell_angle_gamma   90.00000000
_symmetry_Int_Tables_number   1
_chemical_formula_structural   Cu2(Ni2C3)7
_chemical_formula_sum   'Cu8 Ni56 C84'
_cell_volume   1669.94340072
_cell_formula_units_Z   4
loop_
 _symmetry_equiv_pos_site_id
 _symmetry_equiv_pos_as_xyz
  1  'x, y, z'
loop_
 _atom_site_type_symbol
 _atom_site_label
 _atom_site_symmetry_multiplicity
 _atom_site_fract_x
 _atom_site_fract_y
 _atom_site_fract_z
 _atom_site_occupancy
  C  C0  1  0.19168800  0.00026800  0.42077500  1
  C  C1  1  0.80831200  0.50026800  0.57922500  1
  C  C2  1  0.19168800  0.50026800  0.07922500  1
  C  C3  1  0.80831200  0.00026800  0.92077500  1
  C  C4  1  0.70241900  0.61245900  0.29835400  1
  C  C5  1  0.29758100  0.11245900  0.70164600  1
  C  C6  1  0.70241900  0.11245900  0.20164600  1
  C  C7  1  0.29758100  0.61245900  0.79835400  1
  Ni  Ni8  1  0.47853400  0.46156000  0.20761200  1
  Ni  Ni9  1  0.52146600  0.96156000  0.79238800  1
  Ni  Ni10  1  0.47853400  0.96156000  0.29238800  1
  Ni  Ni11  1  0.52146600  0.46156000  0.70761200  1
  Ni  Ni12  1  0.38532300  0.41392100  0.27334800  1
  Ni  Ni13  1  0.61467700  0.91392100  0.72665200  1
  Ni  Ni14  1  0.38532300  0.91392100  0.22665200  1
  Ni  Ni15  1  0.61467700  0.41392100  0.77334800  1
  Ni  Ni16  1  0.39738900  0.18127100  0.50463600  1
  Ni  Ni17  1  0.60261100  0.68127100  0.49536400  1
  Ni  Ni18  1  0.39738900  0.68127100  0.99536400  1
  Ni  Ni19  1  0.60261100  0.18127100  0.00463600  1
  Ni  Ni20  1  0.53964200  0.16399600  0.44637600  1
  Ni  Ni21  1  0.46035800  0.66399600  0.55362400  1
  Ni  Ni22  1  0.53964200  0.66399600  0.05362400  1
  Ni  Ni23  1  0.46035800  0.16399600  0.94637600  1
  Ni  Ni24  1  0.19706500  0.25792400  0.31397700  1
  Ni  Ni25  1  0.80293500  0.75792400  0.68602300  1
  Ni  Ni26  1  0.19706500  0.75792400  0.18602300  1
  Ni  Ni27  1  0.80293500  0.25792400  0.81397700  1
  Ni  Ni28  1  0.23175300  0.36577200  0.35872300  1
  Ni  Ni29  1  0.76824700  0.86577200  0.64127700  1
  Ni  Ni30  1  0.23175300  0.86577200  0.14127700  1
  Ni  Ni31  1  0.76824700  0.36577200  0.85872300  1
  Ni  Ni32  1  0.96386800  0.14837400  0.52113000  1
  Ni  Ni33  1  0.03613200  0.64837400  0.47887000  1
  Ni  Ni34  1  0.96386800  0.64837400  0.97887000  1
  Ni  Ni35  1  0.03613200  0.14837400  0.02113000  1
  Ni  Ni36  1  0.91660700  0.18411000  0.44990300  1
  Ni  Ni37  1  0.08339300  0.68411000  0.55009700  1
  Ni  Ni38  1  0.91660700  0.68411000  0.05009700  1
  Ni  Ni39  1  0.08339300  0.18411000  0.94990300  1
  Ni  Ni40  1  0.84341800  0.39539100  0.22781100  1
  Ni  Ni41  1  0.15658200  0.89539100  0.77218900  1
  Ni  Ni42  1  0.84341800  0.89539100  0.27218900  1
  Ni  Ni43  1  0.15658200  0.39539100  0.72781100  1
  Ni  Ni44  1  0.00728900  0.40585700  0.28214200  1
  Ni  Ni45  1  0.99271100  0.90585700  0.71785800  1
  Ni  Ni46  1  0.00728900  0.90585700  0.21785800  1
  Ni  Ni47  1  0.99271100  0.40585700  0.78214200  1
  Ni  Ni48  1  0.30237100  0.37692100  0.46791100  1
  Ni  Ni49  1  0.69762900  0.87692100  0.53208900  1
  Ni  Ni50  1  0.30237100  0.87692100  0.03208900  1
  Ni  Ni51  1  0.69762900  0.37692100  0.96791100  1
  Ni  Ni52  1  0.26382400  0.49457600  0.42908300  1
  Ni  Ni53  1  0.73617600  0.99457600  0.57091700  1
  Ni  Ni54  1  0.26382400  0.99457600  0.07091700  1
  Ni  Ni55  1  0.73617600  0.49457600  0.92908300  1
  Ni  Ni56  1  0.73434100  0.82148900  0.07167600  1
  Ni  Ni57  1  0.26565900  0.32148900  0.92832400  1
  Ni  Ni58  1  0.73434100  0.32148900  0.42832400  1
  Ni  Ni59  1  0.26565900  0.82148900  0.57167600  1
  Ni  Ni60  1  0.72587800  0.73933600  0.13371000  1
  Ni  Ni61  1  0.27412200  0.23933600  0.86629000  1
  Ni  Ni62  1  0.72587800  0.23933600  0.36629000  1
  Ni  Ni63  1  0.27412200  0.73933600  0.63371000  1
  Cu  Cu64  1  0.68859300  0.88562400  0.39656200  1
  Cu  Cu65  1  0.31140700  0.38562400  0.60343800  1
  Cu  Cu66  1  0.68859300  0.38562400  0.10343800  1
  Cu  Cu67  1  0.31140700  0.88562400  0.89656200  1
  Cu  Cu68  1  0.19408100  0.70362300  0.34987100  1
  Cu  Cu69  1  0.80591900  0.20362300  0.65012900  1
  Cu  Cu70  1  0.19408100  0.20362300  0.15012900  1
  Cu  Cu71  1  0.80591900  0.70362300  0.84987100  1
  C  C72  1  0.18161500  0.10094500  0.35464300  1
  C  C73  1  0.81838500  0.60094500  0.64535700  1
  C  C74  1  0.18161500  0.60094500  0.14535700  1
  C  C75  1  0.81838500  0.10094500  0.85464300  1
  C  C76  1  0.19929300  0.90747100  0.48980300  1
  C  C77  1  0.80070700  0.40747100  0.51019700  1
  C  C78  1  0.19929300  0.40747100  0.01019700  1
  C  C79  1  0.80070700  0.90747100  0.98980300  1
  C  C80  1  0.70395700  0.54966600  0.37636200  1
  C  C81  1  0.29604300  0.04966600  0.62363800  1
  C  C82  1  0.70395700  0.04966600  0.12363800  1
  C  C83  1  0.29604300  0.54966600  0.87636200  1
  C  C84  1  0.70382100  0.67623000  0.21975800  1
  C  C85  1  0.29617900  0.17623000  0.78024200  1
  C  C86  1  0.70382100  0.17623000  0.28024200  1
  C  C87  1  0.29617900  0.67623000  0.71975800  1
  C  C88  1  0.51434000  0.95789000  0.37916200  1
  C  C89  1  0.48566000  0.45789000  0.62083800  1
  C  C90  1  0.51434000  0.45789000  0.12083800  1
  C  C91  1  0.48566000  0.95789000  0.87916200  1
  C  C92  1  0.73505000  0.81165500  0.33983800  1
  C  C93  1  0.26495000  0.31165500  0.66016200  1
  C  C94  1  0.73505000  0.31165500  0.16016200  1
  C  C95  1  0.26495000  0.81165500  0.83983800  1
  C  C96  1  0.65094400  0.81438500  0.45273700  1
  C  C97  1  0.34905600  0.31438500  0.54726300  1
  C  C98  1  0.65094400  0.31438500  0.04726300  1
  C  C99  1  0.34905600  0.81438500  0.95273700  1
  C  C100  1  0.85184100  0.96744500  0.40715500  1
  C  C101  1  0.14815900  0.46744500  0.59284500  1
  C  C102  1  0.85184100  0.46744500  0.09284500  1
  C  C103  1  0.14815900  0.96744500  0.90715500  1
  C  C104  1  0.38310500  0.68317600  0.31800000  1
  C  C105  1  0.61689500  0.18317600  0.68200000  1
  C  C106  1  0.38310500  0.18317600  0.18200000  1
  C  C107  1  0.61689500  0.68317600  0.81800000  1
  C  C108  1  0.03873100  0.65966500  0.30691600  1
  C  C109  1  0.96126900  0.15966500  0.69308400  1
  C  C110  1  0.03873100  0.15966500  0.19308400  1
  C  C111  1  0.96126900  0.65966500  0.80691600  1
  C  C112  1  0.18635500  0.64609500  0.41191300  1
  C  C113  1  0.81364500  0.14609500  0.58808700  1
  C  C114  1  0.18635500  0.14609500  0.08808700  1
  C  C115  1  0.81364500  0.64609500  0.91191300  1
  C  C116  1  0.16780600  0.83305400  0.35640900  1
  C  C117  1  0.83219400  0.33305400  0.64359100  1
  C  C118  1  0.16780600  0.33305400  0.14359100  1
  C  C119  1  0.83219400  0.83305400  0.85640900  1
  C  C120  1  0.48491200  0.46755400  0.25429500  1
  C  C121  1  0.51508800  0.96755400  0.74570500  1
  C  C122  1  0.48491200  0.96755400  0.24570500  1
  C  C123  1  0.51508800  0.46755400  0.75429500  1
  C  C124  1  0.43222500  0.12659200  0.47036600  1
  C  C125  1  0.56777500  0.62659200  0.52963400  1
  C  C126  1  0.43222500  0.62659200  0.02963400  1
  C  C127  1  0.56777500  0.12659200  0.97036600  1
  C  C128  1  0.20413800  0.34365100  0.31272500  1
  C  C129  1  0.79586200  0.84365100  0.68727500  1
  C  C130  1  0.20413800  0.84365100  0.18727500  1
  C  C131  1  0.79586200  0.34365100  0.81272500  1
  C  C132  1  0.01936300  0.14831600  0.47770100  1
  C  C133  1  0.98063700  0.64831600  0.52229900  1
  C  C134  1  0.01936300  0.64831600  0.02229900  1
  C  C135  1  0.98063700  0.14831600  0.97770100  1
  C  C136  1  0.88991400  0.44443100  0.26306200  1
  C  C137  1  0.11008600  0.94443100  0.73693800  1
  C  C138  1  0.88991400  0.94443100  0.23693800  1
  C  C139  1  0.11008600  0.44443100  0.76306200  1
  C  C140  1  0.29245900  0.41071700  0.42537900  1
  C  C141  1  0.70754100  0.91071700  0.57462100  1
  C  C142  1  0.29245900  0.91071700  0.07462100  1
  C  C143  1  0.70754100  0.41071700  0.92537900  1
  C  C144  1  0.73418700  0.74061900  0.08721400  1
  C  C145  1  0.26581300  0.24061900  0.91278600  1
  C  C146  1  0.73418700  0.24061900  0.41278600  1
  C  C147  1  0.26581300  0.74061900  0.58721400  1
