# generated using pymatgen
data_Cu2Ni2C3
_symmetry_space_group_name_H-M   'P 1'
_cell_length_a   8.03926325
_cell_length_b   8.20420100
_cell_length_c   10.37122846
_cell_angle_alpha   90.00000000
_cell_angle_beta   72.59729091
_cell_angle_gamma   90.00000000
_symmetry_Int_Tables_number   1
_chemical_formula_structural   Cu2Ni2C3
_chemical_formula_sum   'Cu16 Ni16 C24'
_cell_volume   652.73075218
_cell_formula_units_Z   8
loop_
 _symmetry_equiv_pos_site_id
 _symmetry_equiv_pos_as_xyz
  1  'x, y, z'
loop_
 _atom_site_type_symbol
 _atom_site_label
 _atom_site_symmetry_multiplicity
 _atom_site_fract_x
 _atom_site_fract_y
 _atom_site_fract_z
 _atom_site_occupancy
  C  C0  1  0.07522700  0.79110900  0.35557900  1
  C  C1  1  0.10511400  0.41937000  0.38057900  1
  C  C2  1  0.23297100  0.18029400  0.16596200  1
  C  C3  1  0.07522700  0.70889100  0.85557900  1
  C  C4  1  0.30771400  0.51323200  0.06982300  1
  C  C5  1  0.10511400  0.08063000  0.88057900  1
  C  C6  1  0.23297100  0.31970600  0.66596200  1
  C  C7  1  0.45006900  0.92763100  0.26812700  1
  C  C8  1  0.30771400  0.98676800  0.56982300  1
  C  C9  1  0.59432400  0.15339400  0.00713800  1
  C  C10  1  0.40567600  0.65339400  0.49286300  1
  C  C11  1  0.54993100  0.42763100  0.23187300  1
  C  C12  1  0.45006900  0.57236900  0.76812700  1
  C  C13  1  0.59432400  0.34660600  0.50713700  1
  C  C14  1  0.40567600  0.84660600  0.99286300  1
  C  C15  1  0.69228600  0.01323200  0.43017700  1
  C  C16  1  0.54993100  0.07236900  0.73187300  1
  C  C17  1  0.76702900  0.68029400  0.33403800  1
  C  C18  1  0.89488600  0.91937000  0.11942100  1
  C  C19  1  0.69228600  0.48676800  0.93017700  1
  C  C20  1  0.92477300  0.29110900  0.14442100  1
  C  C21  1  0.76702900  0.81970600  0.83403800  1
  C  C22  1  0.89488600  0.58063000  0.61942100  1
  C  C23  1  0.92477300  0.20889100  0.64442100  1
  Ni  Ni24  1  0.06169200  0.09868500  0.07466100  1
  Ni  Ni25  1  0.12322200  0.38622600  0.19027300  1
  Ni  Ni26  1  0.06169200  0.40131500  0.57466100  1
  Ni  Ni27  1  0.12322200  0.11377400  0.69027300  1
  Ni  Ni28  1  0.40165800  0.02025900  0.11643800  1
  Ni  Ni29  1  0.50410100  0.37368200  0.06724700  1
  Ni  Ni30  1  0.49589900  0.87368200  0.43275300  1
  Ni  Ni31  1  0.40165800  0.47974100  0.61643800  1
  Ni  Ni32  1  0.59834200  0.52025800  0.38356200  1
  Ni  Ni33  1  0.50410100  0.12631800  0.56724700  1
  Ni  Ni34  1  0.49589900  0.62631800  0.93275300  1
  Ni  Ni35  1  0.59834200  0.97974200  0.88356200  1
  Ni  Ni36  1  0.87677800  0.88622600  0.30972700  1
  Ni  Ni37  1  0.93830800  0.59868500  0.42533900  1
  Ni  Ni38  1  0.87677800  0.61377400  0.80972700  1
  Ni  Ni39  1  0.93830800  0.90131500  0.92533900  1
  Cu  Cu40  1  0.18883800  0.72947200  0.09450700  1
  Cu  Cu41  1  0.19824700  0.99272800  0.36627900  1
  Cu  Cu42  1  0.18883800  0.77052800  0.59450700  1
  Cu  Cu43  1  0.29468800  0.66481500  0.32145000  1
  Cu  Cu44  1  0.19824700  0.50727200  0.86627900  1
  Cu  Cu45  1  0.33367400  0.30532600  0.33516100  1
  Cu  Cu46  1  0.29468800  0.83518500  0.82145000  1
  Cu  Cu47  1  0.66632600  0.80532600  0.16483900  1
  Cu  Cu48  1  0.33367400  0.19467400  0.83516100  1
  Cu  Cu49  1  0.70531200  0.16481500  0.17855000  1
  Cu  Cu50  1  0.66632600  0.69467400  0.66483900  1
  Cu  Cu51  1  0.80175300  0.49272800  0.13372100  1
  Cu  Cu52  1  0.70531200  0.33518500  0.67855000  1
  Cu  Cu53  1  0.81116200  0.22947200  0.40549300  1
  Cu  Cu54  1  0.80175300  0.00727200  0.63372100  1
  Cu  Cu55  1  0.81116200  0.27052800  0.90549300  1
