# generated using pymatgen
data_Cu(NiC6)4
_symmetry_space_group_name_H-M   'P 1'
_cell_length_a   9.91663803
_cell_length_b   9.91663803
_cell_length_c   9.91663803
_cell_angle_alpha   60.00000000
_cell_angle_beta   60.00000000
_cell_angle_gamma   60.00000000
_symmetry_Int_Tables_number   1
_chemical_formula_structural   Cu(NiC6)4
_chemical_formula_sum   'Cu2 Ni8 C48'
_cell_volume   689.57004316
_cell_formula_units_Z   2
loop_
 _symmetry_equiv_pos_site_id
 _symmetry_equiv_pos_as_xyz
  1  'x, y, z'
loop_
 _atom_site_type_symbol
 _atom_site_label
 _atom_site_symmetry_multiplicity
 _atom_site_fract_x
 _atom_site_fract_y
 _atom_site_fract_z
 _atom_site_occupancy
  C  C0  1  0.28298300  0.71701700  0.28298300  1
  C  C1  1  0.53298300  0.96701700  0.53298300  1
  C  C2  1  0.28298300  0.71701700  0.71701700  1
  C  C3  1  0.28298300  0.28298300  0.71701700  1
  C  C4  1  0.53298300  0.96701700  0.96701700  1
  C  C5  1  0.53298300  0.53298300  0.96701700  1
  C  C6  1  0.71701700  0.28298300  0.28298300  1
  C  C7  1  0.71701700  0.71701700  0.28298300  1
  C  C8  1  0.96701700  0.96701700  0.53298300  1
  C  C9  1  0.96701700  0.53298300  0.53298300  1
  C  C10  1  0.71701700  0.28298300  0.71701700  1
  C  C11  1  0.96701700  0.53298300  0.96701700  1
  C  C12  1  0.62500000  0.12500000  0.12500000  1
  C  C13  1  0.12500000  0.62500000  0.12500000  1
  C  C14  1  0.12500000  0.12500000  0.12500000  1
  C  C15  1  0.12500000  0.12500000  0.62500000  1
  Ni  Ni16  1  0.33484600  0.33484600  0.33484600  1
  Ni  Ni17  1  0.33484600  0.99546200  0.33484600  1
  Ni  Ni18  1  0.99546200  0.33484600  0.33484600  1
  Ni  Ni19  1  0.91515400  0.91515400  0.25453800  1
  Ni  Ni20  1  0.25453800  0.91515400  0.91515400  1
  Ni  Ni21  1  0.33484600  0.33484600  0.99546200  1
  Ni  Ni22  1  0.91515400  0.25453800  0.91515400  1
  Ni  Ni23  1  0.91515400  0.91515400  0.91515400  1
  Cu  Cu24  1  0.50000000  0.50000000  0.50000000  1
  Cu  Cu25  1  0.75000000  0.75000000  0.75000000  1
  C  C26  1  0.48998700  0.30441800  0.21724800  1
  C  C27  1  0.57077300  0.57077300  0.28768000  1
  C  C28  1  0.48998700  0.98834700  0.30441800  1
  C  C29  1  0.30441800  0.98834700  0.21724800  1
  C  C30  1  0.57077300  0.57077300  0.57077300  1
  C  C31  1  0.57077300  0.28768000  0.57077300  1
  C  C32  1  0.21724800  0.48998700  0.30441800  1
  C  C33  1  0.30441800  0.21724800  0.48998700  1
  C  C34  1  0.28768000  0.57077300  0.57077300  1
  C  C35  1  0.98834700  0.48998700  0.21724800  1
  C  C36  1  0.03275200  0.94558200  0.26165300  1
  C  C37  1  0.21724800  0.98834700  0.48998700  1
  C  C38  1  0.98834700  0.21724800  0.30441800  1
  C  C39  1  0.94558200  0.76001300  0.26165300  1
  C  C40  1  0.48998700  0.21724800  0.98834700  1
  C  C41  1  0.26165300  0.94558200  0.76001300  1
  C  C42  1  0.76001300  0.03275200  0.26165300  1
  C  C43  1  0.98834700  0.30441800  0.48998700  1
  C  C44  1  0.30441800  0.48998700  0.98834700  1
  C  C45  1  0.26165300  0.03275200  0.94558200  1
  C  C46  1  0.03275200  0.26165300  0.76001300  1
  C  C47  1  0.21724800  0.30441800  0.98834700  1
  C  C48  1  0.26165300  0.76001300  0.03275200  1
  C  C49  1  0.96232000  0.67922700  0.67922700  1
  C  C50  1  0.94558200  0.03275200  0.76001300  1
  C  C51  1  0.03275200  0.76001300  0.94558200  1
  C  C52  1  0.67922700  0.96232000  0.67922700  1
  C  C53  1  0.67922700  0.67922700  0.67922700  1
  C  C54  1  0.94558200  0.26165300  0.03275200  1
  C  C55  1  0.76001300  0.26165300  0.94558200  1
  C  C56  1  0.67922700  0.67922700  0.96232000  1
  C  C57  1  0.76001300  0.94558200  0.03275200  1
