# generated using pymatgen
data_Cu7NiC40
_symmetry_space_group_name_H-M   'P 1'
_cell_length_a   5.22953500
_cell_length_b   9.05502357
_cell_length_c   10.39205364
_cell_angle_alpha   88.77532063
_cell_angle_beta   89.38510378
_cell_angle_gamma   89.90841554
_symmetry_Int_Tables_number   1
_chemical_formula_structural   Cu7NiC40
_chemical_formula_sum   'Cu7 Ni1 C40'
_cell_volume   491.95955919
_cell_formula_units_Z   1
loop_
 _symmetry_equiv_pos_site_id
 _symmetry_equiv_pos_as_xyz
  1  'x, y, z'
loop_
 _atom_site_type_symbol
 _atom_site_label
 _atom_site_symmetry_multiplicity
 _atom_site_fract_x
 _atom_site_fract_y
 _atom_site_fract_z
 _atom_site_occupancy
  C  C0  1  0.15260900  0.17429400  0.66740200  1
  C  C1  1  0.18355100  0.16189100  0.16686000  1
  C  C2  1  0.31943300  0.33009900  0.41531600  1
  C  C3  1  0.33620400  0.32263300  0.91425600  1
  C  C4  1  0.65294700  0.67388600  0.66837800  1
  C  C5  1  0.68364400  0.66297800  0.16579000  1
  C  C6  1  0.82162900  0.83227600  0.41622900  1
  C  C7  1  0.83537300  0.82455300  0.91613300  1
  Ni  Ni8  1  0.32803800  0.66482600  0.38447100  1
  Cu  Cu9  1  0.18080100  0.49759500  0.13226100  1
  Cu  Cu10  1  0.15835100  0.84311500  0.63239000  1
  Cu  Cu11  1  0.33983800  0.99560200  0.88490000  1
  Cu  Cu12  1  0.66061600  0.34062500  0.63321900  1
  Cu  Cu13  1  0.68066300  0.00036600  0.13329500  1
  Cu  Cu14  1  0.82435500  0.16843300  0.38403700  1
  Cu  Cu15  1  0.83854400  0.49711800  0.88456000  1
  C  C16  1  0.16913000  0.83193900  0.12528700  1
  C  C17  1  0.16324800  0.50138400  0.62787900  1
  C  C18  1  0.33372300  0.99933600  0.37679000  1
  C  C19  1  0.32765500  0.66486400  0.87574900  1
  C  C20  1  0.67007800  0.33203100  0.12454800  1
  C  C21  1  0.66286900  0.00216500  0.62670800  1
  C  C22  1  0.83620000  0.49643900  0.37429300  1
  C  C23  1  0.82878200  0.16555600  0.87513300  1
  C  C24  1  0.09601200  0.48035100  0.34370700  1
  C  C25  1  0.08964300  0.17146600  0.86157400  1
  C  C26  1  0.17794800  0.78999200  0.84768500  1
  C  C27  1  0.19324100  0.87639600  0.41975500  1
  C  C28  1  0.21419400  0.13400000  0.36096900  1
  C  C29  1  0.21175500  0.53232800  0.91567600  1
  C  C30  1  0.27934000  0.36469000  0.61422800  1
  C  C31  1  0.29083900  0.96597300  0.09667600  1
  C  C32  1  0.30324800  0.62984300  0.59901000  1
  C  C33  1  0.31120500  0.70843600  0.16410400  1
  C  C34  1  0.40670100  0.31973900  0.11195900  1
  C  C35  1  0.40826400  0.01302800  0.66548200  1
  C  C36  1  0.59531600  0.98459000  0.34701800  1
  C  C37  1  0.59054700  0.67176500  0.86235700  1
  C  C38  1  0.67774300  0.28993300  0.84579100  1
  C  C39  1  0.69421400  0.37382200  0.41624300  1
  C  C40  1  0.72140600  0.63367200  0.36188100  1
  C  C41  1  0.71108000  0.03352000  0.91683700  1
  C  C42  1  0.78871800  0.46713300  0.09602000  1
  C  C43  1  0.77705000  0.86405900  0.61546200  1
  C  C44  1  0.80604000  0.12885900  0.59633500  1
  C  C45  1  0.81377200  0.20959100  0.16388300  1
  C  C46  1  0.90554700  0.82134000  0.11357000  1
  C  C47  1  0.90729200  0.51086500  0.66549400  1
