# generated using pymatgen
data_CuNiC18
_symmetry_space_group_name_H-M   'P 1'
_cell_length_a   8.94107200
_cell_length_b   9.66659999
_cell_length_c   7.50572232
_cell_angle_alpha   98.40295440
_cell_angle_beta   92.15123770
_cell_angle_gamma   112.36730882
_symmetry_Int_Tables_number   1
_chemical_formula_structural   CuNiC18
_chemical_formula_sum   'Cu2 Ni2 C36'
_cell_volume   590.38598950
_cell_formula_units_Z   2
loop_
 _symmetry_equiv_pos_site_id
 _symmetry_equiv_pos_as_xyz
  1  'x, y, z'
loop_
 _atom_site_type_symbol
 _atom_site_label
 _atom_site_symmetry_multiplicity
 _atom_site_fract_x
 _atom_site_fract_y
 _atom_site_fract_z
 _atom_site_occupancy
  C  C0  1  0.88540100  0.77537100  0.90818300  1
  C  C1  1  0.11459900  0.22462900  0.09181700  1
  C  C2  1  0.96620500  0.75071700  0.36281600  1
  C  C3  1  0.03379500  0.24928300  0.63718400  1
  C  C4  1  0.67970400  0.71754700  0.52992000  1
  C  C5  1  0.32029600  0.28245300  0.47008000  1
  C  C6  1  0.72871800  0.93896900  0.49349500  1
  C  C7  1  0.27128200  0.06103100  0.50650500  1
  C  C8  1  0.36667800  0.79930900  0.49508700  1
  C  C9  1  0.63332200  0.20069100  0.50491300  1
  C  C10  1  0.25309200  0.43425100  0.91779900  1
  C  C11  1  0.74690800  0.56574900  0.08220100  1
  C  C12  1  0.38394800  0.85708600  0.09294800  1
  C  C13  1  0.61605200  0.14291400  0.90705200  1
  C  C14  1  0.46854000  0.62604700  0.75478600  1
  C  C15  1  0.53146000  0.37395300  0.24521400  1
  C  C16  1  0.33539100  0.77336700  0.40507700  1
  C  C17  1  0.66460900  0.22663300  0.59492300  1
  C  C18  1  0.12106000  0.69931000  0.40280400  1
  C  C19  1  0.87894000  0.30069000  0.59719600  1
  Ni  Ni20  1  0.15465300  0.74215200  0.79435500  1
  Ni  Ni21  1  0.84534700  0.25784800  0.20564500  1
  Cu  Cu22  1  0.08792000  0.65298900  0.03913600  1
  Cu  Cu23  1  0.91208000  0.34701100  0.96086400  1
  C  C24  1  0.81568600  0.89353800  0.72608300  1
  C  C25  1  0.18431400  0.10646200  0.27391700  1
  C  C26  1  0.73895700  0.84640200  0.57974500  1
  C  C27  1  0.26104300  0.15359800  0.42025500  1
  C  C28  1  0.19926900  0.66566900  0.93158800  1
  C  C29  1  0.80073100  0.33433100  0.06841200  1
  C  C30  1  0.12960500  0.81700900  0.67514000  1
  C  C31  1  0.87039500  0.18299100  0.32486000  1
  C  C32  1  0.50494700  0.02485300  0.80023200  1
  C  C33  1  0.49505300  0.97514700  0.19976800  1
  C  C34  1  0.72892900  0.73881000  0.06850400  1
  C  C35  1  0.27107100  0.26119000  0.93149600  1
  C  C36  1  0.51154400  0.48652200  0.70869900  1
  C  C37  1  0.48845600  0.51347800  0.29130100  1
  C  C38  1  0.01799000  0.67158900  0.32080500  1
  C  C39  1  0.98201000  0.32841100  0.67919500  1
