# generated using pymatgen
data_CuNi4C3
_symmetry_space_group_name_H-M   'P 1'
_cell_length_a   6.35881100
_cell_length_b   10.74469908
_cell_length_c   11.00597576
_cell_angle_alpha   89.84148955
_cell_angle_beta   89.95274102
_cell_angle_gamma   89.75643872
_symmetry_Int_Tables_number   1
_chemical_formula_structural   CuNi4C3
_chemical_formula_sum   'Cu8 Ni32 C24'
_cell_volume   751.95698203
_cell_formula_units_Z   8
loop_
 _symmetry_equiv_pos_site_id
 _symmetry_equiv_pos_as_xyz
  1  'x, y, z'
loop_
 _atom_site_type_symbol
 _atom_site_label
 _atom_site_symmetry_multiplicity
 _atom_site_fract_x
 _atom_site_fract_y
 _atom_site_fract_z
 _atom_site_occupancy
  C  C0  1  0.49140800  0.24057800  0.32025300  1
  C  C1  1  0.00449400  0.24095800  0.32488400  1
  C  C2  1  0.98971400  0.27574900  0.81644800  1
  C  C3  1  0.50586400  0.72583100  0.18860800  1
  C  C4  1  0.00107400  0.72441900  0.19688500  1
  C  C5  1  0.52194100  0.74179100  0.66485000  1
  C  C6  1  0.24577500  0.77229800  0.90823000  1
  C  C7  1  0.75342600  0.95736800  0.72937100  1
  C  C8  1  0.00073500  0.00404000  0.00256700  1
  C  C9  1  0.49917400  0.00526600  0.00250500  1
  C  C10  1  0.99922700  0.99646800  0.49835400  1
  C  C11  1  0.49387500  0.00223800  0.49572800  1
  C  C12  1  0.99786000  0.50176000  0.50134800  1
  C  C13  1  0.49757800  0.49696400  0.50072000  1
  C  C14  1  0.00299500  0.50011900  0.00083500  1
  C  C15  1  0.50496200  0.49307000  0.99534600  1
  C  C16  1  0.24287200  0.03877500  0.74288800  1
  C  C17  1  0.24961000  0.24058400  0.07886500  1
  C  C18  1  0.75296400  0.26020000  0.57263500  1
  C  C19  1  0.74807500  0.46816300  0.24172500  1
  C  C20  1  0.25938200  0.53507300  0.76093700  1
  C  C21  1  0.25008600  0.73889900  0.42409200  1
  C  C22  1  0.74476200  0.76148700  0.92499100  1
  C  C23  1  0.75096900  0.96598400  0.25696400  1
  Ni  Ni24  1  0.75336700  0.01673900  0.12065400  1
  Ni  Ni25  1  0.94713400  0.02170000  0.32096500  1
  Ni  Ni26  1  0.55313200  0.02472600  0.31895400  1
  Ni  Ni27  1  0.74895000  0.11626000  0.52950400  1
  Ni  Ni28  1  0.22755200  0.17572900  0.75547200  1
  Ni  Ni29  1  0.45194000  0.18047300  0.02603100  1
  Ni  Ni30  1  0.05505600  0.18210400  0.01437700  1
  Ni  Ni31  1  0.24200400  0.23730300  0.21596500  1
  Ni  Ni32  1  0.76236800  0.26604700  0.70707300  1
  Ni  Ni33  1  0.94677800  0.31767900  0.50415900  1
  Ni  Ni34  1  0.55185900  0.31575000  0.50915800  1
  Ni  Ni35  1  0.75004400  0.32700900  0.24858600  1
  Ni  Ni36  1  0.25099400  0.38192400  0.03335900  1
  Ni  Ni37  1  0.45565000  0.47548900  0.82187100  1
  Ni  Ni38  1  0.06066500  0.47959300  0.82443900  1
  Ni  Ni39  1  0.25010500  0.48980200  0.62341400  1
  Ni  Ni40  1  0.74337000  0.51928000  0.37704000  1
  Ni  Ni41  1  0.94485700  0.52808900  0.17850100  1
  Ni  Ni42  1  0.55393500  0.52533700  0.17443300  1
  Ni  Ni43  1  0.75099900  0.61934200  0.96249600  1
  Ni  Ni44  1  0.27350400  0.67644900  0.76151200  1
  Ni  Ni45  1  0.44536100  0.68156100  0.48900600  1
  Ni  Ni46  1  0.04630400  0.68040100  0.47291200  1
  Ni  Ni47  1  0.26083100  0.73745100  0.28619200  1
  Ni  Ni48  1  0.72943100  0.78294100  0.78997600  1
  Ni  Ni49  1  0.95006000  0.81702900  0.98218900  1
  Ni  Ni50  1  0.54801000  0.81694600  0.99302600  1
  Ni  Ni51  1  0.75081000  0.82480800  0.24941900  1
  Ni  Ni52  1  0.24956400  0.88107300  0.46840200  1
  Ni  Ni53  1  0.44420700  0.98476600  0.67717000  1
  Ni  Ni54  1  0.04821500  0.97892200  0.67758500  1
  Ni  Ni55  1  0.25022300  0.97519300  0.87697100  1
  Cu  Cu56  1  0.75062400  0.03501800  0.88749500  1
  Cu  Cu57  1  0.24273800  0.11752900  0.47908000  1
  Cu  Cu58  1  0.76178400  0.38220500  0.98678900  1
  Cu  Cu59  1  0.24725400  0.45999700  0.39245000  1
  Cu  Cu60  1  0.74588000  0.53714300  0.60907600  1
  Cu  Cu61  1  0.25477800  0.62078900  0.01421600  1
  Cu  Cu62  1  0.74070800  0.88399000  0.52341100  1
  Cu  Cu63  1  0.25014100  0.96113200  0.10865000  1
