# generated using pymatgen
data_Cu3Ni2C23
_symmetry_space_group_name_H-M   'P 1'
_cell_length_a   6.11104400
_cell_length_b   6.13425272
_cell_length_c   9.70501507
_cell_angle_alpha   89.63331587
_cell_angle_beta   89.66953693
_cell_angle_gamma   60.27958553
_symmetry_Int_Tables_number   1
_chemical_formula_structural   Cu3Ni2C23
_chemical_formula_sum   'Cu3 Ni2 C23'
_cell_volume   315.94372910
_cell_formula_units_Z   1
loop_
 _symmetry_equiv_pos_site_id
 _symmetry_equiv_pos_as_xyz
  1  'x, y, z'
loop_
 _atom_site_type_symbol
 _atom_site_label
 _atom_site_symmetry_multiplicity
 _atom_site_fract_x
 _atom_site_fract_y
 _atom_site_fract_z
 _atom_site_occupancy
  C  C0  1  0.67110500  0.65386300  0.10986400  1
  C  C1  1  0.99060400  0.01915600  0.00821300  1
  C  C2  1  0.99547600  0.01276800  0.50012600  1
  C  C3  1  0.33279000  0.33267200  0.60462600  1
  C  C4  1  0.83071800  0.33868400  0.78693100  1
  C  C5  1  0.66095300  0.17043600  0.28930200  1
  C  C6  1  0.18142800  0.16234700  0.28417900  1
  Ni  Ni7  1  0.67549400  0.65577900  0.50623800  1
  Ni  Ni8  1  0.33391200  0.32973500  0.01024600  1
  Cu  Cu9  1  0.33884100  0.83032000  0.78506800  1
  Cu  Cu10  1  0.83074700  0.83066600  0.78538400  1
  Cu  Cu11  1  0.16890100  0.66064300  0.28567200  1
  C  C12  1  0.32913600  0.84384800  0.40051300  1
  C  C13  1  0.51913400  0.96441600  0.65391500  1
  C  C14  1  0.66495900  0.66794100  0.90342700  1
  C  C15  1  0.00014100  0.00160200  0.68394200  1
  C  C16  1  0.00603100  0.00688600  0.19138300  1
  C  C17  1  0.82905500  0.84351400  0.40050100  1
  C  C18  1  0.52511100  0.51382600  0.65805300  1
  C  C19  1  0.96170700  0.51486900  0.65872600  1
  C  C20  1  0.16069700  0.67680700  0.90824400  1
  C  C21  1  0.84765000  0.32487200  0.39243600  1
  C  C22  1  0.04182900  0.46852800  0.15897600  1
  C  C23  1  0.48717900  0.46744900  0.15816300  1
  C  C24  1  0.32191300  0.33010100  0.39925900  1
  C  C25  1  0.15845900  0.17017800  0.89973400  1
  C  C26  1  0.46433700  0.03941900  0.16779500  1
  C  C27  1  0.67139200  0.16867400  0.90124200  1
