# generated using pymatgen
data_Cu2NiC8
_symmetry_space_group_name_H-M   'P 1'
_cell_length_a   6.36027000
_cell_length_b   8.80044600
_cell_length_c   20.73308600
_cell_angle_alpha   90.00000000
_cell_angle_beta   90.00000000
_cell_angle_gamma   90.00000000
_symmetry_Int_Tables_number   1
_chemical_formula_structural   Cu2NiC8
_chemical_formula_sum   'Cu16 Ni8 C64'
_cell_volume   1160.49743220
_cell_formula_units_Z   8
loop_
 _symmetry_equiv_pos_site_id
 _symmetry_equiv_pos_as_xyz
  1  'x, y, z'
loop_
 _atom_site_type_symbol
 _atom_site_label
 _atom_site_symmetry_multiplicity
 _atom_site_fract_x
 _atom_site_fract_y
 _atom_site_fract_z
 _atom_site_occupancy
  C  C0  1  0.87156100  0.34512700  0.32155900  1
  C  C1  1  0.62843900  0.84512700  0.67844100  1
  C  C2  1  0.37156100  0.65487300  0.17844100  1
  C  C3  1  0.12843900  0.15487300  0.82155900  1
  C  C4  1  0.12843900  0.65487300  0.67844100  1
  C  C5  1  0.37156100  0.15487300  0.32155900  1
  C  C6  1  0.62843900  0.34512700  0.82155900  1
  C  C7  1  0.87156100  0.84512700  0.17844100  1
  C  C8  1  0.60852300  0.39657400  0.50767400  1
  C  C9  1  0.89147700  0.89657400  0.49232600  1
  C  C10  1  0.10852300  0.60342600  0.99232600  1
  C  C11  1  0.39147700  0.10342600  0.00767400  1
  C  C12  1  0.39147700  0.60342600  0.49232600  1
  C  C13  1  0.10852300  0.10342600  0.50767400  1
  C  C14  1  0.89147700  0.39657400  0.00767400  1
  C  C15  1  0.60852300  0.89657400  0.99232600  1
  C  C16  1  0.84293300  0.62450300  0.35059300  1
  C  C17  1  0.65706700  0.12450300  0.64940700  1
  C  C18  1  0.34293300  0.37549700  0.14940700  1
  C  C19  1  0.15706700  0.87549700  0.85059300  1
  C  C20  1  0.15706700  0.37549700  0.64940700  1
  C  C21  1  0.34293300  0.87549700  0.35059300  1
  C  C22  1  0.65706700  0.62450300  0.85059300  1
  C  C23  1  0.84293300  0.12450300  0.14940700  1
  C  C24  1  0.09154600  0.37703100  0.42586800  1
  C  C25  1  0.40845400  0.87703100  0.57413200  1
  C  C26  1  0.59154600  0.62296900  0.07413200  1
  C  C27  1  0.90845400  0.12296900  0.92586800  1
  C  C28  1  0.90845400  0.62296900  0.57413200  1
  C  C29  1  0.59154600  0.12296900  0.42586800  1
  C  C30  1  0.40845400  0.37703100  0.92586800  1
  C  C31  1  0.09154600  0.87703100  0.07413200  1
  C  C32  1  0.19132300  0.49428500  0.35781200  1
  C  C33  1  0.30867700  0.99428500  0.64218800  1
  C  C34  1  0.69132300  0.50571500  0.14218800  1
  C  C35  1  0.80867700  0.00571500  0.85781200  1
  C  C36  1  0.80867700  0.50571500  0.64218800  1
  C  C37  1  0.69132300  0.00571500  0.35781200  1
  C  C38  1  0.30867700  0.49428500  0.85781200  1
  C  C39  1  0.19132300  0.99428500  0.14218800  1
  C  C40  1  0.69890700  0.51050900  0.43204700  1
  C  C41  1  0.80109300  0.01050900  0.56795300  1
  C  C42  1  0.19890700  0.48949100  0.06795300  1
  C  C43  1  0.30109300  0.98949100  0.93204700  1
  C  C44  1  0.30109300  0.48949100  0.56795300  1
  C  C45  1  0.19890700  0.98949100  0.43204700  1
  C  C46  1  0.80109300  0.51050900  0.93204700  1
  C  C47  1  0.69890700  0.01050900  0.06795300  1
  C  C48  1  0.86452300  0.52680600  0.38224900  1
  C  C49  1  0.63547700  0.02680600  0.61775100  1
  C  C50  1  0.36452300  0.47319400  0.11775100  1
  C  C51  1  0.13547700  0.97319400  0.88224900  1
  C  C52  1  0.13547700  0.47319400  0.61775100  1
  C  C53  1  0.36452300  0.97319400  0.38224900  1
  C  C54  1  0.63547700  0.52680600  0.88224900  1
  C  C55  1  0.86452300  0.02680600  0.11775100  1
  C  C56  1  0.05749700  0.45312800  0.38569800  1
  C  C57  1  0.44250300  0.95312800  0.61430200  1
  C  C58  1  0.55749700  0.54687200  0.11430200  1
  C  C59  1  0.94250300  0.04687200  0.88569800  1
  C  C60  1  0.94250300  0.54687200  0.61430200  1
  C  C61  1  0.55749700  0.04687200  0.38569800  1
  C  C62  1  0.44250300  0.45312800  0.88569800  1
  C  C63  1  0.05749700  0.95312800  0.11430200  1
  Ni  Ni64  1  0.04755500  0.15273400  0.27603400  1
  Ni  Ni65  1  0.45244500  0.65273400  0.72396600  1
  Ni  Ni66  1  0.54755500  0.84726600  0.22396600  1
  Ni  Ni67  1  0.95244500  0.34726600  0.77603400  1
  Ni  Ni68  1  0.95244500  0.84726600  0.72396600  1
  Ni  Ni69  1  0.54755500  0.34726600  0.27603400  1
  Ni  Ni70  1  0.45244500  0.15273400  0.77603400  1
  Ni  Ni71  1  0.04755500  0.65273400  0.22396600  1
  Cu  Cu72  1  0.72109200  0.39346600  0.47179100  1
  Cu  Cu73  1  0.77890800  0.89346600  0.52820900  1
  Cu  Cu74  1  0.22109200  0.60653400  0.02820900  1
  Cu  Cu75  1  0.27890800  0.10653400  0.97179100  1
  Cu  Cu76  1  0.27890800  0.60653400  0.52820900  1
  Cu  Cu77  1  0.22109200  0.10653400  0.47179100  1
  Cu  Cu78  1  0.77890800  0.39346600  0.97179100  1
  Cu  Cu79  1  0.72109200  0.89346600  0.02820900  1
  Cu  Cu80  1  0.55305700  0.60463600  0.43562800  1
  Cu  Cu81  1  0.94694300  0.10463600  0.56437200  1
  Cu  Cu82  1  0.05305700  0.39536400  0.06437200  1
  Cu  Cu83  1  0.44694300  0.89536400  0.93562800  1
  Cu  Cu84  1  0.44694300  0.39536400  0.56437200  1
  Cu  Cu85  1  0.05305700  0.89536400  0.43562800  1
  Cu  Cu86  1  0.94694300  0.60463600  0.93562800  1
  Cu  Cu87  1  0.55305700  0.10463600  0.06437200  1
