# generated using pymatgen
data_Cu2NiC4
_symmetry_space_group_name_H-M   'P 1'
_cell_length_a   7.82968962
_cell_length_b   7.82968962
_cell_length_c   9.02010900
_cell_angle_alpha   90.00000000
_cell_angle_beta   90.00000000
_cell_angle_gamma   119.99999675
_symmetry_Int_Tables_number   1
_chemical_formula_structural   Cu2NiC4
_chemical_formula_sum   'Cu12 Ni6 C24'
_cell_volume   478.88531957
_cell_formula_units_Z   6
loop_
 _symmetry_equiv_pos_site_id
 _symmetry_equiv_pos_as_xyz
  1  'x, y, z'
loop_
 _atom_site_type_symbol
 _atom_site_label
 _atom_site_symmetry_multiplicity
 _atom_site_fract_x
 _atom_site_fract_y
 _atom_site_fract_z
 _atom_site_occupancy
  Ni  Ni0  1  0.89005400  0.16390900  0.57818400  1
  Ni  Ni1  1  0.83609100  0.72614400  0.24485000  1
  Ni  Ni2  1  0.27385600  0.10994600  0.91151700  1
  Ni  Ni3  1  0.06180500  0.56044500  0.08700700  1
  Ni  Ni4  1  0.49864000  0.93819500  0.42034100  1
  Ni  Ni5  1  0.43955500  0.50136000  0.75367400  1
  Cu  Cu6  1  0.92471900  0.17188200  0.91425500  1
  Cu  Cu7  1  0.89396800  0.15510200  0.25997600  1
  Cu  Cu8  1  0.82811800  0.75283800  0.58092100  1
  Cu  Cu9  1  0.84489800  0.73886500  0.92664200  1
  Cu  Cu10  1  0.26113500  0.10603200  0.59330900  1
  Cu  Cu11  1  0.24716200  0.07528100  0.24758800  1
  Cu  Cu12  1  0.07989600  0.56512300  0.75229700  1
  Cu  Cu13  1  0.07542200  0.58244900  0.40610300  1
  Cu  Cu14  1  0.48522700  0.92010400  0.08563100  1
  Cu  Cu15  1  0.50702700  0.92457800  0.73943600  1
  Cu  Cu16  1  0.43487700  0.51477300  0.41896400  1
  Cu  Cu17  1  0.41755100  0.49297300  0.07277000  1
  C  C18  1  0.97536000  0.30944200  0.42992700  1
  C  C19  1  0.97271500  0.31442500  0.08931300  1
  C  C20  1  0.94627700  0.29228900  0.73371200  1
  C  C21  1  0.69055800  0.66591800  0.09659300  1
  C  C22  1  0.70771100  0.65398800  0.40037900  1
  C  C23  1  0.68557500  0.65829000  0.75597900  1
  C  C24  1  0.97737400  0.97073000  0.24866300  1
  C  C25  1  0.02927000  0.00664400  0.91532900  1
  C  C26  1  0.99335600  0.02262600  0.58199600  1
  C  C27  1  0.99221300  0.61264300  0.92972900  1
  C  C28  1  0.99310500  0.64107300  0.23172700  1
  C  C29  1  0.00949600  0.65845600  0.58553800  1
  C  C30  1  0.34601200  0.05372300  0.06704500  1
  C  C31  1  0.34171000  0.02728500  0.42264600  1
  C  C32  1  0.33408200  0.02464000  0.76326000  1
  C  C33  1  0.30549400  0.65388000  0.08588400  1
  C  C34  1  0.34838600  0.69450600  0.41921800  1
  C  C35  1  0.34612000  0.65161400  0.75255100  1
  C  C36  1  0.64796900  0.00689500  0.56506000  1
  C  C37  1  0.62042900  0.00778700  0.26306200  1
  C  C38  1  0.64896000  0.99050400  0.91887100  1
  C  C39  1  0.38735700  0.37957100  0.59639500  1
  C  C40  1  0.34154400  0.35104000  0.25220400  1
  C  C41  1  0.35892700  0.35203100  0.89839400  1
