# generated using pymatgen
data_Cu2NiC3
_symmetry_space_group_name_H-M   'P 1'
_cell_length_a   6.48908623
_cell_length_b   6.83375951
_cell_length_c   15.46025932
_cell_angle_alpha   84.83235920
_cell_angle_beta   90.03024712
_cell_angle_gamma   118.35280791
_symmetry_Int_Tables_number   1
_chemical_formula_structural   Cu2NiC3
_chemical_formula_sum   'Cu16 Ni8 C24'
_cell_volume   600.18968242
_cell_formula_units_Z   8
loop_
 _symmetry_equiv_pos_site_id
 _symmetry_equiv_pos_as_xyz
  1  'x, y, z'
loop_
 _atom_site_type_symbol
 _atom_site_label
 _atom_site_symmetry_multiplicity
 _atom_site_fract_x
 _atom_site_fract_y
 _atom_site_fract_z
 _atom_site_occupancy
  C  C0  1  0.40344700  0.24973800  0.37497300  1
  C  C1  1  0.90344000  0.24991000  0.87491800  1
  C  C2  1  0.09684800  0.75015400  0.12503500  1
  C  C3  1  0.59664300  0.75023200  0.62508700  1
  C  C4  1  0.24976200  0.99989300  0.75000800  1
  C  C5  1  0.99999200  0.50018500  0.50001800  1
  C  C6  1  0.75016300  0.00031000  0.24979600  1
  C  C7  1  0.49971300  0.49962600  0.00015500  1
  C  C8  1  0.81292300  0.05330000  0.42101300  1
  C  C9  1  0.31266800  0.05282500  0.92129500  1
  C  C10  1  0.00970100  0.44698700  0.32876600  1
  C  C11  1  0.50941500  0.44657200  0.82904000  1
  C  C12  1  0.68725300  0.94684600  0.07868200  1
  C  C13  1  0.18710900  0.94701900  0.57885700  1
  C  C14  1  0.49060300  0.55328300  0.17121200  1
  C  C15  1  0.99026700  0.55321700  0.67112700  1
  C  C16  1  0.82050500  0.82492000  0.40632200  1
  C  C17  1  0.32041900  0.82458500  0.90666900  1
  C  C18  1  0.24580500  0.67512500  0.34336400  1
  C  C19  1  0.74549100  0.67487700  0.84370700  1
  C  C20  1  0.67968900  0.17520300  0.09318000  1
  C  C21  1  0.17946800  0.17528200  0.59345000  1
  C  C22  1  0.25445100  0.32497500  0.15680400  1
  C  C23  1  0.75423100  0.32499100  0.65655200  1
  Ni  Ni24  1  0.85583800  0.97613600  0.37779400  1
  Ni  Ni25  1  0.35574700  0.97576000  0.87803900  1
  Ni  Ni26  1  0.12992100  0.52407300  0.37203100  1
  Ni  Ni27  1  0.62961900  0.52372500  0.87225700  1
  Ni  Ni28  1  0.64430600  0.02410000  0.12183600  1
  Ni  Ni29  1  0.14417400  0.02420600  0.62204700  1
  Ni  Ni30  1  0.37016800  0.47599600  0.12808700  1
  Ni  Ni31  1  0.87004300  0.47600100  0.62791700  1
  Cu  Cu32  1  0.82472500  0.30855200  0.26150800  1
  Cu  Cu33  1  0.32425900  0.30807300  0.76196800  1
  Cu  Cu34  1  0.76663200  0.19175700  0.48825700  1
  Cu  Cu35  1  0.26623900  0.19123900  0.98852900  1
  Cu  Cu36  1  0.67618200  0.69218900  0.23805100  1
  Cu  Cu37  1  0.17558300  0.69166700  0.73821800  1
  Cu  Cu38  1  0.73358700  0.80796400  0.01175400  1
  Cu  Cu39  1  0.23380900  0.80864900  0.51164300  1
  Cu  Cu40  1  0.77565200  0.59904600  0.45919700  1
  Cu  Cu41  1  0.27516300  0.59855200  0.95944100  1
  Cu  Cu42  1  0.42648900  0.90085500  0.29035400  1
  Cu  Cu43  1  0.92628900  0.90048500  0.79058900  1
  Cu  Cu44  1  0.72431500  0.40116600  0.04080400  1
  Cu  Cu45  1  0.22453500  0.40135200  0.54071800  1
  Cu  Cu46  1  0.07338100  0.09918900  0.20937600  1
  Cu  Cu47  1  0.57334000  0.09921400  0.70955600  1
