# generated using pymatgen
data_Cu24Ni6C17
_symmetry_space_group_name_H-M   'P 1'
_cell_length_a   10.39368900
_cell_length_b   10.71132305
_cell_length_c   11.29538097
_cell_angle_alpha   110.09137209
_cell_angle_beta   109.58999444
_cell_angle_gamma   84.75899416
_symmetry_Int_Tables_number   1
_chemical_formula_structural   Cu24Ni6C17
_chemical_formula_sum   'Cu48 Ni12 C34'
_cell_volume   1112.22746781
_cell_formula_units_Z   2
loop_
 _symmetry_equiv_pos_site_id
 _symmetry_equiv_pos_as_xyz
  1  'x, y, z'
loop_
 _atom_site_type_symbol
 _atom_site_label
 _atom_site_symmetry_multiplicity
 _atom_site_fract_x
 _atom_site_fract_y
 _atom_site_fract_z
 _atom_site_occupancy
  C  C0  1  0.17456500  0.35497900  0.92929000  1
  C  C1  1  0.33245300  0.48176400  0.24897200  1
  C  C2  1  0.10892700  0.42839900  0.42582600  1
  C  C3  1  0.16972900  0.51680500  0.75049400  1
  C  C4  1  0.67893900  0.35115200  0.92215900  1
  C  C5  1  0.32106100  0.64884800  0.07784100  1
  C  C6  1  0.83027100  0.48319500  0.24950600  1
  C  C7  1  0.61016000  0.42905900  0.42908600  1
  C  C8  1  0.01191700  0.69376300  0.94432000  1
  C  C9  1  0.66754700  0.51823600  0.75102800  1
  C  C10  1  0.89107300  0.57160100  0.57417400  1
  C  C11  1  0.82543500  0.64502100  0.07071000  1
  C  C12  1  0.94609800  0.76488500  0.42982000  1
  C  C13  1  0.21643100  0.89866900  0.55725500  1
  C  C14  1  0.66359300  0.81654800  0.25139700  1
  C  C15  1  0.38984000  0.57094100  0.57091400  1
  C  C16  1  0.50721100  0.68926600  0.92938500  1
  C  C17  1  0.15875000  0.97317500  0.07697000  1
  C  C18  1  0.00262200  0.84840600  0.75061300  1
  C  C19  1  0.43764200  0.76581400  0.42308100  1
  C  C20  1  0.27463900  0.08961800  0.42227000  1
  C  C21  1  0.72536100  0.91038200  0.57773000  1
  C  C22  1  0.99737800  0.15159400  0.24938700  1
  C  C23  1  0.65991300  0.97867600  0.07430500  1
  C  C24  1  0.50248700  0.85442800  0.74953200  1
  C  C25  1  0.84125000  0.02682500  0.92303000  1
  C  C26  1  0.78356900  0.10133100  0.44274500  1
  C  C27  1  0.34008700  0.02132400  0.92569500  1
  C  C28  1  0.49751300  0.14557200  0.25046800  1
  C  C29  1  0.05390200  0.23511500  0.57018000  1
  C  C30  1  0.98808300  0.30623700  0.05568000  1
  C  C31  1  0.56235800  0.23418600  0.57691900  1
  C  C32  1  0.49278900  0.31073400  0.07061500  1
  C  C33  1  0.33640700  0.18345200  0.74860300  1
  Ni  Ni34  1  0.97507300  0.34114900  0.24991600  1
  Ni  Ni35  1  0.32051200  0.66503800  0.25003000  1
  Ni  Ni36  1  0.47633100  0.33928100  0.25037700  1
  Ni  Ni37  1  0.02492700  0.65885100  0.75008400  1
  Ni  Ni38  1  0.80573400  0.67194600  0.25001200  1
  Ni  Ni39  1  0.52366900  0.66071900  0.74962300  1
  Ni  Ni40  1  0.14282700  0.02132700  0.24949000  1
  Ni  Ni41  1  0.85717300  0.97867300  0.75051000  1
  Ni  Ni42  1  0.63989400  0.00625000  0.25078400  1
  Ni  Ni43  1  0.19426600  0.32805400  0.74998800  1
  Ni  Ni44  1  0.36010600  0.99375000  0.74921600  1
  Ni  Ni45  1  0.67948800  0.33496200  0.74997000  1
  Cu  Cu46  1  0.16488900  0.39062900  0.12263800  1
  Cu  Cu47  1  0.25090700  0.47679300  0.38256700  1
  Cu  Cu48  1  0.24991700  0.52373700  0.61875900  1
  Cu  Cu49  1  0.13666800  0.54244700  0.93684600  1
  Cu  Cu50  1  0.01243300  0.41885600  0.56516300  1
  Cu  Cu51  1  0.66181300  0.39131900  0.12124200  1
  Cu  Cu52  1  0.86333200  0.45755300  0.06315400  1
  Cu  Cu53  1  0.98756700  0.58114400  0.43483700  1
  Cu  Cu54  1  0.75008300  0.47626300  0.38124100  1
  Cu  Cu55  1  0.36628500  0.45776600  0.06521300  1
  Cu  Cu56  1  0.33521900  0.92395000  0.44847100  1
  Cu  Cu57  1  0.63371500  0.54223400  0.93478700  1
  Cu  Cu58  1  0.20282500  0.79078600  0.05107300  1
  Cu  Cu59  1  0.48784600  0.58142500  0.43645300  1
  Cu  Cu60  1  0.08318300  0.81118200  0.39050300  1
  Cu  Cu61  1  0.51215400  0.41857500  0.56354700  1
  Cu  Cu62  1  0.98927000  0.71766400  0.10964100  1
  Cu  Cu63  1  0.83511100  0.60937100  0.87736200  1
  Cu  Cu64  1  0.74909300  0.52320700  0.61743300  1
  Cu  Cu65  1  0.49560900  0.72248300  0.11729800  1
  Cu  Cu66  1  0.33050200  0.05455100  0.11828500  1
  Cu  Cu67  1  0.84555000  0.74958500  0.56578800  1
  Cu  Cu68  1  0.33818700  0.60868100  0.87875800  1
  Cu  Cu69  1  0.58323200  0.80748200  0.37934700  1
  Cu  Cu70  1  0.97178600  0.87505600  0.93842300  1
  Cu  Cu71  1  0.69765300  0.79292400  0.06501100  1
  Cu  Cu72  1  0.82157300  0.91626700  0.43736800  1
  Cu  Cu73  1  0.17025600  0.94637900  0.88037900  1
  Cu  Cu74  1  0.08347600  0.85722600  0.62213800  1
  Cu  Cu75  1  0.66949800  0.94544900  0.88171500  1
  Cu  Cu76  1  0.15445000  0.25041500  0.43421200  1
  Cu  Cu77  1  0.82974400  0.05362100  0.11962100  1
  Cu  Cu78  1  0.02821400  0.12494400  0.06157700  1
  Cu  Cu79  1  0.17842700  0.08373300  0.56263200  1
  Cu  Cu80  1  0.58396800  0.85598300  0.61973000  1
  Cu  Cu81  1  0.34452100  0.75032100  0.56288500  1
  Cu  Cu82  1  0.30234700  0.20707600  0.93498900  1
  Cu  Cu83  1  0.46786000  0.87412800  0.93480500  1
  Cu  Cu84  1  0.91652400  0.14277400  0.37786200  1
  Cu  Cu85  1  0.66478100  0.07605000  0.55152900  1
  Cu  Cu86  1  0.91681700  0.18881800  0.60949700  1
  Cu  Cu87  1  0.01073000  0.28233600  0.89035900  1
  Cu  Cu88  1  0.79717500  0.20921400  0.94892700  1
  Cu  Cu89  1  0.65547900  0.24967900  0.43711500  1
  Cu  Cu90  1  0.53214000  0.12587200  0.06519500  1
  Cu  Cu91  1  0.41603200  0.14401700  0.38027000  1
  Cu  Cu92  1  0.41676800  0.19251800  0.62065300  1
  Cu  Cu93  1  0.50439100  0.27751700  0.88270200  1
