# generated using pymatgen
data_Cu10Ni4C3
_symmetry_space_group_name_H-M   'P 1'
_cell_length_a   7.38496153
_cell_length_b   7.38496153
_cell_length_c   10.30623700
_cell_angle_alpha   90.00000000
_cell_angle_beta   90.00000000
_cell_angle_gamma   111.68639342
_symmetry_Int_Tables_number   1
_chemical_formula_structural   Cu10Ni4C3
_chemical_formula_sum   'Cu20 Ni8 C6'
_cell_volume   522.29433226
_cell_formula_units_Z   2
loop_
 _symmetry_equiv_pos_site_id
 _symmetry_equiv_pos_as_xyz
  1  'x, y, z'
loop_
 _atom_site_type_symbol
 _atom_site_label
 _atom_site_symmetry_multiplicity
 _atom_site_fract_x
 _atom_site_fract_y
 _atom_site_fract_z
 _atom_site_occupancy
  C  C0  1  0.36227300  0.15507100  0.20995300  1
  C  C1  1  0.84492900  0.63772700  0.20995300  1
  C  C2  1  0.63772700  0.84492900  0.70995300  1
  C  C3  1  0.15507100  0.36227300  0.70995300  1
  C  C4  1  0.17233600  0.82766400  0.49021000  1
  C  C5  1  0.82766400  0.17233600  0.99021000  1
  Ni  Ni6  1  0.34357200  0.65642800  0.29816100  1
  Ni  Ni7  1  0.65642800  0.34357200  0.79816100  1
  Ni  Ni8  1  0.40337800  0.59662200  0.42912400  1
  Ni  Ni9  1  0.59662200  0.40337800  0.92912400  1
  Ni  Ni10  1  0.85281700  0.14718300  0.27801800  1
  Ni  Ni11  1  0.14718300  0.85281700  0.77801800  1
  Ni  Ni12  1  0.92863700  0.07136300  0.40686800  1
  Ni  Ni13  1  0.07136300  0.92863700  0.90686800  1
  Cu  Cu14  1  0.23716200  0.76283800  0.30606200  1
  Cu  Cu15  1  0.76283800  0.23716200  0.80606200  1
  Cu  Cu16  1  0.39662100  0.60337900  0.19652500  1
  Cu  Cu17  1  0.60337900  0.39662100  0.69652500  1
  Cu  Cu18  1  0.34053600  0.65946400  0.53168400  1
  Cu  Cu19  1  0.65946400  0.34053600  0.03168400  1
  Cu  Cu20  1  0.50440900  0.49559100  0.43181000  1
  Cu  Cu21  1  0.49559100  0.50440900  0.93181000  1
  Cu  Cu22  1  0.75285400  0.24714600  0.29384800  1
  Cu  Cu23  1  0.24714600  0.75285400  0.79384800  1
  Cu  Cu24  1  0.90689700  0.09310300  0.17068400  1
  Cu  Cu25  1  0.09310300  0.90689700  0.67068400  1
  Cu  Cu26  1  0.88432400  0.11567600  0.51367300  1
  Cu  Cu27  1  0.11567600  0.88432400  0.01367300  1
  Cu  Cu28  1  0.03239500  0.96760500  0.37922300  1
  Cu  Cu29  1  0.96760500  0.03239500  0.87922300  1
  Cu  Cu30  1  0.38346500  0.02290200  0.50225100  1
  Cu  Cu31  1  0.97709800  0.61653500  0.50225100  1
  Cu  Cu32  1  0.61653500  0.97709800  0.00225100  1
  Cu  Cu33  1  0.02290200  0.38346500  0.00225100  1
