# generated using pymatgen
data_CuNiC7
_symmetry_space_group_name_H-M   'P 1'
_cell_length_a   8.61206795
_cell_length_b   8.61206795
_cell_length_c   9.00444601
_cell_angle_alpha   61.22997030
_cell_angle_beta   61.22997030
_cell_angle_gamma   62.45595017
_symmetry_Int_Tables_number   1
_chemical_formula_structural   CuNiC7
_chemical_formula_sum   'Cu4 Ni4 C28'
_cell_volume   489.44337906
_cell_formula_units_Z   4
loop_
 _symmetry_equiv_pos_site_id
 _symmetry_equiv_pos_as_xyz
  1  'x, y, z'
loop_
 _atom_site_type_symbol
 _atom_site_label
 _atom_site_symmetry_multiplicity
 _atom_site_fract_x
 _atom_site_fract_y
 _atom_site_fract_z
 _atom_site_occupancy
  C  C0  1  0.77217000  0.43582300  0.68444100  1
  C  C1  1  0.56417700  0.22783000  0.81555900  1
  C  C2  1  0.22783000  0.56417700  0.31555900  1
  C  C3  1  0.43582300  0.77217000  0.18444100  1
  C  C4  1  0.14030700  0.76981500  0.64449200  1
  C  C5  1  0.23018500  0.85969300  0.85550800  1
  C  C6  1  0.85969300  0.23018500  0.35550800  1
  C  C7  1  0.76981500  0.14030700  0.14449200  1
  C  C8  1  0.12706900  0.53979500  0.79443000  1
  C  C9  1  0.46020500  0.87293100  0.70557000  1
  C  C10  1  0.87293100  0.46020500  0.20557000  1
  C  C11  1  0.53979500  0.12706900  0.29443000  1
  C  C12  1  0.01116600  0.72825900  0.88317100  1
  C  C13  1  0.27174100  0.98883400  0.61682900  1
  C  C14  1  0.98883400  0.27174100  0.11682900  1
  C  C15  1  0.72825900  0.01116600  0.38317100  1
  Ni  Ni16  1  0.05437300  0.68863600  0.76674100  1
  Ni  Ni17  1  0.31136400  0.94562700  0.73325900  1
  Ni  Ni18  1  0.94562700  0.31136400  0.23325900  1
  Ni  Ni19  1  0.68863600  0.05437300  0.26674100  1
  Cu  Cu20  1  0.84855700  0.73806700  0.73092100  1
  Cu  Cu21  1  0.26193300  0.15144300  0.76907900  1
  Cu  Cu22  1  0.15144300  0.26193300  0.26907900  1
  Cu  Cu23  1  0.73806700  0.84855700  0.23092100  1
  C  C24  1  0.77604400  0.93971400  0.65524300  1
  C  C25  1  0.06028600  0.22395600  0.84475700  1
  C  C26  1  0.22395600  0.06028600  0.34475700  1
  C  C27  1  0.93971400  0.77604400  0.15524300  1
  C  C28  1  0.72195100  0.64788000  0.89937300  1
  C  C29  1  0.35212000  0.27804900  0.60062700  1
  C  C30  1  0.27804900  0.35212000  0.10062700  1
  C  C31  1  0.64788000  0.72195100  0.39937300  1
  C  C32  1  0.91120800  0.64802200  0.59243300  1
  C  C33  1  0.35197800  0.08879200  0.90756700  1
  C  C34  1  0.08879200  0.35197800  0.40756700  1
  C  C35  1  0.64802200  0.91120800  0.09243300  1
