# generated using pymatgen
data_Cu17(NiC4)3
_symmetry_space_group_name_H-M   'P 1'
_cell_length_a   10.90979600
_cell_length_b   5.53787100
_cell_length_c   21.06960850
_cell_angle_alpha   81.37066477
_cell_angle_beta   90.00000000
_cell_angle_gamma   90.00000000
_symmetry_Int_Tables_number   1
_chemical_formula_structural   Cu17(NiC4)3
_chemical_formula_sum   'Cu68 Ni12 C48'
_cell_volume   1258.55309953
_cell_formula_units_Z   4
loop_
 _symmetry_equiv_pos_site_id
 _symmetry_equiv_pos_as_xyz
  1  'x, y, z'
loop_
 _atom_site_type_symbol
 _atom_site_label
 _atom_site_symmetry_multiplicity
 _atom_site_fract_x
 _atom_site_fract_y
 _atom_site_fract_z
 _atom_site_occupancy
  C  C0  1  0.00000000  0.50000000  0.50000000  1
  C  C1  1  0.50000000  0.50000000  0.50000000  1
  C  C2  1  0.23912900  0.10126200  0.81277400  1
  C  C3  1  0.73912900  0.89873800  0.68722600  1
  C  C4  1  0.26087100  0.10126200  0.31277400  1
  C  C5  1  0.00000000  0.50000000  0.00000000  1
  C  C6  1  0.50000000  0.50000000  0.00000000  1
  C  C7  1  0.76087100  0.89873800  0.18722600  1
  C  C8  1  0.67448200  0.63740900  0.29210300  1
  C  C9  1  0.82469900  0.60360600  0.28844600  1
  C  C10  1  0.87297600  0.13692700  0.76238300  1
  C  C11  1  0.92116400  0.20174300  0.68989400  1
  C  C12  1  0.56132100  0.18997900  0.70284400  1
  C  C13  1  0.43581400  0.18422400  0.59489300  1
  C  C14  1  0.09170300  0.17472900  0.58442800  1
  C  C15  1  0.32469900  0.39639400  0.21155400  1
  C  C16  1  0.60757300  0.07169900  0.77409400  1
  C  C17  1  0.17448200  0.36259100  0.20789700  1
  C  C18  1  0.16462300  0.17905200  0.51903800  1
  C  C19  1  0.38658700  0.10244100  0.52852800  1
  C  C20  1  0.88658700  0.89755900  0.97147200  1
  C  C21  1  0.66462300  0.82094800  0.98096200  1
  C  C22  1  0.10757300  0.92830100  0.72590600  1
  C  C23  1  0.59170300  0.82527100  0.91557200  1
  C  C24  1  0.93581400  0.81577600  0.90510700  1
  C  C25  1  0.62702400  0.13692700  0.26238300  1
  C  C26  1  0.57883600  0.20174300  0.18989400  1
  C  C27  1  0.93867900  0.18997900  0.20284400  1
  C  C28  1  0.06132100  0.81002100  0.79715600  1
  C  C29  1  0.42116400  0.79825700  0.81010600  1
  C  C30  1  0.37297600  0.86307300  0.73761700  1
  C  C31  1  0.06418600  0.18422400  0.09489300  1
  C  C32  1  0.40829700  0.17472900  0.08442800  1
  C  C33  1  0.89242700  0.07169900  0.27409400  1
  C  C34  1  0.33537700  0.17905200  0.01903800  1
  C  C35  1  0.11341300  0.10244100  0.02852800  1
  C  C36  1  0.61341300  0.89755900  0.47147200  1
  C  C37  1  0.83537700  0.82094800  0.48096200  1
  C  C38  1  0.82551800  0.63740900  0.79210300  1
  C  C39  1  0.39242700  0.92830100  0.22590600  1
  C  C40  1  0.67530100  0.60360600  0.78844600  1
  C  C41  1  0.90829700  0.82527100  0.41557200  1
  C  C42  1  0.56418600  0.81577600  0.40510700  1
  C  C43  1  0.43867900  0.81002100  0.29715600  1
  C  C44  1  0.07883600  0.79825700  0.31010600  1
  C  C45  1  0.12702400  0.86307300  0.23761700  1
  C  C46  1  0.17530100  0.39639400  0.71155400  1
  C  C47  1  0.32551800  0.36259100  0.70789700  1
  Ni  Ni48  1  0.50524900  0.70781300  0.13370200  1
  Ni  Ni49  1  0.00727300  0.65056400  0.14055800  1
  Ni  Ni50  1  0.50727300  0.34943600  0.35944200  1
  Ni  Ni51  1  0.74695200  0.22067700  0.54675400  1
  Ni  Ni52  1  0.00524900  0.29218700  0.36629800  1
  Ni  Ni53  1  0.24695200  0.77932300  0.95324600  1
  Ni  Ni54  1  0.75304800  0.22067700  0.04675400  1
  Ni  Ni55  1  0.99475100  0.70781300  0.63370200  1
  Ni  Ni56  1  0.25304800  0.77932300  0.45324600  1
  Ni  Ni57  1  0.49272700  0.65056400  0.64055800  1
  Ni  Ni58  1  0.99272700  0.34943600  0.85944200  1
  Ni  Ni59  1  0.49475100  0.29218700  0.86629800  1
  Cu  Cu60  1  0.08901000  0.83307700  0.16176400  1
  Cu  Cu61  1  0.75045400  0.67708700  0.26575900  1
  Cu  Cu62  1  0.63915100  0.74013100  0.14557300  1
  Cu  Cu63  1  0.54564100  0.60405900  0.33218800  1
  Cu  Cu64  1  0.87757400  0.68095600  0.15947500  1
  Cu  Cu65  1  0.49105000  0.70679000  0.06315800  1
  Cu  Cu66  1  0.66803500  0.43168300  0.52159900  1
  Cu  Cu67  1  0.01370900  0.67656300  0.06909700  1
  Cu  Cu68  1  0.96420200  0.52532400  0.32897100  1
  Cu  Cu69  1  0.87540100  0.30990300  0.54809100  1
  Cu  Cu70  1  0.11791000  0.28407200  0.54501000  1
  Cu  Cu71  1  0.46420200  0.47467600  0.17102900  1
  Cu  Cu72  1  0.51370900  0.32343700  0.43090300  1
  Cu  Cu73  1  0.56662300  0.08193900  0.85058800  1
  Cu  Cu74  1  0.99105000  0.29321000  0.43684200  1
  Cu  Cu75  1  0.23611300  0.97698400  0.99237800  1
  Cu  Cu76  1  0.44707400  0.20404300  0.54819500  1
  Cu  Cu77  1  0.86150300  0.10219900  0.71755300  1
  Cu  Cu78  1  0.37757400  0.31904400  0.34052500  1
  Cu  Cu79  1  0.04564100  0.39594100  0.16781200  1
  Cu  Cu80  1  0.70980100  0.13722400  0.61449300  1
  Cu  Cu81  1  0.61613300  0.06549100  0.72716700  1
  Cu  Cu82  1  0.13915100  0.25986900  0.35442700  1
  Cu  Cu83  1  0.25045400  0.32291300  0.23424100  1
  Cu  Cu84  1  0.83196500  0.43168300  0.02159900  1
  Cu  Cu85  1  0.11613300  0.93450900  0.77283300  1
  Cu  Cu86  1  0.20980100  0.86277600  0.88550700  1
  Cu  Cu87  1  0.58901000  0.16692300  0.33823600  1
  Cu  Cu88  1  0.36150300  0.89780100  0.78244700  1
  Cu  Cu89  1  0.94707400  0.79595700  0.95180500  1
  Cu  Cu90  1  0.62459900  0.30990300  0.04809100  1
  Cu  Cu91  1  0.73611300  0.02301600  0.50762200  1
  Cu  Cu92  1  0.38209000  0.28407200  0.04501000  1
  Cu  Cu93  1  0.06662300  0.91806100  0.64941200  1
  Cu  Cu94  1  0.93337700  0.08193900  0.35058800  1
  Cu  Cu95  1  0.61791000  0.71592800  0.95499000  1
  Cu  Cu96  1  0.26388700  0.97698400  0.49237800  1
  Cu  Cu97  1  0.37540100  0.69009700  0.95190900  1
  Cu  Cu98  1  0.05292600  0.20404300  0.04819500  1
  Cu  Cu99  1  0.63849700  0.10219900  0.21755300  1
  Cu  Cu100  1  0.41099000  0.83307700  0.66176400  1
  Cu  Cu101  1  0.79019900  0.13722400  0.11449300  1
  Cu  Cu102  1  0.88386700  0.06549100  0.22716700  1
  Cu  Cu103  1  0.16803500  0.56831700  0.97840100  1
  Cu  Cu104  1  0.74954600  0.67708700  0.76575900  1
  Cu  Cu105  1  0.86084900  0.74013100  0.64557300  1
  Cu  Cu106  1  0.38386700  0.93450900  0.27283300  1
  Cu  Cu107  1  0.29019900  0.86277600  0.38550700  1
  Cu  Cu108  1  0.95435900  0.60405900  0.83218800  1
  Cu  Cu109  1  0.62242600  0.68095600  0.65947500  1
  Cu  Cu110  1  0.13849700  0.89780100  0.28244700  1
  Cu  Cu111  1  0.55292600  0.79595700  0.45180500  1
  Cu  Cu112  1  0.76388700  0.02301600  0.00762200  1
  Cu  Cu113  1  0.00895000  0.70679000  0.56315800  1
  Cu  Cu114  1  0.43337700  0.91806100  0.14941200  1
  Cu  Cu115  1  0.48629100  0.67656300  0.56909700  1
  Cu  Cu116  1  0.53579800  0.52532400  0.82897100  1
  Cu  Cu117  1  0.88209000  0.71592800  0.45499000  1
  Cu  Cu118  1  0.12459900  0.69009700  0.45190900  1
  Cu  Cu119  1  0.03579800  0.47467600  0.67102900  1
  Cu  Cu120  1  0.98629100  0.32343700  0.93090300  1
  Cu  Cu121  1  0.33196500  0.56831700  0.47840100  1
  Cu  Cu122  1  0.50895000  0.29321000  0.93684200  1
  Cu  Cu123  1  0.12242600  0.31904400  0.84052500  1
  Cu  Cu124  1  0.45435900  0.39594100  0.66781200  1
  Cu  Cu125  1  0.36084900  0.25986900  0.85442700  1
  Cu  Cu126  1  0.24954600  0.32291300  0.73424100  1
  Cu  Cu127  1  0.91099000  0.16692300  0.83823600  1
