# generated using pymatgen
data_CuNi7C40
_symmetry_space_group_name_H-M   'P 1'
_cell_length_a   5.24615100
_cell_length_b   5.25229725
_cell_length_c   21.00563884
_cell_angle_alpha   91.15033635
_cell_angle_beta   90.89048147
_cell_angle_gamma   119.81768941
_symmetry_Int_Tables_number   1
_chemical_formula_structural   CuNi7C40
_chemical_formula_sum   'Cu1 Ni7 C40'
_cell_volume   501.85227179
_cell_formula_units_Z   1
loop_
 _symmetry_equiv_pos_site_id
 _symmetry_equiv_pos_as_xyz
  1  'x, y, z'
loop_
 _atom_site_type_symbol
 _atom_site_label
 _atom_site_symmetry_multiplicity
 _atom_site_fract_x
 _atom_site_fract_y
 _atom_site_fract_z
 _atom_site_occupancy
  C  C0  1  0.34909800  0.32110800  0.66617000  1
  C  C1  1  0.32114700  0.34742200  0.91629100  1
  C  C2  1  0.34911700  0.32103300  0.16600900  1
  C  C3  1  0.32120300  0.34917100  0.41599400  1
  C  C4  1  0.66475400  0.65199200  0.79106900  1
  C  C5  1  0.65130300  0.66172400  0.54119600  1
  C  C6  1  0.66166000  0.65136300  0.29110000  1
  C  C7  1  0.65162700  0.66164800  0.04101000  1
  Ni  Ni8  1  0.99612400  0.32896100  0.55859000  1
  Ni  Ni9  1  0.99621200  0.32933500  0.05824300  1
  Ni  Ni10  1  0.99931800  0.67893800  0.93268000  1
  Ni  Ni11  1  0.99711300  0.67662000  0.43348400  1
  Ni  Ni12  1  0.67522300  0.99798800  0.68428500  1
  Ni  Ni13  1  0.67720300  0.99708100  0.18341000  1
  Ni  Ni14  1  0.32881200  0.99623200  0.30843900  1
  Cu  Cu15  1  0.32492100  0.00011000  0.80851800  1
  C  C16  1  0.65907900  0.00351800  0.93637400  1
  C  C17  1  0.65861100  0.00294400  0.43711400  1
  C  C18  1  0.99382300  0.33141000  0.81186700  1
  C  C19  1  0.99532000  0.33438200  0.31207800  1
  C  C20  1  0.00276600  0.65951400  0.68786500  1
  C  C21  1  0.00280600  0.65844600  0.18702300  1
  C  C22  1  0.33450200  0.99516900  0.56222500  1
  C  C23  1  0.33432200  0.99514000  0.06201500  1
  C  C24  1  0.74519800  0.06875100  0.79267700  1
  C  C25  1  0.75286400  0.07002300  0.29099400  1
  C  C26  1  0.93011000  0.25425300  0.95173900  1
  C  C27  1  0.42163500  0.03334200  0.91588300  1
  C  C28  1  0.92991700  0.25341100  0.45217900  1
  C  C29  1  0.42103300  0.03333300  0.41652100  1
  C  C30  1  0.97369400  0.58194300  0.82630500  1
  C  C31  1  0.35898800  0.26888200  0.56951700  1
  C  C32  1  0.96198200  0.57746600  0.32736300  1
  C  C33  1  0.35913300  0.26894500  0.06926800  1
  C  C34  1  0.26637300  0.34867600  0.81823700  1
  C  C35  1  0.26913100  0.35911700  0.31944300  1
  C  C36  1  0.72770700  0.63046400  0.69469200  1
  C  C37  1  0.72785500  0.62907800  0.19428500  1
  C  C38  1  0.62983100  0.72869000  0.94368100  1
  C  C39  1  0.03299300  0.42169400  0.66706500  1
  C  C40  1  0.62899900  0.72823200  0.44435300  1
  C  C41  1  0.03351400  0.42106700  0.16650500  1
  C  C42  1  0.57758900  0.96240900  0.57763900  1
  C  C43  1  0.57771400  0.96230900  0.07735400  1
  C  C44  1  0.07010700  0.75254500  0.54112500  1
  C  C45  1  0.07012400  0.75270100  0.04094300  1
  C  C46  1  0.25290800  0.93021900  0.70327700  1
  C  C47  1  0.25334400  0.93000600  0.20210900  1
