# generated using pymatgen
data_Cu3Ni2C5
_symmetry_space_group_name_H-M   'P 1'
_cell_length_a   3.94299602
_cell_length_b   5.13122073
_cell_length_c   19.69239138
_cell_angle_alpha   87.22975212
_cell_angle_beta   89.99147601
_cell_angle_gamma   67.41475593
_symmetry_Int_Tables_number   1
_chemical_formula_structural   Cu3Ni2C5
_chemical_formula_sum   'Cu12 Ni8 C20'
_cell_volume   367.36538360
_cell_formula_units_Z   4
loop_
 _symmetry_equiv_pos_site_id
 _symmetry_equiv_pos_as_xyz
  1  'x, y, z'
loop_
 _atom_site_type_symbol
 _atom_site_label
 _atom_site_symmetry_multiplicity
 _atom_site_fract_x
 _atom_site_fract_y
 _atom_site_fract_z
 _atom_site_occupancy
  C  C0  1  0.39811700  0.19880100  0.10433100  1
  C  C1  1  0.89831300  0.19856800  0.35434700  1
  C  C2  1  0.39840600  0.19867200  0.60433600  1
  C  C3  1  0.89805100  0.19872600  0.85434300  1
  C  C4  1  0.69727500  0.60051900  0.04350200  1
  C  C5  1  0.19732200  0.60057800  0.29348400  1
  C  C6  1  0.69767500  0.60031100  0.54350200  1
  C  C7  1  0.19718800  0.60061000  0.79350500  1
  C  C8  1  0.80587000  0.38338600  0.19339800  1
  C  C9  1  0.30620000  0.38304200  0.44337400  1
  C  C10  1  0.80584000  0.38339800  0.69340500  1
  C  C11  1  0.30577400  0.38329700  0.94338200  1
  C  C12  1  0.11436300  0.76636500  0.15669400  1
  C  C13  1  0.61454100  0.76617100  0.40667500  1
  C  C14  1  0.11444200  0.76627600  0.65669500  1
  C  C15  1  0.61419100  0.76636300  0.90665600  1
  C  C16  1  0.48297600  0.02864900  0.74865500  1
  C  C17  1  0.98293300  0.02865100  0.99863800  1
  C  C18  1  0.48324000  0.02865600  0.24860400  1
  C  C19  1  0.98335900  0.02836700  0.49862600  1
  Ni  Ni20  1  0.49843500  0.99722500  0.00118100  1
  Ni  Ni21  1  0.99990300  0.99674700  0.25108000  1
  Ni  Ni22  1  0.49919500  0.99675700  0.50100000  1
  Ni  Ni23  1  0.99927400  0.99701900  0.75111100  1
  Ni  Ni24  1  0.30890800  0.37789400  0.20264800  1
  Ni  Ni25  1  0.80883100  0.37737200  0.45254900  1
  Ni  Ni26  1  0.30889300  0.37796200  0.70266500  1
  Ni  Ni27  1  0.80851300  0.37755800  0.95251800  1
  Cu  Cu28  1  0.88922800  0.21775100  0.09956300  1
  Cu  Cu29  1  0.38909100  0.21761600  0.34963200  1
  Cu  Cu30  1  0.88932400  0.21772400  0.59955300  1
  Cu  Cu31  1  0.38870100  0.21785200  0.84961500  1
  Cu  Cu32  1  0.17658000  0.64171800  0.05373900  1
  Cu  Cu33  1  0.67699000  0.64245700  0.30375700  1
  Cu  Cu34  1  0.17660900  0.64177700  0.55377000  1
  Cu  Cu35  1  0.67678800  0.64241500  0.80378600  1
  Cu  Cu36  1  0.60030500  0.79681800  0.15153300  1
  Cu  Cu37  1  0.09808700  0.79751600  0.40140500  1
  Cu  Cu38  1  0.60049600  0.79675100  0.65154100  1
  Cu  Cu39  1  0.09794400  0.79742000  0.90137700  1
