# generated using pymatgen
data_Cu6NiC35
_symmetry_space_group_name_H-M   'P 1'
_cell_length_a   8.85076992
_cell_length_b   8.85076992
_cell_length_c   8.85077108
_cell_angle_alpha   61.67365277
_cell_angle_beta   61.67365277
_cell_angle_gamma   61.67365178
_symmetry_Int_Tables_number   1
_chemical_formula_structural   Cu6NiC35
_chemical_formula_sum   'Cu6 Ni1 C35'
_cell_volume   508.65819606
_cell_formula_units_Z   1
loop_
 _symmetry_equiv_pos_site_id
 _symmetry_equiv_pos_as_xyz
  1  'x, y, z'
loop_
 _atom_site_type_symbol
 _atom_site_label
 _atom_site_symmetry_multiplicity
 _atom_site_fract_x
 _atom_site_fract_y
 _atom_site_fract_z
 _atom_site_occupancy
  C  C0  1  0.64427300  0.23750600  0.79804800  1
  C  C1  1  0.96928400  0.96928400  0.96928400  1
  C  C2  1  0.23750600  0.79804800  0.64427300  1
  C  C3  1  0.79804800  0.64427300  0.23750600  1
  C  C4  1  0.14302400  0.30885400  0.72001400  1
  C  C5  1  0.47512000  0.47512000  0.47512000  1
  C  C6  1  0.72001400  0.14302400  0.30885400  1
  C  C7  1  0.30885400  0.72001400  0.14302400  1
  C  C8  1  0.84507100  0.84507100  0.84507100  1
  C  C9  1  0.34595900  0.34595900  0.34595900  1
  C  C10  1  0.64641500  0.64641500  0.64641500  1
  Ni  Ni11  1  0.14499200  0.14499200  0.14499200  1
  Cu  Cu12  1  0.54905400  0.94998300  0.25038600  1
  Cu  Cu13  1  0.25038600  0.54905400  0.94998300  1
  Cu  Cu14  1  0.94998300  0.25038600  0.54905400  1
  Cu  Cu15  1  0.05145100  0.75021800  0.45295400  1
  Cu  Cu16  1  0.75021800  0.45295400  0.05145100  1
  Cu  Cu17  1  0.45295400  0.05145100  0.75021800  1
  C  C18  1  0.73174700  0.92176900  0.09308000  1
  C  C19  1  0.52620700  0.10422000  0.30156300  1
  C  C20  1  0.55902500  0.76586900  0.40656300  1
  C  C21  1  0.30156300  0.52620700  0.10422000  1
  C  C22  1  0.40656300  0.55902500  0.76586900  1
  C  C23  1  0.10422000  0.30156300  0.52620700  1
  C  C24  1  0.38555700  0.99474400  0.19471800  1
  C  C25  1  0.09308000  0.73174700  0.92176900  1
  C  C26  1  0.19471800  0.38555700  0.99474400  1
  C  C27  1  0.92176900  0.09308000  0.73174700  1
  C  C28  1  0.99474400  0.19471800  0.38555700  1
  C  C29  1  0.76586900  0.40656300  0.55902500  1
  C  C30  1  0.23612000  0.59662800  0.41979400  1
  C  C31  1  0.03403400  0.80709000  0.60131800  1
  C  C32  1  0.07277000  0.90881800  0.25913700  1
  C  C33  1  0.80709000  0.60131800  0.03403400  1
  C  C34  1  0.90881800  0.25913700  0.07277000  1
  C  C35  1  0.60131800  0.03403400  0.80709000  1
  C  C36  1  0.88795500  0.70519400  0.49139700  1
  C  C37  1  0.59662800  0.41979400  0.23612000  1
  C  C38  1  0.70519400  0.49139700  0.88795500  1
  C  C39  1  0.41979400  0.23612000  0.59662800  1
  C  C40  1  0.49139700  0.88795500  0.70519400  1
  C  C41  1  0.25913700  0.07277000  0.90881800  1
