# generated using pymatgen
data_CuNiC12
_symmetry_space_group_name_H-M   'P 1'
_cell_length_a   4.77755404
_cell_length_b   10.50909881
_cell_length_c   6.13224800
_cell_angle_alpha   90.00295562
_cell_angle_beta   89.99731353
_cell_angle_gamma   89.83090463
_symmetry_Int_Tables_number   1
_chemical_formula_structural   CuNiC12
_chemical_formula_sum   'Cu2 Ni2 C24'
_cell_volume   307.88526291
_cell_formula_units_Z   2
loop_
 _symmetry_equiv_pos_site_id
 _symmetry_equiv_pos_as_xyz
  1  'x, y, z'
loop_
 _atom_site_type_symbol
 _atom_site_label
 _atom_site_symmetry_multiplicity
 _atom_site_fract_x
 _atom_site_fract_y
 _atom_site_fract_z
 _atom_site_occupancy
  C  C0  1  0.00001100  0.00000100  0.99999600  1
  C  C1  1  0.00001000  0.00000000  0.50000300  1
  C  C2  1  0.50001400  0.49999400  0.50001000  1
  C  C3  1  0.50001000  0.49999500  0.99999000  1
  Ni  Ni4  1  0.47563100  0.21907300  0.75000000  1
  Ni  Ni5  1  0.52430500  0.78093100  0.25001100  1
  Cu  Cu6  1  0.02847600  0.71832500  0.74999000  1
  Cu  Cu7  1  0.97159500  0.28170100  0.25000100  1
  C  C8  1  0.08374300  0.59163100  0.25001000  1
  C  C9  1  0.91623700  0.40837300  0.74999500  1
  C  C10  1  0.40873200  0.09442300  0.25000200  1
  C  C11  1  0.59128900  0.90557200  0.74999200  1
  C  C12  1  0.20890600  0.45488300  0.25001100  1
  C  C13  1  0.79107100  0.54511900  0.74999300  1
  C  C14  1  0.23787700  0.40528700  0.75000000  1
  C  C15  1  0.76211000  0.59471500  0.25000600  1
  C  C16  1  0.26941900  0.90149500  0.75000700  1
  C  C17  1  0.73059700  0.09851800  0.24999200  1
  C  C18  1  0.28969500  0.95660200  0.24999000  1
  C  C19  1  0.71033500  0.04339200  0.75001600  1
  C  C20  1  0.21482900  0.66218600  0.04778600  1
  C  C21  1  0.21479400  0.66217500  0.45226700  1
  C  C22  1  0.78518800  0.33782700  0.54773900  1
  C  C23  1  0.78516400  0.33782300  0.95223200  1
  C  C24  1  0.27290600  0.16343200  0.04851700  1
  C  C25  1  0.27292600  0.16342700  0.45151600  1
  C  C26  1  0.72704800  0.83656200  0.54846700  1
  C  C27  1  0.72708500  0.83653600  0.95146100  1
