# generated using pymatgen
data_Cu6Ni2C
_symmetry_space_group_name_H-M   'P 1'
_cell_length_a   5.20093700
_cell_length_b   6.89597500
_cell_length_c   14.69710700
_cell_angle_alpha   90.00000000
_cell_angle_beta   90.00000000
_cell_angle_gamma   90.00000000
_symmetry_Int_Tables_number   1
_chemical_formula_structural   Cu6Ni2C
_chemical_formula_sum   'Cu24 Ni8 C4'
_cell_volume   527.11955449
_cell_formula_units_Z   4
loop_
 _symmetry_equiv_pos_site_id
 _symmetry_equiv_pos_as_xyz
  1  'x, y, z'
loop_
 _atom_site_type_symbol
 _atom_site_label
 _atom_site_symmetry_multiplicity
 _atom_site_fract_x
 _atom_site_fract_y
 _atom_site_fract_z
 _atom_site_occupancy
  C  C0  1  0.25000000  0.37233800  0.00000000  1
  C  C1  1  0.75000000  0.62766200  0.00000000  1
  C  C2  1  0.75000000  0.12766200  0.50000000  1
  C  C3  1  0.25000000  0.87233800  0.50000000  1
  Ni  Ni4  1  0.76725100  0.21817100  0.14756300  1
  Ni  Ni5  1  0.26725100  0.78182900  0.14756300  1
  Ni  Ni6  1  0.26725100  0.28182900  0.35243700  1
  Ni  Ni7  1  0.76725100  0.71817100  0.35243700  1
  Ni  Ni8  1  0.23274900  0.28182900  0.64756300  1
  Ni  Ni9  1  0.73274900  0.71817100  0.64756300  1
  Ni  Ni10  1  0.73274900  0.21817100  0.85243700  1
  Ni  Ni11  1  0.23274900  0.78182900  0.85243700  1
  Cu  Cu12  1  0.08932700  0.59916700  0.07726100  1
  Cu  Cu13  1  0.58932700  0.40083300  0.07726100  1
  Cu  Cu14  1  0.05852100  0.17224100  0.07879000  1
  Cu  Cu15  1  0.55852100  0.82775900  0.07879000  1
  Cu  Cu16  1  0.39115100  0.12726800  0.26294500  1
  Cu  Cu17  1  0.89115100  0.87273200  0.26294500  1
  Cu  Cu18  1  0.39115100  0.62726800  0.23705500  1
  Cu  Cu19  1  0.89115100  0.37273200  0.23705500  1
  Cu  Cu20  1  0.55852100  0.32775900  0.42121000  1
  Cu  Cu21  1  0.05852100  0.67224100  0.42121000  1
  Cu  Cu22  1  0.08932700  0.09916700  0.42273900  1
  Cu  Cu23  1  0.58932700  0.90083300  0.42273900  1
  Cu  Cu24  1  0.41067300  0.09916700  0.57726100  1
  Cu  Cu25  1  0.91067300  0.90083300  0.57726100  1
  Cu  Cu26  1  0.94147900  0.32775900  0.57879000  1
  Cu  Cu27  1  0.44147900  0.67224100  0.57879000  1
  Cu  Cu28  1  0.60884900  0.37273200  0.76294500  1
  Cu  Cu29  1  0.10884900  0.62726800  0.76294500  1
  Cu  Cu30  1  0.10884900  0.12726800  0.73705500  1
  Cu  Cu31  1  0.60884900  0.87273200  0.73705500  1
  Cu  Cu32  1  0.44147900  0.17224100  0.92121000  1
  Cu  Cu33  1  0.94147900  0.82775900  0.92121000  1
  Cu  Cu34  1  0.91067300  0.40083300  0.92273900  1
  Cu  Cu35  1  0.41067300  0.59916700  0.92273900  1
