# generated using pymatgen
data_CuNiC5
_symmetry_space_group_name_H-M   'P 1'
_cell_length_a   5.69256000
_cell_length_b   5.69256000
_cell_length_c   8.02678700
_cell_angle_alpha   90.00000000
_cell_angle_beta   90.00000000
_cell_angle_gamma   90.00000000
_symmetry_Int_Tables_number   1
_chemical_formula_structural   CuNiC5
_chemical_formula_sum   'Cu4 Ni4 C20'
_cell_volume   260.10995398
_cell_formula_units_Z   4
loop_
 _symmetry_equiv_pos_site_id
 _symmetry_equiv_pos_as_xyz
  1  'x, y, z'
loop_
 _atom_site_type_symbol
 _atom_site_label
 _atom_site_symmetry_multiplicity
 _atom_site_fract_x
 _atom_site_fract_y
 _atom_site_fract_z
 _atom_site_occupancy
  C  C0  1  0.00000000  0.22639500  0.00000000  1
  C  C1  1  0.00000000  0.77360500  0.50000000  1
  C  C2  1  0.22639500  0.00000000  0.25000000  1
  C  C3  1  0.77360500  0.00000000  0.75000000  1
  Ni  Ni4  1  0.22866600  0.50000000  0.25000000  1
  Ni  Ni5  1  0.50000000  0.22866600  0.00000000  1
  Ni  Ni6  1  0.50000000  0.77133400  0.50000000  1
  Ni  Ni7  1  0.77133400  0.50000000  0.75000000  1
  Cu  Cu8  1  0.25674800  0.25674800  0.62500000  1
  Cu  Cu9  1  0.25674800  0.74325200  0.87500000  1
  Cu  Cu10  1  0.74325200  0.25674800  0.37500000  1
  Cu  Cu11  1  0.74325200  0.74325200  0.12500000  1
  C  C12  1  0.98526300  0.26010800  0.26153000  1
  C  C13  1  0.98526300  0.73989200  0.23847000  1
  C  C14  1  0.26010800  0.98526300  0.98847000  1
  C  C15  1  0.26010800  0.01473700  0.51153000  1
  C  C16  1  0.25998900  0.50475500  0.99963300  1
  C  C17  1  0.25998900  0.49524500  0.50036700  1
  C  C18  1  0.50475500  0.25998900  0.25036700  1
  C  C19  1  0.50475500  0.74001100  0.24963300  1
  C  C20  1  0.49524500  0.25998900  0.74963300  1
  C  C21  1  0.49524500  0.74001100  0.75036700  1
  C  C22  1  0.74001100  0.49524500  0.49963300  1
  C  C23  1  0.74001100  0.50475500  0.00036700  1
  C  C24  1  0.73989200  0.01473700  0.48847000  1
  C  C25  1  0.73989200  0.98526300  0.01153000  1
  C  C26  1  0.01473700  0.26010800  0.73847000  1
  C  C27  1  0.01473700  0.73989200  0.76153000  1
