# generated using pymatgen
data_CuNi3C10
_symmetry_space_group_name_H-M   'P 1'
_cell_length_a   5.79326195
_cell_length_b   5.79326195
_cell_length_c   9.51964000
_cell_angle_alpha   90.00000000
_cell_angle_beta   90.00000000
_cell_angle_gamma   119.99999938
_symmetry_Int_Tables_number   1
_chemical_formula_structural   CuNi3C10
_chemical_formula_sum   'Cu2 Ni6 C20'
_cell_volume   276.69256617
_cell_formula_units_Z   2
loop_
 _symmetry_equiv_pos_site_id
 _symmetry_equiv_pos_as_xyz
  1  'x, y, z'
loop_
 _atom_site_type_symbol
 _atom_site_label
 _atom_site_symmetry_multiplicity
 _atom_site_fract_x
 _atom_site_fract_y
 _atom_site_fract_z
 _atom_site_occupancy
  C  C0  1  0.33333300  0.66666700  0.88968600  1
  C  C1  1  0.00000000  0.00000000  0.99676600  1
  C  C2  1  0.00000000  0.00000000  0.49676600  1
  C  C3  1  0.66666700  0.33333300  0.38968600  1
  Ni  Ni4  1  0.16981000  0.33962000  0.21492900  1
  Ni  Ni5  1  0.66038000  0.83019000  0.21492900  1
  Ni  Ni6  1  0.16981000  0.83019000  0.21492900  1
  Ni  Ni7  1  0.83019000  0.16981000  0.71492900  1
  Ni  Ni8  1  0.33962000  0.16981000  0.71492900  1
  Ni  Ni9  1  0.83019000  0.66038000  0.71492900  1
  Cu  Cu10  1  0.33333300  0.66666700  0.49323700  1
  Cu  Cu11  1  0.66666700  0.33333300  0.99323700  1
  C  C12  1  0.15758200  0.31516300  0.60597600  1
  C  C13  1  0.48394100  0.51605900  0.33011000  1
  C  C14  1  0.33333300  0.66666700  0.11330500  1
  C  C15  1  0.00000000  0.00000000  0.30715800  1
  C  C16  1  0.00000000  0.00000000  0.80715800  1
  C  C17  1  0.68483700  0.84241800  0.60597600  1
  C  C18  1  0.03211900  0.51605900  0.33011000  1
  C  C19  1  0.48394100  0.96788100  0.33011000  1
  C  C20  1  0.84241800  0.15758200  0.10597600  1
  C  C21  1  0.15758200  0.84241800  0.60597600  1
  C  C22  1  0.51605900  0.03211900  0.83011000  1
  C  C23  1  0.96788100  0.48394100  0.83011000  1
  C  C24  1  0.66666700  0.33333300  0.61330500  1
  C  C25  1  0.31516300  0.15758200  0.10597600  1
  C  C26  1  0.51605900  0.48394100  0.83011000  1
  C  C27  1  0.84241800  0.68483700  0.10597600  1
