# generated using pymatgen
data_Cu(NiC)2
_symmetry_space_group_name_H-M   'P 1'
_cell_length_a   8.70616700
_cell_length_b   8.73081082
_cell_length_c   8.74603667
_cell_angle_alpha   109.51806932
_cell_angle_beta   109.41060986
_cell_angle_gamma   109.32844377
_symmetry_Int_Tables_number   1
_chemical_formula_structural   Cu(NiC)2
_chemical_formula_sum   'Cu8 Ni16 C16'
_cell_volume   512.75070114
_cell_formula_units_Z   8
loop_
 _symmetry_equiv_pos_site_id
 _symmetry_equiv_pos_as_xyz
  1  'x, y, z'
loop_
 _atom_site_type_symbol
 _atom_site_label
 _atom_site_symmetry_multiplicity
 _atom_site_fract_x
 _atom_site_fract_y
 _atom_site_fract_z
 _atom_site_occupancy
  C  C0  1  0.21883100  0.25879500  0.97724800  1
  C  C1  1  0.99584200  0.48878000  0.99130900  1
  C  C2  1  0.75318600  0.97223600  0.72138200  1
  C  C3  1  0.24469300  0.53169200  0.78335100  1
  C  C4  1  0.53848900  0.78370000  0.25211800  1
  C  C5  1  0.03877900  0.28222100  0.25306800  1
  C  C6  1  0.51219200  0.01942000  0.00566000  1
  C  C7  1  0.72246900  0.25547500  0.47022200  1
  C  C8  1  0.49952900  0.49013200  0.50180900  1
  C  C9  1  0.28912700  0.75375000  0.54167800  1
  C  C10  1  0.98896500  0.99031600  0.48318000  1
  C  C11  1  0.46663600  0.21021000  0.74823800  1
  C  C12  1  0.95168900  0.70904500  0.74019000  1
  C  C13  1  0.25096800  0.03944200  0.29242600  1
  C  C14  1  0.74335300  0.46154500  0.20891400  1
  C  C15  1  0.78575100  0.74706100  0.03183100  1
  Ni  Ni16  1  0.27649100  0.53551000  0.04817000  1
  Ni  Ni17  1  0.26086900  0.49231900  0.53744300  1
  Ni  Ni18  1  0.76997600  0.04365100  0.51309700  1
  Ni  Ni19  1  0.27551200  0.26199500  0.22879000  1
  Ni  Ni20  1  0.46404000  0.23656000  0.00715100  1
  Ni  Ni21  1  0.97007700  0.46086200  0.72983600  1
  Ni  Ni22  1  0.22317400  0.95002400  0.48917500  1
  Ni  Ni23  1  0.72999200  0.74265500  0.77503600  1
  Ni  Ni24  1  0.77125500  0.22651900  0.23697000  1
  Ni  Ni25  1  0.98972500  0.03237500  0.26112600  1
  Ni  Ni26  1  0.54222800  0.00459100  0.77145700  1
  Ni  Ni27  1  0.74143000  0.51818600  0.46706800  1
  Ni  Ni28  1  0.75628200  0.72693900  0.27003500  1
  Ni  Ni29  1  0.95415400  0.22766700  0.96504100  1
  Ni  Ni30  1  0.51116500  0.26954100  0.54251500  1
  Ni  Ni31  1  0.73098400  0.46781500  0.95372200  1
  Cu  Cu32  1  0.48173700  0.72693500  0.45019500  1
  Cu  Cu33  1  0.05004700  0.77485300  0.03761500  1
  Cu  Cu34  1  0.23523400  0.27263300  0.72606200  1
  Cu  Cu35  1  0.44760100  0.98121600  0.21811700  1
  Cu  Cu36  1  0.22861100  0.77572700  0.76656500  1
  Cu  Cu37  1  0.01980300  0.96677500  0.74050900  1
  Cu  Cu38  1  0.53190000  0.76307600  0.98916200  1
  Cu  Cu39  1  0.03721000  0.54775000  0.27251400  1
