# generated using pymatgen
data_Cu3NiC9
_symmetry_space_group_name_H-M   'P 1'
_cell_length_a   5.76781235
_cell_length_b   5.76781235
_cell_length_c   5.89353241
_cell_angle_alpha   60.70317265
_cell_angle_beta   60.70317265
_cell_angle_gamma   59.99999602
_symmetry_Int_Tables_number   1
_chemical_formula_structural   Cu3NiC9
_chemical_formula_sum   'Cu3 Ni1 C9'
_cell_volume   140.09348271
_cell_formula_units_Z   1
loop_
 _symmetry_equiv_pos_site_id
 _symmetry_equiv_pos_as_xyz
  1  'x, y, z'
loop_
 _atom_site_type_symbol
 _atom_site_label
 _atom_site_symmetry_multiplicity
 _atom_site_fract_x
 _atom_site_fract_y
 _atom_site_fract_z
 _atom_site_occupancy
  C  C0  1  0.50000000  0.50000000  0.50000000  1
  Ni  Ni1  1  0.00000000  0.00000000  0.00000000  1
  Cu  Cu2  1  0.50000000  0.00000000  0.00000000  1
  Cu  Cu3  1  0.50000000  0.50000000  0.00000000  1
  Cu  Cu4  1  0.00000000  0.50000000  0.00000000  1
  C  C5  1  0.28632900  0.75586800  0.20193500  1
  C  C6  1  0.73208700  0.73208700  0.80373900  1
  C  C7  1  0.75586800  0.75586800  0.20193500  1
  C  C8  1  0.75586800  0.28632900  0.20193500  1
  C  C9  1  0.24413200  0.71367100  0.79806500  1
  C  C10  1  0.24413200  0.24413200  0.79806500  1
  C  C11  1  0.26791300  0.26791300  0.19626100  1
  C  C12  1  0.71367100  0.24413200  0.79806500  1
