# generated using pymatgen
data_Cu12Ni3C
_symmetry_space_group_name_H-M   'P 1'
_cell_length_a   9.64399697
_cell_length_b   9.64399697
_cell_length_c   9.64399662
_cell_angle_alpha   51.57614829
_cell_angle_beta   51.57614829
_cell_angle_gamma   51.57614760
_symmetry_Int_Tables_number   1
_chemical_formula_structural   Cu12Ni3C
_chemical_formula_sum   'Cu24 Ni6 C2'
_cell_volume   508.48309903
_cell_formula_units_Z   2
loop_
 _symmetry_equiv_pos_site_id
 _symmetry_equiv_pos_as_xyz
  1  'x, y, z'
loop_
 _atom_site_type_symbol
 _atom_site_label
 _atom_site_symmetry_multiplicity
 _atom_site_fract_x
 _atom_site_fract_y
 _atom_site_fract_z
 _atom_site_occupancy
  C  C0  1  0.05831400  0.05831400  0.05831400  1
  C  C1  1  0.55831400  0.55831400  0.55831400  1
  Ni  Ni2  1  0.84490300  0.46699300  0.18883300  1
  Ni  Ni3  1  0.46699300  0.18883300  0.84490300  1
  Ni  Ni4  1  0.96699300  0.34490300  0.68883300  1
  Ni  Ni5  1  0.18883300  0.84490300  0.46699300  1
  Ni  Ni6  1  0.68883300  0.96699300  0.34490300  1
  Ni  Ni7  1  0.34490300  0.68883300  0.96699300  1
  Cu  Cu8  1  0.74940700  0.07607900  0.13493000  1
  Cu  Cu9  1  0.07607900  0.13493000  0.74940700  1
  Cu  Cu10  1  0.88473400  0.28546000  0.20248100  1
  Cu  Cu11  1  0.57240800  0.00181500  0.94708200  1
  Cu  Cu12  1  0.89236800  0.42009200  0.33662000  1
  Cu  Cu13  1  0.50181500  0.07240800  0.44708200  1
  Cu  Cu14  1  0.78546000  0.38473400  0.70248100  1
  Cu  Cu15  1  0.13493000  0.74940700  0.07607900  1
  Cu  Cu16  1  0.94708200  0.57240800  0.00181500  1
  Cu  Cu17  1  0.57607900  0.24940700  0.63493000  1
  Cu  Cu18  1  0.28546000  0.20248100  0.88473400  1
  Cu  Cu19  1  0.42009200  0.33662000  0.89236800  1
  Cu  Cu20  1  0.63493000  0.57607900  0.24940700  1
  Cu  Cu21  1  0.44708200  0.50181500  0.07240800  1
  Cu  Cu22  1  0.70248100  0.78546000  0.38473400  1
  Cu  Cu23  1  0.38473400  0.70248100  0.78546000  1
  Cu  Cu24  1  0.07240800  0.44708200  0.50181500  1
  Cu  Cu25  1  0.24940700  0.63493000  0.57607900  1
  Cu  Cu26  1  0.92009200  0.39236800  0.83662000  1
  Cu  Cu27  1  0.33662000  0.89236800  0.42009200  1
  Cu  Cu28  1  0.20248100  0.88473400  0.28546000  1
  Cu  Cu29  1  0.00181500  0.94708200  0.57240800  1
  Cu  Cu30  1  0.83662000  0.92009200  0.39236800  1
  Cu  Cu31  1  0.39236800  0.83662000  0.92009200  1
