# generated using pymatgen
data_Cu2Ni3C31
_symmetry_space_group_name_H-M   'P 1'
_cell_length_a   8.63639995
_cell_length_b   8.63639995
_cell_length_c   8.63639938
_cell_angle_alpha   60.16823670
_cell_angle_beta   60.16823670
_cell_angle_gamma   60.16823584
_symmetry_Int_Tables_number   1
_chemical_formula_structural   Cu2Ni3C31
_chemical_formula_sum   'Cu2 Ni3 C31'
_cell_volume   457.23013839
_cell_formula_units_Z   1
loop_
 _symmetry_equiv_pos_site_id
 _symmetry_equiv_pos_as_xyz
  1  'x, y, z'
loop_
 _atom_site_type_symbol
 _atom_site_label
 _atom_site_symmetry_multiplicity
 _atom_site_fract_x
 _atom_site_fract_y
 _atom_site_fract_z
 _atom_site_occupancy
  Ni  Ni0  1  0.14367600  0.14367600  0.14367500  1
  Ni  Ni1  1  0.35379200  0.35379200  0.35379200  1
  Ni  Ni2  1  0.64708800  0.64708800  0.64708800  1
  Cu  Cu3  1  0.99536500  0.99536500  0.99536500  1
  Cu  Cu4  1  0.49915400  0.49915400  0.49915400  1
  C  C5  1  0.85353000  0.85353000  0.85353000  1
  C  C6  1  0.95554700  0.54206000  0.25180100  1
  C  C7  1  0.25180100  0.95554700  0.54206000  1
  C  C8  1  0.54206000  0.25180100  0.95554700  1
  C  C9  1  0.45704800  0.75220800  0.04603000  1
  C  C10  1  0.75220800  0.04603000  0.45704800  1
  C  C11  1  0.04603000  0.45704800  0.75220800  1
  C  C12  1  0.48679200  0.32373600  0.11467300  1
  C  C13  1  0.11467300  0.48679200  0.32373600  1
  C  C14  1  0.26014900  0.91332900  0.05901800  1
  C  C15  1  0.32373600  0.11467300  0.48679200  1
  C  C16  1  0.60970000  0.80826900  0.01945300  1
  C  C17  1  0.43019600  0.58570500  0.23832000  1
  C  C18  1  0.91332900  0.05901800  0.26014900  1
  C  C19  1  0.58570500  0.23832000  0.43019600  1
  C  C20  1  0.00127200  0.37830300  0.19019200  1
  C  C21  1  0.23832000  0.43019600  0.58570500  1
  C  C22  1  0.94799700  0.73243500  0.09389700  1
  C  C23  1  0.19019200  0.00127200  0.37830300  1
  C  C24  1  0.80826900  0.01945300  0.60970000  1
  C  C25  1  0.05901800  0.26014900  0.91332900  1
  C  C26  1  0.76365400  0.55230100  0.41815500  1
  C  C27  1  0.01945300  0.60970000  0.80826900  1
  C  C28  1  0.41815500  0.76365400  0.55230100  1
  C  C29  1  0.09389700  0.94799700  0.73243500  1
  C  C30  1  0.55230100  0.41815500  0.76365400  1
  C  C31  1  0.37830300  0.19019200  0.00127200  1
  C  C32  1  0.69236500  0.87909000  0.50370300  1
  C  C33  1  0.73243500  0.09389700  0.94799700  1
  C  C34  1  0.87909000  0.50370300  0.69236500  1
  C  C35  1  0.50370300  0.69236500  0.87909000  1
