# generated using pymatgen
data_Cu3NiC32
_symmetry_space_group_name_H-M   'P 1'
_cell_length_a   8.68988570
_cell_length_b   8.68988570
_cell_length_c   8.68988550
_cell_angle_alpha   60.48216904
_cell_angle_beta   60.48216904
_cell_angle_gamma   60.48216660
_symmetry_Int_Tables_number   1
_chemical_formula_structural   Cu3NiC32
_chemical_formula_sum   'Cu3 Ni1 C32'
_cell_volume   469.06671380
_cell_formula_units_Z   1
loop_
 _symmetry_equiv_pos_site_id
 _symmetry_equiv_pos_as_xyz
  1  'x, y, z'
loop_
 _atom_site_type_symbol
 _atom_site_label
 _atom_site_symmetry_multiplicity
 _atom_site_fract_x
 _atom_site_fract_y
 _atom_site_fract_z
 _atom_site_occupancy
  Ni  Ni0  1  0.15319700  0.15319700  0.15319700  1
  Cu  Cu1  1  0.84868000  0.84868000  0.84868000  1
  Cu  Cu2  1  0.64878700  0.64878700  0.64878700  1
  Cu  Cu3  1  0.35081300  0.35081300  0.35081300  1
  C  C4  1  0.00109100  0.00109100  0.00109100  1
  C  C5  1  0.50116000  0.50116000  0.50116000  1
  C  C6  1  0.55221200  0.95315100  0.25021900  1
  C  C7  1  0.25022000  0.55221200  0.95315100  1
  C  C8  1  0.04259700  0.74711800  0.45319800  1
  C  C9  1  0.74711800  0.45319800  0.04259700  1
  C  C10  1  0.45319800  0.04259700  0.74711800  1
  C  C11  1  0.95315100  0.25022000  0.55221200  1
  C  C12  1  0.50176500  0.89289700  0.67341100  1
  C  C13  1  0.89289700  0.67341100  0.50176500  1
  C  C14  1  0.75378900  0.93881600  0.09048600  1
  C  C15  1  0.67341100  0.50176500  0.89289700  1
  C  C16  1  0.40949800  0.97877000  0.18149000  1
  C  C17  1  0.58016900  0.75631800  0.40790200  1
  C  C18  1  0.09048600  0.75378900  0.93881600  1
  C  C19  1  0.40790200  0.58016900  0.75631800  1
  C  C20  1  0.00289400  0.81874100  0.60353700  1
  C  C21  1  0.75631800  0.40790200  0.58016900  1
  C  C22  1  0.05475900  0.90429200  0.25385000  1
  C  C23  1  0.81874100  0.60353700  0.00289400  1
  C  C24  1  0.18149000  0.40949800  0.97877000  1
  C  C25  1  0.93881600  0.09048600  0.75378900  1
  C  C26  1  0.24024000  0.59081300  0.43361500  1
  C  C27  1  0.97877000  0.18149000  0.40949800  1
  C  C28  1  0.59081300  0.43361500  0.24024000  1
  C  C29  1  0.90429200  0.25385000  0.05475900  1
  C  C30  1  0.43361500  0.24024000  0.59081300  1
  C  C31  1  0.60353700  0.00289400  0.81874100  1
  C  C32  1  0.31268800  0.50556900  0.11146300  1
  C  C33  1  0.25385000  0.05475900  0.90429200  1
  C  C34  1  0.11146300  0.31268800  0.50556900  1
  C  C35  1  0.50556900  0.11146300  0.31268800  1
