# generated using pymatgen
data_Cu9NiC4
_symmetry_space_group_name_H-M   'P 1'
_cell_length_a   7.30093100
_cell_length_b   9.60901700
_cell_length_c   12.15474000
_cell_angle_alpha   90.00000000
_cell_angle_beta   90.00000000
_cell_angle_gamma   90.00000000
_symmetry_Int_Tables_number   1
_chemical_formula_structural   Cu9NiC4
_chemical_formula_sum   'Cu36 Ni4 C16'
_cell_volume   852.71299026
_cell_formula_units_Z   4
loop_
 _symmetry_equiv_pos_site_id
 _symmetry_equiv_pos_as_xyz
  1  'x, y, z'
loop_
 _atom_site_type_symbol
 _atom_site_label
 _atom_site_symmetry_multiplicity
 _atom_site_fract_x
 _atom_site_fract_y
 _atom_site_fract_z
 _atom_site_occupancy
  C  C0  1  0.75000000  0.99164400  0.28590000  1
  C  C1  1  0.75000000  0.49164400  0.21410000  1
  C  C2  1  0.25000000  0.00835600  0.71410000  1
  C  C3  1  0.25000000  0.50835600  0.78590000  1
  C  C4  1  0.95512100  0.24120500  0.84637700  1
  C  C5  1  0.54487900  0.74120500  0.65362300  1
  C  C6  1  0.45512100  0.75879500  0.15362300  1
  C  C7  1  0.04487900  0.25879500  0.34637700  1
  C  C8  1  0.04487900  0.75879500  0.15362300  1
  C  C9  1  0.45512100  0.25879500  0.34637700  1
  C  C10  1  0.54487900  0.24120500  0.84637700  1
  C  C11  1  0.95512100  0.74120500  0.65362300  1
  C  C12  1  0.75000000  0.20803100  0.04985300  1
  C  C13  1  0.75000000  0.70803100  0.45014700  1
  C  C14  1  0.25000000  0.79196900  0.95014700  1
  C  C15  1  0.25000000  0.29196900  0.54985300  1
  Ni  Ni16  1  0.75000000  0.60710600  0.91476200  1
  Ni  Ni17  1  0.75000000  0.10710600  0.58523800  1
  Ni  Ni18  1  0.25000000  0.39289400  0.08523800  1
  Ni  Ni19  1  0.25000000  0.89289400  0.41476200  1
  Cu  Cu20  1  0.92093800  0.17748200  0.96721100  1
  Cu  Cu21  1  0.57906200  0.67748200  0.53278900  1
  Cu  Cu22  1  0.42093800  0.82251800  0.03278900  1
  Cu  Cu23  1  0.07906200  0.32251800  0.46721100  1
  Cu  Cu24  1  0.07906200  0.82251800  0.03278900  1
  Cu  Cu25  1  0.42093800  0.32251800  0.46721100  1
  Cu  Cu26  1  0.57906200  0.17748200  0.96721100  1
  Cu  Cu27  1  0.92093800  0.67748200  0.53278900  1
  Cu  Cu28  1  0.75000000  0.27151200  0.80258900  1
  Cu  Cu29  1  0.75000000  0.77151200  0.69741100  1
  Cu  Cu30  1  0.25000000  0.72848800  0.19741100  1
  Cu  Cu31  1  0.25000000  0.22848800  0.30258900  1
  Cu  Cu32  1  0.05444800  0.37732000  0.85331900  1
  Cu  Cu33  1  0.44555200  0.87732000  0.64668100  1
  Cu  Cu34  1  0.55444800  0.62268000  0.14668100  1
  Cu  Cu35  1  0.94555200  0.12268000  0.35331900  1
  Cu  Cu36  1  0.94555200  0.62268000  0.14668100  1
  Cu  Cu37  1  0.55444800  0.12268000  0.35331900  1
  Cu  Cu38  1  0.44555200  0.37732000  0.85331900  1
  Cu  Cu39  1  0.05444800  0.87732000  0.64668100  1
  Cu  Cu40  1  0.04084700  0.13113000  0.77640600  1
  Cu  Cu41  1  0.45915300  0.63113000  0.72359400  1
  Cu  Cu42  1  0.54084700  0.86887000  0.22359400  1
  Cu  Cu43  1  0.95915300  0.36887000  0.27640600  1
  Cu  Cu44  1  0.95915300  0.86887000  0.22359400  1
  Cu  Cu45  1  0.54084700  0.36887000  0.27640600  1
  Cu  Cu46  1  0.45915300  0.13113000  0.77640600  1
  Cu  Cu47  1  0.04084700  0.63113000  0.72359400  1
  Cu  Cu48  1  0.75000000  0.35938000  0.07919300  1
  Cu  Cu49  1  0.75000000  0.85938000  0.42080700  1
  Cu  Cu50  1  0.25000000  0.64062000  0.92080700  1
  Cu  Cu51  1  0.25000000  0.14062000  0.57919300  1
  Cu  Cu52  1  0.75000000  0.09955200  0.13683000  1
  Cu  Cu53  1  0.75000000  0.59955200  0.36317000  1
  Cu  Cu54  1  0.25000000  0.90044800  0.86317000  1
  Cu  Cu55  1  0.25000000  0.40044800  0.63683000  1
