# generated using pymatgen
data_CuNiC7
_symmetry_space_group_name_H-M   'P 1'
_cell_length_a   10.19113664
_cell_length_b   10.19113664
_cell_length_c   10.19113664
_cell_angle_alpha   116.65272919
_cell_angle_beta   116.65272919
_cell_angle_gamma   95.90252813
_symmetry_Int_Tables_number   1
_chemical_formula_structural   CuNiC7
_chemical_formula_sum   'Cu8 Ni8 C56'
_cell_volume   781.80743086
_cell_formula_units_Z   8
loop_
 _symmetry_equiv_pos_site_id
 _symmetry_equiv_pos_as_xyz
  1  'x, y, z'
loop_
 _atom_site_type_symbol
 _atom_site_label
 _atom_site_symmetry_multiplicity
 _atom_site_fract_x
 _atom_site_fract_y
 _atom_site_fract_z
 _atom_site_occupancy
  C  C0  1  0.92931400  0.10611200  0.15599900  1
  C  C1  1  0.82068600  0.14388800  0.34400100  1
  C  C2  1  0.89388800  0.04988600  0.82320100  1
  C  C3  1  0.52331500  0.17931400  0.32320100  1
  C  C4  1  0.44190800  0.29236900  0.13257700  1
  C  C5  1  0.71544100  0.56458600  0.14042600  1
  C  C6  1  0.22668500  0.07068600  0.17679900  1
  C  C7  1  0.85611200  0.20011400  0.67679900  1
  C  C8  1  0.70763100  0.84020800  0.14953900  1
  C  C9  1  0.43541400  0.57584000  0.15085500  1
  C  C10  1  0.79988600  0.47668500  0.65599900  1
  C  C11  1  0.95011400  0.77331500  0.84400100  1
  C  C12  1  0.31458600  0.67416000  0.34914500  1
  C  C13  1  0.42498500  0.28455900  0.84914500  1
  C  C14  1  0.04236900  0.40979200  0.35046100  1
  C  C15  1  0.69066900  0.55809200  0.85046100  1
  C  C16  1  0.03455900  0.68541400  0.35957400  1
  C  C17  1  0.42416000  0.57501500  0.85957400  1
  C  C18  1  0.59020800  0.94066900  0.63257700  1
  C  C19  1  0.30809200  0.95763100  0.36742300  1
  C  C20  1  0.15979200  0.30933100  0.86742300  1
  C  C21  1  0.32584000  0.67498500  0.64042600  1
  C  C22  1  0.05933100  0.69190800  0.64953900  1
  C  C23  1  0.32501500  0.96544100  0.65085500  1
  Ni  Ni24  1  0.74899600  0.41402600  0.30156500  1
  Ni  Ni25  1  0.16402600  0.36246100  0.16503000  1
  Ni  Ni26  1  0.55256900  0.25100400  0.66503000  1
  Ni  Ni27  1  0.58597400  0.88753900  0.33497000  1
  Ni  Ni28  1  0.63753900  0.80256900  0.80156500  1
  Ni  Ni29  1  0.00100400  0.83597400  0.19843500  1
  Ni  Ni30  1  0.11246100  0.44743100  0.69843500  1
  Ni  Ni31  1  0.19743100  0.99899600  0.83497000  1
  Cu  Cu32  1  0.45032400  0.92533000  0.99852800  1
  Cu  Cu33  1  0.54820500  0.54967600  0.47500700  1
  Cu  Cu34  1  0.67533000  0.17680200  0.97500700  1
  Cu  Cu35  1  0.82319800  0.79820500  0.49852800  1
  Cu  Cu36  1  0.29967600  0.32467000  0.50147200  1
  Cu  Cu37  1  0.07467000  0.07319800  0.52499300  1
  Cu  Cu38  1  0.20179500  0.70032400  0.02499300  1
  Cu  Cu39  1  0.92680200  0.45179500  0.00147200  1
  C  C40  1  0.83170400  0.26774900  0.24272500  1
  C  C41  1  0.33898000  0.08170400  0.06395500  1
  C  C42  1  0.59807800  0.35485600  0.08132600  1
  C  C43  1  0.86469000  0.64127600  0.09294600  1
  C  C44  1  0.88531000  0.60872400  0.40705400  1
  C  C45  1  0.64800500  0.39324300  0.39947500  1
  C  C46  1  0.41102000  0.16829600  0.43604500  1
  C  C47  1  0.35872400  0.45167000  0.22341400  1
  C  C48  1  0.52174400  0.11469000  0.72341400  1
  C  C49  1  0.91829600  0.98225100  0.25727500  1
  C  C50  1  0.14324300  0.24376800  0.24523800  1
  C  C51  1  0.75147000  0.35199500  0.74523800  1
  C  C52  1  0.64514400  0.72647000  0.24322200  1
  C  C53  1  0.10485600  0.52353000  0.25677800  1
  C  C54  1  0.48324800  0.40192200  0.75677800  1
  C  C55  1  0.60675700  0.00623200  0.25476200  1
  C  C56  1  0.72497500  0.66102000  0.74272500  1
  C  C57  1  0.39127600  0.79833000  0.27658600  1
  C  C58  1  0.22825600  0.13531000  0.77658600  1
  C  C59  1  0.73225100  0.97497500  0.56395500  1
  C  C60  1  0.47647000  0.73324800  0.58132600  1
  C  C61  1  0.10199500  0.85675700  0.10052500  1
  C  C62  1  0.99376800  0.24853000  0.60052500  1
  C  C63  1  0.20167000  0.47825600  0.59294600  1
  C  C64  1  0.54833000  0.77174400  0.90705400  1
  C  C65  1  0.75623200  0.00147000  0.89947500  1
  C  C66  1  0.27353000  0.51675200  0.91867400  1
  C  C67  1  0.15192200  0.89514400  0.41867400  1
  C  C68  1  0.01774900  0.27502500  0.93604500  1
  C  C69  1  0.02502500  0.58898000  0.75727500  1
  C  C70  1  0.26675200  0.84807800  0.74322200  1
  C  C71  1  0.99853000  0.89800500  0.75476200  1
