# generated using pymatgen
data_Cu4NiC2
_symmetry_space_group_name_H-M   'P 1'
_cell_length_a   5.96579800
_cell_length_b   8.86848700
_cell_length_c   9.49008200
_cell_angle_alpha   90.00000000
_cell_angle_beta   90.00000000
_cell_angle_gamma   90.00000000
_symmetry_Int_Tables_number   1
_chemical_formula_structural   Cu4NiC2
_chemical_formula_sum   'Cu16 Ni4 C8'
_cell_volume   502.09748148
_cell_formula_units_Z   4
loop_
 _symmetry_equiv_pos_site_id
 _symmetry_equiv_pos_as_xyz
  1  'x, y, z'
loop_
 _atom_site_type_symbol
 _atom_site_label
 _atom_site_symmetry_multiplicity
 _atom_site_fract_x
 _atom_site_fract_y
 _atom_site_fract_z
 _atom_site_occupancy
  C  C0  1  0.08984900  0.84172300  0.09450400  1
  C  C1  1  0.58984900  0.15827700  0.90549600  1
  C  C2  1  0.58984900  0.65827700  0.59450400  1
  C  C3  1  0.08984900  0.34172300  0.40549600  1
  C  C4  1  0.93698100  0.68841000  0.38365600  1
  C  C5  1  0.43698100  0.31159000  0.61634400  1
  C  C6  1  0.43698100  0.81159000  0.88365600  1
  C  C7  1  0.93698100  0.18841000  0.11634400  1
  Ni  Ni8  1  0.53996700  0.06028300  0.33231000  1
  Ni  Ni9  1  0.03996700  0.93971700  0.66769000  1
  Ni  Ni10  1  0.03996700  0.43971700  0.83231000  1
  Ni  Ni11  1  0.53996700  0.56028300  0.16769000  1
  Cu  Cu12  1  0.00016400  0.53627000  0.43345000  1
  Cu  Cu13  1  0.50016400  0.46373000  0.56655000  1
  Cu  Cu14  1  0.50016400  0.96373000  0.93345000  1
  Cu  Cu15  1  0.00016400  0.03627000  0.06655000  1
  Cu  Cu16  1  0.64425600  0.68512500  0.12010500  1
  Cu  Cu17  1  0.14425600  0.31487500  0.87989500  1
  Cu  Cu18  1  0.14425600  0.81487500  0.62010500  1
  Cu  Cu19  1  0.64425600  0.18512500  0.37989500  1
  Cu  Cu20  1  0.73474400  0.75645400  0.44810800  1
  Cu  Cu21  1  0.23474400  0.24354600  0.55189200  1
  Cu  Cu22  1  0.23474400  0.74354600  0.94810800  1
  Cu  Cu23  1  0.73474400  0.25645400  0.05189200  1
  Cu  Cu24  1  0.06803800  0.76346500  0.27220400  1
  Cu  Cu25  1  0.56803800  0.23653500  0.72779600  1
  Cu  Cu26  1  0.56803800  0.73653500  0.77220400  1
  Cu  Cu27  1  0.06803800  0.26346500  0.22779600  1
