# generated using pymatgen
data_Cu3NiC11
_symmetry_space_group_name_H-M   'P 1'
_cell_length_a   5.73178216
_cell_length_b   5.73178216
_cell_length_c   9.16050400
_cell_angle_alpha   90.00000000
_cell_angle_beta   90.00000000
_cell_angle_gamma   120.00000179
_symmetry_Int_Tables_number   1
_chemical_formula_structural   Cu3NiC11
_chemical_formula_sum   'Cu6 Ni2 C22'
_cell_volume   260.63296497
_cell_formula_units_Z   2
loop_
 _symmetry_equiv_pos_site_id
 _symmetry_equiv_pos_as_xyz
  1  'x, y, z'
loop_
 _atom_site_type_symbol
 _atom_site_label
 _atom_site_symmetry_multiplicity
 _atom_site_fract_x
 _atom_site_fract_y
 _atom_site_fract_z
 _atom_site_occupancy
  C  C0  1  0.17171100  0.82828900  0.05595500  1
  C  C1  1  0.65657800  0.82828900  0.05595500  1
  C  C2  1  0.17171100  0.34342200  0.05595500  1
  C  C3  1  0.82828900  0.65657800  0.55595500  1
  C  C4  1  0.34342200  0.17171100  0.55595500  1
  C  C5  1  0.82828900  0.17171100  0.55595500  1
  Ni  Ni6  1  0.33333300  0.66666700  0.49775400  1
  Ni  Ni7  1  0.66666700  0.33333300  0.99775400  1
  Cu  Cu8  1  0.16891000  0.83109000  0.78402100  1
  Cu  Cu9  1  0.66218000  0.83109000  0.78402100  1
  Cu  Cu10  1  0.16891000  0.33782000  0.78402100  1
  Cu  Cu11  1  0.83109000  0.66218000  0.28402100  1
  Cu  Cu12  1  0.33782000  0.16891000  0.28402100  1
  Cu  Cu13  1  0.83109000  0.16891000  0.28402100  1
  C  C14  1  0.16253900  0.83746100  0.40498200  1
  C  C15  1  0.48140800  0.96281600  0.66102700  1
  C  C16  1  0.67492200  0.83746100  0.40498200  1
  C  C17  1  0.03718400  0.51859200  0.66102700  1
  C  C18  1  0.33333300  0.66666700  0.89366500  1
  C  C19  1  0.48140800  0.51859200  0.66102700  1
  C  C20  1  0.83746100  0.67492200  0.90498200  1
  C  C21  1  0.16253900  0.32507800  0.40498200  1
  C  C22  1  0.51859200  0.48140800  0.16102700  1
  C  C23  1  0.96281600  0.48140800  0.16102700  1
  C  C24  1  0.00000000  0.00000000  0.18053600  1
  C  C25  1  0.66666700  0.33333300  0.39366500  1
  C  C26  1  0.32507800  0.16253900  0.90498200  1
  C  C27  1  0.51859200  0.03718400  0.16102700  1
  C  C28  1  0.83746100  0.16253900  0.90498200  1
  C  C29  1  0.00000000  0.00000000  0.68053600  1
