# generated using pymatgen
data_Cu3Ni2C23
_symmetry_space_group_name_H-M   'P 1'
_cell_length_a   5.96919044
_cell_length_b   5.96919044
_cell_length_c   9.59785017
_cell_angle_alpha   88.18364721
_cell_angle_beta   88.18364721
_cell_angle_gamma   59.31050974
_symmetry_Int_Tables_number   1
_chemical_formula_structural   Cu3Ni2C23
_chemical_formula_sum   'Cu3 Ni2 C23'
_cell_volume   293.89141770
_cell_formula_units_Z   1
loop_
 _symmetry_equiv_pos_site_id
 _symmetry_equiv_pos_as_xyz
  1  'x, y, z'
loop_
 _atom_site_type_symbol
 _atom_site_label
 _atom_site_symmetry_multiplicity
 _atom_site_fract_x
 _atom_site_fract_y
 _atom_site_fract_z
 _atom_site_occupancy
  C  C0  1  0.66776800  0.66776800  0.10742600  1
  C  C1  1  0.98818500  0.98818500  0.01111000  1
  C  C2  1  0.99747000  0.99747000  0.50170900  1
  C  C3  1  0.33401200  0.33401200  0.60030500  1
  C  C4  1  0.33167000  0.83134900  0.78617300  1
  C  C5  1  0.83134900  0.33167000  0.78617300  1
  C  C6  1  0.17693600  0.17693600  0.28406300  1
  Ni  Ni7  1  0.66931400  0.66931400  0.51381100  1
  Ni  Ni8  1  0.33765700  0.33765700  0.01709700  1
  Cu  Cu9  1  0.82730300  0.82730300  0.78550600  1
  Cu  Cu10  1  0.18104400  0.66263700  0.28984900  1
  Cu  Cu11  1  0.66263700  0.18104400  0.28984900  1
  C  C12  1  0.34170500  0.83729100  0.40391200  1
  C  C13  1  0.52100200  0.52100200  0.65807900  1
  C  C14  1  0.65568600  0.65568600  0.89404900  1
  C  C15  1  0.99993300  0.99993300  0.68721600  1
  C  C16  1  0.00964800  0.00964800  0.19751700  1
  C  C17  1  0.83729100  0.34170500  0.40391200  1
  C  C18  1  0.51505300  0.95453300  0.65601700  1
  C  C19  1  0.95453300  0.51505300  0.65601700  1
  C  C20  1  0.15380300  0.15380300  0.88868200  1
  C  C21  1  0.83323600  0.83323600  0.40473500  1
  C  C22  1  0.04540400  0.47817700  0.15618100  1
  C  C23  1  0.47817700  0.04540400  0.15618100  1
  C  C24  1  0.32625700  0.32625700  0.39840100  1
  C  C25  1  0.16601700  0.66683500  0.89604400  1
  C  C26  1  0.48960900  0.48960900  0.16610500  1
  C  C27  1  0.66683500  0.16601700  0.89604400  1
