# generated using pymatgen
data_Cu20NiC28
_symmetry_space_group_name_H-M   'P 1'
_cell_length_a   5.83273000
_cell_length_b   8.57765239
_cell_length_c   9.96665266
_cell_angle_alpha   115.22346996
_cell_angle_beta   89.73560837
_cell_angle_gamma   98.53032765
_symmetry_Int_Tables_number   1
_chemical_formula_structural   Cu20NiC28
_chemical_formula_sum   'Cu20 Ni1 C28'
_cell_volume   445.15036219
_cell_formula_units_Z   1
loop_
 _symmetry_equiv_pos_site_id
 _symmetry_equiv_pos_as_xyz
  1  'x, y, z'
loop_
 _atom_site_type_symbol
 _atom_site_label
 _atom_site_symmetry_multiplicity
 _atom_site_fract_x
 _atom_site_fract_y
 _atom_site_fract_z
 _atom_site_occupancy
  C  C0  1  0.52173300  0.68945100  0.19329500  1
  C  C1  1  0.48385400  0.31290400  0.80494700  1
  C  C2  1  0.01808500  0.69567300  0.68774500  1
  C  C3  1  0.98053400  0.31731700  0.30466800  1
  C  C4  1  0.00107900  0.00400300  0.99832000  1
  C  C5  1  0.49429500  0.00335400  0.49322400  1
  C  C6  1  0.18176900  0.73708600  0.00755000  1
  C  C7  1  0.83586700  0.30311500  0.97296800  1
  C  C8  1  0.31912200  0.17793200  0.03819700  1
  C  C9  1  0.69290700  0.81681800  0.96587200  1
  C  C10  1  0.34427900  0.28429500  0.48172400  1
  C  C11  1  0.66307100  0.73911300  0.50012300  1
  C  C12  1  0.80765200  0.15282500  0.54792300  1
  C  C13  1  0.16980000  0.81037100  0.46695500  1
  C  C14  1  0.99058200  0.26550400  0.74267200  1
  C  C15  1  0.01936800  0.73057000  0.25946400  1
  C  C16  1  0.50689500  0.74817400  0.74854500  1
  C  C17  1  0.48268000  0.29247000  0.22791200  1
  C  C18  1  0.69090100  0.94726100  0.26139400  1
  C  C19  1  0.43425400  0.83321900  0.30913700  1
  C  C20  1  0.29381700  0.05947000  0.73014000  1
  C  C21  1  0.56014800  0.16771300  0.68961600  1
  C  C22  1  0.06063600  0.17898000  0.18967700  1
  C  C23  1  0.86325100  0.39465400  0.07713700  1
  C  C24  1  0.49182800  0.49667300  0.00139300  1
  C  C25  1  0.22733900  0.53708200  0.96274400  1
  C  C26  1  0.97933100  0.52816200  0.47915200  1
  C  C27  1  0.24283600  0.47901100  0.52381800  1
  Ni  Ni28  1  0.88352400  0.86868700  0.80039900  1
  Cu  Cu29  1  0.14901600  0.71579000  0.07546300  1
  Cu  Cu30  1  0.84684000  0.29866400  0.91407500  1
  Cu  Cu31  1  0.30479000  0.08348900  0.02491500  1
  Cu  Cu32  1  0.69598000  0.90905900  0.98005300  1
  Cu  Cu33  1  0.34374600  0.29341700  0.41598900  1
  Cu  Cu34  1  0.64081200  0.71392900  0.57082700  1
  Cu  Cu35  1  0.79777900  0.08855200  0.51718700  1
  Cu  Cu36  1  0.18767500  0.91544200  0.47391500  1
  Cu  Cu37  1  0.07482500  0.27912600  0.79525300  1
  Cu  Cu38  1  0.92816900  0.73475700  0.20000700  1
  Cu  Cu39  1  0.42509900  0.73275100  0.69649700  1
  Cu  Cu40  1  0.57117600  0.27797900  0.29216200  1
  Cu  Cu41  1  0.58302000  0.79135200  0.31068300  1
  Cu  Cu42  1  0.40297100  0.21196200  0.68538000  1
  Cu  Cu43  1  0.90302200  0.21057100  0.18647600  1
  Cu  Cu44  1  0.34306200  0.40086000  0.04977800  1
  Cu  Cu45  1  0.12987600  0.62651600  0.44001200  1
  Cu  Cu46  1  0.75689900  0.67450000  0.91454900  1
  Cu  Cu47  1  0.07965800  0.80976000  0.80120200  1
  Cu  Cu48  1  0.81609700  0.11769900  0.68590800  1
