# generated using pymatgen
data_CuNi6C35
_symmetry_space_group_name_H-M   'P 1'
_cell_length_a   6.09784085
_cell_length_b   6.09784085
_cell_length_c   23.40699600
_cell_angle_alpha   90.00000000
_cell_angle_beta   90.00000000
_cell_angle_gamma   102.96393347
_symmetry_Int_Tables_number   1
_chemical_formula_structural   CuNi6C35
_chemical_formula_sum   'Cu2 Ni12 C70'
_cell_volume   848.17371262
_cell_formula_units_Z   2
loop_
 _symmetry_equiv_pos_site_id
 _symmetry_equiv_pos_as_xyz
  1  'x, y, z'
loop_
 _atom_site_type_symbol
 _atom_site_label
 _atom_site_symmetry_multiplicity
 _atom_site_fract_x
 _atom_site_fract_y
 _atom_site_fract_z
 _atom_site_occupancy
  C  C0  1  0.71869600  0.28130400  0.01046200  1
  C  C1  1  0.28130400  0.71869600  0.98953800  1
  C  C2  1  0.71869600  0.28130400  0.48953800  1
  C  C3  1  0.28130400  0.71869600  0.51046200  1
  C  C4  1  0.76306000  0.23694000  0.93812100  1
  C  C5  1  0.23694000  0.76306000  0.06187900  1
  C  C6  1  0.76306000  0.23694000  0.56187900  1
  C  C7  1  0.23694000  0.76306000  0.43812100  1
  C  C8  1  0.19740300  0.59220100  0.14336800  1
  C  C9  1  0.59220100  0.19740300  0.85663200  1
  C  C10  1  0.19740300  0.59220100  0.35663200  1
  C  C11  1  0.59220100  0.19740300  0.64336800  1
  C  C12  1  0.80259700  0.40779900  0.85663200  1
  C  C13  1  0.40779900  0.80259700  0.14336800  1
  C  C14  1  0.80259700  0.40779900  0.64336800  1
  C  C15  1  0.40779900  0.80259700  0.35663200  1
  C  C16  1  0.65812500  0.55169400  0.06383400  1
  C  C17  1  0.55169400  0.65812500  0.93616600  1
  C  C18  1  0.65812500  0.55169400  0.43616600  1
  C  C19  1  0.55169400  0.65812500  0.56383400  1
  C  C20  1  0.34187500  0.44830600  0.93616600  1
  C  C21  1  0.44830600  0.34187500  0.06383400  1
  C  C22  1  0.34187500  0.44830600  0.56383400  1
  C  C23  1  0.44830600  0.34187500  0.43616600  1
  C  C24  1  0.80308200  0.19691800  0.21423800  1
  C  C25  1  0.19691800  0.80308200  0.78576200  1
  C  C26  1  0.80308200  0.19691800  0.28576200  1
  C  C27  1  0.19691800  0.80308200  0.71423800  1
  C  C28  1  0.44380700  0.00359700  0.25000000  1
  C  C29  1  0.00359700  0.44380700  0.75000000  1
  C  C30  1  0.55619300  0.99640300  0.75000000  1
  C  C31  1  0.99640300  0.55619300  0.25000000  1
  C  C32  1  0.42142200  0.25188600  0.21176200  1
  C  C33  1  0.25188600  0.42142200  0.78823800  1
  C  C34  1  0.42142200  0.25188600  0.28823800  1
  C  C35  1  0.25188600  0.42142200  0.71176200  1
  C  C36  1  0.57857800  0.74811400  0.78823800  1
  C  C37  1  0.74811400  0.57857800  0.21176200  1
  C  C38  1  0.57857800  0.74811400  0.71176200  1
  C  C39  1  0.74811400  0.57857800  0.28823800  1
  C  C40  1  0.00000000  0.00000000  0.00000000  1
  C  C41  1  0.00000000  0.00000000  0.50000000  1
  Ni  Ni42  1  0.48901700  0.18722100  0.25000000  1
  Ni  Ni43  1  0.18722100  0.48901700  0.75000000  1
  Ni  Ni44  1  0.51098300  0.81277900  0.75000000  1
  Ni  Ni45  1  0.81277900  0.51098300  0.25000000  1
  Ni  Ni46  1  0.82115900  0.97561000  0.11345700  1
  Ni  Ni47  1  0.97561000  0.82115900  0.88654300  1
  Ni  Ni48  1  0.82115900  0.97561000  0.38654300  1
  Ni  Ni49  1  0.97561000  0.82115900  0.61345700  1
  Ni  Ni50  1  0.17884100  0.02439000  0.88654300  1
  Ni  Ni51  1  0.02439000  0.17884100  0.11345700  1
  Ni  Ni52  1  0.17884100  0.02439000  0.61345700  1
  Ni  Ni53  1  0.02439000  0.17884100  0.38654300  1
  Cu  Cu54  1  0.73733400  0.26266600  0.25000000  1
  Cu  Cu55  1  0.26266600  0.73733400  0.75000000  1
  C  C56  1  0.78585200  0.86483100  0.06566800  1
  C  C57  1  0.86483100  0.78585200  0.93433200  1
  C  C58  1  0.78585200  0.86483100  0.43433200  1
  C  C59  1  0.86483100  0.78585200  0.56566800  1
  C  C60  1  0.21414800  0.13516900  0.93433200  1
  C  C61  1  0.13516900  0.21414800  0.06566800  1
  C  C62  1  0.21414800  0.13516900  0.56566800  1
  C  C63  1  0.13516900  0.21414800  0.43433200  1
  C  C64  1  0.79460800  0.20539200  0.97981800  1
  C  C65  1  0.20539200  0.79460800  0.02018200  1
  C  C66  1  0.79460800  0.20539200  0.52018200  1
  C  C67  1  0.20539200  0.79460800  0.47981800  1
  C  C68  1  0.70373900  0.92917100  0.15725200  1
  C  C69  1  0.92917100  0.70373900  0.84274800  1
  C  C70  1  0.70373900  0.92917100  0.34274800  1
  C  C71  1  0.92917100  0.70373900  0.65725200  1
  C  C72  1  0.29626100  0.07082900  0.84274800  1
  C  C73  1  0.07082900  0.29626100  0.15725200  1
  C  C74  1  0.29626100  0.07082900  0.65725200  1
  C  C75  1  0.07082900  0.29626100  0.34274800  1
  C  C76  1  0.25099900  0.74900100  0.12988800  1
  C  C77  1  0.74900100  0.25099900  0.87011200  1
  C  C78  1  0.25099900  0.74900100  0.37011200  1
  C  C79  1  0.74900100  0.25099900  0.62988800  1
  C  C80  1  0.61415200  0.38584800  0.06273500  1
  C  C81  1  0.38584800  0.61415200  0.93726500  1
  C  C82  1  0.61415200  0.38584800  0.43726500  1
  C  C83  1  0.38584800  0.61415200  0.56273500  1
