# generated using pymatgen
data_Cu7NiC8
_symmetry_space_group_name_H-M   'P 1'
_cell_length_a   10.00700600
_cell_length_b   10.87815200
_cell_length_c   13.52462700
_cell_angle_alpha   90.00000000
_cell_angle_beta   90.00000000
_cell_angle_gamma   90.00000000
_symmetry_Int_Tables_number   1
_chemical_formula_structural   Cu7NiC8
_chemical_formula_sum   'Cu56 Ni8 C64'
_cell_volume   1472.26022587
_cell_formula_units_Z   8
loop_
 _symmetry_equiv_pos_site_id
 _symmetry_equiv_pos_as_xyz
  1  'x, y, z'
loop_
 _atom_site_type_symbol
 _atom_site_label
 _atom_site_symmetry_multiplicity
 _atom_site_fract_x
 _atom_site_fract_y
 _atom_site_fract_z
 _atom_site_occupancy
  C  C0  1  0.62599300  0.77595800  0.80893400  1
  C  C1  1  0.37400700  0.72404200  0.30893400  1
  C  C2  1  0.87400700  0.27595800  0.19106600  1
  C  C3  1  0.12599300  0.22404200  0.69106600  1
  C  C4  1  0.37400700  0.22404200  0.19106600  1
  C  C5  1  0.62599300  0.27595800  0.69106600  1
  C  C6  1  0.12599300  0.72404200  0.80893400  1
  C  C7  1  0.87400700  0.77595800  0.30893400  1
  Ni  Ni8  1  0.63465000  0.89508000  0.41816000  1
  Ni  Ni9  1  0.36535000  0.60492000  0.91816000  1
  Ni  Ni10  1  0.86535000  0.39508000  0.58184000  1
  Ni  Ni11  1  0.13465000  0.10492000  0.08184000  1
  Ni  Ni12  1  0.36535000  0.10492000  0.58184000  1
  Ni  Ni13  1  0.63465000  0.39508000  0.08184000  1
  Ni  Ni14  1  0.13465000  0.60492000  0.41816000  1
  Ni  Ni15  1  0.86535000  0.89508000  0.91816000  1
  Cu  Cu16  1  0.30606900  0.62731700  0.73138900  1
  Cu  Cu17  1  0.69393100  0.87268300  0.23138900  1
  Cu  Cu18  1  0.19393100  0.12731700  0.26861100  1
  Cu  Cu19  1  0.80606900  0.37268300  0.76861100  1
  Cu  Cu20  1  0.69393100  0.37268300  0.26861100  1
  Cu  Cu21  1  0.30606900  0.12731700  0.76861100  1
  Cu  Cu22  1  0.80606900  0.87268300  0.73138900  1
  Cu  Cu23  1  0.19393100  0.62731700  0.23138900  1
  Cu  Cu24  1  0.46722500  0.80413000  0.12574600  1
  Cu  Cu25  1  0.53277500  0.69587000  0.62574600  1
  Cu  Cu26  1  0.03277500  0.30413000  0.87425400  1
  Cu  Cu27  1  0.96722500  0.19587000  0.37425400  1
  Cu  Cu28  1  0.53277500  0.19587000  0.87425400  1
  Cu  Cu29  1  0.46722500  0.30413000  0.37425400  1
  Cu  Cu30  1  0.96722500  0.69587000  0.12574600  1
  Cu  Cu31  1  0.03277500  0.80413000  0.62574600  1
  Cu  Cu32  1  0.67244700  0.52152500  0.80511700  1
  Cu  Cu33  1  0.32755300  0.97847500  0.30511700  1
  Cu  Cu34  1  0.82755300  0.02152500  0.19488300  1
  Cu  Cu35  1  0.17244700  0.47847500  0.69488300  1
  Cu  Cu36  1  0.32755300  0.47847500  0.19488300  1
  Cu  Cu37  1  0.67244700  0.02152500  0.69488300  1
  Cu  Cu38  1  0.17244700  0.97847500  0.80511700  1
  Cu  Cu39  1  0.82755300  0.52152500  0.30511700  1
  Cu  Cu40  1  0.74733600  0.56961400  0.57061200  1
  Cu  Cu41  1  0.25266400  0.93038600  0.07061200  1
  Cu  Cu42  1  0.75266400  0.06961400  0.42938800  1
  Cu  Cu43  1  0.24733600  0.43038600  0.92938800  1
  Cu  Cu44  1  0.25266400  0.43038600  0.42938800  1
  Cu  Cu45  1  0.74733600  0.06961400  0.92938800  1
  Cu  Cu46  1  0.24733600  0.93038600  0.57061200  1
  Cu  Cu47  1  0.75266400  0.56961400  0.07061200  1
  Cu  Cu48  1  0.30572200  0.90084400  0.82427900  1
  Cu  Cu49  1  0.69427800  0.59915600  0.32427900  1
  Cu  Cu50  1  0.19427800  0.40084400  0.17572100  1
  Cu  Cu51  1  0.80572200  0.09915600  0.67572100  1
  Cu  Cu52  1  0.69427800  0.09915600  0.17572100  1
  Cu  Cu53  1  0.30572200  0.40084400  0.67572100  1
  Cu  Cu54  1  0.80572200  0.59915600  0.82427900  1
  Cu  Cu55  1  0.19427800  0.90084400  0.32427900  1
  Cu  Cu56  1  0.51881700  0.14273600  0.83994800  1
  Cu  Cu57  1  0.48118300  0.35726400  0.33994800  1
  Cu  Cu58  1  0.98118300  0.64273700  0.16005200  1
  Cu  Cu59  1  0.01881700  0.85726300  0.66005200  1
  Cu  Cu60  1  0.48118300  0.85726300  0.16005200  1
  Cu  Cu61  1  0.51881700  0.64273700  0.66005200  1
  Cu  Cu62  1  0.01881700  0.35726400  0.83994800  1
  Cu  Cu63  1  0.98118300  0.14273600  0.33994800  1
  Cu  Cu64  1  0.55241900  0.10777000  0.49482800  1
  Cu  Cu65  1  0.44758100  0.39223000  0.99482800  1
  Cu  Cu66  1  0.94758100  0.60777000  0.50517200  1
  Cu  Cu67  1  0.05241900  0.89223000  0.00517200  1
  Cu  Cu68  1  0.44758100  0.89223000  0.50517200  1
  Cu  Cu69  1  0.55241900  0.60777000  0.00517200  1
  Cu  Cu70  1  0.05241900  0.39223000  0.49482800  1
  Cu  Cu71  1  0.94758100  0.10777000  0.99482800  1
  C  C72  1  0.74979300  0.80299700  0.41878900  1
  C  C73  1  0.25020700  0.69700300  0.91878900  1
  C  C74  1  0.75020700  0.30299700  0.58121100  1
  C  C75  1  0.24979300  0.19700300  0.08121100  1
  C  C76  1  0.25020700  0.19700300  0.58121100  1
  C  C77  1  0.74979300  0.30299700  0.08121100  1
  C  C78  1  0.24979300  0.69700300  0.41878900  1
  C  C79  1  0.75020700  0.80299700  0.91878900  1
  C  C80  1  0.53502900  0.84876500  0.50059700  1
  C  C81  1  0.46497100  0.65123500  0.00059700  1
  C  C82  1  0.96497100  0.34876500  0.49940300  1
  C  C83  1  0.03502900  0.15123500  0.99940300  1
  C  C84  1  0.46497100  0.15123500  0.49940300  1
  C  C85  1  0.53502900  0.34876500  0.99940300  1
  C  C86  1  0.03502900  0.65123500  0.50059700  1
  C  C87  1  0.96497100  0.84876500  0.00059700  1
  C  C88  1  0.71745000  0.84559300  0.70569300  1
  C  C89  1  0.28255000  0.65440700  0.20569300  1
  C  C90  1  0.78255000  0.34559300  0.29430700  1
  C  C91  1  0.21745000  0.15440700  0.79430700  1
  C  C92  1  0.28255000  0.15440700  0.29430700  1
  C  C93  1  0.71745000  0.34559300  0.79430700  1
  C  C94  1  0.21745000  0.65440700  0.70569300  1
  C  C95  1  0.78255000  0.84559300  0.20569300  1
  C  C96  1  0.68800400  0.02318200  0.46900900  1
  C  C97  1  0.31199600  0.47681800  0.96900900  1
  C  C98  1  0.81199600  0.52318200  0.53099100  1
  C  C99  1  0.18800400  0.97681800  0.03099100  1
  C  C100  1  0.31199600  0.97681800  0.53099100  1
  C  C101  1  0.68800400  0.52318200  0.03099100  1
  C  C102  1  0.18800400  0.47681800  0.46900900  1
  C  C103  1  0.81199600  0.02318200  0.96900900  1
  C  C104  1  0.43200400  0.57979900  0.82020400  1
  C  C105  1  0.56799600  0.92020100  0.32020400  1
  C  C106  1  0.06799600  0.07979900  0.17979600  1
  C  C107  1  0.93200400  0.42020100  0.67979600  1
  C  C108  1  0.56799600  0.42020100  0.17979600  1
  C  C109  1  0.43200400  0.07979900  0.67979600  1
  C  C110  1  0.93200400  0.92020100  0.82020400  1
  C  C111  1  0.06799600  0.57979900  0.32020400  1
  C  C112  1  0.71506700  0.60334600  0.79715200  1
  C  C113  1  0.28493300  0.89665400  0.29715200  1
  C  C114  1  0.78493300  0.10334600  0.20284800  1
  C  C115  1  0.21506700  0.39665400  0.70284800  1
  C  C116  1  0.28493300  0.39665400  0.20284800  1
  C  C117  1  0.71506700  0.10334600  0.70284800  1
  C  C118  1  0.21506700  0.89665400  0.79715200  1
  C  C119  1  0.78493300  0.60334600  0.29715200  1
  C  C120  1  0.49889400  0.86254600  0.84454200  1
  C  C121  1  0.50110600  0.63745400  0.34454200  1
  C  C122  1  0.00110600  0.36254600  0.15545800  1
  C  C123  1  0.99889400  0.13745400  0.65545800  1
  C  C124  1  0.50110600  0.13745400  0.15545800  1
  C  C125  1  0.49889400  0.36254600  0.65545800  1
  C  C126  1  0.99889400  0.63745400  0.84454200  1
  C  C127  1  0.00110600  0.86254600  0.34454200  1
