# generated using pymatgen
data_CuNi3C10
_symmetry_space_group_name_H-M   'P 1'
_cell_length_a   8.48979000
_cell_length_b   8.48979000
_cell_length_c   8.48979000
_cell_angle_alpha   90.00000000
_cell_angle_beta   90.00000000
_cell_angle_gamma   90.00000000
_symmetry_Int_Tables_number   1
_chemical_formula_structural   CuNi3C10
_chemical_formula_sum   'Cu4 Ni12 C40'
_cell_volume   611.91463966
_cell_formula_units_Z   4
loop_
 _symmetry_equiv_pos_site_id
 _symmetry_equiv_pos_as_xyz
  1  'x, y, z'
loop_
 _atom_site_type_symbol
 _atom_site_label
 _atom_site_symmetry_multiplicity
 _atom_site_fract_x
 _atom_site_fract_y
 _atom_site_fract_z
 _atom_site_occupancy
  C  C0  1  0.49907300  0.49907300  0.49907300  1
  C  C1  1  0.75092700  0.75092700  0.75092700  1
  C  C2  1  0.74907300  0.24907300  0.25092700  1
  C  C3  1  0.00092700  0.50092700  0.99907300  1
  C  C4  1  0.99907300  0.00092700  0.50092700  1
  C  C5  1  0.25092700  0.74907300  0.24907300  1
  C  C6  1  0.24907300  0.25092700  0.74907300  1
  C  C7  1  0.50092700  0.99907300  0.00092700  1
  Ni  Ni8  1  0.62804400  0.62195600  0.12500000  1
  Ni  Ni9  1  0.62500000  0.87195600  0.37804400  1
  Ni  Ni10  1  0.62195600  0.12500000  0.62804400  1
  Ni  Ni11  1  0.87804400  0.87500000  0.12804400  1
  Ni  Ni12  1  0.87500000  0.12804400  0.87804400  1
  Ni  Ni13  1  0.87195600  0.37804400  0.62500000  1
  Ni  Ni14  1  0.12804400  0.87804400  0.87500000  1
  Ni  Ni15  1  0.12500000  0.62804400  0.62195600  1
  Ni  Ni16  1  0.12195600  0.37500000  0.37195600  1
  Ni  Ni17  1  0.37804400  0.62500000  0.87195600  1
  Ni  Ni18  1  0.37500000  0.37195600  0.12195600  1
  Ni  Ni19  1  0.37195600  0.12195600  0.37500000  1
  Cu  Cu20  1  0.62500000  0.37500000  0.87500000  1
  Cu  Cu21  1  0.87500000  0.62500000  0.37500000  1
  Cu  Cu22  1  0.12500000  0.12500000  0.12500000  1
  Cu  Cu23  1  0.37500000  0.87500000  0.62500000  1
  C  C24  1  0.60750100  0.62416700  0.89044400  1
  C  C25  1  0.60955600  0.39249900  0.12416700  1
  C  C26  1  0.61057100  0.11057100  0.38942900  1
  C  C27  1  0.62583300  0.64249900  0.35955600  1
  C  C28  1  0.62416700  0.89044400  0.60750100  1
  C  C29  1  0.63942900  0.86057100  0.13942900  1
  C  C30  1  0.64044400  0.12583300  0.85750100  1
  C  C31  1  0.64249900  0.35955600  0.62583300  1
  C  C32  1  0.85750100  0.64044400  0.12583300  1
  C  C33  1  0.85955600  0.87416700  0.35750100  1
  C  C34  1  0.86057100  0.13942900  0.63942900  1
  C  C35  1  0.87583300  0.10955600  0.10750100  1
  C  C36  1  0.87416700  0.35750100  0.85955600  1
  C  C37  1  0.88942900  0.88942900  0.88942900  1
  C  C38  1  0.89044400  0.60750100  0.62416700  1
  C  C39  1  0.89249900  0.37583300  0.39044400  1
  C  C40  1  0.10750100  0.87583300  0.10955600  1
  C  C41  1  0.10955600  0.10750100  0.87583300  1
  C  C42  1  0.11057100  0.38942900  0.61057100  1
  C  C43  1  0.12583300  0.85750100  0.64044400  1
  C  C44  1  0.12416700  0.60955600  0.39249900  1
  C  C45  1  0.13942900  0.63942900  0.86057100  1
  C  C46  1  0.14044400  0.37416700  0.14249900  1
  C  C47  1  0.14249900  0.14044400  0.37416700  1
  C  C48  1  0.35750100  0.85955600  0.87416700  1
  C  C49  1  0.35955600  0.62583300  0.64249900  1
  C  C50  1  0.36057100  0.36057100  0.36057100  1
  C  C51  1  0.37583300  0.39044400  0.89249900  1
  C  C52  1  0.37416700  0.14249900  0.14044400  1
  C  C53  1  0.38942900  0.61057100  0.11057100  1
  C  C54  1  0.39044400  0.89249900  0.37583300  1
  C  C55  1  0.39249900  0.12416700  0.60955600  1
