# generated using pymatgen
data_Cu5(NiC3)2
_symmetry_space_group_name_H-M   'P 1'
_cell_length_a   7.51706898
_cell_length_b   7.51706898
_cell_length_c   7.51706898
_cell_angle_alpha   128.09930343
_cell_angle_beta   119.15324120
_cell_angle_gamma   84.02045430
_symmetry_Int_Tables_number   1
_chemical_formula_structural   Cu5(NiC3)2
_chemical_formula_sum   'Cu10 Ni4 C12'
_cell_volume   279.74357614
_cell_formula_units_Z   2
loop_
 _symmetry_equiv_pos_site_id
 _symmetry_equiv_pos_as_xyz
  1  'x, y, z'
loop_
 _atom_site_type_symbol
 _atom_site_label
 _atom_site_symmetry_multiplicity
 _atom_site_fract_x
 _atom_site_fract_y
 _atom_site_fract_z
 _atom_site_occupancy
  C  C0  1  0.50000000  0.50000000  0.00000000  1
  C  C1  1  0.00000000  0.00000000  0.00000000  1
  C  C2  1  0.50000000  0.00000000  0.00000000  1
  C  C3  1  0.00000000  0.00000000  0.50000000  1
  C  C4  1  0.51512500  0.79064300  0.48289800  1
  C  C5  1  0.69225500  0.20935700  0.72448200  1
  C  C6  1  0.98487500  0.46777300  0.27551800  1
  C  C7  1  0.80774500  0.53222700  0.51710200  1
  C  C8  1  0.19225500  0.46777300  0.48289800  1
  C  C9  1  0.01512500  0.53222700  0.72448200  1
  C  C10  1  0.30774500  0.79064300  0.27551800  1
  C  C11  1  0.48487500  0.20935700  0.51710200  1
  Ni  Ni12  1  0.56420700  0.26483700  0.70062900  1
  Ni  Ni13  1  0.06420700  0.36357800  0.29937100  1
  Ni  Ni14  1  0.93579300  0.63642200  0.70062900  1
  Ni  Ni15  1  0.43579300  0.73516300  0.29937100  1
  Cu  Cu16  1  0.58337300  0.32707900  0.16101000  1
  Cu  Cu17  1  0.83393100  0.67292100  0.25629400  1
  Cu  Cu18  1  0.66606900  0.92236300  0.83899000  1
  Cu  Cu19  1  0.91662700  0.07763700  0.74370600  1
  Cu  Cu20  1  0.75000000  0.08466900  0.33466900  1
  Cu  Cu21  1  0.25000000  0.91533100  0.66533100  1
  Cu  Cu22  1  0.08337300  0.92236300  0.25629400  1
  Cu  Cu23  1  0.33393100  0.07763700  0.16101000  1
  Cu  Cu24  1  0.16606900  0.32707900  0.74370600  1
  Cu  Cu25  1  0.41662700  0.67292100  0.83899000  1
