# generated using pymatgen
data_Cu5Ni11C24
_symmetry_space_group_name_H-M   'P 1'
_cell_length_a   9.19847100
_cell_length_b   9.19800990
_cell_length_c   9.19807416
_cell_angle_alpha   109.43128641
_cell_angle_beta   109.45670762
_cell_angle_gamma   109.46060153
_symmetry_Int_Tables_number   1
_chemical_formula_structural   Cu5Ni11C24
_chemical_formula_sum   'Cu5 Ni11 C24'
_cell_volume   599.56014915
_cell_formula_units_Z   1
loop_
 _symmetry_equiv_pos_site_id
 _symmetry_equiv_pos_as_xyz
  1  'x, y, z'
loop_
 _atom_site_type_symbol
 _atom_site_label
 _atom_site_symmetry_multiplicity
 _atom_site_fract_x
 _atom_site_fract_y
 _atom_site_fract_z
 _atom_site_occupancy
  Ni  Ni0  1  0.75026100  0.78230400  0.03256400  1
  Ni  Ni1  1  0.49758300  0.99949200  0.99938700  1
  Ni  Ni2  1  0.03409600  0.24952700  0.28185100  1
  Ni  Ni3  1  0.21830500  0.46732300  0.75134000  1
  Ni  Ni4  1  0.71818500  0.96788400  0.74918600  1
  Ni  Ni5  1  0.00159500  0.99997600  0.50124600  1
  Ni  Ni6  1  0.25046300  0.71923400  0.46698700  1
  Ni  Ni7  1  0.00050800  0.50132400  0.99982500  1
  Ni  Ni8  1  0.74865400  0.28202100  0.53250700  1
  Ni  Ni9  1  0.50028200  0.49920600  0.49858100  1
  Ni  Ni10  1  0.78024600  0.53202900  0.24950600  1
  Cu  Cu11  1  0.46583700  0.74975800  0.21607400  1
  Cu  Cu12  1  0.28335500  0.03274100  0.24906000  1
  Cu  Cu13  1  0.53190200  0.24956200  0.78246800  1
  Cu  Cu14  1  0.96809600  0.75125000  0.71865300  1
  Cu  Cu15  1  0.25049500  0.21631200  0.96695000  1
  C  C16  1  0.27318800  0.51209700  0.54304600  1
  C  C17  1  0.46800200  0.72958500  0.95988200  1
  C  C18  1  0.72677100  0.76172900  0.27218600  1
  C  C19  1  0.22587800  0.95731600  0.96847100  1
  C  C20  1  0.01201800  0.54606100  0.77204300  1
  C  C21  1  0.51108000  0.73970000  0.46517500  1
  C  C22  1  0.23015200  0.77324300  0.23783100  1
  C  C23  1  0.03492400  0.98776300  0.26061700  1
  C  C24  1  0.74244200  0.72858000  0.77022300  1
  C  C25  1  0.95749200  0.22753500  0.48879900  1
  C  C26  1  0.24241100  0.46821900  0.01432700  1
  C  C27  1  0.45770900  0.97189000  0.72888500  1
  C  C28  1  0.75614200  0.52762800  0.98539500  1
  C  C29  1  0.04171600  0.77087800  0.51422100  1
  C  C30  1  0.53916500  0.02892300  0.27027500  1
  C  C31  1  0.26231100  0.26909300  0.22646500  1
  C  C32  1  0.77046000  0.23033200  0.76149500  1
  C  C33  1  0.97248700  0.01266500  0.74301600  1
  C  C34  1  0.98903600  0.45819200  0.22823800  1
  C  C35  1  0.48462100  0.25634800  0.53063400  1
  C  C36  1  0.27363500  0.23894000  0.73105400  1
  C  C37  1  0.77033500  0.04246500  0.03145300  1
  C  C38  1  0.73013800  0.49074200  0.45984700  1
  C  C39  1  0.52802300  0.27013100  0.04023900  1
