# generated using pymatgen
data_Cu2NiC15
_symmetry_space_group_name_H-M   'P 1'
_cell_length_a   8.41161380
_cell_length_b   8.41161380
_cell_length_c   8.41161396
_cell_angle_alpha   61.60072097
_cell_angle_beta   61.60072097
_cell_angle_gamma   61.60071638
_symmetry_Int_Tables_number   1
_chemical_formula_structural   Cu2NiC15
_chemical_formula_sum   'Cu4 Ni2 C30'
_cell_volume   435.95693239
_cell_formula_units_Z   2
loop_
 _symmetry_equiv_pos_site_id
 _symmetry_equiv_pos_as_xyz
  1  'x, y, z'
loop_
 _atom_site_type_symbol
 _atom_site_label
 _atom_site_symmetry_multiplicity
 _atom_site_fract_x
 _atom_site_fract_y
 _atom_site_fract_z
 _atom_site_occupancy
  Ni  Ni0  1  0.00000000  0.00000000  0.00000000  1
  Ni  Ni1  1  0.50000000  0.50000000  0.50000000  1
  Cu  Cu2  1  0.14611000  0.14611000  0.14611000  1
  Cu  Cu3  1  0.35389000  0.35389000  0.35389000  1
  Cu  Cu4  1  0.64611000  0.64611000  0.64611000  1
  Cu  Cu5  1  0.85389000  0.85389000  0.85389000  1
  C  C6  1  0.75000000  0.04840000  0.45160000  1
  C  C7  1  0.04840000  0.45160000  0.75000000  1
  C  C8  1  0.45160000  0.75000000  0.04840000  1
  C  C9  1  0.54840000  0.25000000  0.95160000  1
  C  C10  1  0.95160000  0.54840000  0.25000000  1
  C  C11  1  0.25000000  0.95160000  0.54840000  1
  C  C12  1  0.32467500  0.10548100  0.50495300  1
  C  C13  1  0.50495300  0.32467500  0.10548100  1
  C  C14  1  0.90517200  0.06300300  0.24810300  1
  C  C15  1  0.10548100  0.50495300  0.32467500  1
  C  C16  1  0.82467500  0.00495300  0.60548100  1
  C  C17  1  0.59482800  0.25189700  0.43699700  1
  C  C18  1  0.06300300  0.24810300  0.90517200  1
  C  C19  1  0.25189700  0.43699700  0.59482800  1
  C  C20  1  0.39451900  0.17532500  0.99504700  1
  C  C21  1  0.43699700  0.59482800  0.25189700  1
  C  C22  1  0.75189700  0.09482800  0.93699700  1
  C  C23  1  0.99504700  0.39451900  0.17532500  1
  C  C24  1  0.00495300  0.60548100  0.82467500  1
  C  C25  1  0.24810300  0.90517200  0.06300300  1
  C  C26  1  0.56300300  0.40517200  0.74810300  1
  C  C27  1  0.60548100  0.82467500  0.00495300  1
  C  C28  1  0.74810300  0.56300300  0.40517200  1
  C  C29  1  0.93699700  0.75189700  0.09482800  1
  C  C30  1  0.40517200  0.74810300  0.56300300  1
  C  C31  1  0.17532500  0.99504700  0.39451900  1
  C  C32  1  0.89451900  0.49504700  0.67532500  1
  C  C33  1  0.09482800  0.93699700  0.75189700  1
  C  C34  1  0.49504700  0.67532500  0.89451900  1
  C  C35  1  0.67532500  0.89451900  0.49504700  1
