# generated using pymatgen
data_Cu4NiC7
_symmetry_space_group_name_H-M   'P 1'
_cell_length_a   8.69982648
_cell_length_b   8.69982648
_cell_length_c   8.69982648
_cell_angle_alpha   98.26248398
_cell_angle_beta   98.26248398
_cell_angle_gamma   135.44550659
_symmetry_Int_Tables_number   1
_chemical_formula_structural   Cu4NiC7
_chemical_formula_sum   'Cu12 Ni3 C21'
_cell_volume   427.48844239
_cell_formula_units_Z   3
loop_
 _symmetry_equiv_pos_site_id
 _symmetry_equiv_pos_as_xyz
  1  'x, y, z'
loop_
 _atom_site_type_symbol
 _atom_site_label
 _atom_site_symmetry_multiplicity
 _atom_site_fract_x
 _atom_site_fract_y
 _atom_site_fract_z
 _atom_site_occupancy
  C  C0  1  0.00000000  0.00000000  0.00000000  1
  Ni  Ni1  1  0.50000000  0.50000000  0.00000000  1
  Ni  Ni2  1  0.75000000  0.25000000  0.50000000  1
  Ni  Ni3  1  0.25000000  0.75000000  0.50000000  1
  Cu  Cu4  1  0.08136800  0.27885200  0.36022000  1
  Cu  Cu5  1  0.85037300  0.52319600  0.86720500  1
  Cu  Cu6  1  0.34400900  0.01683200  0.86720500  1
  Cu  Cu7  1  0.72114800  0.08136800  0.80251700  1
  Cu  Cu8  1  0.98316800  0.85037300  0.32717700  1
  Cu  Cu9  1  0.47680400  0.34400900  0.32717700  1
  Cu  Cu10  1  0.52319600  0.65599100  0.67282300  1
  Cu  Cu11  1  0.01683200  0.14962700  0.67282300  1
  Cu  Cu12  1  0.27885200  0.91863200  0.19748300  1
  Cu  Cu13  1  0.14962700  0.47680400  0.13279500  1
  Cu  Cu14  1  0.65599100  0.98316800  0.13279500  1
  Cu  Cu15  1  0.91863200  0.72114800  0.63978000  1
  C  C16  1  0.41946900  0.22266400  0.64213300  1
  C  C17  1  0.22266400  0.58053100  0.80319400  1
  C  C18  1  0.77733600  0.41946900  0.19680600  1
  C  C19  1  0.58053100  0.77733600  0.35786700  1
  C  C20  1  0.32262400  0.09337900  0.41600300  1
  C  C21  1  0.64602000  0.54393200  0.72560600  1
  C  C22  1  0.18167400  0.07958600  0.72560600  1
  C  C23  1  0.57151100  0.16740100  0.73891200  1
  C  C24  1  0.09337900  0.67737600  0.77075400  1
  C  C25  1  0.16740100  0.42848900  0.59589000  1
  C  C26  1  0.92041400  0.64602000  0.10208900  1
  C  C27  1  0.45606800  0.18167400  0.10208900  1
  C  C28  1  0.07958600  0.35398000  0.89791100  1
  C  C29  1  0.54393200  0.81832600  0.89791100  1
  C  C30  1  0.83259900  0.57151100  0.40411000  1
  C  C31  1  0.90662100  0.32262400  0.22924600  1
  C  C32  1  0.42848900  0.83259900  0.26108800  1
  C  C33  1  0.81832500  0.92041400  0.27439400  1
  C  C34  1  0.35398000  0.45606800  0.27439400  1
  C  C35  1  0.67737600  0.90662100  0.58399700  1
