# generated using pymatgen
data_Cu13Ni4C25
_symmetry_space_group_name_H-M   'P 1'
_cell_length_a   6.05944437
_cell_length_b   6.05944437
_cell_length_c   14.81432128
_cell_angle_alpha   89.74260970
_cell_angle_beta   89.74260970
_cell_angle_gamma   59.98285486
_symmetry_Int_Tables_number   1
_chemical_formula_structural   Cu13Ni4C25
_chemical_formula_sum   'Cu13 Ni4 C25'
_cell_volume   470.97417726
_cell_formula_units_Z   1
loop_
 _symmetry_equiv_pos_site_id
 _symmetry_equiv_pos_as_xyz
  1  'x, y, z'
loop_
 _atom_site_type_symbol
 _atom_site_label
 _atom_site_symmetry_multiplicity
 _atom_site_fract_x
 _atom_site_fract_y
 _atom_site_fract_z
 _atom_site_occupancy
  C  C0  1  0.00073300  0.00073300  0.24997400  1
  Ni  Ni1  1  0.66817300  0.66817300  0.95878900  1
  Ni  Ni2  1  0.83393200  0.83393200  0.79214100  1
  Ni  Ni3  1  0.16374900  0.16374900  0.45640100  1
  Ni  Ni4  1  0.99962500  0.99962500  0.62422400  1
  Cu  Cu5  1  0.00132200  0.00132200  0.00429600  1
  Cu  Cu6  1  0.33321900  0.83436100  0.79183100  1
  Cu  Cu7  1  0.33065700  0.33065700  0.91248800  1
  Cu  Cu8  1  0.33821600  0.33821600  0.66662600  1
  Cu  Cu9  1  0.16190400  0.67149900  0.45772600  1
  Cu  Cu10  1  0.83436100  0.33321900  0.79183100  1
  Cu  Cu11  1  0.00491500  0.49823900  0.12695900  1
  Cu  Cu12  1  0.67149900  0.16190400  0.45772600  1
  Cu  Cu13  1  0.66084900  0.66084900  0.58295200  1
  Cu  Cu14  1  0.49792400  0.49792400  0.12651400  1
  Cu  Cu15  1  0.33373900  0.33373900  0.28764600  1
  Cu  Cu16  1  0.66943700  0.66943700  0.33391500  1
  Cu  Cu17  1  0.49823900  0.00491500  0.12695900  1
  C  C18  1  0.68164600  0.16899900  0.71294800  1
  C  C19  1  0.49886600  0.98489000  0.87210900  1
  C  C20  1  0.66175200  0.66175200  0.71580300  1
  C  C21  1  0.50687000  0.50687000  0.87010700  1
  C  C22  1  0.33602500  0.33602500  0.53451600  1
  C  C23  1  0.16225500  0.16225500  0.71470500  1
  C  C24  1  0.00572600  0.00572600  0.87182100  1
  C  C25  1  0.01922000  0.49771200  0.37356900  1
  C  C26  1  0.16899900  0.68164600  0.71294800  1
  C  C27  1  0.18264700  0.63547800  0.20214700  1
  C  C28  1  0.82794100  0.32056000  0.53841600  1
  C  C29  1  0.98489000  0.49886600  0.87210900  1
  C  C30  1  0.32056000  0.82794100  0.53841600  1
  C  C31  1  0.18354800  0.18354800  0.20338300  1
  C  C32  1  0.83487100  0.83487100  0.53653700  1
  C  C33  1  0.99320100  0.99320100  0.38858200  1
  C  C34  1  0.66725500  0.66725500  0.20097100  1
  C  C35  1  0.49075200  0.49075200  0.37601400  1
  C  C36  1  0.82693900  0.82693900  0.04793700  1
  C  C37  1  0.34859600  0.82823600  0.04845200  1
  C  C38  1  0.49771200  0.01922000  0.37356900  1
  C  C39  1  0.82823600  0.34859600  0.04845200  1
  C  C40  1  0.63547800  0.18264700  0.20214700  1
  C  C41  1  0.33352200  0.33352200  0.04533900  1
