# generated using pymatgen
data_Cu2Ni2C15
_symmetry_space_group_name_H-M   'P 1'
_cell_length_a   8.85215937
_cell_length_b   8.85215937
_cell_length_c   3.94164100
_cell_angle_alpha   90.00000000
_cell_angle_beta   90.00000000
_cell_angle_gamma   125.89175446
_symmetry_Int_Tables_number   1
_chemical_formula_structural   Cu2Ni2C15
_chemical_formula_sum   'Cu2 Ni2 C15'
_cell_volume   250.22350069
_cell_formula_units_Z   1
loop_
 _symmetry_equiv_pos_site_id
 _symmetry_equiv_pos_as_xyz
  1  'x, y, z'
loop_
 _atom_site_type_symbol
 _atom_site_label
 _atom_site_symmetry_multiplicity
 _atom_site_fract_x
 _atom_site_fract_y
 _atom_site_fract_z
 _atom_site_occupancy
  Ni  Ni0  1  0.00000000  0.50000000  0.50000000  1
  Ni  Ni1  1  0.50000000  0.00000000  0.50000000  1
  Cu  Cu2  1  0.22855900  0.22855900  0.50000000  1
  Cu  Cu3  1  0.77144100  0.77144100  0.50000000  1
  C  C4  1  0.62390000  0.37610000  0.00000000  1
  C  C5  1  0.87707600  0.12292400  0.00000000  1
  C  C6  1  0.12292400  0.87707600  0.00000000  1
  C  C7  1  0.37610000  0.62390000  0.00000000  1
  C  C8  1  0.84416900  0.63829500  0.00000000  1
  C  C9  1  0.15583100  0.36170500  0.00000000  1
  C  C10  1  0.25250000  0.74750000  0.00000000  1
  C  C11  1  0.59030400  0.40969600  0.50000000  1
  C  C12  1  0.11602900  0.88397100  0.50000000  1
  C  C13  1  0.36170500  0.15583100  0.00000000  1
  C  C14  1  0.63829500  0.84416900  0.00000000  1
  C  C15  1  0.74750000  0.25250000  0.00000000  1
  C  C16  1  0.88397100  0.11602900  0.50000000  1
  C  C17  1  0.00000000  0.00000000  0.00000000  1
  C  C18  1  0.40969600  0.59030400  0.50000000  1
