# generated using pymatgen
data_CuNi4C5
_symmetry_space_group_name_H-M   'P 1'
_cell_length_a   5.00787200
_cell_length_b   9.27622800
_cell_length_c   18.01066500
_cell_angle_alpha   90.00000000
_cell_angle_beta   90.00000000
_cell_angle_gamma   90.00000000
_symmetry_Int_Tables_number   1
_chemical_formula_structural   CuNi4C5
_chemical_formula_sum   'Cu8 Ni32 C40'
_cell_volume   836.67035805
_cell_formula_units_Z   8
loop_
 _symmetry_equiv_pos_site_id
 _symmetry_equiv_pos_as_xyz
  1  'x, y, z'
loop_
 _atom_site_type_symbol
 _atom_site_label
 _atom_site_symmetry_multiplicity
 _atom_site_fract_x
 _atom_site_fract_y
 _atom_site_fract_z
 _atom_site_occupancy
  Ni  Ni0  1  0.68880700  0.85331800  0.41101300  1
  Ni  Ni1  1  0.81119300  0.85331800  0.91101300  1
  Ni  Ni2  1  0.57578600  0.95570100  0.28669000  1
  Ni  Ni3  1  0.92421400  0.95570100  0.78669000  1
  Ni  Ni4  1  0.99646800  0.82508600  0.31898300  1
  Ni  Ni5  1  0.50353200  0.82508600  0.81898300  1
  Ni  Ni6  1  0.18929100  0.80665100  0.18738100  1
  Ni  Ni7  1  0.31070900  0.80665100  0.68738100  1
  Ni  Ni8  1  0.68929100  0.69334900  0.18738100  1
  Ni  Ni9  1  0.81070900  0.69334900  0.68738100  1
  Ni  Ni10  1  0.49646800  0.67491400  0.31898300  1
  Ni  Ni11  1  0.00353200  0.67491400  0.81898300  1
  Ni  Ni12  1  0.07578600  0.54429900  0.28669000  1
  Ni  Ni13  1  0.42421400  0.54429900  0.78669000  1
  Ni  Ni14  1  0.31119300  0.64668200  0.91101300  1
  Ni  Ni15  1  0.18880700  0.64668200  0.41101300  1
  Ni  Ni16  1  0.68880700  0.35331800  0.08898700  1
  Ni  Ni17  1  0.81119300  0.35331800  0.58898700  1
  Ni  Ni18  1  0.57578600  0.45570100  0.21331000  1
  Ni  Ni19  1  0.92421400  0.45570100  0.71331000  1
  Ni  Ni20  1  0.99646800  0.32508600  0.18101700  1
  Ni  Ni21  1  0.50353200  0.32508600  0.68101700  1
  Ni  Ni22  1  0.18929100  0.30665100  0.31261900  1
  Ni  Ni23  1  0.31070900  0.30665100  0.81261900  1
  Ni  Ni24  1  0.68929100  0.19334900  0.31261900  1
  Ni  Ni25  1  0.81070900  0.19334900  0.81261900  1
  Ni  Ni26  1  0.00353200  0.17491400  0.68101700  1
  Ni  Ni27  1  0.49646800  0.17491400  0.18101700  1
  Ni  Ni28  1  0.42421400  0.04429900  0.71331000  1
  Ni  Ni29  1  0.07578600  0.04429900  0.21331000  1
  Ni  Ni30  1  0.31119300  0.14668200  0.58898700  1
  Ni  Ni31  1  0.18880700  0.14668200  0.08898700  1
  Cu  Cu32  1  0.24117700  0.87671600  0.51523400  1
  Cu  Cu33  1  0.25882300  0.87671600  0.01523400  1
  Cu  Cu34  1  0.74117700  0.62328400  0.51523400  1
  Cu  Cu35  1  0.75882300  0.62328400  0.01523400  1
  Cu  Cu36  1  0.24117700  0.37671600  0.98476600  1
  Cu  Cu37  1  0.25882300  0.37671600  0.48476600  1
  Cu  Cu38  1  0.74117700  0.12328400  0.98476600  1
  Cu  Cu39  1  0.75882300  0.12328400  0.48476600  1
  C  C40  1  0.71838600  0.95094600  0.12474500  1
  C  C41  1  0.78161400  0.95094600  0.62474500  1
  C  C42  1  0.21838600  0.54905400  0.12474500  1
  C  C43  1  0.28161400  0.54905400  0.62474500  1
  C  C44  1  0.71838600  0.45094600  0.37525500  1
  C  C45  1  0.78161400  0.45094600  0.87525500  1
  C  C46  1  0.21838600  0.04905400  0.37525500  1
  C  C47  1  0.28161400  0.04905400  0.87525500  1
  C  C48  1  0.32392100  0.96681200  0.13281000  1
  C  C49  1  0.17607900  0.96681200  0.63281000  1
  C  C50  1  0.75843800  0.87610200  0.01949300  1
  C  C51  1  0.74156200  0.87610200  0.51949300  1
  C  C52  1  0.84514900  0.86815800  0.22088800  1
  C  C53  1  0.65485100  0.86815800  0.72088800  1
  C  C54  1  0.33058700  0.84111100  0.37405900  1
  C  C55  1  0.16941300  0.84111100  0.87405900  1
  C  C56  1  0.83058700  0.65888900  0.37405900  1
  C  C57  1  0.66941300  0.65888900  0.87405900  1
  C  C58  1  0.34514900  0.63184200  0.22088800  1
  C  C59  1  0.15485100  0.63184200  0.72088800  1
  C  C60  1  0.25843800  0.62389800  0.01949300  1
  C  C61  1  0.24156200  0.62389800  0.51949300  1
  C  C62  1  0.82392100  0.53318800  0.13281000  1
  C  C63  1  0.67607900  0.53318800  0.63281000  1
  C  C64  1  0.32392100  0.46681200  0.36719000  1
  C  C65  1  0.17607900  0.46681200  0.86719000  1
  C  C66  1  0.74156200  0.37610200  0.98050700  1
  C  C67  1  0.75843800  0.37610200  0.48050700  1
  C  C68  1  0.84514900  0.36815800  0.27911200  1
  C  C69  1  0.65485100  0.36815800  0.77911200  1
  C  C70  1  0.33058700  0.34111100  0.12594100  1
  C  C71  1  0.16941300  0.34111100  0.62594100  1
  C  C72  1  0.66941300  0.15888900  0.62594100  1
  C  C73  1  0.83058700  0.15888900  0.12594100  1
  C  C74  1  0.34514900  0.13184200  0.27911200  1
  C  C75  1  0.15485100  0.13184200  0.77911200  1
  C  C76  1  0.25843800  0.12389800  0.48050700  1
  C  C77  1  0.24156200  0.12389800  0.98050700  1
  C  C78  1  0.82392100  0.03318800  0.36719000  1
  C  C79  1  0.67607900  0.03318800  0.86719000  1
