# generated using pymatgen
data_Cu2Ni3C23
_symmetry_space_group_name_H-M   'P 1'
_cell_length_a   5.89599300
_cell_length_b   5.92403483
_cell_length_c   9.78220569
_cell_angle_alpha   90.05924104
_cell_angle_beta   90.06495573
_cell_angle_gamma   119.55848681
_symmetry_Int_Tables_number   1
_chemical_formula_structural   Cu2Ni3C23
_chemical_formula_sum   'Cu2 Ni3 C23'
_cell_volume   297.20492589
_cell_formula_units_Z   1
loop_
 _symmetry_equiv_pos_site_id
 _symmetry_equiv_pos_as_xyz
  1  'x, y, z'
loop_
 _atom_site_type_symbol
 _atom_site_label
 _atom_site_symmetry_multiplicity
 _atom_site_fract_x
 _atom_site_fract_y
 _atom_site_fract_z
 _atom_site_occupancy
  C  C0  1  0.33415100  0.66702600  0.10747700  1
  C  C1  1  0.99912900  0.00518100  0.00305100  1
  C  C2  1  0.99681200  0.99348200  0.50143900  1
  C  C3  1  0.66781200  0.33422800  0.60637000  1
  C  C4  1  0.18150500  0.34034600  0.78620400  1
  C  C5  1  0.17192900  0.82939400  0.77851500  1
  C  C6  1  0.34142100  0.17936000  0.28211700  1
  Ni  Ni7  1  0.66774600  0.83460700  0.79001300  1
  Ni  Ni8  1  0.84156700  0.66071500  0.28641700  1
  Ni  Ni9  1  0.82649300  0.16091500  0.28741000  1
  Cu  Cu10  1  0.33085300  0.66844000  0.50919600  1
  Cu  Cu11  1  0.66595600  0.33301100  0.00463700  1
  C  C12  1  0.14365800  0.31230500  0.39209500  1
  C  C13  1  0.03388300  0.52300700  0.67162800  1
  C  C14  1  0.32934500  0.66920200  0.89609400  1
  C  C15  1  0.00162900  0.00224000  0.68572100  1
  C  C16  1  0.00083800  0.99738100  0.18629400  1
  C  C17  1  0.16442500  0.84244200  0.39441600  1
  C  C18  1  0.47628100  0.51234600  0.66788100  1
  C  C19  1  0.49055900  0.96499500  0.67377000  1
  C  C20  1  0.31693500  0.15981200  0.89480800  1
  C  C21  1  0.68245600  0.82781000  0.39010800  1
  C  C22  1  0.52977200  0.03480400  0.17426800  1
  C  C23  1  0.50588700  0.47178800  0.16794500  1
  C  C24  1  0.66229100  0.33072300  0.39695300  1
  C  C25  1  0.84304800  0.16436900  0.89396600  1
  C  C26  1  0.96347500  0.49287400  0.17123600  1
  C  C27  1  0.83014600  0.68690400  0.89213200  1
