# generated using pymatgen
data_Cu34Ni3C40
_symmetry_space_group_name_H-M   'P 1'
_cell_length_a   5.96249833
_cell_length_b   5.96249833
_cell_length_c   21.47797525
_cell_angle_alpha   97.97869945
_cell_angle_beta   97.97869945
_cell_angle_gamma   90.00000000
_symmetry_Int_Tables_number   1
_chemical_formula_structural   Cu34Ni3C40
_chemical_formula_sum   'Cu34 Ni3 C40'
_cell_volume   748.71567956
_cell_formula_units_Z   1
loop_
 _symmetry_equiv_pos_site_id
 _symmetry_equiv_pos_as_xyz
  1  'x, y, z'
loop_
 _atom_site_type_symbol
 _atom_site_label
 _atom_site_symmetry_multiplicity
 _atom_site_fract_x
 _atom_site_fract_y
 _atom_site_fract_z
 _atom_site_occupancy
  Ni  Ni0  1  0.59966500  0.59966500  0.19932900  1
  Ni  Ni1  1  0.20000000  0.20000000  0.40000000  1
  Ni  Ni2  1  0.80033500  0.80033500  0.60067100  1
  Cu  Cu3  1  0.50017700  0.00017700  0.00035400  1
  Cu  Cu4  1  0.99932400  0.99932400  0.99864800  1
  Cu  Cu5  1  0.00017700  0.50017700  0.00035400  1
  Cu  Cu6  1  0.49993600  0.49993600  0.99987100  1
  Cu  Cu7  1  0.80718300  0.80718300  0.10106600  1
  Cu  Cu8  1  0.29388400  0.80718300  0.10106600  1
  Cu  Cu9  1  0.80718300  0.29388400  0.10106600  1
  Cu  Cu10  1  0.29388400  0.29388400  0.10106600  1
  Cu  Cu11  1  0.10020700  0.60020700  0.20041400  1
  Cu  Cu12  1  0.60020700  0.10020700  0.20041400  1
  Cu  Cu13  1  0.39976900  0.39976900  0.29993300  1
  Cu  Cu14  1  0.90016500  0.39976900  0.29993300  1
  Cu  Cu15  1  0.90016500  0.90016500  0.29993300  1
  Cu  Cu16  1  0.39976900  0.90016500  0.29993300  1
  Cu  Cu17  1  0.70000000  0.20000000  0.40000000  1
  Cu  Cu18  1  0.20000000  0.70000000  0.40000000  1
  Cu  Cu19  1  0.49983500  0.49983500  0.50006700  1
  Cu  Cu20  1  0.00023100  0.00023100  0.50006700  1
  Cu  Cu21  1  0.00023100  0.49983500  0.50006700  1
  Cu  Cu22  1  0.49983500  0.00023100  0.50006700  1
  Cu  Cu23  1  0.29979300  0.79979300  0.59958600  1
  Cu  Cu24  1  0.79979300  0.29979300  0.59958600  1
  Cu  Cu25  1  0.59281700  0.10611600  0.69893400  1
  Cu  Cu26  1  0.59281700  0.59281700  0.69893400  1
  Cu  Cu27  1  0.10611600  0.10611600  0.69893400  1
  Cu  Cu28  1  0.10611600  0.59281700  0.69893400  1
  Cu  Cu29  1  0.39982300  0.89982300  0.79964600  1
  Cu  Cu30  1  0.90006400  0.90006400  0.80012900  1
  Cu  Cu31  1  0.40067600  0.40067600  0.80135200  1
  Cu  Cu32  1  0.89982300  0.39982300  0.79964600  1
  Cu  Cu33  1  0.70000000  0.20000000  0.90000000  1
  Cu  Cu34  1  0.70000000  0.70000000  0.90000000  1
  Cu  Cu35  1  0.20000000  0.20000000  0.90000000  1
  Cu  Cu36  1  0.20000000  0.70000000  0.90000000  1
  C  C37  1  0.74755500  0.25270800  0.00026300  1
  C  C38  1  0.25270800  0.25270800  0.00026300  1
  C  C39  1  0.25270800  0.74755500  0.00026300  1
  C  C40  1  0.74755500  0.74755500  0.00026300  1
  C  C41  1  0.04684100  0.04684100  0.09368300  1
  C  C42  1  0.55044900  0.05044900  0.10089800  1
  C  C43  1  0.05044900  0.55044900  0.10089800  1
  C  C44  1  0.55262000  0.55262000  0.10523900  1
  C  C45  1  0.37095300  0.82961500  0.20056800  1
  C  C46  1  0.82961500  0.82961500  0.20056800  1
  C  C47  1  0.82961500  0.37095300  0.20056800  1
  C  C48  1  0.37095300  0.37095300  0.20056800  1
  C  C49  1  0.64520300  0.64520300  0.29040600  1
  C  C50  1  0.15020500  0.65020500  0.30041000  1
  C  C51  1  0.65020500  0.15020500  0.30041000  1
  C  C52  1  0.15416000  0.15416000  0.30832100  1
  C  C53  1  0.97045100  0.42954900  0.40000000  1
  C  C54  1  0.42954900  0.42954900  0.40000000  1
  C  C55  1  0.42954900  0.97045100  0.40000000  1
  C  C56  1  0.97045100  0.97045100  0.40000000  1
  C  C57  1  0.24584000  0.24584000  0.49167900  1
  C  C58  1  0.74979500  0.24979500  0.49959000  1
  C  C59  1  0.24979500  0.74979500  0.49959000  1
  C  C60  1  0.75479700  0.75479700  0.50959400  1
  C  C61  1  0.57038500  0.02904700  0.59943200  1
  C  C62  1  0.02904700  0.02904700  0.59943200  1
  C  C63  1  0.57038500  0.57038500  0.59943200  1
  C  C64  1  0.02904700  0.57038500  0.59943200  1
  C  C65  1  0.84738000  0.84738000  0.69476100  1
  C  C66  1  0.34955100  0.84955100  0.69910200  1
  C  C67  1  0.84955100  0.34955100  0.69910200  1
  C  C68  1  0.35315900  0.35315900  0.70631700  1
  C  C69  1  0.14729200  0.65244500  0.79973700  1
  C  C70  1  0.65244500  0.14729200  0.79973700  1
  C  C71  1  0.14729200  0.14729200  0.79973700  1
  C  C72  1  0.65244500  0.65244500  0.79973700  1
  C  C73  1  0.45008000  0.45008000  0.90016100  1
  C  C74  1  0.95000000  0.45000000  0.90000000  1
  C  C75  1  0.45000000  0.95000000  0.90000000  1
  C  C76  1  0.94992000  0.94992000  0.89983900  1
