# generated using pymatgen
data_Cu25Ni11C48
_symmetry_space_group_name_H-M   'P 1'
_cell_length_a   11.26475303
_cell_length_b   11.26475303
_cell_length_c   11.26707163
_cell_angle_alpha   80.40111797
_cell_angle_beta   80.40111797
_cell_angle_gamma   119.99043259
_symmetry_Int_Tables_number   1
_chemical_formula_structural   Cu25Ni11C48
_chemical_formula_sum   'Cu25 Ni11 C48'
_cell_volume   1167.43175412
_cell_formula_units_Z   1
loop_
 _symmetry_equiv_pos_site_id
 _symmetry_equiv_pos_as_xyz
  1  'x, y, z'
loop_
 _atom_site_type_symbol
 _atom_site_label
 _atom_site_symmetry_multiplicity
 _atom_site_fract_x
 _atom_site_fract_y
 _atom_site_fract_z
 _atom_site_occupancy
  Ni  Ni0  1  0.16655900  0.50017200  0.50030100  1
  Ni  Ni1  1  0.54156200  0.87486700  0.37525800  1
  Ni  Ni2  1  0.04171700  0.37521300  0.87479900  1
  Ni  Ni3  1  0.83308400  0.83308400  0.50026600  1
  Ni  Ni4  1  0.33374400  0.33374400  0.99960600  1
  Ni  Ni5  1  0.50017200  0.16655900  0.50030100  1
  Ni  Ni6  1  0.00014300  0.66668100  0.99962800  1
  Ni  Ni7  1  0.70816600  0.70816600  0.87473900  1
  Ni  Ni8  1  0.37521300  0.04171700  0.87479900  1
  Ni  Ni9  1  0.87486700  0.54156200  0.37525800  1
  Ni  Ni10  1  0.66668100  0.00014300  0.99962800  1
  Cu  Cu11  1  0.10290000  0.93565500  0.18581600  1
  Cu  Cu12  1  0.10418100  0.43992500  0.18585800  1
  Cu  Cu13  1  0.20836100  0.20836100  0.37503800  1
  Cu  Cu14  1  0.43861300  0.60718900  0.18578300  1
  Cu  Cu15  1  0.10343500  0.93487800  0.68950700  1
  Cu  Cu16  1  0.27074400  0.77091200  0.18751100  1
  Cu  Cu17  1  0.60718900  0.43861300  0.18578300  1
  Cu  Cu18  1  0.52270800  0.52270800  0.43881300  1
  Cu  Cu19  1  0.02084100  0.02084100  0.93738900  1
  Cu  Cu20  1  0.27202600  0.27202600  0.68950800  1
  Cu  Cu21  1  0.77062600  0.77062600  0.18754800  1
  Cu  Cu22  1  0.18711900  0.85135500  0.43881900  1
  Cu  Cu23  1  0.43992500  0.10418100  0.18585800  1
  Cu  Cu24  1  0.60446300  0.43741900  0.68767800  1
  Cu  Cu25  1  0.43741900  0.60446300  0.68767800  1
  Cu  Cu26  1  0.27104400  0.77069500  0.68772300  1
  Cu  Cu27  1  0.93565500  0.10290000  0.18581600  1
  Cu  Cu28  1  0.77091200  0.27074400  0.18751100  1
  Cu  Cu29  1  0.60369100  0.93706600  0.68773400  1
  Cu  Cu30  1  0.35427600  0.68769800  0.93712400  1
  Cu  Cu31  1  0.85135500  0.18711900  0.43881900  1
  Cu  Cu32  1  0.93487800  0.10343500  0.68950700  1
  Cu  Cu33  1  0.77069500  0.27104400  0.68772300  1
  Cu  Cu34  1  0.68769800  0.35427600  0.93712400  1
  Cu  Cu35  1  0.93706600  0.60369100  0.68773400  1
  C  C36  1  0.13236800  0.13236800  0.06760800  1
  C  C37  1  0.23055300  0.05244100  0.30820000  1
  C  C38  1  0.05244100  0.23055300  0.30820000  1
  C  C39  1  0.15659500  0.64548600  0.06649800  1
  C  C40  1  0.31076300  0.48925000  0.06783600  1
  C  C41  1  0.48925000  0.31076300  0.06783600  1
  C  C42  1  0.46574300  0.80009900  0.06643600  1
  C  C43  1  0.23370200  0.56637500  0.29902300  1
  C  C44  1  0.40874600  0.40874600  0.30818000  1
  C  C45  1  0.14155400  0.14155400  0.57539400  1
  C  C46  1  0.64084800  0.64084800  0.07622000  1
  C  C47  1  0.07598700  0.74306200  0.30813700  1
  C  C48  1  0.30790400  0.97514100  0.07625000  1
  C  C49  1  0.21866500  0.06416000  0.80755400  1
  C  C50  1  0.06416000  0.21866500  0.80755400  1
  C  C51  1  0.71815100  0.56356500  0.30812200  1
  C  C52  1  0.56356500  0.71815100  0.30812200  1
  C  C53  1  0.38521800  0.89764900  0.30813300  1
  C  C54  1  0.82234900  0.97689700  0.06629900  1
  C  C55  1  0.97689700  0.82234900  0.06629900  1
  C  C56  1  0.47702400  0.32291000  0.56667600  1
  C  C57  1  0.64548600  0.15659500  0.06649800  1
  C  C58  1  0.32291000  0.47702400  0.56667600  1
  C  C59  1  0.14412700  0.65543100  0.56771500  1
  C  C60  1  0.29854200  0.96602000  0.56662900  1
  C  C61  1  0.90101500  0.90101500  0.29889500  1
  C  C62  1  0.40106000  0.40106000  0.79947700  1
  C  C63  1  0.56637500  0.23370200  0.29902300  1
  C  C64  1  0.63286100  0.63286100  0.56767300  1
  C  C65  1  0.80009900  0.46574300  0.06643600  1
  C  C66  1  0.06687400  0.73268100  0.79940500  1
  C  C67  1  0.97514100  0.30790400  0.07625000  1
  C  C68  1  0.24253100  0.57566200  0.80814900  1
  C  C69  1  0.74306200  0.07598700  0.30813700  1
  C  C70  1  0.47477900  0.80813500  0.57571100  1
  C  C71  1  0.73076100  0.55216400  0.80814500  1
  C  C72  1  0.89764900  0.38521800  0.30813300  1
  C  C73  1  0.39712300  0.88546500  0.80798200  1
  C  C74  1  0.55216400  0.73076100  0.80814500  1
  C  C75  1  0.99035900  0.81187200  0.56664700  1
  C  C76  1  0.65543100  0.14412700  0.56771500  1
  C  C77  1  0.81187200  0.99035900  0.56664700  1
  C  C78  1  0.73268100  0.06687400  0.79940500  1
  C  C79  1  0.96602000  0.29854200  0.56662900  1
  C  C80  1  0.90957600  0.90957600  0.80746800  1
  C  C81  1  0.80813500  0.47477900  0.57571100  1
  C  C82  1  0.57566200  0.24253100  0.80814900  1
  C  C83  1  0.88546500  0.39712300  0.80798200  1
