# generated using pymatgen
data_Cu4NiC24
_symmetry_space_group_name_H-M   'P 1'
_cell_length_a   9.98206945
_cell_length_b   9.98206945
_cell_length_c   9.98206945
_cell_angle_alpha   60.00000000
_cell_angle_beta   60.00000000
_cell_angle_gamma   60.00000000
_symmetry_Int_Tables_number   1
_chemical_formula_structural   Cu4NiC24
_chemical_formula_sum   'Cu8 Ni2 C48'
_cell_volume   703.30995369
_cell_formula_units_Z   2
loop_
 _symmetry_equiv_pos_site_id
 _symmetry_equiv_pos_as_xyz
  1  'x, y, z'
loop_
 _atom_site_type_symbol
 _atom_site_label
 _atom_site_symmetry_multiplicity
 _atom_site_fract_x
 _atom_site_fract_y
 _atom_site_fract_z
 _atom_site_occupancy
  C  C0  1  0.54119200  0.95880800  0.54119200  1
  C  C1  1  0.54119200  0.54119200  0.95880800  1
  C  C2  1  0.95880800  0.54119200  0.54119200  1
  C  C3  1  0.29119200  0.70880800  0.29119200  1
  C  C4  1  0.54119200  0.95880800  0.95880800  1
  C  C5  1  0.95880800  0.95880800  0.54119200  1
  C  C6  1  0.70880800  0.29119200  0.29119200  1
  C  C7  1  0.29119200  0.29119200  0.70880800  1
  C  C8  1  0.95880800  0.54119200  0.95880800  1
  C  C9  1  0.70880800  0.70880800  0.29119200  1
  C  C10  1  0.29119200  0.70880800  0.70880800  1
  C  C11  1  0.70880800  0.29119200  0.70880800  1
  C  C12  1  0.12500000  0.12500000  0.62500000  1
  C  C13  1  0.62500000  0.12500000  0.12500000  1
  C  C14  1  0.12500000  0.62500000  0.12500000  1
  C  C15  1  0.12500000  0.12500000  0.12500000  1
  Ni  Ni16  1  0.50000000  0.50000000  0.50000000  1
  Ni  Ni17  1  0.75000000  0.75000000  0.75000000  1
  Cu  Cu18  1  0.33974400  0.33974400  0.33974400  1
  Cu  Cu19  1  0.26923200  0.91025600  0.91025600  1
  Cu  Cu20  1  0.91025600  0.91025600  0.26923200  1
  Cu  Cu21  1  0.91025600  0.26923200  0.91025600  1
  Cu  Cu22  1  0.33974400  0.98076800  0.33974400  1
  Cu  Cu23  1  0.98076800  0.33974400  0.33974400  1
  Cu  Cu24  1  0.33974400  0.33974400  0.98076800  1
  Cu  Cu25  1  0.91025600  0.91025600  0.91025600  1
  C  C26  1  0.48238600  0.22618500  0.31329400  1
  C  C27  1  0.22618500  0.31329400  0.48238600  1
  C  C28  1  0.31329400  0.48238600  0.22618500  1
  C  C29  1  0.27186500  0.76761400  0.93670600  1
  C  C30  1  0.57052500  0.28842500  0.57052500  1
  C  C31  1  0.02381500  0.76761400  0.27186500  1
  C  C32  1  0.76761400  0.93670600  0.27186500  1
  C  C33  1  0.28842500  0.57052500  0.57052500  1
  C  C34  1  0.57052500  0.57052500  0.28842500  1
  C  C35  1  0.27186500  0.02381500  0.76761400  1
  C  C36  1  0.27186500  0.93670600  0.02381500  1
  C  C37  1  0.57052500  0.57052500  0.57052500  1
  C  C38  1  0.93670600  0.27186500  0.76761400  1
  C  C39  1  0.93670600  0.02381500  0.27186500  1
  C  C40  1  0.76761400  0.27186500  0.02381500  1
  C  C41  1  0.22618500  0.97813500  0.31329400  1
  C  C42  1  0.02381500  0.27186500  0.93670600  1
  C  C43  1  0.48238600  0.97813500  0.22618500  1
  C  C44  1  0.31329400  0.22618500  0.97813500  1
  C  C45  1  0.31329400  0.97813500  0.48238600  1
  C  C46  1  0.67947500  0.67947500  0.67947500  1
  C  C47  1  0.97813500  0.31329400  0.22618500  1
  C  C48  1  0.97813500  0.22618500  0.48238600  1
  C  C49  1  0.96157500  0.67947500  0.67947500  1
  C  C50  1  0.67947500  0.67947500  0.96157500  1
  C  C51  1  0.48238600  0.31329400  0.97813500  1
  C  C52  1  0.22618500  0.48238600  0.97813500  1
  C  C53  1  0.67947500  0.96157500  0.67947500  1
  C  C54  1  0.97813500  0.48238600  0.31329400  1
  C  C55  1  0.93670600  0.76761400  0.02381500  1
  C  C56  1  0.02381500  0.93670600  0.76761400  1
  C  C57  1  0.76761400  0.02381500  0.93670600  1
