# generated using pymatgen
data_Cu5NiC3
_symmetry_space_group_name_H-M   'P 1'
_cell_length_a   10.39453694
_cell_length_b   10.44604690
_cell_length_c   11.05273641
_cell_angle_alpha   118.44633143
_cell_angle_beta   117.81700522
_cell_angle_gamma   60.42895136
_symmetry_Int_Tables_number   1
_chemical_formula_structural   Cu5NiC3
_chemical_formula_sum   'Cu40 Ni8 C24'
_cell_volume   874.68658172
_cell_formula_units_Z   8
loop_
 _symmetry_equiv_pos_site_id
 _symmetry_equiv_pos_as_xyz
  1  'x, y, z'
loop_
 _atom_site_type_symbol
 _atom_site_label
 _atom_site_symmetry_multiplicity
 _atom_site_fract_x
 _atom_site_fract_y
 _atom_site_fract_z
 _atom_site_occupancy
  C  C0  1  0.11124600  0.11698100  0.83144500  1
  C  C1  1  0.14978800  0.13499600  0.42729500  1
  C  C2  1  0.14544200  0.62752200  0.41450100  1
  C  C3  1  0.60970400  0.11641400  0.83094000  1
  C  C4  1  0.64757600  0.13089400  0.41828200  1
  C  C5  1  0.61205700  0.61935100  0.83493400  1
  C  C6  1  0.35224300  0.85775100  0.07430200  1
  C  C7  1  0.65348600  0.63234900  0.42567300  1
  C  C8  1  0.00989100  0.49235200  0.99534500  1
  C  C9  1  0.23982900  0.26147600  0.76259500  1
  C  C10  1  0.00790500  0.99160500  0.99737000  1
  C  C11  1  0.23735500  0.75227600  0.75503000  1
  C  C12  1  0.25636200  0.26013500  0.25470500  1
  C  C13  1  0.51113400  0.48586100  0.99482000  1
  C  C14  1  0.74193600  0.25598500  0.76062400  1
  C  C15  1  0.48735200  0.49464200  0.48912200  1
  C  C16  1  0.25315200  0.75704700  0.25254200  1
  C  C17  1  0.51192700  0.99285100  0.99428100  1
  C  C18  1  0.74644100  0.75321700  0.76198900  1
  C  C19  1  0.48672000  0.99306400  0.49035200  1
  C  C20  1  0.75584500  0.25892900  0.25360600  1
  C  C21  1  0.98692300  0.49378300  0.49047900  1
  C  C22  1  0.75533000  0.75690000  0.25320200  1
  C  C23  1  0.98547400  0.99415900  0.48785300  1
  Ni  Ni24  1  0.12281100  0.31609100  0.87585900  1
  Ni  Ni25  1  0.13487400  0.83267900  0.88683100  1
  Ni  Ni26  1  0.31722500  0.43193200  0.37388900  1
  Ni  Ni27  1  0.62564800  0.31467600  0.87557200  1
  Ni  Ni28  1  0.31676800  0.93061100  0.37264000  1
  Ni  Ni29  1  0.62345700  0.81800900  0.87529800  1
  Ni  Ni30  1  0.81641400  0.43146400  0.37415600  1
  Ni  Ni31  1  0.81355100  0.93219500  0.37277200  1
  Cu  Cu32  1  0.16810200  0.07352000  0.62290600  1
  Cu  Cu33  1  0.07307200  0.36547200  0.61491900  1
  Cu  Cu34  1  0.44347000  0.12900300  0.87233300  1
  Cu  Cu35  1  0.13157200  0.29856800  0.37229900  1
  Cu  Cu36  1  0.31796500  0.44058800  0.87628500  1
  Cu  Cu37  1  0.16986400  0.57263300  0.61135000  1
  Cu  Cu38  1  0.36517700  0.17850400  0.62344700  1
  Cu  Cu39  1  0.19774800  0.06156800  0.13207400  1
  Cu  Cu40  1  0.06628600  0.37748000  0.12436800  1
  Cu  Cu41  1  0.06766000  0.88277100  0.62733600  1
  Cu  Cu42  1  0.45018400  0.11979300  0.37632300  1
  Cu  Cu43  1  0.44257700  0.63425700  0.87971400  1
  Cu  Cu44  1  0.13165100  0.79916800  0.37699400  1
  Cu  Cu45  1  0.31055800  0.94438300  0.87456300  1
  Cu  Cu46  1  0.66900600  0.07121600  0.62251900  1
  Cu  Cu47  1  0.36640600  0.67903400  0.62553400  1
  Cu  Cu48  1  0.18581500  0.57376400  0.13219200  1
  Cu  Cu49  1  0.37307300  0.17330400  0.11813900  1
  Cu  Cu50  1  0.06520400  0.87914100  0.12738900  1
  Cu  Cu51  1  0.57240600  0.37632700  0.62555600  1
  Cu  Cu52  1  0.44876200  0.62208700  0.37563400  1
  Cu  Cu53  1  0.94282900  0.13155200  0.87788000  1
  Cu  Cu54  1  0.63255900  0.29977700  0.37616000  1
  Cu  Cu55  1  0.80397900  0.44843500  0.87315200  1
  Cu  Cu56  1  0.66858800  0.57114500  0.62331500  1
  Cu  Cu57  1  0.86458200  0.17886000  0.62406100  1
  Cu  Cu58  1  0.37589400  0.68882000  0.11982200  1
  Cu  Cu59  1  0.68065100  0.07305600  0.13192700  1
  Cu  Cu60  1  0.56500800  0.37576800  0.12795200  1
  Cu  Cu61  1  0.57334000  0.87708200  0.62819900  1
  Cu  Cu62  1  0.94994900  0.11919600  0.37515500  1
  Cu  Cu63  1  0.93487700  0.62799000  0.87728900  1
  Cu  Cu64  1  0.62896900  0.79994900  0.37281000  1
  Cu  Cu65  1  0.80507200  0.94849400  0.87164800  1
  Cu  Cu66  1  0.85293000  0.68046600  0.61362800  1
  Cu  Cu67  1  0.67847100  0.57418800  0.13025300  1
  Cu  Cu68  1  0.87466300  0.17674600  0.11984700  1
  Cu  Cu69  1  0.55315400  0.87323500  0.12154700  1
  Cu  Cu70  1  0.94749700  0.62184200  0.37618700  1
  Cu  Cu71  1  0.87226400  0.67622000  0.11999400  1
