# generated using pymatgen
data_Cu5NiC6
_symmetry_space_group_name_H-M   'P 1'
_cell_length_a   7.43286800
_cell_length_b   10.86550000
_cell_length_c   18.44373808
_cell_angle_alpha   67.14722500
_cell_angle_beta   90.00000000
_cell_angle_gamma   90.00000000
_symmetry_Int_Tables_number   1
_chemical_formula_structural   Cu5NiC6
_chemical_formula_sum   'Cu20 Ni4 C24'
_cell_volume   1372.62898515
_cell_formula_units_Z   4
loop_
 _symmetry_equiv_pos_site_id
 _symmetry_equiv_pos_as_xyz
  1  'x, y, z'
loop_
 _atom_site_type_symbol
 _atom_site_label
 _atom_site_symmetry_multiplicity
 _atom_site_fract_x
 _atom_site_fract_y
 _atom_site_fract_z
 _atom_site_occupancy
  C  C0  1  0.86460100  0.67510400  0.90253100  1
  C  C1  1  0.63539900  0.67510400  0.40253100  1
  C  C2  1  0.13539900  0.32489600  0.09746900  1
  C  C3  1  0.36460100  0.32489600  0.59746900  1
  C  C4  1  0.62614000  0.50205600  0.15598100  1
  C  C5  1  0.87386000  0.50205600  0.65598100  1
  C  C6  1  0.37386000  0.49794400  0.84401900  1
  C  C7  1  0.12614000  0.49794400  0.34401900  1
  C  C8  1  0.82398200  0.01931300  0.83867000  1
  C  C9  1  0.67601800  0.01931300  0.33867000  1
  C  C10  1  0.17601800  0.98068700  0.16133000  1
  C  C11  1  0.32398200  0.98068700  0.66133000  1
  C  C12  1  0.62806700  0.20311200  0.79833100  1
  C  C13  1  0.87193300  0.20311200  0.29833100  1
  C  C14  1  0.37193300  0.79688800  0.20166900  1
  C  C15  1  0.12806700  0.79688800  0.70166900  1
  C  C16  1  0.52854500  0.01217800  0.88215400  1
  C  C17  1  0.97145500  0.01217800  0.38215400  1
  C  C18  1  0.47145500  0.98782200  0.11784600  1
  C  C19  1  0.02854500  0.98782200  0.61784600  1
  C  C20  1  0.71546300  0.27801600  0.42904800  1
  C  C21  1  0.78453700  0.27801600  0.92904800  1
  C  C22  1  0.28453700  0.72198400  0.57095200  1
  C  C23  1  0.21546300  0.72198400  0.07095200  1
  Ni  Ni24  1  0.60749100  0.10419600  0.83669100  1
  Ni  Ni25  1  0.89250900  0.10419600  0.33669100  1
  Ni  Ni26  1  0.39250900  0.89580400  0.16330900  1
  Ni  Ni27  1  0.10749100  0.89580400  0.66330900  1
  Cu  Cu28  1  0.56338100  0.40170000  0.73607900  1
  Cu  Cu29  1  0.93661900  0.40170000  0.23607900  1
  Cu  Cu30  1  0.43661900  0.59830000  0.26392100  1
  Cu  Cu31  1  0.06338100  0.59830000  0.76392100  1
  Cu  Cu32  1  0.51735100  0.96468000  0.34013800  1
  Cu  Cu33  1  0.98264900  0.96468000  0.84013800  1
  Cu  Cu34  1  0.48264900  0.03532000  0.65986200  1
  Cu  Cu35  1  0.01735100  0.03532000  0.15986200  1
  Cu  Cu36  1  0.78927900  0.36454400  0.98135600  1
  Cu  Cu37  1  0.71072100  0.36454400  0.48135600  1
  Cu  Cu38  1  0.21072100  0.63545600  0.01864400  1
  Cu  Cu39  1  0.28927900  0.63545600  0.51864400  1
  Cu  Cu40  1  0.71809100  0.71472600  0.06276100  1
  Cu  Cu41  1  0.78190900  0.71472600  0.56276100  1
  Cu  Cu42  1  0.28190900  0.28527400  0.93723900  1
  Cu  Cu43  1  0.21809100  0.28527400  0.43723900  1
  Cu  Cu44  1  0.97346300  0.70854300  0.30884700  1
  Cu  Cu45  1  0.52653700  0.70854300  0.80884700  1
  Cu  Cu46  1  0.02653700  0.29145700  0.69115300  1
  Cu  Cu47  1  0.47346300  0.29145700  0.19115300  1
