# generated using pymatgen
data_CuNi11C60
_symmetry_space_group_name_H-M   'P 1'
_cell_length_a   13.47767478
_cell_length_b   13.47767478
_cell_length_c   9.81253174
_cell_angle_alpha   88.16124186
_cell_angle_beta   88.16124186
_cell_angle_gamma   158.17725257
_symmetry_Int_Tables_number   1
_chemical_formula_structural   CuNi11C60
_chemical_formula_sum   'Cu1 Ni11 C60'
_cell_volume   653.00305347
_cell_formula_units_Z   1
loop_
 _symmetry_equiv_pos_site_id
 _symmetry_equiv_pos_as_xyz
  1  'x, y, z'
loop_
 _atom_site_type_symbol
 _atom_site_label
 _atom_site_symmetry_multiplicity
 _atom_site_fract_x
 _atom_site_fract_y
 _atom_site_fract_z
 _atom_site_occupancy
  C  C0  1  0.72580900  0.78467000  0.24982700  1
  C  C1  1  0.66789000  0.83398000  0.74940000  1
  C  C2  1  0.21533000  0.27419100  0.75017300  1
  C  C3  1  0.41692100  0.58307900  0.50000000  1
  C  C4  1  0.61025800  0.88475600  0.25012300  1
  C  C5  1  0.16602000  0.33211000  0.25060000  1
  C  C6  1  0.91666600  0.08333400  0.00000000  1
  C  C7  1  0.11524400  0.38974200  0.74987700  1
  C  C8  1  0.55242900  0.94453500  0.75039400  1
  C  C9  1  0.05546500  0.44757100  0.24960600  1
  C  C10  1  0.49999000  0.99993300  0.24999700  1
  C  C11  1  0.24999000  0.75001000  0.00000000  1
  C  C12  1  0.00006700  0.50001000  0.75000300  1
  C  C13  1  0.75011400  0.24988600  0.50000000  1
  C  C14  1  0.94449700  0.55224200  0.25048700  1
  C  C15  1  0.44775800  0.05550300  0.74951300  1
  C  C16  1  0.88549100  0.61106900  0.75051000  1
  C  C17  1  0.08272700  0.91727300  0.50000000  1
  C  C18  1  0.38893100  0.11450900  0.24949000  1
  C  C19  1  0.83373900  0.66689800  0.24980900  1
  C  C20  1  0.58330400  0.41669600  0.00000000  1
  C  C21  1  0.78333900  0.72493100  0.74855400  1
  C  C22  1  0.33310200  0.16626100  0.75019100  1
  C  C23  1  0.27506900  0.21666100  0.25144600  1
  Ni  Ni24  1  0.47259500  0.52740500  0.00000000  1
  Ni  Ni25  1  0.36101200  0.63898800  0.00000000  1
  Ni  Ni26  1  0.30589200  0.69410800  0.50000000  1
  Ni  Ni27  1  0.86118800  0.13881200  0.50000000  1
  Ni  Ni28  1  0.80589700  0.19410300  0.00000000  1
  Ni  Ni29  1  0.19411000  0.80589000  0.50000000  1
  Ni  Ni30  1  0.13919800  0.86080200  0.00000000  1
  Ni  Ni31  1  0.69427200  0.30572800  0.00000000  1
  Ni  Ni32  1  0.63899600  0.36100400  0.50000000  1
  Ni  Ni33  1  0.02757300  0.97242700  0.00000000  1
  Ni  Ni34  1  0.52735600  0.47264400  0.50000000  1
  Cu  Cu35  1  0.97181700  0.02818300  0.50000000  1
  C  C36  1  0.83555100  0.88350400  0.88670100  1
  C  C37  1  0.62452700  0.67332300  0.61164700  1
  C  C38  1  0.11649600  0.16444900  0.11329900  1
  C  C39  1  0.81119500  0.97689600  0.38544900  1
  C  C40  1  0.32667700  0.37547300  0.38835300  1
  C  C41  1  0.52131900  0.68791000  0.11567100  1
  C  C42  1  0.31209000  0.47868100  0.88432900  1
  C  C43  1  0.49785600  0.78290900  0.61367300  1
  C  C44  1  0.02310400  0.18880500  0.61455100  1
  C  C45  1  0.44983000  0.83110100  0.11339300  1
  C  C46  1  0.99788000  0.28310700  0.11341000  1
  C  C47  1  0.21709100  0.50214400  0.38632700  1
  C  C48  1  0.16889900  0.55017000  0.88660700  1
  C  C49  1  0.71689300  0.00212000  0.88659000  1
  C  C50  1  0.95050700  0.33109600  0.61349500  1
  C  C51  1  0.35490000  0.85476700  0.61542000  1
  C  C52  1  0.14523300  0.64510000  0.38458000  1
  C  C53  1  0.66890400  0.04949300  0.38650500  1
  C  C54  1  0.33135000  0.94997000  0.11336400  1
  C  C55  1  0.85471900  0.35464900  0.11555700  1
  C  C56  1  0.64535100  0.14528100  0.88444300  1
  C  C57  1  0.05003000  0.66865000  0.88663600  1
  C  C58  1  0.28329200  0.99794900  0.61328900  1
  C  C59  1  0.83106400  0.44982200  0.61342400  1
  C  C60  1  0.78321500  0.49781600  0.11345800  1
  C  C61  1  0.00205100  0.71670800  0.38671100  1
  C  C62  1  0.55017800  0.16893600  0.38657600  1
  C  C63  1  0.97866000  0.81193300  0.88446500  1
  C  C64  1  0.50218400  0.21678500  0.88654200  1
  C  C65  1  0.68578500  0.51959100  0.61600800  1
  C  C66  1  0.48040900  0.31421500  0.38399200  1
  C  C67  1  0.66463600  0.61673700  0.11362300  1
  C  C68  1  0.18806700  0.02134000  0.11553500  1
  C  C69  1  0.88269400  0.83514800  0.38735800  1
  C  C70  1  0.38326300  0.33536400  0.88637700  1
  C  C71  1  0.16485200  0.11730600  0.61264200  1
