# generated using pymatgen
data_Cu18Ni4C7
_symmetry_space_group_name_H-M   'P 1'
_cell_length_a   7.40598300
_cell_length_b   10.22492600
_cell_length_c   20.77426700
_cell_angle_alpha   90.00000000
_cell_angle_beta   90.00000000
_cell_angle_gamma   90.00000000
_symmetry_Int_Tables_number   1
_chemical_formula_structural   Cu18Ni4C7
_chemical_formula_sum   'Cu72 Ni16 C28'
_cell_volume   1573.14441756
_cell_formula_units_Z   4
loop_
 _symmetry_equiv_pos_site_id
 _symmetry_equiv_pos_as_xyz
  1  'x, y, z'
loop_
 _atom_site_type_symbol
 _atom_site_label
 _atom_site_symmetry_multiplicity
 _atom_site_fract_x
 _atom_site_fract_y
 _atom_site_fract_z
 _atom_site_occupancy
  C  C0  1  0.25000000  0.15565300  0.25000000  1
  C  C1  1  0.25000000  0.65565300  0.25000000  1
  C  C2  1  0.75000000  0.34434700  0.75000000  1
  C  C3  1  0.75000000  0.84434700  0.75000000  1
  C  C4  1  0.04812100  0.43641200  0.77318600  1
  C  C5  1  0.04812100  0.93641200  0.72681400  1
  C  C6  1  0.06787900  0.34494900  0.71028900  1
  C  C7  1  0.06787900  0.84494900  0.78971100  1
  C  C8  1  0.09693300  0.06032500  0.56772300  1
  C  C9  1  0.09693300  0.56032500  0.93227700  1
  C  C10  1  0.40306700  0.56032500  0.56772300  1
  C  C11  1  0.40306700  0.06032500  0.93227700  1
  C  C12  1  0.43212100  0.84494900  0.71028900  1
  C  C13  1  0.43212100  0.34494900  0.78971100  1
  C  C14  1  0.45187900  0.43641200  0.72681400  1
  C  C15  1  0.45187900  0.93641200  0.77318600  1
  C  C16  1  0.54812100  0.06358800  0.22681400  1
  C  C17  1  0.54812100  0.56358800  0.27318600  1
  C  C18  1  0.56787900  0.65505100  0.21028900  1
  C  C19  1  0.56787900  0.15505100  0.28971100  1
  C  C20  1  0.59693300  0.93967500  0.06772300  1
  C  C21  1  0.59693300  0.43967500  0.43227700  1
  C  C22  1  0.90306700  0.43967500  0.06772300  1
  C  C23  1  0.90306700  0.93967500  0.43227700  1
  C  C24  1  0.93212100  0.65505100  0.28971100  1
  C  C25  1  0.93212100  0.15505100  0.21028900  1
  C  C26  1  0.95187900  0.56358800  0.22681400  1
  C  C27  1  0.95187900  0.06358800  0.27318600  1
  Ni  Ni28  1  0.13289200  0.40826500  0.16538700  1
  Ni  Ni29  1  0.13289200  0.90826500  0.33461300  1
  Ni  Ni30  1  0.23727600  0.38854000  0.57126500  1
  Ni  Ni31  1  0.23727600  0.88854000  0.92873500  1
  Ni  Ni32  1  0.26272400  0.38854000  0.92873500  1
  Ni  Ni33  1  0.26272400  0.88854000  0.57126500  1
  Ni  Ni34  1  0.36710800  0.90826500  0.16538700  1
  Ni  Ni35  1  0.36710800  0.40826500  0.33461300  1
  Ni  Ni36  1  0.63289200  0.59173500  0.66538700  1
  Ni  Ni37  1  0.63289200  0.09173500  0.83461300  1
  Ni  Ni38  1  0.73727600  0.61146000  0.07126500  1
  Ni  Ni39  1  0.73727600  0.11146000  0.42873500  1
  Ni  Ni40  1  0.76272400  0.11146000  0.07126500  1
  Ni  Ni41  1  0.76272400  0.61146000  0.42873500  1
  Ni  Ni42  1  0.86710800  0.09173500  0.66538700  1
  Ni  Ni43  1  0.86710800  0.59173500  0.83461300  1
  Cu  Cu44  1  0.03584900  0.08176700  0.70175800  1
  Cu  Cu45  1  0.03584900  0.58176700  0.79824200  1
  Cu  Cu46  1  0.01617800  0.34680800  0.75450000  1
  Cu  Cu47  1  0.01617800  0.84680800  0.74550000  1
  Cu  Cu48  1  0.09323000  0.81506600  0.57641200  1
  Cu  Cu49  1  0.09323000  0.31506600  0.92358800  1
  Cu  Cu50  1  0.11059100  0.40770100  0.09582200  1
  Cu  Cu51  1  0.11059100  0.90770100  0.40417800  1
  Cu  Cu52  1  0.11682100  0.33752200  0.52179600  1
  Cu  Cu53  1  0.11682100  0.83752200  0.97820400  1
  Cu  Cu54  1  0.14675500  0.38916800  0.63444800  1
  Cu  Cu55  1  0.14675500  0.88916800  0.86555200  1
  Cu  Cu56  1  0.22048700  0.03300100  0.55218500  1
  Cu  Cu57  1  0.22048700  0.53300100  0.94781500  1
  Cu  Cu58  1  0.23697600  0.78467900  0.31828900  1
  Cu  Cu59  1  0.23697600  0.28467900  0.18171100  1
  Cu  Cu60  1  0.25764700  0.02262200  0.31754400  1
  Cu  Cu61  1  0.25764700  0.52262200  0.18245600  1
  Cu  Cu62  1  0.24235300  0.02262200  0.18245600  1
  Cu  Cu63  1  0.24235300  0.52262200  0.31754400  1
  Cu  Cu64  1  0.26302400  0.78467900  0.18171100  1
  Cu  Cu65  1  0.26302400  0.28467900  0.31828900  1
  Cu  Cu66  1  0.27951300  0.53300100  0.55218500  1
  Cu  Cu67  1  0.27951300  0.03300100  0.94781500  1
  Cu  Cu68  1  0.35324500  0.38916800  0.86555200  1
  Cu  Cu69  1  0.35324500  0.88916800  0.63444800  1
  Cu  Cu70  1  0.38317900  0.83752200  0.52179600  1
  Cu  Cu71  1  0.38317900  0.33752200  0.97820400  1
  Cu  Cu72  1  0.38940900  0.90770100  0.09582200  1
  Cu  Cu73  1  0.38940900  0.40770100  0.40417800  1
  Cu  Cu74  1  0.40677000  0.31506600  0.57641200  1
  Cu  Cu75  1  0.40677000  0.81506600  0.92358800  1
  Cu  Cu76  1  0.48382200  0.34680800  0.74550000  1
  Cu  Cu77  1  0.48382200  0.84680800  0.75450000  1
  Cu  Cu78  1  0.46415100  0.08176700  0.79824200  1
  Cu  Cu79  1  0.46415100  0.58176700  0.70175800  1
  Cu  Cu80  1  0.53584900  0.91823300  0.20175800  1
  Cu  Cu81  1  0.53584900  0.41823300  0.29824200  1
  Cu  Cu82  1  0.51617800  0.65319200  0.25450000  1
  Cu  Cu83  1  0.51617800  0.15319200  0.24550000  1
  Cu  Cu84  1  0.59323000  0.18493400  0.07641200  1
  Cu  Cu85  1  0.59323000  0.68493400  0.42358800  1
  Cu  Cu86  1  0.61059100  0.59229900  0.59582200  1
  Cu  Cu87  1  0.61059100  0.09229900  0.90417800  1
  Cu  Cu88  1  0.61682100  0.66247800  0.02179600  1
  Cu  Cu89  1  0.61682100  0.16247800  0.47820400  1
  Cu  Cu90  1  0.64675500  0.61083200  0.13444800  1
  Cu  Cu91  1  0.64675500  0.11083200  0.36555200  1
  Cu  Cu92  1  0.72048700  0.96699900  0.05218500  1
  Cu  Cu93  1  0.72048700  0.46699900  0.44781500  1
  Cu  Cu94  1  0.73697600  0.21532100  0.81828900  1
  Cu  Cu95  1  0.73697600  0.71532100  0.68171100  1
  Cu  Cu96  1  0.75764700  0.47737800  0.68245600  1
  Cu  Cu97  1  0.75764700  0.97737800  0.81754400  1
  Cu  Cu98  1  0.74235300  0.47737800  0.81754400  1
  Cu  Cu99  1  0.74235300  0.97737800  0.68245600  1
  Cu  Cu100  1  0.76302400  0.21532100  0.68171100  1
  Cu  Cu101  1  0.76302400  0.71532100  0.81828900  1
  Cu  Cu102  1  0.77951300  0.46699900  0.05218500  1
  Cu  Cu103  1  0.77951300  0.96699900  0.44781500  1
  Cu  Cu104  1  0.85324500  0.11083200  0.13444800  1
  Cu  Cu105  1  0.85324500  0.61083200  0.36555200  1
  Cu  Cu106  1  0.88317900  0.66247800  0.47820400  1
  Cu  Cu107  1  0.88317900  0.16247800  0.02179600  1
  Cu  Cu108  1  0.88940900  0.09229900  0.59582200  1
  Cu  Cu109  1  0.88940900  0.59229900  0.90417800  1
  Cu  Cu110  1  0.90677000  0.68493400  0.07641200  1
  Cu  Cu111  1  0.90677000  0.18493400  0.42358800  1
  Cu  Cu112  1  0.98382200  0.65319200  0.24550000  1
  Cu  Cu113  1  0.98382200  0.15319200  0.25450000  1
  Cu  Cu114  1  0.96415100  0.41823300  0.20175800  1
  Cu  Cu115  1  0.96415100  0.91823300  0.29824200  1
