# generated using pymatgen
data_Cu2Ni2C9
_symmetry_space_group_name_H-M   'P 1'
_cell_length_a   4.79107700
_cell_length_b   10.79553600
_cell_length_c   13.36699800
_cell_angle_alpha   90.00000000
_cell_angle_beta   90.00000000
_cell_angle_gamma   90.00000000
_symmetry_Int_Tables_number   1
_chemical_formula_structural   Cu2Ni2C9
_chemical_formula_sum   'Cu8 Ni8 C36'
_cell_volume   691.37113521
_cell_formula_units_Z   4
loop_
 _symmetry_equiv_pos_site_id
 _symmetry_equiv_pos_as_xyz
  1  'x, y, z'
loop_
 _atom_site_type_symbol
 _atom_site_label
 _atom_site_symmetry_multiplicity
 _atom_site_fract_x
 _atom_site_fract_y
 _atom_site_fract_z
 _atom_site_occupancy
  C  C0  1  0.50749900  0.56260900  0.33570500  1
  C  C1  1  0.99250100  0.43739100  0.83570500  1
  C  C2  1  0.00749900  0.93739100  0.66429500  1
  C  C3  1  0.49250100  0.06260900  0.16429500  1
  Ni  Ni4  1  0.21333900  0.76035500  0.90959600  1
  Ni  Ni5  1  0.28666100  0.23964500  0.40959600  1
  Ni  Ni6  1  0.71333900  0.73964500  0.09040400  1
  Ni  Ni7  1  0.78666100  0.26035500  0.59040400  1
  Ni  Ni8  1  0.44339600  0.55368400  0.63118100  1
  Ni  Ni9  1  0.05660400  0.44631600  0.13118100  1
  Ni  Ni10  1  0.94339600  0.94631600  0.36881900  1
  Ni  Ni11  1  0.55660400  0.05368400  0.86881900  1
  Cu  Cu12  1  0.56224900  0.71545600  0.81484400  1
  Cu  Cu13  1  0.93775100  0.28454400  0.31484400  1
  Cu  Cu14  1  0.06224900  0.78454400  0.18515600  1
  Cu  Cu15  1  0.43775100  0.21545600  0.68515600  1
  Cu  Cu16  1  0.03632700  0.57879500  0.56340000  1
  Cu  Cu17  1  0.46367300  0.42120500  0.06340000  1
  Cu  Cu18  1  0.53632700  0.92120500  0.43660000  1
  Cu  Cu19  1  0.96367300  0.07879500  0.93660000  1
  C  C20  1  0.51625200  0.82447300  0.75101100  1
  C  C21  1  0.98374800  0.17552700  0.25101100  1
  C  C22  1  0.01625200  0.67552700  0.24898900  1
  C  C23  1  0.48374800  0.32447300  0.74898900  1
  C  C24  1  0.85493600  0.69832400  0.84347900  1
  C  C25  1  0.64506400  0.30167600  0.34347900  1
  C  C26  1  0.35493600  0.80167600  0.15652100  1
  C  C27  1  0.14506400  0.19832400  0.65652100  1
  C  C28  1  0.44065300  0.60108500  0.77281800  1
  C  C29  1  0.05934700  0.39891500  0.27281800  1
  C  C30  1  0.94065300  0.89891500  0.22718200  1
  C  C31  1  0.55934700  0.10108500  0.72718200  1
  C  C32  1  0.41386300  0.74125300  0.91919900  1
  C  C33  1  0.08613700  0.25874700  0.41919900  1
  C  C34  1  0.91386300  0.75874700  0.08080100  1
  C  C35  1  0.58613700  0.24125300  0.58080100  1
  C  C36  1  0.97710700  0.55860800  0.45682700  1
  C  C37  1  0.52289300  0.44139200  0.95682700  1
  C  C38  1  0.47710700  0.94139200  0.54317300  1
  C  C39  1  0.02289300  0.05860800  0.04317300  1
  C  C40  1  0.97430600  0.70427100  0.59736700  1
  C  C41  1  0.52569400  0.29572900  0.09736700  1
  C  C42  1  0.47430600  0.79572900  0.40263300  1
  C  C43  1  0.02569400  0.20427100  0.90263300  1
  C  C44  1  0.57713900  0.51631200  0.12994800  1
  C  C45  1  0.92286100  0.48368800  0.62994800  1
  C  C46  1  0.07713900  0.98368800  0.87005200  1
  C  C47  1  0.42286100  0.01631200  0.37005200  1
  C  C48  1  0.36920300  0.55982200  0.56227500  1
  C  C49  1  0.13079700  0.44017800  0.06227500  1
  C  C50  1  0.86920300  0.94017800  0.43772500  1
  C  C51  1  0.63079700  0.05982200  0.93772500  1
