# generated using pymatgen
data_Cu2Ni3C23
_symmetry_space_group_name_H-M   'P 1'
_cell_length_a   6.11114545
_cell_length_b   6.11114545
_cell_length_c   9.74967717
_cell_angle_alpha   89.57893158
_cell_angle_beta   89.57893158
_cell_angle_gamma   59.75375799
_symmetry_Int_Tables_number   1
_chemical_formula_structural   Cu2Ni3C23
_chemical_formula_sum   'Cu2 Ni3 C23'
_cell_volume   314.53395727
_cell_formula_units_Z   1
loop_
 _symmetry_equiv_pos_site_id
 _symmetry_equiv_pos_as_xyz
  1  'x, y, z'
loop_
 _atom_site_type_symbol
 _atom_site_label
 _atom_site_symmetry_multiplicity
 _atom_site_fract_x
 _atom_site_fract_y
 _atom_site_fract_z
 _atom_site_occupancy
  C  C0  1  0.66849400  0.66849400  0.88482300  1
  C  C1  1  0.99177200  0.99177200  0.99666500  1
  C  C2  1  0.99341100  0.99341100  0.50213400  1
  C  C3  1  0.33490300  0.33490300  0.38977000  1
  Ni  Ni4  1  0.83097900  0.83097900  0.21533400  1
  Ni  Ni5  1  0.66187100  0.16950300  0.71517000  1
  Ni  Ni6  1  0.16950300  0.66187100  0.71517000  1
  Cu  Cu7  1  0.66899700  0.66899700  0.49134700  1
  Cu  Cu8  1  0.33563600  0.33563600  0.98743500  1
  C  C9  1  0.83217200  0.33872000  0.21476200  1
  C  C10  1  0.33872000  0.83217200  0.21476200  1
  C  C11  1  0.17001700  0.17001700  0.71407700  1
  C  C12  1  0.83303600  0.31656500  0.60367000  1
  C  C13  1  0.51793000  0.51793000  0.34113900  1
  C  C14  1  0.67449300  0.67449300  0.09670700  1
  C  C15  1  0.99410700  0.99410700  0.31939300  1
  C  C16  1  0.99344500  0.99344500  0.81430900  1
  C  C17  1  0.31656500  0.83303600  0.60367000  1
  C  C18  1  0.96578400  0.52832100  0.33591900  1
  C  C19  1  0.52832100  0.96578400  0.33591900  1
  C  C20  1  0.15759000  0.15759000  0.09543400  1
  C  C21  1  0.84039600  0.84039600  0.61140500  1
  C  C22  1  0.49131100  0.03761100  0.83491800  1
  C  C23  1  0.03761100  0.49131100  0.83491800  1
  C  C24  1  0.34332800  0.34332800  0.60150600  1
  C  C25  1  0.67981000  0.14994200  0.10470200  1
  C  C26  1  0.48025400  0.48025400  0.82810800  1
  C  C27  1  0.14994200  0.67981000  0.10470200  1
