# generated using pymatgen
data_CuNiC16
_symmetry_space_group_name_H-M   'P 1'
_cell_length_a   9.79695558
_cell_length_b   9.79695558
_cell_length_c   11.30451180
_cell_angle_alpha   72.89787075
_cell_angle_beta   72.89787075
_cell_angle_gamma   47.96977478
_symmetry_Int_Tables_number   1
_chemical_formula_structural   CuNiC16
_chemical_formula_sum   'Cu3 Ni3 C48'
_cell_volume   763.04872217
_cell_formula_units_Z   3
loop_
 _symmetry_equiv_pos_site_id
 _symmetry_equiv_pos_as_xyz
  1  'x, y, z'
loop_
 _atom_site_type_symbol
 _atom_site_label
 _atom_site_symmetry_multiplicity
 _atom_site_fract_x
 _atom_site_fract_y
 _atom_site_fract_z
 _atom_site_occupancy
  Ni  Ni0  1  0.16640900  0.16640900  0.66725600  1
  Ni  Ni1  1  0.66687400  0.66687400  0.16632500  1
  Ni  Ni2  1  0.83299500  0.83299500  0.33354200  1
  Cu  Cu3  1  0.33393300  0.33393300  0.33311200  1
  Cu  Cu4  1  0.66625700  0.66625700  0.66780500  1
  Cu  Cu5  1  0.99982400  0.99982400  0.99896600  1
  C  C6  1  0.58652600  0.08625000  0.58623200  1
  C  C7  1  0.74581800  0.24883600  0.74924000  1
  C  C8  1  0.57998700  0.08472100  0.07937200  1
  C  C9  1  0.08472100  0.57998700  0.07937200  1
  C  C10  1  0.75145600  0.25163400  0.25118900  1
  C  C11  1  0.91770500  0.41818100  0.91830100  1
  C  C12  1  0.91523600  0.41337500  0.41576900  1
  C  C13  1  0.24883600  0.74581800  0.74924000  1
  C  C14  1  0.08625000  0.58652600  0.58623200  1
  C  C15  1  0.41337500  0.91523600  0.41576900  1
  C  C16  1  0.41818100  0.91770500  0.91830100  1
  C  C17  1  0.25163400  0.75145600  0.25118900  1
  C  C18  1  0.68380500  0.16233400  0.92307700  1
  C  C19  1  0.66850700  0.16288000  0.16855400  1
  C  C20  1  0.66680900  0.16678200  0.66681500  1
  C  C21  1  0.50494100  0.00806600  0.25666700  1
  C  C22  1  0.65300400  0.16497300  0.40964700  1
  C  C23  1  0.17571000  0.17571000  0.41913600  1
  C  C24  1  0.15795300  0.15795300  0.91375300  1
  C  C25  1  0.33557300  0.33557300  0.09663500  1
  C  C26  1  0.32709100  0.32709100  0.57115100  1
  C  C27  1  0.49197800  0.49197800  0.24917200  1
  C  C28  1  0.00633200  0.00633200  0.76153000  1
  C  C29  1  0.16497300  0.65300400  0.40964700  1
  C  C30  1  0.00806600  0.50494100  0.25666700  1
  C  C31  1  0.83420400  0.32166400  0.07792400  1
  C  C32  1  0.16678200  0.66680900  0.66681500  1
  C  C33  1  0.16288000  0.66850700  0.16855400  1
  C  C34  1  0.83649500  0.33203900  0.83228200  1
  C  C35  1  0.99935400  0.50061800  0.49901100  1
  C  C36  1  0.98724400  0.49820300  0.74182400  1
  C  C37  1  0.83548000  0.34622800  0.59086600  1
  C  C38  1  0.16233400  0.68380500  0.92307700  1
  C  C39  1  0.82546300  0.34818900  0.32607400  1
  C  C40  1  0.98524000  0.50777200  0.00724100  1
  C  C41  1  0.51011400  0.51011400  0.74964800  1
  C  C42  1  0.66387600  0.66387600  0.90647000  1
  C  C43  1  0.82362500  0.82362500  0.57924300  1
  C  C44  1  0.84066500  0.84066500  0.08894900  1
  C  C45  1  0.67211800  0.67211800  0.42493400  1
  C  C46  1  0.99504400  0.99504400  0.23945400  1
  C  C47  1  0.50777200  0.98524000  0.00724100  1
  C  C48  1  0.34818900  0.82546300  0.32607400  1
  C  C49  1  0.34622800  0.83548000  0.59086600  1
  C  C50  1  0.49820300  0.98724400  0.74182400  1
  C  C51  1  0.50061800  0.99935400  0.49901100  1
  C  C52  1  0.33203900  0.83649500  0.83228200  1
  C  C53  1  0.32166400  0.83420400  0.07792400  1
