# generated using pymatgen
data_Cu2NiC30
_symmetry_space_group_name_H-M   'P 1'
_cell_length_a   10.70217373
_cell_length_b   10.70356945
_cell_length_c   21.42791651
_cell_angle_alpha   90.00000000
_cell_angle_beta   90.00000000
_cell_angle_gamma   90.00000000
_symmetry_Int_Tables_number   1
_chemical_formula_structural   Cu2NiC30
_chemical_formula_sum   'Cu8 Ni4 C120'
_cell_volume   2454.59911637
_cell_formula_units_Z   4
loop_
 _symmetry_equiv_pos_site_id
 _symmetry_equiv_pos_as_xyz
  1  'x, y, z'
loop_
 _atom_site_type_symbol
 _atom_site_label
 _atom_site_symmetry_multiplicity
 _atom_site_fract_x
 _atom_site_fract_y
 _atom_site_fract_z
 _atom_site_occupancy
  C  C0  1  0.00006006  0.00000000  0.00000000  1
  C  C1  1  0.99993994  0.00000000  0.50000000  1
  C  C2  1  0.50000000  0.49947202  0.25000000  1
  C  C3  1  0.50000000  0.50052798  0.75000000  1
  C  C4  1  0.00100935  0.25578682  0.99965820  1
  C  C5  1  0.99932797  0.00109489  0.12787304  1
  C  C6  1  0.00100935  0.74421318  0.00034180  1
  C  C7  1  0.00208199  0.50031253  0.12489921  1
  C  C8  1  0.00067203  0.99890511  0.62787304  1
  C  C9  1  0.99899065  0.74421318  0.49965820  1
  C  C10  1  0.00208199  0.49968747  0.87510079  1
  C  C11  1  0.24428540  0.49899602  0.24982429  1
  C  C12  1  0.24428540  0.50100398  0.75017571  1
  C  C13  1  0.24987356  0.25003165  0.12504866  1
  C  C14  1  0.25043622  0.24796846  0.62523356  1
  C  C15  1  0.25043622  0.75203154  0.37476644  1
  C  C16  1  0.24987356  0.74996835  0.87495134  1
  C  C17  1  0.25094406  0.00087325  0.25049303  1
  C  C18  1  0.25094406  0.99912675  0.74950697  1
  C  C19  1  0.25093196  0.24864537  0.37463261  1
  C  C20  1  0.25075178  0.74896594  0.12420863  1
  C  C21  1  0.25075178  0.25103406  0.87579137  1
  C  C22  1  0.25093196  0.75135463  0.62536739  1
  C  C23  1  0.25648436  0.00000000  0.00000000  1
  C  C24  1  0.25670179  0.00000000  0.50000000  1
  C  C25  1  0.50000000  0.24353671  0.25000000  1
  C  C26  1  0.49917706  0.49963847  0.12218400  1
  C  C27  1  0.50000000  0.24359423  0.75000000  1
  C  C28  1  0.50082294  0.50036153  0.62218400  1
  C  C29  1  0.49940187  0.24908856  0.00062736  1
  C  C30  1  0.50059813  0.24908856  0.49937264  1
  C  C31  1  0.49917706  0.50036153  0.87781600  1
  C  C32  1  0.50082294  0.49963847  0.37781600  1
  C  C33  1  0.49940187  0.75091144  0.99937264  1
  C  C34  1  0.50000000  0.75640577  0.25000000  1
  C  C35  1  0.50059813  0.75091144  0.50062736  1
  C  C36  1  0.50000000  0.75646329  0.75000000  1
  C  C37  1  0.74329821  0.00000000  0.00000000  1
  C  C38  1  0.74351564  0.00000000  0.50000000  1
  C  C39  1  0.74906804  0.24864537  0.12536739  1
  C  C40  1  0.74924822  0.25103406  0.62420863  1
  C  C41  1  0.74906804  0.75135463  0.87463261  1
  C  C42  1  0.74924822  0.74896594  0.37579137  1
  C  C43  1  0.74905594  0.00087325  0.24950697  1
  C  C44  1  0.74905594  0.99912675  0.75049303  1
  C  C45  1  0.75012644  0.25003165  0.37495134  1
  C  C46  1  0.74956378  0.24796846  0.87476644  1
  C  C47  1  0.74956378  0.75203154  0.12523356  1
  C  C48  1  0.75012644  0.74996835  0.62504866  1
  C  C49  1  0.75571460  0.49899602  0.25017571  1
  C  C50  1  0.75571460  0.50100398  0.74982429  1
  C  C51  1  0.99791801  0.49968747  0.62489921  1
  C  C52  1  0.99899065  0.25578682  0.50034180  1
  C  C53  1  0.99791801  0.50031253  0.37510079  1
  C  C54  1  0.00067203  0.00109489  0.37212696  1
  C  C55  1  0.99932797  0.99890511  0.87212696  1
  Ni  Ni56  1  0.00000000  0.25022623  0.75000000  1
  Ni  Ni57  1  0.25014409  0.50000000  0.50000000  1
  Ni  Ni58  1  0.74985591  0.50000000  0.00000000  1
  Ni  Ni59  1  0.00000000  0.74977377  0.25000000  1
  Cu  Cu60  1  0.00000000  0.24976639  0.25000000  1
  Cu  Cu61  1  0.24973419  0.50000000  0.00000000  1
  Cu  Cu62  1  0.50018167  0.00027212  0.62497874  1
  Cu  Cu63  1  0.49981833  0.99972788  0.12497874  1
  Cu  Cu64  1  0.49981833  0.00027212  0.87502126  1
  Cu  Cu65  1  0.50018167  0.99972788  0.37502126  1
  Cu  Cu66  1  0.75026581  0.50000000  0.50000000  1
  Cu  Cu67  1  0.00000000  0.75023361  0.75000000  1
  C  C68  1  0.12073127  0.12037315  0.05972637  1
  C  C69  1  0.12018429  0.12037133  0.56034097  1
  C  C70  1  0.12018429  0.87962867  0.43965903  1
  C  C71  1  0.12073127  0.87962685  0.94027363  1
  C  C72  1  0.12427303  0.37217425  0.18645248  1
  C  C73  1  0.13035381  0.37901466  0.68246856  1
  C  C74  1  0.13035381  0.62098534  0.31753144  1
  C  C75  1  0.12427303  0.62782575  0.81354752  1
  C  C76  1  0.12786576  0.12698461  0.31139409  1
  C  C77  1  0.13477208  0.87909310  0.18471184  1
  C  C78  1  0.13477208  0.12090690  0.81528816  1
  C  C79  1  0.12786576  0.87301539  0.68860591  1
  C  C80  1  0.12780391  0.62360070  0.06448743  1
  C  C81  1  0.12093727  0.36873992  0.43311210  1
  C  C82  1  0.12780391  0.37639930  0.93551257  1
  C  C83  1  0.12093727  0.63126008  0.56688790  1
  C  C84  1  0.38011864  0.63456240  0.43519452  1
  C  C85  1  0.37219123  0.62805563  0.93808746  1
  C  C86  1  0.37219123  0.37194437  0.06191254  1
  C  C87  1  0.38011864  0.36543760  0.56480548  1
  C  C88  1  0.37307787  0.87571444  0.81407294  1
  C  C89  1  0.37192276  0.87765657  0.31360187  1
  C  C90  1  0.37307787  0.12428556  0.18592706  1
  C  C91  1  0.37192276  0.12234343  0.68639813  1
  C  C92  1  0.37660955  0.12833419  0.43598424  1
  C  C93  1  0.37692559  0.12664024  0.93627802  1
  C  C94  1  0.37692559  0.87335976  0.06372198  1
  C  C95  1  0.37660955  0.87166581  0.56401576  1
  C  C96  1  0.38042510  0.37933431  0.31029302  1
  C  C97  1  0.37903420  0.61996746  0.19034070  1
  C  C98  1  0.38042510  0.62066569  0.68970698  1
  C  C99  1  0.37903420  0.38003254  0.80965930  1
  C  C100  1  0.61957490  0.37933431  0.18970698  1
  C  C101  1  0.62096580  0.61996746  0.30965930  1
  C  C102  1  0.62096580  0.38003254  0.69034070  1
  C  C103  1  0.61957490  0.62066569  0.81029302  1
  C  C104  1  0.62339045  0.12833419  0.06401576  1
  C  C105  1  0.62307441  0.12664024  0.56372198  1
  C  C106  1  0.62339045  0.87166581  0.93598424  1
  C  C107  1  0.62307441  0.87335976  0.43627802  1
  C  C108  1  0.62692213  0.12428556  0.31407294  1
  C  C109  1  0.62807724  0.12234343  0.81360187  1
  C  C110  1  0.62692213  0.87571444  0.68592706  1
  C  C111  1  0.62807724  0.87765657  0.18639813  1
  C  C112  1  0.61988136  0.63456240  0.06480548  1
  C  C113  1  0.62780877  0.62805563  0.56191254  1
  C  C114  1  0.62780877  0.37194437  0.43808746  1
  C  C115  1  0.61988136  0.36543760  0.93519452  1
  C  C116  1  0.87219609  0.37639930  0.56448743  1
  C  C117  1  0.87906273  0.36873992  0.06688790  1
  C  C118  1  0.87219609  0.62360070  0.43551257  1
  C  C119  1  0.87906273  0.63126008  0.93311210  1
  C  C120  1  0.87213424  0.12698461  0.18860591  1
  C  C121  1  0.86522792  0.87909310  0.31528816  1
  C  C122  1  0.86522792  0.12090690  0.68471184  1
  C  C123  1  0.87213424  0.87301539  0.81139409  1
  C  C124  1  0.87572697  0.37217425  0.31354752  1
  C  C125  1  0.86964619  0.62098534  0.18246856  1
  C  C126  1  0.86964619  0.37901466  0.81753144  1
  C  C127  1  0.87572697  0.62782575  0.68645248  1
  C  C128  1  0.87926873  0.12037315  0.44027363  1
  C  C129  1  0.87981571  0.87962867  0.06034097  1
  C  C130  1  0.87926873  0.87962685  0.55972637  1
  C  C131  1  0.87981571  0.12037133  0.93965903  1
