# generated using pymatgen
data_Cu6Ni8C15
_symmetry_space_group_name_H-M   'P 1'
_cell_length_a   11.59085232
_cell_length_b   6.70385100
_cell_length_c   11.90242255
_cell_angle_alpha   90.00000000
_cell_angle_beta   90.76807409
_cell_angle_gamma   90.00000000
_symmetry_Int_Tables_number   1
_chemical_formula_structural   Cu6Ni8C15
_chemical_formula_sum   'Cu12 Ni16 C30'
_cell_volume   924.77496862
_cell_formula_units_Z   2
loop_
 _symmetry_equiv_pos_site_id
 _symmetry_equiv_pos_as_xyz
  1  'x, y, z'
loop_
 _atom_site_type_symbol
 _atom_site_label
 _atom_site_symmetry_multiplicity
 _atom_site_fract_x
 _atom_site_fract_y
 _atom_site_fract_z
 _atom_site_occupancy
  C  C0  1  0.91516900  0.40854000  0.17619100  1
  C  C1  1  0.08483100  0.90854000  0.32380900  1
  C  C2  1  0.08483100  0.59146000  0.82380900  1
  C  C3  1  0.91516900  0.09146000  0.67619100  1
  C  C4  1  0.50000000  0.00000000  0.50000000  1
  C  C5  1  0.50000000  0.50000000  0.00000000  1
  C  C6  1  0.71964900  0.99398400  0.30531100  1
  C  C7  1  0.28035100  0.49398400  0.19468900  1
  C  C8  1  0.28035100  0.00601600  0.69468900  1
  C  C9  1  0.71964900  0.50601600  0.80531100  1
  C  C10  1  0.48693200  0.16033000  0.23728600  1
  C  C11  1  0.51306800  0.66033000  0.26271400  1
  C  C12  1  0.51306800  0.83967000  0.76271400  1
  C  C13  1  0.48693200  0.33967000  0.73728600  1
  C  C14  1  0.61433100  0.89674400  0.13218300  1
  C  C15  1  0.38566900  0.39674400  0.36781700  1
  C  C16  1  0.38566900  0.10325600  0.86781700  1
  C  C17  1  0.61433100  0.60325600  0.63218300  1
  C  C18  1  0.61936500  0.26420400  0.40945500  1
  C  C19  1  0.38063500  0.76420400  0.09054500  1
  C  C20  1  0.38063500  0.73579600  0.59054500  1
  C  C21  1  0.61936500  0.23579600  0.90945500  1
  C  C22  1  0.87822100  0.64005400  0.46488000  1
  C  C23  1  0.12177900  0.14005400  0.03512000  1
  C  C24  1  0.12177900  0.35994600  0.53512000  1
  C  C25  1  0.87822100  0.85994600  0.96488000  1
  C  C26  1  0.96254100  0.49290800  0.41056200  1
  C  C27  1  0.03745900  0.99290800  0.08943800  1
  C  C28  1  0.03745900  0.50709200  0.58943700  1
  C  C29  1  0.96254100  0.00709200  0.91056300  1
  Ni  Ni30  1  0.36197600  0.91028800  0.36642600  1
  Ni  Ni31  1  0.63802400  0.41028800  0.13357400  1
  Ni  Ni32  1  0.63802400  0.08971200  0.63357400  1
  Ni  Ni33  1  0.36197600  0.58971200  0.86642600  1
  Ni  Ni34  1  0.37452100  0.14751800  0.08021900  1
  Ni  Ni35  1  0.62547900  0.64751800  0.41978100  1
  Ni  Ni36  1  0.62547900  0.85248200  0.91978100  1
  Ni  Ni37  1  0.37452100  0.35248200  0.58021900  1
  Ni  Ni38  1  0.85416100  0.13812900  0.41126000  1
  Ni  Ni39  1  0.14583900  0.63812900  0.08874000  1
  Ni  Ni40  1  0.14583900  0.86187100  0.58874000  1
  Ni  Ni41  1  0.85416100  0.36187100  0.91126000  1
  Ni  Ni42  1  0.83854700  0.88667300  0.17037800  1
  Ni  Ni43  1  0.16145300  0.38667300  0.32962200  1
  Ni  Ni44  1  0.16145300  0.11332700  0.82962200  1
  Ni  Ni45  1  0.83854700  0.61332700  0.67037800  1
  Cu  Cu46  1  0.58666500  0.91436800  0.20936200  1
  Cu  Cu47  1  0.41333500  0.41436800  0.29063800  1
  Cu  Cu48  1  0.41333500  0.08563200  0.79063800  1
  Cu  Cu49  1  0.58666500  0.58563200  0.70936200  1
  Cu  Cu50  1  0.58763700  0.13936600  0.37899200  1
  Cu  Cu51  1  0.41236300  0.63936600  0.12100800  1
  Cu  Cu52  1  0.41236300  0.86063400  0.62100800  1
  Cu  Cu53  1  0.58763700  0.36063400  0.87899200  1
  Cu  Cu54  1  0.93134100  0.62820700  0.40255800  1
  Cu  Cu55  1  0.06865900  0.12820700  0.09744200  1
  Cu  Cu56  1  0.06865900  0.37179300  0.59744200  1
  Cu  Cu57  1  0.93134100  0.87179300  0.90255800  1
