# generated using pymatgen
data_Cu(NiC6)4
_symmetry_space_group_name_H-M   'P 1'
_cell_length_a   10.05324116
_cell_length_b   10.05324116
_cell_length_c   10.05324116
_cell_angle_alpha   60.00000000
_cell_angle_beta   60.00000000
_cell_angle_gamma   60.00000000
_symmetry_Int_Tables_number   1
_chemical_formula_structural   Cu(NiC6)4
_chemical_formula_sum   'Cu2 Ni8 C48'
_cell_volume   718.46117575
_cell_formula_units_Z   2
loop_
 _symmetry_equiv_pos_site_id
 _symmetry_equiv_pos_as_xyz
  1  'x, y, z'
loop_
 _atom_site_type_symbol
 _atom_site_label
 _atom_site_symmetry_multiplicity
 _atom_site_fract_x
 _atom_site_fract_y
 _atom_site_fract_z
 _atom_site_occupancy
  C  C0  1  0.29882600  0.70117400  0.29882600  1
  C  C1  1  0.54882600  0.95117400  0.54882600  1
  C  C2  1  0.54882600  0.95117400  0.95117400  1
  C  C3  1  0.29882600  0.70117400  0.70117400  1
  C  C4  1  0.54882600  0.54882600  0.95117400  1
  C  C5  1  0.29882600  0.29882600  0.70117400  1
  C  C6  1  0.70117400  0.29882600  0.29882600  1
  C  C7  1  0.70117400  0.70117400  0.29882600  1
  C  C8  1  0.95117400  0.95117400  0.54882600  1
  C  C9  1  0.95117400  0.54882600  0.54882600  1
  C  C10  1  0.70117400  0.29882600  0.70117400  1
  C  C11  1  0.95117400  0.54882600  0.95117400  1
  Ni  Ni12  1  0.34035900  0.97892400  0.34035900  1
  Ni  Ni13  1  0.34035900  0.34035900  0.34035900  1
  Ni  Ni14  1  0.90964100  0.90964100  0.27107600  1
  Ni  Ni15  1  0.97892400  0.34035900  0.34035900  1
  Ni  Ni16  1  0.27107600  0.90964100  0.90964100  1
  Ni  Ni17  1  0.34035900  0.34035900  0.97892400  1
  Ni  Ni18  1  0.90964100  0.27107600  0.90964100  1
  Ni  Ni19  1  0.90964100  0.90964100  0.90964100  1
  C  C20  1  0.12500000  0.12500000  0.62500000  1
  C  C21  1  0.12500000  0.62500000  0.12500000  1
  C  C22  1  0.12500000  0.12500000  0.12500000  1
  C  C23  1  0.62500000  0.12500000  0.12500000  1
  Cu  Cu24  1  0.50000000  0.50000000  0.50000000  1
  Cu  Cu25  1  0.75000000  0.75000000  0.75000000  1
  C  C26  1  0.49015900  0.31678500  0.21702300  1
  C  C27  1  0.56334800  0.56334800  0.30995500  1
  C  C28  1  0.49015900  0.97603400  0.31678500  1
  C  C29  1  0.31678500  0.97603400  0.21702300  1
  C  C30  1  0.56334800  0.56334800  0.56334800  1
  C  C31  1  0.56334800  0.30995500  0.56334800  1
  C  C32  1  0.21702300  0.49015900  0.31678500  1
  C  C33  1  0.31678500  0.21702300  0.49015900  1
  C  C34  1  0.30995500  0.56334800  0.56334800  1
  C  C35  1  0.97603400  0.49015900  0.21702300  1
  C  C36  1  0.03297700  0.93321500  0.27396600  1
  C  C37  1  0.21702300  0.97603400  0.49015900  1
  C  C38  1  0.97603400  0.21702300  0.31678500  1
  C  C39  1  0.93321500  0.75984100  0.27396600  1
  C  C40  1  0.49015900  0.21702300  0.97603400  1
  C  C41  1  0.27396600  0.93321500  0.75984100  1
  C  C42  1  0.97603400  0.31678500  0.49015900  1
  C  C43  1  0.75984100  0.03297700  0.27396600  1
  C  C44  1  0.31678500  0.49015900  0.97603400  1
  C  C45  1  0.27396600  0.03297700  0.93321500  1
  C  C46  1  0.03297700  0.27396600  0.75984100  1
  C  C47  1  0.21702300  0.31678500  0.97603400  1
  C  C48  1  0.27396600  0.75984100  0.03297700  1
  C  C49  1  0.94004500  0.68665200  0.68665200  1
  C  C50  1  0.93321500  0.03297700  0.75984100  1
  C  C51  1  0.03297700  0.75984100  0.93321500  1
  C  C52  1  0.68665200  0.94004500  0.68665200  1
  C  C53  1  0.68665200  0.68665200  0.68665200  1
  C  C54  1  0.93321500  0.27396600  0.03297700  1
  C  C55  1  0.75984100  0.27396600  0.93321500  1
  C  C56  1  0.68665200  0.68665200  0.94004500  1
  C  C57  1  0.75984100  0.93321500  0.03297700  1
