# generated using pymatgen
data_Cu2Ni3C23
_symmetry_space_group_name_H-M   'P 1'
_cell_length_a   5.91174858
_cell_length_b   5.91174858
_cell_length_c   9.68773513
_cell_angle_alpha   89.74245417
_cell_angle_beta   89.74245417
_cell_angle_gamma   59.71835422
_symmetry_Int_Tables_number   1
_chemical_formula_structural   Cu2Ni3C23
_chemical_formula_sum   'Cu2 Ni3 C23'
_cell_volume   292.37444327
_cell_formula_units_Z   1
loop_
 _symmetry_equiv_pos_site_id
 _symmetry_equiv_pos_as_xyz
  1  'x, y, z'
loop_
 _atom_site_type_symbol
 _atom_site_label
 _atom_site_symmetry_multiplicity
 _atom_site_fract_x
 _atom_site_fract_y
 _atom_site_fract_z
 _atom_site_occupancy
  C  C0  1  0.33820800  0.83017800  0.78972400  1
  C  C1  1  0.66785900  0.66785900  0.09792700  1
  C  C2  1  0.99995700  0.99995700  0.00433600  1
  C  C3  1  0.99450600  0.99450600  0.51237800  1
  C  C4  1  0.83017800  0.33820800  0.78972400  1
  C  C5  1  0.16521600  0.16521600  0.29119100  1
  C  C6  1  0.33554700  0.33554700  0.59720900  1
  Ni  Ni7  1  0.82044300  0.82044300  0.76353300  1
  Ni  Ni8  1  0.15710600  0.65308600  0.28031300  1
  Ni  Ni9  1  0.65308600  0.15710600  0.28031300  1
  Cu  Cu10  1  0.64746700  0.64746700  0.51198000  1
  Cu  Cu11  1  0.33471500  0.33471500  0.00437300  1
  C  C12  1  0.33624600  0.82572500  0.41033000  1
  C  C13  1  0.51844200  0.51844200  0.64454500  1
  C  C14  1  0.70025300  0.70025300  0.88690000  1
  C  C15  1  0.98001300  0.98001300  0.70636000  1
  C  C16  1  0.99207900  0.99207900  0.20112900  1
  C  C17  1  0.82572500  0.33624600  0.41033000  1
  C  C18  1  0.53712100  0.96112800  0.64462300  1
  C  C19  1  0.96112800  0.53712100  0.64462300  1
  C  C20  1  0.17419100  0.17419100  0.92501700  1
  C  C21  1  0.82646600  0.82646600  0.39853200  1
  C  C22  1  0.04170800  0.49785500  0.15947200  1
  C  C23  1  0.49785500  0.04170800  0.15947200  1
  C  C24  1  0.35274400  0.35274400  0.39038600  1
  C  C25  1  0.17547800  0.65501300  0.91405100  1
  C  C26  1  0.48031300  0.48031300  0.15931100  1
  C  C27  1  0.65501300  0.17547800  0.91405100  1
