# generated using pymatgen
data_Cu2NiC4
_symmetry_space_group_name_H-M   'P 1'
_cell_length_a   5.83369800
_cell_length_b   6.25301809
_cell_length_c   5.83368100
_cell_angle_alpha   62.19572693
_cell_angle_beta   89.99905713
_cell_angle_gamma   117.80446816
_symmetry_Int_Tables_number   1
_chemical_formula_structural   Cu2NiC4
_chemical_formula_sum   'Cu4 Ni2 C8'
_cell_volume   159.93249143
_cell_formula_units_Z   2
loop_
 _symmetry_equiv_pos_site_id
 _symmetry_equiv_pos_as_xyz
  1  'x, y, z'
loop_
 _atom_site_type_symbol
 _atom_site_label
 _atom_site_symmetry_multiplicity
 _atom_site_fract_x
 _atom_site_fract_y
 _atom_site_fract_z
 _atom_site_occupancy
  Ni  Ni0  1  0.99999600  0.00000300  0.99999400  1
  Ni  Ni1  1  0.75000500  0.50000200  0.75000300  1
  Cu  Cu2  1  0.37498700  0.24999200  0.37499700  1
  Cu  Cu3  1  0.87501200  0.25000900  0.37497900  1
  Cu  Cu4  1  0.37498600  0.74999400  0.37502500  1
  Cu  Cu5  1  0.37501900  0.74998500  0.87501500  1
  C  C6  1  0.14620300  0.29241600  0.13950900  1
  C  C7  1  0.60379200  0.20758600  0.18191500  1
  C  C8  1  0.56808400  0.70759100  0.14620200  1
  C  C9  1  0.13950800  0.70758900  0.14620300  1
  C  C10  1  0.60379500  0.20758600  0.61049100  1
  C  C11  1  0.14620300  0.29241300  0.56808300  1
  C  C12  1  0.18191800  0.79241700  0.60379100  1
  C  C13  1  0.61049500  0.79241700  0.60379400  1
