# generated using pymatgen
data_Cu3NiC2
_symmetry_space_group_name_H-M   'P 1'
_cell_length_a   4.93965200
_cell_length_b   6.05150100
_cell_length_c   10.52828000
_cell_angle_alpha   90.00000000
_cell_angle_beta   90.00000000
_cell_angle_gamma   90.00000000
_symmetry_Int_Tables_number   1
_chemical_formula_structural   Cu3NiC2
_chemical_formula_sum   'Cu12 Ni4 C8'
_cell_volume   314.71459918
_cell_formula_units_Z   4
loop_
 _symmetry_equiv_pos_site_id
 _symmetry_equiv_pos_as_xyz
  1  'x, y, z'
loop_
 _atom_site_type_symbol
 _atom_site_label
 _atom_site_symmetry_multiplicity
 _atom_site_fract_x
 _atom_site_fract_y
 _atom_site_fract_z
 _atom_site_occupancy
  C  C0  1  0.50000000  0.00000000  0.00000000  1
  C  C1  1  0.50000000  0.50000000  0.00000000  1
  C  C2  1  0.48753400  0.25000000  0.73972000  1
  C  C3  1  0.01246600  0.25000000  0.23972000  1
  C  C4  1  0.00000000  0.00000000  0.50000000  1
  C  C5  1  0.00000000  0.50000000  0.50000000  1
  C  C6  1  0.98753400  0.75000000  0.76028000  1
  C  C7  1  0.51246600  0.75000000  0.26028000  1
  Ni  Ni8  1  0.33114100  0.25000000  0.92401800  1
  Ni  Ni9  1  0.16885900  0.25000000  0.42401800  1
  Ni  Ni10  1  0.83114100  0.75000000  0.57598200  1
  Ni  Ni11  1  0.66885900  0.75000000  0.07598200  1
  Cu  Cu12  1  0.23915300  0.75000000  0.41538200  1
  Cu  Cu13  1  0.23320300  0.00731300  0.66342600  1
  Cu  Cu14  1  0.23320300  0.49268700  0.66342600  1
  Cu  Cu15  1  0.26679700  0.49268700  0.16342600  1
  Cu  Cu16  1  0.26679700  0.00731300  0.16342600  1
  Cu  Cu17  1  0.26084700  0.75000000  0.91538200  1
  Cu  Cu18  1  0.73915300  0.25000000  0.08461800  1
  Cu  Cu19  1  0.73320300  0.50731300  0.83657400  1
  Cu  Cu20  1  0.73320300  0.99268700  0.83657400  1
  Cu  Cu21  1  0.76679700  0.99268700  0.33657400  1
  Cu  Cu22  1  0.76679700  0.50731300  0.33657400  1
  Cu  Cu23  1  0.76084700  0.25000000  0.58461800  1
