# generated using pymatgen
data_CuNi10C11
_symmetry_space_group_name_H-M   'P 1'
_cell_length_a   6.76158000
_cell_length_b   6.76643581
_cell_length_c   5.22244840
_cell_angle_alpha   104.98229575
_cell_angle_beta   97.68925098
_cell_angle_gamma   107.45998433
_symmetry_Int_Tables_number   1
_chemical_formula_structural   CuNi10C11
_chemical_formula_sum   'Cu1 Ni10 C11'
_cell_volume   214.30930123
_cell_formula_units_Z   1
loop_
 _symmetry_equiv_pos_site_id
 _symmetry_equiv_pos_as_xyz
  1  'x, y, z'
loop_
 _atom_site_type_symbol
 _atom_site_label
 _atom_site_symmetry_multiplicity
 _atom_site_fract_x
 _atom_site_fract_y
 _atom_site_fract_z
 _atom_site_occupancy
  Ni  Ni0  1  0.81622600  0.95302100  0.09116200  1
  Ni  Ni1  1  0.18377400  0.04697900  0.90883800  1
  Ni  Ni2  1  0.63853800  0.40912700  0.18198700  1
  Ni  Ni3  1  0.45686100  0.86400400  0.27365300  1
  Ni  Ni4  1  0.09082600  0.77336300  0.45406500  1
  Ni  Ni5  1  0.27312800  0.32076300  0.36382800  1
  Ni  Ni6  1  0.72687200  0.67923700  0.63617200  1
  Ni  Ni7  1  0.90917400  0.22663700  0.54593500  1
  Ni  Ni8  1  0.36146200  0.59087300  0.81801300  1
  Ni  Ni9  1  0.54313900  0.13599600  0.72634700  1
  Cu  Cu10  1  0.00000000  0.50000000  0.00000000  1
  C  C11  1  0.67425100  0.54637600  0.90599700  1
  C  C12  1  0.13718200  0.91109900  0.18169100  1
  C  C13  1  0.50000000  0.00000000  0.00000000  1
  C  C14  1  0.77346300  0.81774100  0.36353500  1
  C  C15  1  0.32574900  0.45362400  0.09400300  1
  C  C16  1  0.95335800  0.35900700  0.27843000  1
  C  C17  1  0.40895000  0.72825000  0.54415200  1
  C  C18  1  0.04664200  0.64099300  0.72157000  1
  C  C19  1  0.59105000  0.27175000  0.45584800  1
  C  C20  1  0.86281800  0.08890100  0.81830900  1
  C  C21  1  0.22653700  0.18225900  0.63646500  1
