# generated using pymatgen
data_CuNiC10
_symmetry_space_group_name_H-M   'P 1'
_cell_length_a   9.29310100
_cell_length_b   8.14838300
_cell_length_c   12.96566793
_cell_angle_alpha   57.49822009
_cell_angle_beta   90.00000000
_cell_angle_gamma   90.00000000
_symmetry_Int_Tables_number   1
_chemical_formula_structural   CuNiC10
_chemical_formula_sum   'Cu4 Ni4 C40'
_cell_volume   828.03287969
_cell_formula_units_Z   4
loop_
 _symmetry_equiv_pos_site_id
 _symmetry_equiv_pos_as_xyz
  1  'x, y, z'
loop_
 _atom_site_type_symbol
 _atom_site_label
 _atom_site_symmetry_multiplicity
 _atom_site_fract_x
 _atom_site_fract_y
 _atom_site_fract_z
 _atom_site_occupancy
  C  C0  1  0.67529500  0.66239600  0.07838900  1
  C  C1  1  0.17529500  0.33760400  0.42161100  1
  C  C2  1  0.82470500  0.66239600  0.57838900  1
  C  C3  1  0.32470500  0.33760400  0.92161100  1
  Ni  Ni4  1  0.63612000  0.13621300  0.61372400  1
  Ni  Ni5  1  0.13612000  0.86378700  0.88627600  1
  Ni  Ni6  1  0.86388000  0.13621300  0.11372400  1
  Ni  Ni7  1  0.36388000  0.86378700  0.38627600  1
  Cu  Cu8  1  0.70761200  0.37744700  0.41846500  1
  Cu  Cu9  1  0.20761200  0.62255300  0.08153500  1
  Cu  Cu10  1  0.79238800  0.37744700  0.91846500  1
  Cu  Cu11  1  0.29238800  0.62255300  0.58153500  1
  C  C12  1  0.68618500  0.93569400  0.01253400  1
  C  C13  1  0.17815100  0.61645800  0.33668000  1
  C  C14  1  0.74975200  0.62342500  0.23477600  1
  C  C15  1  0.53537400  0.19961100  0.69908300  1
  C  C16  1  0.10335900  0.30947000  0.56786900  1
  C  C17  1  0.02887700  0.05083900  0.86855800  1
  C  C18  1  0.48540400  0.65086500  0.13959300  1
  C  C19  1  0.37131200  0.33452400  0.47013200  1
  C  C20  1  0.87131200  0.66547600  0.02986800  1
  C  C21  1  0.26536800  0.00117000  0.77842900  1
  C  C22  1  0.98540400  0.34913500  0.36040700  1
  C  C23  1  0.76536800  0.99883000  0.72157100  1
  C  C24  1  0.24975200  0.37657500  0.26522400  1
  C  C25  1  0.67815100  0.38354200  0.16332000  1
  C  C26  1  0.52887700  0.94916100  0.63144200  1
  C  C27  1  0.60335900  0.69053000  0.93213100  1
  C  C28  1  0.03537400  0.80038900  0.80091700  1
  C  C29  1  0.18618500  0.06430600  0.48746600  1
  C  C30  1  0.81381500  0.93569400  0.51253400  1
  C  C31  1  0.96462600  0.19961100  0.19908300  1
  C  C32  1  0.39664100  0.30947000  0.06786900  1
  C  C33  1  0.47112300  0.05083900  0.36855800  1
  C  C34  1  0.32184900  0.61645800  0.83668000  1
  C  C35  1  0.75024800  0.62342500  0.73477600  1
  C  C36  1  0.23463200  0.00117000  0.27842900  1
  C  C37  1  0.01459600  0.65086500  0.63959300  1
  C  C38  1  0.73463200  0.99883000  0.22157100  1
  C  C39  1  0.12868800  0.33452400  0.97013200  1
  C  C40  1  0.62868800  0.66547600  0.52986800  1
  C  C41  1  0.51459600  0.34913500  0.86040700  1
  C  C42  1  0.97112300  0.94916100  0.13144200  1
  C  C43  1  0.89664100  0.69053000  0.43213100  1
  C  C44  1  0.46462600  0.80038900  0.30091700  1
  C  C45  1  0.25024800  0.37657500  0.76522400  1
  C  C46  1  0.82184900  0.38354200  0.66332000  1
  C  C47  1  0.31381500  0.06430600  0.98746600  1
