# generated using pymatgen
data_Cu3Ni2C9
_symmetry_space_group_name_H-M   'P 1'
_cell_length_a   5.95617999
_cell_length_b   5.95617999
_cell_length_c   5.95618007
_cell_angle_alpha   59.97429965
_cell_angle_beta   59.97429965
_cell_angle_gamma   59.97429855
_symmetry_Int_Tables_number   1
_chemical_formula_structural   Cu3Ni2C9
_chemical_formula_sum   'Cu3 Ni2 C9'
_cell_volume   149.32594445
_cell_formula_units_Z   1
loop_
 _symmetry_equiv_pos_site_id
 _symmetry_equiv_pos_as_xyz
  1  'x, y, z'
loop_
 _atom_site_type_symbol
 _atom_site_label
 _atom_site_symmetry_multiplicity
 _atom_site_fract_x
 _atom_site_fract_y
 _atom_site_fract_z
 _atom_site_occupancy
  C  C0  1  0.11724700  0.11724700  0.11724700  1
  Ni  Ni1  1  0.88261700  0.88261700  0.88261700  1
  Ni  Ni2  1  0.50011000  0.50011000  0.50011000  1
  Cu  Cu3  1  0.00427900  0.49883300  0.49883300  1
  Cu  Cu4  1  0.49883300  0.00427900  0.49883300  1
  Cu  Cu5  1  0.49883300  0.49883300  0.00427900  1
  C  C6  1  0.74228100  0.74228100  0.74228100  1
  C  C7  1  0.74498700  0.74498700  0.29043800  1
  C  C8  1  0.74498700  0.29043800  0.74498700  1
  C  C9  1  0.29043800  0.74498700  0.74498700  1
  C  C10  1  0.25450100  0.70773800  0.25450100  1
  C  C11  1  0.70773800  0.25450100  0.25450100  1
  C  C12  1  0.25450100  0.25450100  0.70773800  1
  C  C13  1  0.25864600  0.25864600  0.25864600  1
