# generated using pymatgen
data_Cu2Ni2C35
_symmetry_space_group_name_H-M   'P 1'
_cell_length_a   12.89838700
_cell_length_b   6.13612200
_cell_length_c   9.54288687
_cell_angle_alpha   72.86852940
_cell_angle_beta   90.00000000
_cell_angle_gamma   90.00000000
_symmetry_Int_Tables_number   1
_chemical_formula_structural   Cu2Ni2C35
_chemical_formula_sum   'Cu4 Ni4 C70'
_cell_volume   721.77121760
_cell_formula_units_Z   2
loop_
 _symmetry_equiv_pos_site_id
 _symmetry_equiv_pos_as_xyz
  1  'x, y, z'
loop_
 _atom_site_type_symbol
 _atom_site_label
 _atom_site_symmetry_multiplicity
 _atom_site_fract_x
 _atom_site_fract_y
 _atom_site_fract_z
 _atom_site_occupancy
  C  C0  1  0.50000000  0.00000000  0.50000000  1
  C  C1  1  0.00000000  0.00000000  0.00000000  1
  C  C2  1  0.15377600  0.76947200  0.54332400  1
  C  C3  1  0.65377600  0.23052800  0.95667600  1
  C  C4  1  0.84622400  0.23052800  0.45667600  1
  C  C5  1  0.34622400  0.76947200  0.04332400  1
  C  C6  1  0.19369900  0.57867700  0.70519400  1
  C  C7  1  0.69369900  0.42132300  0.79480600  1
  C  C8  1  0.80630100  0.42132300  0.29480600  1
  C  C9  1  0.30630100  0.57867700  0.20519400  1
  C  C10  1  0.12330700  0.48723700  0.58362100  1
  C  C11  1  0.62330700  0.51276300  0.91637900  1
  C  C12  1  0.87669300  0.51276300  0.41637900  1
  C  C13  1  0.37669300  0.48723700  0.08362100  1
  C  C14  1  0.06685600  0.64913200  0.67709000  1
  C  C15  1  0.56685600  0.35086800  0.82291000  1
  C  C16  1  0.93314400  0.35086800  0.32291000  1
  C  C17  1  0.43314400  0.64913200  0.17709000  1
  C  C18  1  0.40677600  0.66270000  0.70694800  1
  C  C19  1  0.90677600  0.33730000  0.79305200  1
  C  C20  1  0.59322400  0.33730000  0.29305200  1
  C  C21  1  0.09322400  0.66270000  0.20694800  1
  C  C22  1  0.37480400  0.89717300  0.74042400  1
  C  C23  1  0.87480400  0.10282700  0.75957600  1
  C  C24  1  0.62519600  0.10282700  0.25957600  1
  C  C25  1  0.12519600  0.89717300  0.24042400  1
  C  C26  1  0.39300000  0.04652100  0.21435900  1
  C  C27  1  0.89300000  0.95347900  0.28564100  1
  C  C28  1  0.60700000  0.95347900  0.78564100  1
  C  C29  1  0.10700000  0.04652100  0.71435900  1
  C  C30  1  0.30932600  0.97324800  0.33932600  1
  C  C31  1  0.80932600  0.02675200  0.16067400  1
  C  C32  1  0.69067400  0.02675200  0.66067400  1
  C  C33  1  0.19067400  0.97324800  0.83932600  1
  C  C34  1  0.56887600  0.65819500  0.41312300  1
  C  C35  1  0.06887600  0.34180500  0.08687700  1
  C  C36  1  0.43112400  0.34180500  0.58687700  1
  C  C37  1  0.93112400  0.65819500  0.91312300  1
  C  C38  1  0.64499100  0.67535100  0.54239500  1
  C  C39  1  0.14499100  0.32464900  0.95760500  1
  C  C40  1  0.35500900  0.32464900  0.45760500  1
  C  C41  1  0.85500900  0.67535100  0.04239500  1
  Ni  Ni42  1  0.35695100  0.25159300  0.88892900  1
  Ni  Ni43  1  0.85695100  0.74840700  0.61107100  1
  Ni  Ni44  1  0.64304900  0.74840700  0.11107100  1
  Ni  Ni45  1  0.14304900  0.25159300  0.38892900  1
  Cu  Cu46  1  0.13548600  0.62253800  0.62704900  1
  Cu  Cu47  1  0.63548600  0.37746200  0.87295100  1
  Cu  Cu48  1  0.86451400  0.37746200  0.37295100  1
  Cu  Cu49  1  0.36451400  0.62253800  0.12704900  1
  C  C50  1  0.26286000  0.39746100  0.87797500  1
  C  C51  1  0.76286000  0.60253900  0.62202500  1
  C  C52  1  0.73714000  0.60253900  0.12202500  1
  C  C53  1  0.23714000  0.39746100  0.37797500  1
  C  C54  1  0.41134900  0.22858000  0.02964700  1
  C  C55  1  0.91134900  0.77142000  0.47035300  1
  C  C56  1  0.58865100  0.77142000  0.97035300  1
  C  C57  1  0.08865100  0.22858000  0.52964700  1
  C  C58  1  0.42856400  0.36725200  0.76446200  1
  C  C59  1  0.92856400  0.63274800  0.73553800  1
  C  C60  1  0.57143600  0.63274800  0.23553800  1
  C  C61  1  0.07143600  0.36725200  0.26446200  1
  C  C62  1  0.32741800  0.02092600  0.87701700  1
  C  C63  1  0.82741800  0.97907400  0.62298300  1
  C  C64  1  0.67258200  0.97907400  0.12298300  1
  C  C65  1  0.17258200  0.02092600  0.37701700  1
  C  C66  1  0.39423900  0.82834100  0.66229800  1
  C  C67  1  0.89423900  0.17165900  0.83770200  1
  C  C68  1  0.60576100  0.17165900  0.33770200  1
  C  C69  1  0.10576100  0.82834100  0.16229800  1
  C  C70  1  0.38222600  0.94948900  0.31611700  1
  C  C71  1  0.88222600  0.05051100  0.18388300  1
  C  C72  1  0.61777400  0.05051100  0.68388300  1
  C  C73  1  0.11777400  0.94948900  0.81611700  1
  C  C74  1  0.57191600  0.69481900  0.50768100  1
  C  C75  1  0.07191600  0.30518100  0.99231900  1
  C  C76  1  0.42808400  0.30518100  0.49231900  1
  C  C77  1  0.92808400  0.69481900  0.00768100  1
