# generated using pymatgen
data_Cu6Ni5C29
_symmetry_space_group_name_H-M   'P 1'
_cell_length_a   9.15519200
_cell_length_b   9.15616893
_cell_length_c   9.27718027
_cell_angle_alpha   61.64082704
_cell_angle_beta   61.44506370
_cell_angle_gamma   60.08990782
_symmetry_Int_Tables_number   1
_chemical_formula_structural   Cu6Ni5C29
_chemical_formula_sum   'Cu6 Ni5 C29'
_cell_volume   562.77020891
_cell_formula_units_Z   1
loop_
 _symmetry_equiv_pos_site_id
 _symmetry_equiv_pos_as_xyz
  1  'x, y, z'
loop_
 _atom_site_type_symbol
 _atom_site_label
 _atom_site_symmetry_multiplicity
 _atom_site_fract_x
 _atom_site_fract_y
 _atom_site_fract_z
 _atom_site_occupancy
  C  C0  1  0.86567500  0.64942800  0.22183500  1
  C  C1  1  0.18034700  0.31773700  0.65650800  1
  C  C2  1  0.86180300  0.17255900  0.64893700  1
  C  C3  1  0.30800300  0.85094000  0.65893200  1
  C  C4  1  0.19708600  0.18677400  0.44337300  1
  Ni  Ni5  1  0.01161500  0.03317400  0.95983400  1
  Ni  Ni6  1  0.50150000  0.50105900  0.48435000  1
  Ni  Ni7  1  0.84574500  0.84449300  0.46889000  1
  Ni  Ni8  1  0.64651100  0.65320500  0.04156400  1
  Ni  Ni9  1  0.34272000  0.33188600  0.97456400  1
  Cu  Cu10  1  0.24403300  0.56265100  0.26527600  1
  Cu  Cu11  1  0.93471300  0.23906000  0.26808200  1
  Cu  Cu12  1  0.43905800  0.02983200  0.76246700  1
  Cu  Cu13  1  0.02713200  0.76122500  0.78256200  1
  Cu  Cu14  1  0.76697500  0.44536100  0.74370700  1
  Cu  Cu15  1  0.56012500  0.92966600  0.26896900  1
  C  C16  1  0.67911200  0.48193500  0.91741400  1
  C  C17  1  0.45921200  0.91004400  0.94211300  1
  C  C18  1  0.08073400  0.73320500  0.30181100  1
  C  C19  1  0.91980700  0.68562600  0.97216300  1
  C  C20  1  0.22377700  0.39547600  0.41841700  1
  C  C21  1  0.41257400  0.58615400  0.25036000  1
  C  C22  1  0.87576200  0.08418100  0.31499900  1
  C  C23  1  0.76096500  0.41452300  0.26468800  1
  C  C24  1  0.60333400  0.97219400  0.61364200  1
  C  C25  1  0.59238300  0.74244300  0.26514800  1
  C  C26  1  0.27598700  0.02236300  0.75114600  1
  C  C27  1  0.94835000  0.77762300  0.65729600  1
  C  C28  1  0.99363200  0.21376400  0.41104200  1
  C  C29  1  0.74196600  0.88334900  0.29027000  1
  C  C30  1  0.38987700  0.22787200  0.73471700  1
  C  C31  1  0.39743700  0.97148600  0.42281200  1
  C  C32  1  0.22762000  0.64930700  0.73813300  1
  C  C33  1  0.01307700  0.95002000  0.75813700  1
  C  C34  1  0.65671800  0.37754800  0.72045400  1
  C  C35  1  0.79811800  0.60755900  0.58364200  1
  C  C36  1  0.07322900  0.26104000  0.08850200  1
  C  C37  1  0.95273300  0.28934000  0.74252400  1
  C  C38  1  0.55198100  0.07206600  0.09542100  1
  C  C39  1  0.26157400  0.55882900  0.09530300  1
