# generated using pymatgen
data_Cu6Ni2C11
_symmetry_space_group_name_H-M   'P 1'
_cell_length_a   11.01926900
_cell_length_b   7.10629300
_cell_length_c   9.93096945
_cell_angle_alpha   66.68315960
_cell_angle_beta   90.00000000
_cell_angle_gamma   90.00000000
_symmetry_Int_Tables_number   1
_chemical_formula_structural   Cu6Ni2C11
_chemical_formula_sum   'Cu24 Ni8 C44'
_cell_volume   714.14492177
_cell_formula_units_Z   4
loop_
 _symmetry_equiv_pos_site_id
 _symmetry_equiv_pos_as_xyz
  1  'x, y, z'
loop_
 _atom_site_type_symbol
 _atom_site_label
 _atom_site_symmetry_multiplicity
 _atom_site_fract_x
 _atom_site_fract_y
 _atom_site_fract_z
 _atom_site_occupancy
  C  C0  1  0.73796600  0.07485300  0.57847500  1
  C  C1  1  0.76203400  0.07485300  0.07847500  1
  C  C2  1  0.26203400  0.92514700  0.42152500  1
  C  C3  1  0.23796600  0.92514700  0.92152500  1
  C  C4  1  0.57859200  0.04434400  0.56923900  1
  C  C5  1  0.92140800  0.04434400  0.06923900  1
  C  C6  1  0.42140800  0.95565600  0.43076100  1
  C  C7  1  0.07859200  0.95565600  0.93076100  1
  C  C8  1  0.82709700  0.77929800  0.38923200  1
  C  C9  1  0.67290300  0.77929800  0.88923200  1
  C  C10  1  0.17290300  0.22070200  0.61076800  1
  C  C11  1  0.32709700  0.22070200  0.11076800  1
  C  C12  1  0.86800500  0.88974600  0.50839000  1
  C  C13  1  0.63199500  0.88974600  0.00839000  1
  C  C14  1  0.13199500  0.11025400  0.49161000  1
  C  C15  1  0.36800500  0.11025400  0.99161000  1
  C  C16  1  0.45325500  0.83656400  0.21831700  1
  C  C17  1  0.04674500  0.83656400  0.71831700  1
  C  C18  1  0.54674500  0.16343600  0.78168300  1
  C  C19  1  0.95325500  0.16343600  0.28168300  1
  C  C20  1  0.49277000  0.59257600  0.22366100  1
  C  C21  1  0.00723000  0.59257600  0.72366100  1
  C  C22  1  0.50723000  0.40742400  0.77633900  1
  C  C23  1  0.99277000  0.40742400  0.27633900  1
  C  C24  1  0.71807400  0.49636200  0.49349400  1
  C  C25  1  0.78192600  0.49636200  0.99349400  1
  C  C26  1  0.28192600  0.50363800  0.50650600  1
  C  C27  1  0.21807400  0.50363800  0.00650600  1
  C  C28  1  0.66770500  0.44575900  0.34301300  1
  C  C29  1  0.83229500  0.44575900  0.84301300  1
  C  C30  1  0.33229500  0.55424100  0.65698700  1
  C  C31  1  0.16770500  0.55424100  0.15698700  1
  Ni  Ni32  1  0.68480400  0.89579300  0.47252400  1
  Ni  Ni33  1  0.81519600  0.89579300  0.97252400  1
  Ni  Ni34  1  0.31519600  0.10420700  0.52747600  1
  Ni  Ni35  1  0.18480400  0.10420700  0.02747600  1
  Ni  Ni36  1  0.59062900  0.69752100  0.35880300  1
  Ni  Ni37  1  0.90937100  0.69752100  0.85880300  1
  Ni  Ni38  1  0.40937100  0.30247900  0.64119700  1
  Ni  Ni39  1  0.09062900  0.30247900  0.14119700  1
  Cu  Cu40  1  0.66583200  0.00236000  0.55601700  1
  Cu  Cu41  1  0.83416800  0.00236000  0.05601700  1
  Cu  Cu42  1  0.33416800  0.99764000  0.44398300  1
  Cu  Cu43  1  0.16583200  0.99764000  0.94398300  1
  Cu  Cu44  1  0.80154000  0.86088100  0.44827600  1
  Cu  Cu45  1  0.69846000  0.86088100  0.94827600  1
  Cu  Cu46  1  0.19846000  0.13911900  0.55172400  1
  Cu  Cu47  1  0.30154000  0.13911900  0.05172400  1
  Cu  Cu48  1  0.58742600  0.84186000  0.41455000  1
  Cu  Cu49  1  0.91257400  0.84186000  0.91455000  1
  Cu  Cu50  1  0.41257400  0.15814000  0.58545000  1
  Cu  Cu51  1  0.08742600  0.15814000  0.08545000  1
  Cu  Cu52  1  0.50598600  0.70937400  0.25818200  1
  Cu  Cu53  1  0.99401400  0.70937400  0.75818200  1
  Cu  Cu54  1  0.49401400  0.29062600  0.74181800  1
  Cu  Cu55  1  0.00598600  0.29062600  0.24181800  1
  Cu  Cu56  1  0.66969400  0.54090700  0.39772600  1
  Cu  Cu57  1  0.83030600  0.54090700  0.89772600  1
  Cu  Cu58  1  0.33030600  0.45909300  0.60227400  1
  Cu  Cu59  1  0.16969400  0.45909300  0.10227400  1
  Cu  Cu60  1  0.58130900  0.28763000  0.13903400  1
  Cu  Cu61  1  0.91869100  0.28763000  0.63903400  1
  Cu  Cu62  1  0.41869100  0.71237000  0.86096600  1
  Cu  Cu63  1  0.08130900  0.71237000  0.36096600  1
  C  C64  1  0.68293300  0.33657200  0.17769900  1
  C  C65  1  0.81706700  0.33657200  0.67769900  1
  C  C66  1  0.31706700  0.66342800  0.82230100  1
  C  C67  1  0.18293300  0.66342800  0.32230100  1
  C  C68  1  0.48326600  0.34732700  0.17574700  1
  C  C69  1  0.01673400  0.34732700  0.67574700  1
  C  C70  1  0.51673400  0.65267300  0.82425300  1
  C  C71  1  0.98326600  0.65267300  0.32425300  1
  C  C72  1  0.57939400  0.17920700  0.06398500  1
  C  C73  1  0.92060600  0.17920700  0.56398500  1
  C  C74  1  0.42060600  0.82079300  0.93601500  1
  C  C75  1  0.07939400  0.82079300  0.43601500  1
