# generated using pymatgen
data_Cu16Ni12C31
_symmetry_space_group_name_H-M   'P 1'
_cell_length_a   11.43240000
_cell_length_b   9.73879900
_cell_length_c   10.16183765
_cell_angle_alpha   86.62575995
_cell_angle_beta   90.00000000
_cell_angle_gamma   90.00000000
_symmetry_Int_Tables_number   1
_chemical_formula_structural   Cu16Ni12C31
_chemical_formula_sum   'Cu32 Ni24 C62'
_cell_volume   1129.43571232
_cell_formula_units_Z   2
loop_
 _symmetry_equiv_pos_site_id
 _symmetry_equiv_pos_as_xyz
  1  'x, y, z'
loop_
 _atom_site_type_symbol
 _atom_site_label
 _atom_site_symmetry_multiplicity
 _atom_site_fract_x
 _atom_site_fract_y
 _atom_site_fract_z
 _atom_site_occupancy
  C  C0  1  0.60279200  0.55616500  0.72781800  1
  C  C1  1  0.89720800  0.05616500  0.72781800  1
  C  C2  1  0.10279200  0.94383500  0.27218200  1
  C  C3  1  0.39720800  0.44383500  0.27218200  1
  C  C4  1  0.00000000  0.00000000  0.00000000  1
  C  C5  1  0.50000000  0.50000000  0.00000000  1
  Ni  Ni6  1  0.01432000  0.35117400  0.72454500  1
  Ni  Ni7  1  0.02307400  0.52548900  0.90593900  1
  Ni  Ni8  1  0.31855600  0.41126800  0.78985500  1
  Ni  Ni9  1  0.80291200  0.02246000  0.47347400  1
  Ni  Ni10  1  0.17788200  0.20900400  0.18045500  1
  Ni  Ni11  1  0.83382600  0.77643700  0.53296200  1
  Ni  Ni12  1  0.66617400  0.27643700  0.53296200  1
  Ni  Ni13  1  0.32211800  0.70900400  0.18045500  1
  Ni  Ni14  1  0.69708800  0.52246000  0.47347400  1
  Ni  Ni15  1  0.18144400  0.91126800  0.78985500  1
  Ni  Ni16  1  0.47692600  0.02548900  0.90593900  1
  Ni  Ni17  1  0.48568000  0.85117400  0.72454500  1
  Ni  Ni18  1  0.51432000  0.14882600  0.27545500  1
  Ni  Ni19  1  0.52307400  0.97451100  0.09406100  1
  Ni  Ni20  1  0.81855600  0.08873200  0.21014500  1
  Ni  Ni21  1  0.30291200  0.47754000  0.52652600  1
  Ni  Ni22  1  0.67788200  0.29099600  0.81954500  1
  Ni  Ni23  1  0.33382600  0.72356300  0.46703800  1
  Ni  Ni24  1  0.16617400  0.22356300  0.46703800  1
  Ni  Ni25  1  0.82211800  0.79099600  0.81954500  1
  Ni  Ni26  1  0.19708800  0.97754000  0.52652600  1
  Ni  Ni27  1  0.68144400  0.58873200  0.21014500  1
  Ni  Ni28  1  0.97692600  0.47451100  0.09406100  1
  Ni  Ni29  1  0.98568000  0.64882600  0.27545500  1
  Cu  Cu30  1  0.13770000  0.42418400  0.48013400  1
  Cu  Cu31  1  0.89938700  0.04386800  0.51556500  1
  Cu  Cu32  1  0.91622000  0.77995300  0.03783900  1
  Cu  Cu33  1  0.86930600  0.34688200  0.32447500  1
  Cu  Cu34  1  0.04294600  0.23424400  0.30925100  1
  Cu  Cu35  1  0.79507800  0.61404200  0.91193200  1
  Cu  Cu36  1  0.68956100  0.56596700  0.35103800  1
  Cu  Cu37  1  0.77605800  0.63248000  0.18672700  1
  Cu  Cu38  1  0.72394200  0.13248000  0.18672700  1
  Cu  Cu39  1  0.81043900  0.06596700  0.35103800  1
  Cu  Cu40  1  0.70492200  0.11404200  0.91193200  1
  Cu  Cu41  1  0.45705400  0.73424400  0.30925100  1
  Cu  Cu42  1  0.63069400  0.84688200  0.32447500  1
  Cu  Cu43  1  0.58378000  0.27995300  0.03783900  1
  Cu  Cu44  1  0.60061300  0.54386800  0.51556500  1
  Cu  Cu45  1  0.36230000  0.92418400  0.48013400  1
  Cu  Cu46  1  0.63770000  0.07581600  0.51986600  1
  Cu  Cu47  1  0.39938700  0.45613200  0.48443500  1
  Cu  Cu48  1  0.41622000  0.72004700  0.96216100  1
  Cu  Cu49  1  0.36930600  0.15311800  0.67552500  1
  Cu  Cu50  1  0.54294600  0.26575600  0.69074900  1
  Cu  Cu51  1  0.29507800  0.88595800  0.08806800  1
  Cu  Cu52  1  0.18956100  0.93403300  0.64896200  1
  Cu  Cu53  1  0.27605800  0.86752000  0.81327300  1
  Cu  Cu54  1  0.22394200  0.36752000  0.81327300  1
  Cu  Cu55  1  0.31043900  0.43403300  0.64896200  1
  Cu  Cu56  1  0.20492200  0.38595800  0.08806800  1
  Cu  Cu57  1  0.95705400  0.76575600  0.69074900  1
  Cu  Cu58  1  0.13069400  0.65311800  0.67552500  1
  Cu  Cu59  1  0.08378000  0.22004700  0.96216100  1
  Cu  Cu60  1  0.10061300  0.95613200  0.48443500  1
  Cu  Cu61  1  0.86230000  0.57581600  0.51986600  1
  C  C62  1  0.28733900  0.87486400  0.46725600  1
  C  C63  1  0.99464100  0.79243900  0.08019400  1
  C  C64  1  0.08223500  0.44440100  0.01303000  1
  C  C65  1  0.10735000  0.63968900  0.86841300  1
  C  C66  1  0.37351200  0.69879600  0.32441200  1
  C  C67  1  0.98783100  0.46458500  0.78149500  1
  C  C68  1  0.91399700  0.29091300  0.26429500  1
  C  C69  1  0.97775600  0.64025100  0.41495300  1
  C  C70  1  0.36034600  0.61405300  0.10629800  1
  C  C71  1  0.74298600  0.38459800  0.48787100  1
  C  C72  1  0.96747400  0.78277800  0.22112800  1
  C  C73  1  0.40602000  0.46293300  0.84442600  1
  C  C74  1  0.44768400  0.72262800  0.53874900  1
  C  C75  1  0.75510600  0.67455700  0.84025800  1
  C  C76  1  0.74489400  0.17455700  0.84025800  1
  C  C77  1  0.05231600  0.22262800  0.53874900  1
  C  C78  1  0.09398000  0.96293300  0.84442600  1
  C  C79  1  0.53252600  0.28277800  0.22112800  1
  C  C80  1  0.75701400  0.88459800  0.48787100  1
  C  C81  1  0.13965400  0.11405300  0.10629800  1
  C  C82  1  0.52224400  0.14025100  0.41495300  1
  C  C83  1  0.58600300  0.79091300  0.26429500  1
  C  C84  1  0.51216900  0.96458500  0.78149500  1
  C  C85  1  0.12648800  0.19879600  0.32441200  1
  C  C86  1  0.39265000  0.13968900  0.86841300  1
  C  C87  1  0.41776500  0.94440100  0.01303000  1
  C  C88  1  0.50535900  0.29243900  0.08019400  1
  C  C89  1  0.21266100  0.37486400  0.46725600  1
  C  C90  1  0.78733900  0.62513600  0.53274400  1
  C  C91  1  0.49464100  0.70756100  0.91980600  1
  C  C92  1  0.58223500  0.05559900  0.98697000  1
  C  C93  1  0.60735000  0.86031100  0.13158700  1
  C  C94  1  0.87351200  0.80120400  0.67558800  1
  C  C95  1  0.48783100  0.03541500  0.21850500  1
  C  C96  1  0.41399700  0.20908700  0.73570500  1
  C  C97  1  0.47775600  0.85974900  0.58504700  1
  C  C98  1  0.86034600  0.88594700  0.89370200  1
  C  C99  1  0.24298600  0.11540200  0.51212900  1
  C  C100  1  0.46747400  0.71722200  0.77887200  1
  C  C101  1  0.90602000  0.03706700  0.15557400  1
  C  C102  1  0.94768400  0.77737200  0.46125100  1
  C  C103  1  0.25510600  0.82544300  0.15974200  1
  C  C104  1  0.24489400  0.32544300  0.15974200  1
  C  C105  1  0.55231600  0.27737200  0.46125100  1
  C  C106  1  0.59398000  0.53706700  0.15557400  1
  C  C107  1  0.03252600  0.21722200  0.77887200  1
  C  C108  1  0.25701400  0.61540200  0.51212900  1
  C  C109  1  0.63965400  0.38594700  0.89370200  1
  C  C110  1  0.02224400  0.35974900  0.58504700  1
  C  C111  1  0.08600300  0.70908700  0.73570500  1
  C  C112  1  0.01216900  0.53541500  0.21850500  1
  C  C113  1  0.62648800  0.30120400  0.67558800  1
  C  C114  1  0.89265000  0.36031100  0.13158700  1
  C  C115  1  0.91776500  0.55559900  0.98697000  1
  C  C116  1  0.00535900  0.20756100  0.91980600  1
  C  C117  1  0.71266100  0.12513600  0.53274400  1
