# generated using pymatgen
data_Cu5NiC2
_symmetry_space_group_name_H-M   'P 1'
_cell_length_a   9.06247655
_cell_length_b   5.42189433
_cell_length_c   7.59419446
_cell_angle_alpha   87.10495726
_cell_angle_beta   66.14450352
_cell_angle_gamma   105.88556037
_symmetry_Int_Tables_number   1
_chemical_formula_structural   Cu5NiC2
_chemical_formula_sum   'Cu15 Ni3 C6'
_cell_volume   322.67623421
_cell_formula_units_Z   3
loop_
 _symmetry_equiv_pos_site_id
 _symmetry_equiv_pos_as_xyz
  1  'x, y, z'
loop_
 _atom_site_type_symbol
 _atom_site_label
 _atom_site_symmetry_multiplicity
 _atom_site_fract_x
 _atom_site_fract_y
 _atom_site_fract_z
 _atom_site_occupancy
  C  C0  1  0.00414400  0.99973200  0.99868000  1
  C  C1  1  0.99277000  0.96725900  0.50813500  1
  C  C2  1  0.33998900  0.63720500  0.33539100  1
  C  C3  1  0.31799100  0.68049100  0.84576300  1
  C  C4  1  0.66254900  0.33093900  0.17099400  1
  C  C5  1  0.66920100  0.34391900  0.66735100  1
  Ni  Ni6  1  0.14796100  0.77648000  0.96495600  1
  Ni  Ni7  1  0.46463000  0.44972200  0.30679800  1
  Ni  Ni8  1  0.86694700  0.65780900  0.60629000  1
  Cu  Cu9  1  0.20212000  0.88711200  0.35337900  1
  Cu  Cu10  1  0.39755400  0.70302000  0.05178700  1
  Cu  Cu11  1  0.13070700  0.35331200  0.38845900  1
  Cu  Cu12  1  0.52972800  0.96537000  0.28550100  1
  Cu  Cu13  1  0.26582400  0.62946600  0.61665400  1
  Cu  Cu14  1  0.06819500  0.03902600  0.71391000  1
  Cu  Cu15  1  0.80183600  0.69921300  0.04896100  1
  Cu  Cu16  1  0.20147900  0.30424800  0.95061800  1
  Cu  Cu17  1  0.93782700  0.97425400  0.28162700  1
  Cu  Cu18  1  0.52321400  0.56292200  0.69254800  1
  Cu  Cu19  1  0.86612600  0.23092000  0.01888200  1
  Cu  Cu20  1  0.73224600  0.36908800  0.38446800  1
  Cu  Cu21  1  0.47186000  0.02948700  0.71253900  1
  Cu  Cu22  1  0.60091300  0.29864100  0.94968300  1
  Cu  Cu23  1  0.80419000  0.11036500  0.64662900  1
