# generated using pymatgen
data_Cu13(NiC6)5
_symmetry_space_group_name_H-M   'P 1'
_cell_length_a   10.10629800
_cell_length_b   5.25633800
_cell_length_c   10.67672207
_cell_angle_alpha   83.80937140
_cell_angle_beta   90.00000000
_cell_angle_gamma   90.00000000
_symmetry_Int_Tables_number   1
_chemical_formula_structural   Cu13(NiC6)5
_chemical_formula_sum   'Cu13 Ni5 C30'
_cell_volume   563.86270517
_cell_formula_units_Z   1
loop_
 _symmetry_equiv_pos_site_id
 _symmetry_equiv_pos_as_xyz
  1  'x, y, z'
loop_
 _atom_site_type_symbol
 _atom_site_label
 _atom_site_symmetry_multiplicity
 _atom_site_fract_x
 _atom_site_fract_y
 _atom_site_fract_z
 _atom_site_occupancy
  Ni  Ni0  1  0.00000000  0.32309400  0.06574500  1
  Ni  Ni1  1  0.50000000  0.34035100  0.26852200  1
  Ni  Ni2  1  0.50000000  0.00942000  0.60027800  1
  Ni  Ni3  1  0.00000000  0.99143600  0.39639100  1
  Ni  Ni4  1  0.50000000  0.67277800  0.93582000  1
  Cu  Cu5  1  0.68308600  0.22701600  0.04555300  1
  Cu  Cu6  1  0.31691400  0.22701600  0.04555300  1
  Cu  Cu7  1  0.18226600  0.44280800  0.28878100  1
  Cu  Cu8  1  0.81773400  0.44280800  0.28878100  1
  Cu  Cu9  1  0.18862400  0.10760300  0.61894600  1
  Cu  Cu10  1  0.81137600  0.10760300  0.61894600  1
  Cu  Cu11  1  0.68269700  0.89027200  0.37664200  1
  Cu  Cu12  1  0.31808200  0.56177400  0.71347700  1
  Cu  Cu13  1  0.31730300  0.89027200  0.37664200  1
  Cu  Cu14  1  0.68191800  0.56177400  0.71347700  1
  Cu  Cu15  1  0.00000000  0.65848500  0.73210900  1
  Cu  Cu16  1  0.18804200  0.77800100  0.95786700  1
  Cu  Cu17  1  0.81195800  0.77800100  0.95786700  1
  C  C18  1  0.86338200  0.07483400  0.01502700  1
  C  C19  1  0.13661800  0.07483400  0.01502700  1
  C  C20  1  0.31303100  0.14583500  0.22936600  1
  C  C21  1  0.68696900  0.14583500  0.22936600  1
  C  C22  1  0.50000000  0.36711400  0.07373700  1
  C  C23  1  0.50000000  0.03350600  0.40730100  1
  C  C24  1  0.00000000  0.29919600  0.25962600  1
  C  C25  1  0.18410000  0.52238400  0.10316500  1
  C  C26  1  0.81590000  0.52238400  0.10316500  1
  C  C27  1  0.81673700  0.18808200  0.43880700  1
  C  C28  1  0.18326300  0.18808200  0.43880700  1
  C  C29  1  0.63668200  0.59080200  0.31803700  1
  C  C30  1  0.36331800  0.59080200  0.31803700  1
  C  C31  1  0.63900000  0.25913300  0.65251100  1
  C  C32  1  0.36100000  0.25913300  0.65251100  1
  C  C33  1  0.86303700  0.74200200  0.34883600  1
  C  C34  1  0.13696300  0.74200200  0.34883600  1
  C  C35  1  0.86988600  0.41457000  0.68284200  1
  C  C36  1  0.13011400  0.41457000  0.68284200  1
  C  C37  1  0.31454800  0.47909000  0.89545200  1
  C  C38  1  0.68799000  0.81597400  0.56340700  1
  C  C39  1  0.31201000  0.81597400  0.56340700  1
  C  C40  1  0.68545200  0.47909000  0.89545200  1
  C  C41  1  0.50000000  0.70256200  0.73970700  1
  C  C42  1  0.00000000  0.95019100  0.59764300  1
  C  C43  1  0.00000000  0.62501700  0.91731100  1
  C  C44  1  0.18072300  0.84842500  0.77006000  1
  C  C45  1  0.81927700  0.84842500  0.77006000  1
  C  C46  1  0.63660500  0.92481900  0.98413000  1
  C  C47  1  0.36339500  0.92481900  0.98413000  1
