# generated using pymatgen
data_CuNi3C2
_symmetry_space_group_name_H-M   'P 1'
_cell_length_a   4.67878334
_cell_length_b   4.67878334
_cell_length_c   15.17475200
_cell_angle_alpha   90.00000000
_cell_angle_beta   90.00000000
_cell_angle_gamma   93.43689447
_symmetry_Int_Tables_number   1
_chemical_formula_structural   CuNi3C2
_chemical_formula_sum   'Cu5 Ni15 C10'
_cell_volume   331.59323445
_cell_formula_units_Z   5
loop_
 _symmetry_equiv_pos_site_id
 _symmetry_equiv_pos_as_xyz
  1  'x, y, z'
loop_
 _atom_site_type_symbol
 _atom_site_label
 _atom_site_symmetry_multiplicity
 _atom_site_fract_x
 _atom_site_fract_y
 _atom_site_fract_z
 _atom_site_occupancy
  C  C0  1  0.99068200  0.00931800  0.19974400  1
  C  C1  1  0.99667500  0.00332500  0.39977300  1
  C  C2  1  0.99667500  0.00332500  0.60022700  1
  C  C3  1  0.98848100  0.01151900  0.00000000  1
  C  C4  1  0.99068200  0.00931800  0.80025600  1
  C  C5  1  0.45348800  0.54651200  0.50000000  1
  C  C6  1  0.53258600  0.46741400  0.10018400  1
  C  C7  1  0.53258600  0.46741400  0.89981600  1
  C  C8  1  0.53703800  0.46296200  0.69946600  1
  C  C9  1  0.53703800  0.46296200  0.30053500  1
  Ni  Ni10  1  0.79972500  0.20027500  0.69985000  1
  Ni  Ni11  1  0.79639800  0.20360200  0.89988000  1
  Ni  Ni12  1  0.79972500  0.20027500  0.30015000  1
  Ni  Ni13  1  0.79639800  0.20360200  0.10012000  1
  Ni  Ni14  1  0.30382200  0.31183600  0.59982200  1
  Ni  Ni15  1  0.30382200  0.31183600  0.40017800  1
  Ni  Ni16  1  0.30602800  0.30778000  0.20030400  1
  Ni  Ni17  1  0.30322700  0.31074600  0.00000000  1
  Ni  Ni18  1  0.30602800  0.30778000  0.79969600  1
  Ni  Ni19  1  0.68816400  0.69617800  0.59982200  1
  Ni  Ni20  1  0.68816400  0.69617800  0.40017800  1
  Ni  Ni21  1  0.69222000  0.69397200  0.20030400  1
  Ni  Ni22  1  0.68925400  0.69677300  0.00000000  1
  Ni  Ni23  1  0.69222000  0.69397200  0.79969600  1
  Ni  Ni24  1  0.19188500  0.80811500  0.50000000  1
  Cu  Cu25  1  0.79399200  0.20600800  0.50000000  1
  Cu  Cu26  1  0.19924900  0.80075100  0.29918700  1
  Cu  Cu27  1  0.19724900  0.80275100  0.09959600  1
  Cu  Cu28  1  0.19924900  0.80075100  0.70081300  1
  Cu  Cu29  1  0.19724900  0.80275100  0.90040400  1
