# generated using pymatgen
data_Cu3NiC
_symmetry_space_group_name_H-M   'P 1'
_cell_length_a   9.31185000
_cell_length_b   9.31185000
_cell_length_c   3.77577800
_cell_angle_alpha   90.00000000
_cell_angle_beta   90.00000000
_cell_angle_gamma   90.00000000
_symmetry_Int_Tables_number   1
_chemical_formula_structural   Cu3NiC
_chemical_formula_sum   'Cu12 Ni4 C4'
_cell_volume   327.39978865
_cell_formula_units_Z   4
loop_
 _symmetry_equiv_pos_site_id
 _symmetry_equiv_pos_as_xyz
  1  'x, y, z'
loop_
 _atom_site_type_symbol
 _atom_site_label
 _atom_site_symmetry_multiplicity
 _atom_site_fract_x
 _atom_site_fract_y
 _atom_site_fract_z
 _atom_site_occupancy
  C  C0  1  0.36986500  0.13013500  0.75750600  1
  C  C1  1  0.86986500  0.36986500  0.24249400  1
  C  C2  1  0.13013500  0.63013500  0.24249400  1
  C  C3  1  0.63013500  0.86986500  0.75750600  1
  Ni  Ni4  1  0.38918900  0.11081100  0.25752200  1
  Ni  Ni5  1  0.88918900  0.38918900  0.74247800  1
  Ni  Ni6  1  0.11081100  0.61081100  0.74247800  1
  Ni  Ni7  1  0.61081100  0.88918900  0.25752200  1
  Cu  Cu8  1  0.59355400  0.09355400  0.75760200  1
  Cu  Cu9  1  0.16895200  0.10688400  0.75605200  1
  Cu  Cu10  1  0.89311600  0.16895200  0.24394800  1
  Cu  Cu11  1  0.39311600  0.33104800  0.75605200  1
  Cu  Cu12  1  0.66895200  0.39311600  0.24394800  1
  Cu  Cu13  1  0.09355400  0.40644600  0.24239800  1
  Cu  Cu14  1  0.90644600  0.59355400  0.24239800  1
  Cu  Cu15  1  0.33104800  0.60688400  0.24394800  1
  Cu  Cu16  1  0.60688400  0.66895200  0.75605200  1
  Cu  Cu17  1  0.10688400  0.83104800  0.24394800  1
  Cu  Cu18  1  0.83104800  0.89311600  0.75605200  1
  Cu  Cu19  1  0.40644600  0.90644600  0.75760200  1
