# generated using pymatgen
data_CuNiC11
_symmetry_space_group_name_H-M   'P 1'
_cell_length_a   6.32910800
_cell_length_b   9.41178100
_cell_length_c   9.74443610
_cell_angle_alpha   63.96928575
_cell_angle_beta   90.00000000
_cell_angle_gamma   90.00000000
_symmetry_Int_Tables_number   1
_chemical_formula_structural   CuNiC11
_chemical_formula_sum   'Cu4 Ni4 C44'
_cell_volume   521.57599185
_cell_formula_units_Z   4
loop_
 _symmetry_equiv_pos_site_id
 _symmetry_equiv_pos_as_xyz
  1  'x, y, z'
loop_
 _atom_site_type_symbol
 _atom_site_label
 _atom_site_symmetry_multiplicity
 _atom_site_fract_x
 _atom_site_fract_y
 _atom_site_fract_z
 _atom_site_occupancy
  C  C0  1  0.24996400  0.09994600  0.31695800  1
  C  C1  1  0.25003600  0.09994600  0.81695800  1
  C  C2  1  0.00925800  0.27818600  0.49144000  1
  C  C3  1  0.49074200  0.27818600  0.99144000  1
  C  C4  1  0.75150600  0.34760600  0.68627400  1
  C  C5  1  0.74849400  0.34760600  0.18627400  1
  C  C6  1  0.24849400  0.65239400  0.31372600  1
  C  C7  1  0.25150600  0.65239400  0.81372600  1
  C  C8  1  0.99074200  0.72181400  0.50856000  1
  C  C9  1  0.50925800  0.72181400  0.00856000  1
  C  C10  1  0.75003600  0.90005400  0.68304200  1
  C  C11  1  0.74996400  0.90005400  0.18304200  1
  C  C12  1  0.49058100  0.27427200  0.48756300  1
  C  C13  1  0.00941900  0.27427200  0.98756300  1
  C  C14  1  0.50941900  0.72572800  0.51243700  1
  C  C15  1  0.99058100  0.72572800  0.01243700  1
  Ni  Ni16  1  0.24783800  0.40908600  0.68492800  1
  Ni  Ni17  1  0.25216200  0.40908600  0.18492800  1
  Ni  Ni18  1  0.75216200  0.59091400  0.31507200  1
  Ni  Ni19  1  0.74783800  0.59091400  0.81507200  1
  Cu  Cu20  1  0.74022000  0.03885300  0.37845100  1
  Cu  Cu21  1  0.75978000  0.03885300  0.87845100  1
  Cu  Cu22  1  0.25978000  0.96114700  0.62154900  1
  Cu  Cu23  1  0.24022000  0.96114700  0.12154900  1
  C  C24  1  0.74860000  0.06906100  0.73808000  1
  C  C25  1  0.75140000  0.06906100  0.23808000  1
  C  C26  1  0.26498700  0.10992100  0.51495700  1
  C  C27  1  0.73952200  0.14929000  0.42350200  1
  C  C28  1  0.23501300  0.10992100  0.01495700  1
  C  C29  1  0.76047800  0.14929000  0.92350200  1
  C  C30  1  0.05436000  0.31572100  0.67562200  1
  C  C31  1  0.44102300  0.30852500  0.67963000  1
  C  C32  1  0.05897700  0.30852500  0.17963000  1
  C  C33  1  0.44564000  0.31572100  0.17562200  1
  C  C34  1  0.74098000  0.42043900  0.44476500  1
  C  C35  1  0.25578400  0.41921400  0.34099100  1
  C  C36  1  0.75902000  0.42043900  0.94476500  1
  C  C37  1  0.24421600  0.41921400  0.84099100  1
  C  C38  1  0.74421600  0.58078600  0.65900900  1
  C  C39  1  0.25902000  0.57956100  0.55523500  1
  C  C40  1  0.75578400  0.58078600  0.15900900  1
  C  C41  1  0.24098000  0.57956100  0.05523500  1
  C  C42  1  0.94564000  0.68427900  0.32437800  1
  C  C43  1  0.55897700  0.69147500  0.32037000  1
  C  C44  1  0.94102300  0.69147500  0.82037000  1
  C  C45  1  0.55436000  0.68427900  0.82437800  1
  C  C46  1  0.26047800  0.85071000  0.57649800  1
  C  C47  1  0.73501300  0.89007900  0.48504300  1
  C  C48  1  0.23952200  0.85071000  0.07649800  1
  C  C49  1  0.76498700  0.89007900  0.98504300  1
  C  C50  1  0.25140000  0.93093900  0.26192000  1
  C  C51  1  0.24860000  0.93093900  0.76192000  1
