# generated using pymatgen
data_CuNiC16
_symmetry_space_group_name_H-M   'P 1'
_cell_length_a   5.16585700
_cell_length_b   7.38838989
_cell_length_c   15.15866793
_cell_angle_alpha   94.11483301
_cell_angle_beta   92.07554091
_cell_angle_gamma   108.93428913
_symmetry_Int_Tables_number   1
_chemical_formula_structural   CuNiC16
_chemical_formula_sum   'Cu3 Ni3 C48'
_cell_volume   544.76363683
_cell_formula_units_Z   3
loop_
 _symmetry_equiv_pos_site_id
 _symmetry_equiv_pos_as_xyz
  1  'x, y, z'
loop_
 _atom_site_type_symbol
 _atom_site_label
 _atom_site_symmetry_multiplicity
 _atom_site_fract_x
 _atom_site_fract_y
 _atom_site_fract_z
 _atom_site_occupancy
  C  C0  1  0.61455300  0.68986000  0.86742000  1
  C  C1  1  0.05207300  0.97539700  0.79898500  1
  C  C2  1  0.28193100  0.35748200  0.53396200  1
  C  C3  1  0.71806900  0.64251800  0.46603800  1
  C  C4  1  0.94792700  0.02460300  0.20101500  1
  C  C5  1  0.38544700  0.31014000  0.13258000  1
  Ni  Ni6  1  0.00000000  0.00000000  0.00000000  1
  Ni  Ni7  1  0.66712800  0.16709400  0.66639700  1
  Ni  Ni8  1  0.33287200  0.83290600  0.33360300  1
  Cu  Cu9  1  0.00000000  0.50000000  0.00000000  1
  Cu  Cu10  1  0.66643500  0.66655400  0.66682900  1
  Cu  Cu11  1  0.33356500  0.33344600  0.33317100  1
  C  C12  1  0.55820800  0.11337100  0.87981400  1
  C  C13  1  0.11036200  0.55497500  0.78670800  1
  C  C14  1  0.22276000  0.77817700  0.54732900  1
  C  C15  1  0.77724000  0.22182300  0.45267100  1
  C  C16  1  0.88963800  0.44502500  0.21329200  1
  C  C17  1  0.44179200  0.88662900  0.12018600  1
  C  C18  1  0.34035500  0.32203000  0.98038500  1
  C  C19  1  0.00606100  0.98427900  0.64685700  1
  C  C20  1  0.32707600  0.34905900  0.68645800  1
  C  C21  1  0.67292400  0.65094100  0.31354200  1
  C  C22  1  0.99393900  0.01572100  0.35314300  1
  C  C23  1  0.65964500  0.67797000  0.01961500  1
  C  C24  1  0.82369700  0.70672000  0.98432600  1
  C  C25  1  0.28690700  0.98854100  0.91558500  1
  C  C26  1  0.65936700  0.31333900  0.93217200  1
  C  C27  1  0.19077700  0.54525900  0.88546200  1
  C  C28  1  0.77420900  0.00715500  0.88668500  1
  C  C29  1  0.89277700  0.65990700  0.77971300  1
  C  C30  1  0.38185500  0.67919400  0.75042300  1
  C  C31  1  0.84497500  0.95643300  0.68343500  1
  C  C32  1  0.47805300  0.12505700  0.78139300  1
  C  C33  1  0.00882000  0.35472400  0.73510100  1
  C  C34  1  0.32428700  0.97886700  0.59846900  1
  C  C35  1  0.48811500  0.37705600  0.64985900  1
  C  C36  1  0.95121300  0.65379200  0.58328800  1
  C  C37  1  0.44020000  0.67339400  0.55398500  1
  C  C38  1  0.85608200  0.20989600  0.55147000  1
  C  C39  1  0.14391800  0.79010400  0.44853000  1
  C  C40  1  0.55980000  0.32660600  0.44601500  1
  C  C41  1  0.04878700  0.34620800  0.41671200  1
  C  C42  1  0.51188500  0.62294400  0.35014100  1
  C  C43  1  0.67571300  0.02113300  0.40153100  1
  C  C44  1  0.99118000  0.64527600  0.26489900  1
  C  C45  1  0.52194700  0.87494300  0.21860700  1
  C  C46  1  0.15502500  0.04356700  0.31656500  1
  C  C47  1  0.61814500  0.32080600  0.24957700  1
  C  C48  1  0.10722300  0.34009300  0.22028700  1
  C  C49  1  0.22579100  0.99284500  0.11331500  1
  C  C50  1  0.80922300  0.45474100  0.11453800  1
  C  C51  1  0.34063300  0.68666100  0.06782800  1
  C  C52  1  0.71309300  0.01145900  0.08441500  1
  C  C53  1  0.17630300  0.29328000  0.01567400  1
