# generated using pymatgen
data_CuNi3C22
_symmetry_space_group_name_H-M   'P 1'
_cell_length_a   12.55402289
_cell_length_b   12.55402289
_cell_length_c   5.73906100
_cell_angle_alpha   90.00000000
_cell_angle_beta   90.00000000
_cell_angle_gamma   120.00000469
_symmetry_Int_Tables_number   1
_chemical_formula_structural   CuNi3C22
_chemical_formula_sum   'Cu2 Ni6 C44'
_cell_volume   783.31651741
_cell_formula_units_Z   2
loop_
 _symmetry_equiv_pos_site_id
 _symmetry_equiv_pos_as_xyz
  1  'x, y, z'
loop_
 _atom_site_type_symbol
 _atom_site_label
 _atom_site_symmetry_multiplicity
 _atom_site_fract_x
 _atom_site_fract_y
 _atom_site_fract_z
 _atom_site_occupancy
  Ni  Ni0  1  0.96997100  0.48198200  0.69269900  1
  Ni  Ni1  1  0.03002900  0.51801800  0.19269900  1
  Ni  Ni2  1  0.51801800  0.48799000  0.69269900  1
  Ni  Ni3  1  0.48198200  0.51201000  0.19269900  1
  Ni  Ni4  1  0.48799000  0.96997100  0.19269900  1
  Ni  Ni5  1  0.51201000  0.03002900  0.69269900  1
  Cu  Cu6  1  0.33333300  0.66666700  0.66431000  1
  Cu  Cu7  1  0.66666700  0.33333300  0.16431000  1
  C  C8  1  0.00402400  0.74104400  0.22009900  1
  C  C9  1  0.26298000  0.00402400  0.72009900  1
  C  C10  1  0.74104400  0.73702000  0.72009900  1
  C  C11  1  0.25895600  0.26298000  0.22009900  1
  C  C12  1  0.73702000  0.99597600  0.22009900  1
  C  C13  1  0.99597600  0.25895600  0.72009900  1
  C  C14  1  0.26949400  0.00335900  0.22058000  1
  C  C15  1  0.26613400  0.26949400  0.72058000  1
  C  C16  1  0.00335900  0.73386600  0.72058000  1
  C  C17  1  0.99664100  0.26613400  0.22058000  1
  C  C18  1  0.73386600  0.73050600  0.22058000  1
  C  C19  1  0.73050600  0.99664100  0.72058000  1
  C  C20  1  0.33333300  0.66666700  0.27745200  1
  C  C21  1  0.66666700  0.33333300  0.77745200  1
  C  C22  1  0.62639500  0.21706400  0.80441600  1
  C  C23  1  0.40933100  0.62639500  0.30441600  1
  C  C24  1  0.64847100  0.99064500  0.95913600  1
  C  C25  1  0.65345000  0.00011600  0.47997400  1
  C  C26  1  0.73301900  0.86980600  0.71603600  1
  C  C27  1  0.74692100  0.86394000  0.22652400  1
  C  C28  1  0.86980600  0.13678700  0.21603600  1
  C  C29  1  0.65333400  0.65345000  0.97997400  1
  C  C30  1  0.65782600  0.64847100  0.45913600  1
  C  C31  1  0.86394000  0.11701900  0.72652400  1
  C  C32  1  0.99064500  0.34217400  0.45913600  1
  C  C33  1  0.00011600  0.34666600  0.97997400  1
  C  C34  1  0.21706400  0.59066900  0.30441600  1
  C  C35  1  0.88298100  0.74692100  0.72652400  1
  C  C36  1  0.86321300  0.73301900  0.21603600  1
  C  C37  1  0.13678700  0.26698100  0.71603600  1
  C  C38  1  0.11701900  0.25307900  0.22652400  1
  C  C39  1  0.78293600  0.40933100  0.80441600  1
  C  C40  1  0.99988400  0.65333400  0.47997400  1
  C  C41  1  0.00935500  0.65782600  0.95913600  1
  C  C42  1  0.13606000  0.88298100  0.22652400  1
  C  C43  1  0.34217400  0.35152900  0.95913600  1
  C  C44  1  0.34666600  0.34655000  0.47997400  1
  C  C45  1  0.13019400  0.86321300  0.71603600  1
  C  C46  1  0.25307900  0.13606000  0.72652400  1
  C  C47  1  0.26698100  0.13019400  0.21603600  1
  C  C48  1  0.34655000  0.99988400  0.97997400  1
  C  C49  1  0.35152900  0.00935500  0.45913600  1
  C  C50  1  0.59066900  0.37360500  0.80441600  1
  C  C51  1  0.37360500  0.78293600  0.30441600  1
