# generated using pymatgen
data_CuNi7C40
_symmetry_space_group_name_H-M   'P 1'
_cell_length_a   5.25692600
_cell_length_b   9.11683322
_cell_length_c   11.60155719
_cell_angle_alpha   111.42430150
_cell_angle_beta   102.29615238
_cell_angle_gamma   89.87933532
_symmetry_Int_Tables_number   1
_chemical_formula_structural   CuNi7C40
_chemical_formula_sum   'Cu1 Ni7 C40'
_cell_volume   503.97391625
_cell_formula_units_Z   1
loop_
 _symmetry_equiv_pos_site_id
 _symmetry_equiv_pos_as_xyz
  1  'x, y, z'
loop_
 _atom_site_type_symbol
 _atom_site_label
 _atom_site_symmetry_multiplicity
 _atom_site_fract_x
 _atom_site_fract_y
 _atom_site_fract_z
 _atom_site_occupancy
  C  C0  1  0.03014900  0.04008800  0.41830000  1
  C  C1  1  0.29629300  0.28492900  0.91787700  1
  C  C2  1  0.48123300  0.50715300  0.66747700  1
  C  C3  1  0.27226100  0.24482600  0.16800100  1
  C  C4  1  0.52931400  0.53974900  0.41760300  1
  C  C5  1  0.79670800  0.78443400  0.91782100  1
  C  C6  1  0.98048400  0.00846400  0.66784100  1
  C  C7  1  0.77226200  0.74421500  0.16784000  1
  Ni  Ni8  1  0.02307100  0.35608800  0.38311100  1
  Ni  Ni9  1  0.27336000  0.93988300  0.88331000  1
  Ni  Ni10  1  0.47730700  0.15686700  0.63532300  1
  Ni  Ni11  1  0.24160100  0.56449600  0.13164300  1
  Ni  Ni12  1  0.52294700  0.85627400  0.38340800  1
  Ni  Ni13  1  0.74459100  0.06561600  0.13332700  1
  Ni  Ni14  1  0.97563500  0.65488800  0.63281100  1
  Cu  Cu15  1  0.76656900  0.44141500  0.88308700  1
  C  C16  1  0.02444500  0.68565900  0.37575000  1
  C  C17  1  0.26382800  0.60217800  0.87559400  1
  C  C18  1  0.23629900  0.89214200  0.12557200  1
  C  C19  1  0.47040300  0.81455100  0.62613800  1
  C  C20  1  0.52432100  0.18552400  0.37572400  1
  C  C21  1  0.76836600  0.10637300  0.87639700  1
  C  C22  1  0.73521100  0.39214000  0.12455100  1
  C  C23  1  0.97120500  0.31484400  0.62665100  1
  C  C24  1  0.02190500  0.10985700  0.86128400  1
  C  C25  1  0.10096200  0.71136100  0.84572500  1
  C  C26  1  0.16802000  0.49092800  0.91531600  1
  C  C27  1  0.07200100  0.17012400  0.61172900  1
  C  C28  1  0.10176800  0.42494100  0.59603200  1
  C  C29  1  0.23807400  0.84985500  0.66683200  1
  C  C30  1  0.26844700  0.65402500  0.34524700  1
  C  C31  1  0.52128000  0.60585300  0.86311200  1
  C  C32  1  0.60252200  0.21497900  0.84723700  1
  C  C33  1  0.40275500  0.08519200  0.41773900  1
  C  C34  1  0.40480700  0.31513700  0.36118100  1
  C  C35  1  0.67633100  0.99430300  0.91702100  1
  C  C36  1  0.33649400  0.01299900  0.09572500  1
  C  C37  1  0.57140900  0.67006000  0.61218900  1
  C  C38  1  0.60070400  0.92512700  0.59614300  1
  C  C39  1  0.40515800  0.79334000  0.16616000  1
  C  C40  1  0.46831000  0.37056200  0.11097700  1
  C  C41  1  0.73979300  0.35054700  0.66784600  1
  C  C42  1  0.76864800  0.15409100  0.34520400  1
  C  C43  1  0.90266400  0.58522500  0.41786600  1
  C  C44  1  0.90452200  0.81494700  0.36097700  1
  C  C45  1  0.83460900  0.51205500  0.09359800  1
  C  C46  1  0.90527800  0.29433600  0.16624900  1
  C  C47  1  0.96887600  0.87055400  0.11105200  1
