# generated using pymatgen
data_CuNiC10
_symmetry_space_group_name_H-M   'P 1'
_cell_length_a   8.41702423
_cell_length_b   8.41702423
_cell_length_c   8.41702395
_cell_angle_alpha   60.78946587
_cell_angle_beta   60.78946587
_cell_angle_gamma   60.78946495
_symmetry_Int_Tables_number   1
_chemical_formula_structural   CuNiC10
_chemical_formula_sum   'Cu3 Ni3 C30'
_cell_volume   429.16716480
_cell_formula_units_Z   3
loop_
 _symmetry_equiv_pos_site_id
 _symmetry_equiv_pos_as_xyz
  1  'x, y, z'
loop_
 _atom_site_type_symbol
 _atom_site_label
 _atom_site_symmetry_multiplicity
 _atom_site_fract_x
 _atom_site_fract_y
 _atom_site_fract_z
 _atom_site_occupancy
  Ni  Ni0  1  0.64166900  0.64166900  0.64166900  1
  Ni  Ni1  1  0.85884000  0.85884000  0.85884000  1
  Ni  Ni2  1  0.35828800  0.35828800  0.35828800  1
  Cu  Cu3  1  0.00283200  0.00283200  0.00283200  1
  Cu  Cu4  1  0.14117400  0.14117400  0.14117400  1
  Cu  Cu5  1  0.50060400  0.50060400  0.50060400  1
  C  C6  1  0.95862100  0.24813800  0.54202200  1
  C  C7  1  0.54202200  0.95862100  0.24813800  1
  C  C8  1  0.24813800  0.54202200  0.95862100  1
  C  C9  1  0.74930800  0.45838800  0.03925200  1
  C  C10  1  0.45838800  0.03925200  0.74930800  1
  C  C11  1  0.03925200  0.74930800  0.45838800  1
  C  C12  1  0.51009200  0.12070200  0.30836100  1
  C  C13  1  0.30836100  0.51009200  0.12070200  1
  C  C14  1  0.12070200  0.30836100  0.51009200  1
  C  C15  1  0.94314800  0.08602400  0.74617100  1
  C  C16  1  0.98435100  0.18826700  0.38881900  1
  C  C17  1  0.75681000  0.41484600  0.56241900  1
  C  C18  1  0.74617100  0.94314800  0.08602400  1
  C  C19  1  0.56241900  0.75681000  0.41484600  1
  C  C20  1  0.80933700  0.62054900  0.00755800  1
  C  C21  1  0.41484600  0.56241900  0.75681000  1
  C  C22  1  0.90436200  0.26039500  0.05650900  1
  C  C23  1  0.62054900  0.00755800  0.80933700  1
  C  C24  1  0.38881900  0.98435100  0.18826700  1
  C  C25  1  0.08602400  0.74617100  0.94314800  1
  C  C26  1  0.57967100  0.45175800  0.23953600  1
  C  C27  1  0.18826700  0.38881900  0.98435100  1
  C  C28  1  0.45175800  0.23953600  0.57967100  1
  C  C29  1  0.26039500  0.05650900  0.90436200  1
  C  C30  1  0.23953600  0.57967100  0.45175800  1
  C  C31  1  0.00755800  0.80933700  0.62054900  1
  C  C32  1  0.05650900  0.90436200  0.26039500  1
  C  C33  1  0.87993800  0.68175300  0.49948800  1
  C  C34  1  0.68175300  0.49948800  0.87993800  1
  C  C35  1  0.49948800  0.87993800  0.68175300  1
