# generated using pymatgen
data_Cu5Ni3C4
_symmetry_space_group_name_H-M   'P 1'
_cell_length_a   7.35227400
_cell_length_b   11.31699600
_cell_length_c   12.83498900
_cell_angle_alpha   90.00000000
_cell_angle_beta   90.00000000
_cell_angle_gamma   90.00000000
_symmetry_Int_Tables_number   1
_chemical_formula_structural   Cu5Ni3C4
_chemical_formula_sum   'Cu20 Ni12 C16'
_cell_volume   1067.94367242
_cell_formula_units_Z   4
loop_
 _symmetry_equiv_pos_site_id
 _symmetry_equiv_pos_as_xyz
  1  'x, y, z'
loop_
 _atom_site_type_symbol
 _atom_site_label
 _atom_site_symmetry_multiplicity
 _atom_site_fract_x
 _atom_site_fract_y
 _atom_site_fract_z
 _atom_site_occupancy
  C  C0  1  0.18814800  0.92449700  0.75801900  1
  C  C1  1  0.31185200  0.07550300  0.25801900  1
  C  C2  1  0.68814800  0.57550300  0.24198100  1
  C  C3  1  0.81185200  0.42449700  0.74198100  1
  Ni  Ni4  1  0.40866100  0.02661400  0.55059000  1
  Ni  Ni5  1  0.09133900  0.97338600  0.05059000  1
  Ni  Ni6  1  0.90866100  0.47338600  0.44941000  1
  Ni  Ni7  1  0.59133900  0.52661400  0.94941000  1
  Ni  Ni8  1  0.14995700  0.62332800  0.77731600  1
  Ni  Ni9  1  0.35004300  0.37667200  0.27731600  1
  Ni  Ni10  1  0.64995700  0.87667200  0.22268400  1
  Ni  Ni11  1  0.85004300  0.12332800  0.72268400  1
  Ni  Ni12  1  0.47921200  0.16049700  0.91155400  1
  Ni  Ni13  1  0.02078800  0.83950300  0.41155400  1
  Ni  Ni14  1  0.97921200  0.33950300  0.08844600  1
  Ni  Ni15  1  0.52078800  0.66049700  0.58844600  1
  C  C16  1  0.48482300  0.12115400  0.46634100  1
  C  C17  1  0.01517700  0.87884600  0.96634100  1
  C  C18  1  0.98482300  0.37884600  0.53365900  1
  C  C19  1  0.51517700  0.62115400  0.03365900  1
  C  C20  1  0.14096500  0.48219000  0.80542300  1
  C  C21  1  0.35903500  0.51781000  0.30542300  1
  C  C22  1  0.64096500  0.01781000  0.19457700  1
  C  C23  1  0.85903500  0.98219000  0.69457700  1
  C  C24  1  0.31192000  0.14535100  0.82836100  1
  C  C25  1  0.18808000  0.85464900  0.32836100  1
  C  C26  1  0.81192000  0.35464900  0.17163900  1
  C  C27  1  0.68808000  0.64535100  0.67163900  1
  Cu  Cu28  1  0.48706700  0.87825300  0.86375600  1
  Cu  Cu29  1  0.01293300  0.12174700  0.36375600  1
  Cu  Cu30  1  0.98706700  0.62174700  0.13624400  1
  Cu  Cu31  1  0.51293300  0.37825300  0.63624400  1
  Cu  Cu32  1  0.35312800  0.95855300  0.61321700  1
  Cu  Cu33  1  0.14687200  0.04144700  0.11321700  1
  Cu  Cu34  1  0.85312800  0.54144700  0.38678300  1
  Cu  Cu35  1  0.64687200  0.45855300  0.88678300  1
  Cu  Cu36  1  0.16351700  0.72497500  0.75952600  1
  Cu  Cu37  1  0.33648300  0.27502500  0.25952600  1
  Cu  Cu38  1  0.66351700  0.77502500  0.24047400  1
  Cu  Cu39  1  0.83648300  0.22497500  0.74047400  1
  Cu  Cu40  1  0.60080800  0.18009400  0.96995300  1
  Cu  Cu41  1  0.89919200  0.81990600  0.46995300  1
  Cu  Cu42  1  0.10080800  0.31990600  0.03004700  1
  Cu  Cu43  1  0.39919200  0.68009400  0.53004700  1
  Cu  Cu44  1  0.58573000  0.91266600  0.92251400  1
  Cu  Cu45  1  0.91427000  0.08733400  0.42251400  1
  Cu  Cu46  1  0.08573000  0.58733400  0.07748600  1
  Cu  Cu47  1  0.41427000  0.41266600  0.57748600  1
