# generated using pymatgen
data_Cu3Ni2C23
_symmetry_space_group_name_H-M   'P 1'
_cell_length_a   6.05092218
_cell_length_b   6.05092218
_cell_length_c   9.62392669
_cell_angle_alpha   88.67601782
_cell_angle_beta   88.67601782
_cell_angle_gamma   59.96367937
_symmetry_Int_Tables_number   1
_chemical_formula_structural   Cu3Ni2C23
_chemical_formula_sum   'Cu3 Ni2 C23'
_cell_volume   304.93862410
_cell_formula_units_Z   1
loop_
 _symmetry_equiv_pos_site_id
 _symmetry_equiv_pos_as_xyz
  1  'x, y, z'
loop_
 _atom_site_type_symbol
 _atom_site_label
 _atom_site_symmetry_multiplicity
 _atom_site_fract_x
 _atom_site_fract_y
 _atom_site_fract_z
 _atom_site_occupancy
  C  C0  1  0.66618500  0.66618500  0.12030800  1
  C  C1  1  0.98055300  0.98055300  0.01600700  1
  C  C2  1  0.98870500  0.98870500  0.49378200  1
  C  C3  1  0.32829800  0.32829800  0.59586400  1
  Ni  Ni4  1  0.67462700  0.67462700  0.50487200  1
  Ni  Ni5  1  0.34598900  0.34598900  0.02533000  1
  Cu  Cu6  1  0.83170600  0.83170600  0.78477400  1
  Cu  Cu7  1  0.17232600  0.66070300  0.28763600  1
  Cu  Cu8  1  0.66070300  0.17232600  0.28763600  1
  C  C9  1  0.33788400  0.83235600  0.78526200  1
  C  C10  1  0.83235600  0.33788400  0.78526200  1
  C  C11  1  0.17165200  0.17165200  0.28626300  1
  C  C12  1  0.33431600  0.84655200  0.40340600  1
  C  C13  1  0.51589600  0.51589600  0.66095300  1
  C  C14  1  0.66258600  0.66258600  0.89854400  1
  C  C15  1  0.00410100  0.00410100  0.68224800  1
  C  C16  1  0.00184900  0.00184900  0.19815800  1
  C  C17  1  0.84655200  0.33431600  0.40340600  1
  C  C18  1  0.51037100  0.96140300  0.65851400  1
  C  C19  1  0.96140300  0.51037100  0.65851400  1
  C  C20  1  0.16026100  0.16026100  0.89682400  1
  C  C21  1  0.83328700  0.83328700  0.40142000  1
  C  C22  1  0.03975500  0.47341000  0.15220800  1
  C  C23  1  0.47341000  0.03975500  0.15220800  1
  C  C24  1  0.33226000  0.33226000  0.39383600  1
  C  C25  1  0.17312600  0.67957900  0.90049700  1
  C  C26  1  0.48116900  0.48116900  0.15788400  1
  C  C27  1  0.67957900  0.17312600  0.90049700  1
