# generated using pymatgen
data_Cu5Ni3C4
_symmetry_space_group_name_H-M   'P 1'
_cell_length_a   7.80288721
_cell_length_b   7.80288721
_cell_length_c   6.54478796
_cell_angle_alpha   65.61696093
_cell_angle_beta   65.61696093
_cell_angle_gamma   53.67634533
_symmetry_Int_Tables_number   1
_chemical_formula_structural   Cu5Ni3C4
_chemical_formula_sum   'Cu10 Ni6 C8'
_cell_volume   284.61923203
_cell_formula_units_Z   2
loop_
 _symmetry_equiv_pos_site_id
 _symmetry_equiv_pos_as_xyz
  1  'x, y, z'
loop_
 _atom_site_type_symbol
 _atom_site_label
 _atom_site_symmetry_multiplicity
 _atom_site_fract_x
 _atom_site_fract_y
 _atom_site_fract_z
 _atom_site_occupancy
  C  C0  1  0.12720300  0.12720300  0.87841200  1
  C  C1  1  0.62248500  0.62248500  0.40449500  1
  C  C2  1  0.37751500  0.37751500  0.59550500  1
  C  C3  1  0.00000000  0.00000000  0.50000000  1
  C  C4  1  0.50000000  0.50000000  0.00000000  1
  C  C5  1  0.75747200  0.75747200  0.73164500  1
  C  C6  1  0.24252800  0.24252800  0.26835500  1
  C  C7  1  0.87279700  0.87279700  0.12158800  1
  Ni  Ni8  1  0.12451100  0.12451100  0.58145500  1
  Ni  Ni9  1  0.62422200  0.62422200  0.70719500  1
  Ni  Ni10  1  0.12572100  0.12572100  0.17576700  1
  Ni  Ni11  1  0.87427900  0.87427900  0.82423300  1
  Ni  Ni12  1  0.37577800  0.37577800  0.29280500  1
  Ni  Ni13  1  0.87548900  0.87548900  0.41854500  1
  Cu  Cu14  1  0.29478600  0.70521400  0.50000000  1
  Cu  Cu15  1  0.70521400  0.29478600  0.50000000  1
  Cu  Cu16  1  0.44497600  0.04850500  0.75778400  1
  Cu  Cu17  1  0.19254000  0.80746000  0.00000000  1
  Cu  Cu18  1  0.62346300  0.62346300  0.08613000  1
  Cu  Cu19  1  0.37653700  0.37653700  0.91387000  1
  Cu  Cu20  1  0.04850500  0.44497600  0.75778400  1
  Cu  Cu21  1  0.80746000  0.19254000  0.00000000  1
  Cu  Cu22  1  0.55502400  0.95149500  0.24221600  1
  Cu  Cu23  1  0.95149500  0.55502400  0.24221600  1
