# generated using pymatgen
data_Cu2Ni2C19
_symmetry_space_group_name_H-M   'P 1'
_cell_length_a   8.37384600
_cell_length_b   8.42750189
_cell_length_c   9.01112854
_cell_angle_alpha   91.05309945
_cell_angle_beta   91.06590292
_cell_angle_gamma   103.28920265
_symmetry_Int_Tables_number   1
_chemical_formula_structural   Cu2Ni2C19
_chemical_formula_sum   'Cu4 Ni4 C38'
_cell_volume   618.61739139
_cell_formula_units_Z   2
loop_
 _symmetry_equiv_pos_site_id
 _symmetry_equiv_pos_as_xyz
  1  'x, y, z'
loop_
 _atom_site_type_symbol
 _atom_site_label
 _atom_site_symmetry_multiplicity
 _atom_site_fract_x
 _atom_site_fract_y
 _atom_site_fract_z
 _atom_site_occupancy
  C  C0  1  0.61909000  0.62910400  0.75785400  1
  C  C1  1  0.88672400  0.34917200  0.75534900  1
  C  C2  1  0.37371200  0.87459400  0.76571600  1
  C  C3  1  0.89426500  0.85721200  0.24476900  1
  C  C4  1  0.61575800  0.12475000  0.24203000  1
  C  C5  1  0.38319600  0.38255900  0.23460200  1
  C  C6  1  0.51131800  0.27080900  0.65562200  1
  C  C7  1  0.01711700  0.76955600  0.64905100  1
  C  C8  1  0.47155700  0.73564900  0.34237700  1
  C  C9  1  0.98321500  0.23673600  0.35346900  1
  Ni  Ni10  1  0.73242600  0.97788500  0.57409400  1
  Ni  Ni11  1  0.23234500  0.49106600  0.57115700  1
  Ni  Ni12  1  0.76976800  0.51083400  0.42770600  1
  Ni  Ni13  1  0.26332000  0.02627500  0.42596100  1
  Cu  Cu14  1  0.99147200  0.73651000  0.91825900  1
  Cu  Cu15  1  0.49124100  0.24224000  0.92328000  1
  Cu  Cu16  1  0.51244100  0.75837800  0.07572400  1
  Cu  Cu17  1  0.00782900  0.25794700  0.08360900  1
  C  C18  1  0.52776200  0.77456000  0.93922100  1
  C  C19  1  0.02205100  0.27102700  0.94871700  1
  C  C20  1  0.60155400  0.35527100  0.85619800  1
  C  C21  1  0.10183900  0.84880100  0.85379400  1
  C  C22  1  0.89723700  0.63950400  0.81562100  1
  C  C23  1  0.39445800  0.14553400  0.82712800  1
  C  C24  1  0.85671200  0.90758900  0.66727400  1
  C  C25  1  0.35891200  0.43869600  0.67174400  1
  C  C26  1  0.67695500  0.10546900  0.67066300  1
  C  C27  1  0.17182300  0.62230100  0.66560200  1
  C  C28  1  0.58141100  0.83504200  0.53191800  1
  C  C29  1  0.69708300  0.44208600  0.57735400  1
  C  C30  1  0.19398200  0.94144600  0.56986900  1
  C  C31  1  0.08216500  0.34454800  0.53452600  1
  C  C32  1  0.91531200  0.66033000  0.46666900  1
  C  C33  1  0.80808400  0.05192100  0.42638300  1
  C  C34  1  0.30526300  0.55697500  0.42264900  1
  C  C35  1  0.40528200  0.17808100  0.46849700  1
  C  C36  1  0.82874100  0.37379200  0.33946000  1
  C  C37  1  0.64583000  0.56450200  0.32621100  1
  C  C38  1  0.33238600  0.91765500  0.32067200  1
  C  C39  1  0.12713800  0.08711200  0.33745300  1
  C  C40  1  0.60841900  0.85377600  0.17630200  1
  C  C41  1  0.10373400  0.35310800  0.18391700  1
  C  C42  1  0.89517500  0.14741900  0.15043400  1
  C  C43  1  0.39956400  0.64747400  0.13789600  1
  C  C44  1  0.97363000  0.72127900  0.05274900  1
  C  C45  1  0.48280400  0.23132600  0.06045000  1
