# generated using pymatgen
data_CuNiC5
_symmetry_space_group_name_H-M   'P 1'
_cell_length_a   4.95680503
_cell_length_b   4.95680171
_cell_length_c   6.23686900
_cell_angle_alpha   89.99985919
_cell_angle_beta   89.99982591
_cell_angle_gamma   67.15105769
_symmetry_Int_Tables_number   1
_chemical_formula_structural   CuNiC5
_chemical_formula_sum   'Cu2 Ni2 C10'
_cell_volume   141.21483732
_cell_formula_units_Z   2
loop_
 _symmetry_equiv_pos_site_id
 _symmetry_equiv_pos_as_xyz
  1  'x, y, z'
loop_
 _atom_site_type_symbol
 _atom_site_label
 _atom_site_symmetry_multiplicity
 _atom_site_fract_x
 _atom_site_fract_y
 _atom_site_fract_z
 _atom_site_occupancy
  C  C0  1  0.82978600  0.82978700  0.25000000  1
  C  C1  1  0.17021400  0.17021500  0.75000200  1
  Ni  Ni2  1  0.50000200  0.49999100  0.49999300  1
  Ni  Ni3  1  0.49999600  0.49999900  0.99999900  1
  Cu  Cu4  1  0.84661100  0.84661200  0.75000200  1
  Cu  Cu5  1  0.15339000  0.15338900  0.24999900  1
  C  C6  1  0.73246800  0.21388000  0.75000500  1
  C  C7  1  0.78612300  0.26752900  0.24999600  1
  C  C8  1  0.21387900  0.73246900  0.75000500  1
  C  C9  1  0.26753200  0.78612300  0.24999700  1
  C  C10  1  0.73491900  0.73492000  0.53572900  1
  C  C11  1  0.26508400  0.26508400  0.03572700  1
  C  C12  1  0.73491500  0.73491800  0.96427500  1
  C  C13  1  0.26508100  0.26508400  0.46427200  1
