# generated using pymatgen
data_CuNiC11
_symmetry_space_group_name_H-M   'P 1'
_cell_length_a   8.53573030
_cell_length_b   8.53510604
_cell_length_c   10.21430925
_cell_angle_alpha   72.59144999
_cell_angle_beta   107.40967381
_cell_angle_gamma   75.83533607
_symmetry_Int_Tables_number   1
_chemical_formula_structural   CuNiC11
_chemical_formula_sum   'Cu4 Ni4 C44'
_cell_volume   630.23302563
_cell_formula_units_Z   4
loop_
 _symmetry_equiv_pos_site_id
 _symmetry_equiv_pos_as_xyz
  1  'x, y, z'
loop_
 _atom_site_type_symbol
 _atom_site_label
 _atom_site_symmetry_multiplicity
 _atom_site_fract_x
 _atom_site_fract_y
 _atom_site_fract_z
 _atom_site_occupancy
  C  C0  1  0.55350500  0.69660300  0.08284700  1
  C  C1  1  0.05338800  0.19653500  0.08286700  1
  C  C2  1  0.94654600  0.80326100  0.91715700  1
  C  C3  1  0.44656600  0.30358400  0.91713000  1
  C  C4  1  0.26875200  0.73961800  0.27279600  1
  C  C5  1  0.76860900  0.23951200  0.27278300  1
  C  C6  1  0.51047000  0.98137400  0.27278000  1
  C  C7  1  0.01024100  0.48162000  0.27270900  1
  C  C8  1  0.23123400  0.76043000  0.72716200  1
  C  C9  1  0.73139000  0.26046400  0.72724600  1
  C  C10  1  0.98954000  0.51858000  0.72722100  1
  C  C11  1  0.48974100  0.01842500  0.72728700  1
  C  C12  1  0.43693400  0.31317100  0.34676000  1
  C  C13  1  0.06311100  0.18677900  0.65329300  1
  C  C14  1  0.93665300  0.81321500  0.34624700  1
  C  C15  1  0.56330700  0.68681100  0.65368100  1
  Ni  Ni16  1  0.69083300  0.55911600  0.41575000  1
  Ni  Ni17  1  0.19085700  0.05917500  0.41565200  1
  Ni  Ni18  1  0.80915800  0.94082500  0.58425200  1
  Ni  Ni19  1  0.30913800  0.44088500  0.58434800  1
  Cu  Cu20  1  0.76169400  0.98823600  0.06102700  1
  Cu  Cu21  1  0.26177500  0.48824700  0.06097500  1
  Cu  Cu22  1  0.73827500  0.51174400  0.93899300  1
  Cu  Cu23  1  0.23829100  0.01175100  0.93903800  1
  C  C24  1  0.90312900  0.84620400  0.11910200  1
  C  C25  1  0.40367100  0.34670900  0.11918300  1
  C  C26  1  0.59668900  0.65364400  0.88086100  1
  C  C27  1  0.09654900  0.15344400  0.88085500  1
  C  C28  1  0.32287600  0.92718300  0.08252400  1
  C  C29  1  0.82288300  0.42711400  0.08235300  1
  C  C30  1  0.17719300  0.57275700  0.91746800  1
  C  C31  1  0.67704300  0.07294900  0.91768600  1
  C  C32  1  0.70902800  0.04141700  0.15331200  1
  C  C33  1  0.20854100  0.54120800  0.15308400  1
  C  C34  1  0.79111400  0.45864100  0.84675100  1
  C  C35  1  0.29135300  0.95868700  0.84689100  1
  C  C36  1  0.66406600  0.08595800  0.43429200  1
  C  C37  1  0.16415700  0.58594700  0.43437600  1
  C  C38  1  0.83593200  0.41400600  0.56572300  1
  C  C39  1  0.33585700  0.91407900  0.56560700  1
  C  C40  1  0.55991200  0.69030000  0.44845400  1
  C  C41  1  0.05979900  0.19021000  0.44839400  1
  C  C42  1  0.94000000  0.80961100  0.55150400  1
  C  C43  1  0.44026900  0.30991100  0.55161900  1
  C  C44  1  0.58468100  0.48036400  0.31736600  1
  C  C45  1  0.08470000  0.98022100  0.31745300  1
  C  C46  1  0.76978400  0.66499000  0.31737600  1
  C  C47  1  0.26980300  0.16523700  0.31742500  1
  C  C48  1  0.91527200  0.01964000  0.68261100  1
  C  C49  1  0.41532700  0.51981800  0.68254400  1
  C  C50  1  0.73017000  0.83505300  0.68265400  1
  C  C51  1  0.23019500  0.33473800  0.68253400  1
