# generated using pymatgen
data_Cu2Ni5C8
_symmetry_space_group_name_H-M   'P 1'
_cell_length_a   5.87825300
_cell_length_b   5.87935945
_cell_length_c   9.87122489
_cell_angle_alpha   90.32969774
_cell_angle_beta   99.12573705
_cell_angle_gamma   119.34122849
_symmetry_Int_Tables_number   1
_chemical_formula_structural   Cu2Ni5C8
_chemical_formula_sum   'Cu4 Ni10 C16'
_cell_volume   292.24067688
_cell_formula_units_Z   2
loop_
 _symmetry_equiv_pos_site_id
 _symmetry_equiv_pos_as_xyz
  1  'x, y, z'
loop_
 _atom_site_type_symbol
 _atom_site_label
 _atom_site_symmetry_multiplicity
 _atom_site_fract_x
 _atom_site_fract_y
 _atom_site_fract_z
 _atom_site_occupancy
  C  C0  1  0.13826800  0.48236600  0.61057900  1
  C  C1  1  0.12160800  0.90282300  0.59281800  1
  C  C2  1  0.13772000  0.66577800  0.10382000  1
  C  C3  1  0.13924000  0.21690600  0.09959300  1
  C  C4  1  0.39180900  0.32972300  0.87942800  1
  C  C5  1  0.42127000  0.08036400  0.39298500  1
  C  C6  1  0.58454500  0.92133700  0.61129200  1
  C  C7  1  0.57938500  0.65634700  0.10727700  1
  C  C8  1  0.88296300  0.81783700  0.90328400  1
  C  C9  1  0.86718100  0.31233400  0.89000900  1
  C  C10  1  0.85649400  0.07412300  0.41003000  1
  C  C11  1  0.86110700  0.52472800  0.39067400  1
  C  C12  1  0.39498800  0.82483900  0.87480100  1
  C  C13  1  0.36267600  0.55131900  0.36880700  1
  C  C14  1  0.62601800  0.43758800  0.63465400  1
  C  C15  1  0.63239400  0.19085200  0.13143900  1
  Ni  Ni16  1  0.24407000  0.50824400  0.97474700  1
  Ni  Ni17  1  0.24456100  0.74229100  0.47303900  1
  Ni  Ni18  1  0.49873300  0.13757300  0.75540100  1
  Ni  Ni19  1  0.50438100  0.63414300  0.74697900  1
  Ni  Ni20  1  0.27321200  0.00389700  0.00476100  1
  Ni  Ni21  1  0.74819500  0.00430500  0.00670400  1
  Ni  Ni22  1  0.49935700  0.36529000  0.24971100  1
  Ni  Ni23  1  0.71991500  0.72035600  0.49791100  1
  Ni  Ni24  1  0.75864100  0.26017000  0.52822600  1
  Ni  Ni25  1  0.99573500  0.35384100  0.24884500  1
  Cu  Cu26  1  0.23970800  0.23855400  0.50156400  1
  Cu  Cu27  1  0.50644000  0.86588600  0.24777500  1
  Cu  Cu28  1  0.00646800  0.66315100  0.74912500  1
  Cu  Cu29  1  0.76292100  0.51303800  0.01372200  1
