# generated using pymatgen
data_Cu3Ni3C22
_symmetry_space_group_name_H-M   'P 1'
_cell_length_a   5.84821025
_cell_length_b   5.84821025
_cell_length_c   9.64980139
_cell_angle_alpha   89.47989675
_cell_angle_beta   89.47989675
_cell_angle_gamma   60.05294796
_symmetry_Int_Tables_number   1
_chemical_formula_structural   Cu3Ni3C22
_chemical_formula_sum   'Cu3 Ni3 C22'
_cell_volume   285.95820160
_cell_formula_units_Z   1
loop_
 _symmetry_equiv_pos_site_id
 _symmetry_equiv_pos_as_xyz
  1  'x, y, z'
loop_
 _atom_site_type_symbol
 _atom_site_label
 _atom_site_symmetry_multiplicity
 _atom_site_fract_x
 _atom_site_fract_y
 _atom_site_fract_z
 _atom_site_occupancy
  C  C0  1  0.33226200  0.33226200  0.10444400  1
  C  C1  1  0.99632500  0.99632500  0.00288700  1
  C  C2  1  0.99712700  0.99712700  0.50324600  1
  C  C3  1  0.66787100  0.66787100  0.60385600  1
  Ni  Ni4  1  0.16970800  0.16970800  0.78497200  1
  Ni  Ni5  1  0.83122700  0.33550500  0.28562600  1
  Ni  Ni6  1  0.33550500  0.83122700  0.28562600  1
  Cu  Cu7  1  0.66357000  0.17055000  0.78554600  1
  Cu  Cu8  1  0.17055000  0.66357000  0.78554600  1
  Cu  Cu9  1  0.83009800  0.83009800  0.28559100  1
  C  C10  1  0.33205200  0.33205200  0.50563100  1
  C  C11  1  0.66590400  0.66590400  0.00662300  1
  C  C12  1  0.68213500  0.15433300  0.39425000  1
  C  C13  1  0.48451900  0.48451900  0.67502300  1
  C  C14  1  0.32839600  0.32839600  0.89412200  1
  C  C15  1  0.00626300  0.00626300  0.68657300  1
  C  C16  1  0.00400100  0.00400100  0.18772900  1
  C  C17  1  0.15433300  0.68213500  0.39425000  1
  C  C18  1  0.48498500  0.03769000  0.66962300  1
  C  C19  1  0.03769000  0.48498500  0.66962300  1
  C  C20  1  0.83923500  0.83923500  0.89137700  1
  C  C21  1  0.15669400  0.15669400  0.39451500  1
  C  C22  1  0.96725800  0.51751300  0.17329200  1
  C  C23  1  0.51751300  0.96725800  0.17329200  1
  C  C24  1  0.65982900  0.65982900  0.39240200  1
  C  C25  1  0.83876400  0.31422400  0.89464100  1
  C  C26  1  0.51907900  0.51907900  0.16786100  1
  C  C27  1  0.31422400  0.83876400  0.89464100  1
