# generated using pymatgen
data_Cu3NiC3
_symmetry_space_group_name_H-M   'P 1'
_cell_length_a   6.02087000
_cell_length_b   6.02083900
_cell_length_c   8.53365800
_cell_angle_alpha   90.00009458
_cell_angle_beta   89.99998377
_cell_angle_gamma   89.99949564
_symmetry_Int_Tables_number   1
_chemical_formula_structural   Cu3NiC3
_chemical_formula_sum   'Cu12 Ni4 C12'
_cell_volume   309.35098142
_cell_formula_units_Z   4
loop_
 _symmetry_equiv_pos_site_id
 _symmetry_equiv_pos_as_xyz
  1  'x, y, z'
loop_
 _atom_site_type_symbol
 _atom_site_label
 _atom_site_symmetry_multiplicity
 _atom_site_fract_x
 _atom_site_fract_y
 _atom_site_fract_z
 _atom_site_occupancy
  C  C0  1  0.23836000  0.25724700  0.36783500  1
  C  C1  1  0.25724400  0.76164100  0.11783200  1
  C  C2  1  0.26204700  0.50977600  0.75400900  1
  C  C3  1  0.49022600  0.26204900  0.00400700  1
  C  C4  1  0.50977300  0.73794900  0.50400700  1
  C  C5  1  0.73795100  0.49022600  0.25400800  1
  C  C6  1  0.74275700  0.23835800  0.61783300  1
  C  C7  1  0.76164000  0.74275200  0.86783400  1
  C  C8  1  0.00614600  0.24990500  0.01396100  1
  C  C9  1  0.99385300  0.75009300  0.51395900  1
  C  C10  1  0.24991100  0.99386500  0.76394500  1
  C  C11  1  0.75009100  0.00613800  0.26394900  1
  Ni  Ni12  1  0.02710600  0.76310700  0.73353200  1
  Ni  Ni13  1  0.23690700  0.02710800  0.98352000  1
  Ni  Ni14  1  0.76309300  0.97289300  0.48352300  1
  Ni  Ni15  1  0.97289700  0.23689600  0.23353400  1
  Cu  Cu16  1  0.01296500  0.25262000  0.76387800  1
  Cu  Cu17  1  0.25261200  0.98703900  0.51387700  1
  Cu  Cu18  1  0.24782700  0.48874300  0.99695100  1
  Cu  Cu19  1  0.24522200  0.52629900  0.49485100  1
  Cu  Cu20  1  0.47371900  0.24522400  0.74484800  1
  Cu  Cu21  1  0.48874000  0.75217100  0.74694700  1
  Cu  Cu22  1  0.51125900  0.24782900  0.24694700  1
  Cu  Cu23  1  0.52628400  0.75477900  0.24484900  1
  Cu  Cu24  1  0.75217200  0.51125500  0.49695000  1
  Cu  Cu25  1  0.75477800  0.47369900  0.99485200  1
  Cu  Cu26  1  0.74738800  0.01296100  0.01387900  1
  Cu  Cu27  1  0.98703300  0.74738000  0.26387800  1
