# generated using pymatgen
data_Cu3NiC14
_symmetry_space_group_name_H-M   'P 1'
_cell_length_a   8.89058467
_cell_length_b   8.89058467
_cell_length_c   8.89058493
_cell_angle_alpha   59.06686414
_cell_angle_beta   59.06686414
_cell_angle_gamma   59.06686843
_symmetry_Int_Tables_number   1
_chemical_formula_structural   Cu3NiC14
_chemical_formula_sum   'Cu6 Ni2 C28'
_cell_volume   486.33532743
_cell_formula_units_Z   2
loop_
 _symmetry_equiv_pos_site_id
 _symmetry_equiv_pos_as_xyz
  1  'x, y, z'
loop_
 _atom_site_type_symbol
 _atom_site_label
 _atom_site_symmetry_multiplicity
 _atom_site_fract_x
 _atom_site_fract_y
 _atom_site_fract_z
 _atom_site_occupancy
  C  C0  1  0.14571200  0.14571200  0.14571200  1
  C  C1  1  0.35135700  0.35135700  0.35135700  1
  C  C2  1  0.64943200  0.64943200  0.64943200  1
  C  C3  1  0.84880100  0.84880100  0.84880100  1
  Ni  Ni4  1  0.99163900  0.99163900  0.99163900  1
  Ni  Ni5  1  0.49715600  0.49715600  0.49715600  1
  Cu  Cu6  1  0.95909100  0.53867100  0.25358700  1
  Cu  Cu7  1  0.25358700  0.95909100  0.53867100  1
  Cu  Cu8  1  0.53867100  0.25358700  0.95909100  1
  Cu  Cu9  1  0.45755900  0.75156700  0.04393500  1
  Cu  Cu10  1  0.75156700  0.04393500  0.45755900  1
  Cu  Cu11  1  0.04393500  0.45755900  0.75156700  1
  C  C12  1  0.49783700  0.31132900  0.11600400  1
  C  C13  1  0.11600400  0.49783700  0.31132900  1
  C  C14  1  0.26533200  0.91415500  0.06406400  1
  C  C15  1  0.31132900  0.11600400  0.49783700  1
  C  C16  1  0.60930700  0.80088300  0.01990600  1
  C  C17  1  0.43237200  0.58199700  0.23505500  1
  C  C18  1  0.91415500  0.06406400  0.26533200  1
  C  C19  1  0.58199700  0.23505500  0.43237200  1
  C  C20  1  0.99616600  0.38354300  0.19593900  1
  C  C21  1  0.23505500  0.43237200  0.58199700  1
  C  C22  1  0.94291100  0.73120700  0.09011300  1
  C  C23  1  0.19593900  0.99616600  0.38354300  1
  C  C24  1  0.80088300  0.01990600  0.60930700  1
  C  C25  1  0.06406400  0.26533200  0.91415500  1
  C  C26  1  0.76915200  0.55835900  0.41936200  1
  C  C27  1  0.01990600  0.60930700  0.80088300  1
  C  C28  1  0.41936200  0.76915200  0.55835900  1
  C  C29  1  0.09011300  0.94291100  0.73120700  1
  C  C30  1  0.55835900  0.41936200  0.76915200  1
  C  C31  1  0.38354300  0.19593900  0.99616600  1
  C  C32  1  0.69631400  0.88545700  0.49473100  1
  C  C33  1  0.73120700  0.09011300  0.94291100  1
  C  C34  1  0.88545700  0.49473100  0.69631400  1
  C  C35  1  0.49473100  0.69631400  0.88545700  1
