# generated using pymatgen
data_Cu2NiC
_symmetry_space_group_name_H-M   'P 1'
_cell_length_a   7.90607572
_cell_length_b   4.00263200
_cell_length_c   7.58036907
_cell_angle_alpha   90.00000000
_cell_angle_beta   112.57411607
_cell_angle_gamma   90.00000000
_symmetry_Int_Tables_number   1
_chemical_formula_structural   Cu2NiC
_chemical_formula_sum   'Cu8 Ni4 C4'
_cell_volume   221.50279089
_cell_formula_units_Z   4
loop_
 _symmetry_equiv_pos_site_id
 _symmetry_equiv_pos_as_xyz
  1  'x, y, z'
loop_
 _atom_site_type_symbol
 _atom_site_label
 _atom_site_symmetry_multiplicity
 _atom_site_fract_x
 _atom_site_fract_y
 _atom_site_fract_z
 _atom_site_occupancy
  C  C0  1  0.33985900  0.23017400  0.68659700  1
  C  C1  1  0.33985900  0.26982600  0.18659700  1
  C  C2  1  0.66014100  0.73017400  0.81340300  1
  C  C3  1  0.66014100  0.76982600  0.31340300  1
  Ni  Ni4  1  0.97464400  0.61172600  0.93883100  1
  Ni  Ni5  1  0.97464400  0.88827400  0.43883100  1
  Ni  Ni6  1  0.02535600  0.11172600  0.56116900  1
  Ni  Ni7  1  0.02535600  0.38827400  0.06116900  1
  Cu  Cu8  1  0.28656500  0.25137000  0.91516700  1
  Cu  Cu9  1  0.28656500  0.24863000  0.41516700  1
  Cu  Cu10  1  0.38031300  0.73315000  0.70205400  1
  Cu  Cu11  1  0.38031300  0.76685000  0.20205400  1
  Cu  Cu12  1  0.61968700  0.23315000  0.79794600  1
  Cu  Cu13  1  0.61968700  0.26685000  0.29794600  1
  Cu  Cu14  1  0.71343500  0.75137000  0.58483300  1
  Cu  Cu15  1  0.71343500  0.74863000  0.08483300  1
