# generated using pymatgen
data_Cu14Ni2C11
_symmetry_space_group_name_H-M   'P 1'
_cell_length_a   5.17677500
_cell_length_b   6.12352033
_cell_length_c   10.69874151
_cell_angle_alpha   92.16351086
_cell_angle_beta   90.71699105
_cell_angle_gamma   91.11589127
_symmetry_Int_Tables_number   1
_chemical_formula_structural   Cu14Ni2C11
_chemical_formula_sum   'Cu14 Ni2 C11'
_cell_volume   338.81520834
_cell_formula_units_Z   1
loop_
 _symmetry_equiv_pos_site_id
 _symmetry_equiv_pos_as_xyz
  1  'x, y, z'
loop_
 _atom_site_type_symbol
 _atom_site_label
 _atom_site_symmetry_multiplicity
 _atom_site_fract_x
 _atom_site_fract_y
 _atom_site_fract_z
 _atom_site_occupancy
  C  C0  1  0.55332300  0.23136600  0.08378000  1
  C  C1  1  0.02682200  0.74748900  0.40356400  1
  C  C2  1  0.97317800  0.25251100  0.59643600  1
  C  C3  1  0.44667700  0.76863400  0.91622000  1
  C  C4  1  0.00000000  0.50000000  0.00000000  1
  C  C5  1  0.50623400  0.74746500  0.23826700  1
  C  C6  1  0.99582900  0.23842000  0.26218500  1
  C  C7  1  0.50000000  0.00000000  0.50000000  1
  C  C8  1  0.50000000  0.50000000  0.50000000  1
  C  C9  1  0.00417100  0.76158000  0.73781500  1
  C  C10  1  0.49376600  0.25253500  0.76173300  1
  Ni  Ni11  1  0.66270500  0.74701700  0.41134800  1
  Ni  Ni12  1  0.33729500  0.25298300  0.58865200  1
  Cu  Cu13  1  0.30057300  0.72659000  0.07504400  1
  Cu  Cu14  1  0.19802600  0.26713100  0.08985900  1
  Cu  Cu15  1  0.72764800  0.02626900  0.17968500  1
  Cu  Cu16  1  0.75162100  0.48276600  0.16355000  1
  Cu  Cu17  1  0.21904500  0.50169500  0.33005600  1
  Cu  Cu18  1  0.22466300  0.98214100  0.32961400  1
  Cu  Cu19  1  0.79256600  0.25133200  0.43591600  1
  Cu  Cu20  1  0.20743400  0.74866800  0.56408400  1
  Cu  Cu21  1  0.77533700  0.01785900  0.67038600  1
  Cu  Cu22  1  0.78095500  0.49830500  0.66994400  1
  Cu  Cu23  1  0.24837900  0.51723400  0.83645000  1
  Cu  Cu24  1  0.27235200  0.97373100  0.82031500  1
  Cu  Cu25  1  0.80197400  0.73286900  0.91014100  1
  Cu  Cu26  1  0.69942700  0.27341000  0.92495600  1
