# generated using pymatgen
data_Cu13(NiC8)3
_symmetry_space_group_name_H-M   'P 1'
_cell_length_a   9.28532300
_cell_length_b   9.29608395
_cell_length_c   9.29616347
_cell_angle_alpha   109.49593210
_cell_angle_beta   109.44760878
_cell_angle_gamma   109.44542876
_symmetry_Int_Tables_number   1
_chemical_formula_structural   Cu13(NiC8)3
_chemical_formula_sum   'Cu13 Ni3 C24'
_cell_volume   617.88991622
_cell_formula_units_Z   1
loop_
 _symmetry_equiv_pos_site_id
 _symmetry_equiv_pos_as_xyz
  1  'x, y, z'
loop_
 _atom_site_type_symbol
 _atom_site_label
 _atom_site_symmetry_multiplicity
 _atom_site_fract_x
 _atom_site_fract_y
 _atom_site_fract_z
 _atom_site_occupancy
  Ni  Ni0  1  0.24983200  0.96813100  0.21837200  1
  Ni  Ni1  1  0.78248800  0.24955100  0.53230500  1
  Ni  Ni2  1  0.96763900  0.71830700  0.74963600  1
  Cu  Cu3  1  0.00000400  0.49932900  0.00065300  1
  Cu  Cu4  1  0.03272500  0.28329900  0.24986600  1
  Cu  Cu5  1  0.28343800  0.25157100  0.03313000  1
  Cu  Cu6  1  0.21761600  0.74976400  0.46744500  1
  Cu  Cu7  1  0.74981200  0.03293700  0.78337500  1
  Cu  Cu8  1  0.74968300  0.53309200  0.28152400  1
  Cu  Cu9  1  0.49930800  0.50120000  0.49984100  1
  Cu  Cu10  1  0.00016500  0.99990100  0.50003700  1
  Cu  Cu11  1  0.46725500  0.21747700  0.75115700  1
  Cu  Cu12  1  0.50050800  0.99999800  0.99941700  1
  Cu  Cu13  1  0.53267500  0.78180600  0.24919700  1
  Cu  Cu14  1  0.25079400  0.46684200  0.71721000  1
  Cu  Cu15  1  0.71605500  0.74962600  0.96684400  1
  C  C16  1  0.95763400  0.48897400  0.22841600  1
  C  C17  1  0.54285200  0.27101000  0.03171600  1
  C  C18  1  0.96644900  0.73705900  0.01094000  1
  C  C19  1  0.27135300  0.54273800  0.51127900  1
  C  C20  1  0.77147000  0.76124800  0.22901400  1
  C  C21  1  0.46840100  0.95752700  0.72943700  1
  C  C22  1  0.23981900  0.01128600  0.47119900  1
  C  C23  1  0.26117700  0.23220800  0.27203700  1
  C  C24  1  0.72952400  0.27183000  0.76337200  1
  C  C25  1  0.48929900  0.53183400  0.26049000  1
  C  C26  1  0.01044300  0.77137300  0.53951500  1
  C  C27  1  0.77105700  0.03186900  0.04270000  1
  C  C28  1  0.99162400  0.22778200  0.45753100  1
  C  C29  1  0.51060600  0.46786500  0.73855400  1
  C  C30  1  0.23127300  0.97158600  0.95783900  1
  C  C31  1  0.27090700  0.72652400  0.23990800  1
  C  C32  1  0.76033300  0.98679700  0.53151100  1
  C  C33  1  0.73637800  0.77056100  0.72841800  1
  C  C34  1  0.22823800  0.23929900  0.77100700  1
  C  C35  1  0.53149900  0.03946900  0.26781100  1
  C  C36  1  0.03135000  0.26054400  0.98903100  1
  C  C37  1  0.72630600  0.45787700  0.48666800  1
  C  C38  1  0.45759700  0.72898100  0.96777900  1
  C  C39  1  0.04441800  0.51092800  0.77381700  1
