# generated using pymatgen
data_Cu5(NiC5)2
_symmetry_space_group_name_H-M   'P 1'
_cell_length_a   8.09231300
_cell_length_b   7.29523100
_cell_length_c   15.50905415
_cell_angle_alpha   67.64882908
_cell_angle_beta   90.00000000
_cell_angle_gamma   90.00000000
_symmetry_Int_Tables_number   1
_chemical_formula_structural   Cu5(NiC5)2
_chemical_formula_sum   'Cu20 Ni8 C40'
_cell_volume   846.79432718
_cell_formula_units_Z   4
loop_
 _symmetry_equiv_pos_site_id
 _symmetry_equiv_pos_as_xyz
  1  'x, y, z'
loop_
 _atom_site_type_symbol
 _atom_site_label
 _atom_site_symmetry_multiplicity
 _atom_site_fract_x
 _atom_site_fract_y
 _atom_site_fract_z
 _atom_site_occupancy
  C  C0  1  0.05139400  0.61556800  0.36613800  1
  C  C1  1  0.44860600  0.61556800  0.86613800  1
  C  C2  1  0.94860600  0.38443200  0.63386200  1
  C  C3  1  0.55139400  0.38443200  0.13386200  1
  C  C4  1  0.57114700  0.51740300  0.35730800  1
  C  C5  1  0.92885300  0.51740300  0.85730800  1
  C  C6  1  0.42885300  0.48259700  0.64269200  1
  C  C7  1  0.07114700  0.48259700  0.14269200  1
  Ni  Ni8  1  0.29655200  0.26970300  0.50972400  1
  Ni  Ni9  1  0.20344800  0.26970300  0.00972400  1
  Ni  Ni10  1  0.70344800  0.73029700  0.49027600  1
  Ni  Ni11  1  0.79655200  0.73029700  0.99027600  1
  Ni  Ni12  1  0.86455000  0.26691900  0.32088500  1
  Ni  Ni13  1  0.63545000  0.26691900  0.82088500  1
  Ni  Ni14  1  0.13545000  0.73308100  0.67911500  1
  Ni  Ni15  1  0.36455000  0.73308100  0.17911500  1
  Cu  Cu16  1  0.28866300  0.06456200  0.52878300  1
  Cu  Cu17  1  0.21133700  0.06456200  0.02878300  1
  Cu  Cu18  1  0.71133700  0.93543800  0.47121700  1
  Cu  Cu19  1  0.78866300  0.93543800  0.97121700  1
  Cu  Cu20  1  0.93048000  0.08407200  0.38228600  1
  Cu  Cu21  1  0.56952000  0.08407200  0.88228600  1
  Cu  Cu22  1  0.06952000  0.91592800  0.61771400  1
  Cu  Cu23  1  0.43048000  0.91592800  0.11771400  1
  Cu  Cu24  1  0.21304500  0.77954300  0.49321700  1
  Cu  Cu25  1  0.28695500  0.77954300  0.99321700  1
  Cu  Cu26  1  0.78695500  0.22045700  0.50678300  1
  Cu  Cu27  1  0.71304500  0.22045700  0.00678300  1
  Cu  Cu28  1  0.24022600  0.96028600  0.39485000  1
  Cu  Cu29  1  0.25977400  0.96028600  0.89485000  1
  Cu  Cu30  1  0.75977400  0.03971400  0.60515000  1
  Cu  Cu31  1  0.74022600  0.03971400  0.10515000  1
  Cu  Cu32  1  0.82792200  0.97279800  0.25419200  1
  Cu  Cu33  1  0.67207800  0.97279800  0.75419200  1
  Cu  Cu34  1  0.17207800  0.02720200  0.74580800  1
  Cu  Cu35  1  0.32792200  0.02720200  0.24580800  1
  C  C36  1  0.78094300  0.36117000  0.38501000  1
  C  C37  1  0.71905700  0.36117000  0.88501000  1
  C  C38  1  0.21905700  0.63883000  0.61499000  1
  C  C39  1  0.28094300  0.63883000  0.11499000  1
  C  C40  1  0.59368700  0.71775900  0.41134300  1
  C  C41  1  0.90631300  0.71775900  0.91134300  1
  C  C42  1  0.40631300  0.28224100  0.58865700  1
  C  C43  1  0.09368700  0.28224100  0.08865700  1
  C  C44  1  0.24936800  0.77497000  0.24654800  1
  C  C45  1  0.25063200  0.77497000  0.74654800  1
  C  C46  1  0.75063200  0.22503000  0.75345200  1
  C  C47  1  0.74936800  0.22503000  0.25345200  1
  C  C48  1  0.37203700  0.36479600  0.41174100  1
  C  C49  1  0.12796300  0.36479600  0.91174100  1
  C  C50  1  0.62796300  0.63520400  0.58825900  1
  C  C51  1  0.87203700  0.63520400  0.08825900  1
  C  C52  1  0.51737100  0.60204600  0.22355900  1
  C  C53  1  0.98262900  0.60204600  0.72355900  1
  C  C54  1  0.48262900  0.39795400  0.77644100  1
  C  C55  1  0.01737100  0.39795400  0.27644100  1
  C  C56  1  0.19716000  0.82627300  0.42476400  1
  C  C57  1  0.30284000  0.82627300  0.92476400  1
  C  C58  1  0.80284000  0.17372700  0.57523600  1
  C  C59  1  0.69716000  0.17372700  0.07523600  1
  C  C60  1  0.85058400  0.83267600  0.26167300  1
  C  C61  1  0.64941600  0.83267600  0.76167300  1
  C  C62  1  0.14941600  0.16732400  0.73832700  1
  C  C63  1  0.35058400  0.16732400  0.23832700  1
  C  C64  1  0.87852200  0.64935900  0.49052400  1
  C  C65  1  0.62147800  0.64935900  0.99052400  1
  C  C66  1  0.12147800  0.35064100  0.50947600  1
  C  C67  1  0.37852200  0.35064100  0.00947600  1
