# generated using pymatgen
data_CuNi5C17
_symmetry_space_group_name_H-M   'P 1'
_cell_length_a   8.59787100
_cell_length_b   8.98200509
_cell_length_c   10.16495591
_cell_angle_alpha   96.74648797
_cell_angle_beta   87.41181387
_cell_angle_gamma   117.89260207
_symmetry_Int_Tables_number   1
_chemical_formula_structural   CuNi5C17
_chemical_formula_sum   'Cu3 Ni15 C51'
_cell_volume   688.95646063
_cell_formula_units_Z   3
loop_
 _symmetry_equiv_pos_site_id
 _symmetry_equiv_pos_as_xyz
  1  'x, y, z'
loop_
 _atom_site_type_symbol
 _atom_site_label
 _atom_site_symmetry_multiplicity
 _atom_site_fract_x
 _atom_site_fract_y
 _atom_site_fract_z
 _atom_site_occupancy
  C  C0  1  0.43076200  0.07449100  0.73266200  1
  C  C1  1  0.57668000  0.27134500  0.26808600  1
  C  C2  1  0.59821800  0.58767800  0.25719300  1
  C  C3  1  0.74595500  0.43906000  0.74820200  1
  C  C4  1  0.75802200  0.10492600  0.74449800  1
  C  C5  1  0.91294400  0.24767000  0.25581200  1
  C  C6  1  0.91782400  0.89872300  0.25405300  1
  C  C7  1  0.07475400  0.09610000  0.74736200  1
  C  C8  1  0.06480500  0.75887200  0.74995000  1
  C  C9  1  0.23043100  0.26214000  0.27064700  1
  C  C10  1  0.21490800  0.59923900  0.27470300  1
  C  C11  1  0.24420800  0.91643300  0.26291500  1
  C  C12  1  0.39946400  0.42139600  0.74189300  1
  C  C13  1  0.43936500  0.73272300  0.72756300  1
  C  C14  1  0.56672700  0.92192200  0.26815300  1
  Ni  Ni15  1  0.33315200  0.16391000  0.49947100  1
  Ni  Ni16  1  0.66782900  0.16789900  0.49621400  1
  Ni  Ni17  1  0.66783900  0.50237100  0.50213300  1
  Ni  Ni18  1  0.00351700  0.33342300  0.99607500  1
  Ni  Ni19  1  0.99550500  0.66453000  0.00963800  1
  Ni  Ni20  1  0.00053800  0.83094000  0.50146700  1
  Ni  Ni21  1  0.99871900  0.49553200  0.50358500  1
  Ni  Ni22  1  0.99841300  0.16346400  0.49909600  1
  Ni  Ni23  1  0.33928600  0.33371300  0.00327900  1
  Ni  Ni24  1  0.32713700  0.99532300  0.00356200  1
  Ni  Ni25  1  0.33276800  0.49873900  0.49397100  1
  Ni  Ni26  1  0.33400300  0.83209100  0.50656800  1
  Ni  Ni27  1  0.66421600  0.66818700  0.99180200  1
  Ni  Ni28  1  0.66759700  0.00292400  0.99607400  1
  Ni  Ni29  1  0.66918700  0.83518300  0.50555200  1
  Cu  Cu30  1  0.67157100  0.33808900  0.99700400  1
  Cu  Cu31  1  0.32959700  0.66546700  0.00400000  1
  Cu  Cu32  1  0.99668900  0.99800400  0.00180000  1
  C  C33  1  0.12670200  0.06926300  0.38069000  1
  C  C34  1  0.21463000  0.08779900  0.90266100  1
  C  C35  1  0.46187700  0.40290000  0.37848500  1
  C  C36  1  0.45868300  0.06971100  0.38070300  1
  C  C37  1  0.45467500  0.23985900  0.09898800  1
  C  C38  1  0.54120300  0.26263100  0.61566700  1
  C  C39  1  0.57607300  0.11223900  0.89240200  1
  C  C40  1  0.57282900  0.44610500  0.88948300  1
  C  C41  1  0.78556600  0.24278500  0.09587500  1
  C  C42  1  0.76885200  0.56746000  0.09685100  1
  C  C43  1  0.79056500  0.06786100  0.37960000  1
  C  C44  1  0.78873100  0.73672400  0.38944800  1
  C  C45  1  0.78353000  0.39234400  0.39466300  1
  C  C46  1  0.88995100  0.43729500  0.90333900  1
  C  C47  1  0.87956500  0.59919400  0.61482100  1
  C  C48  1  0.87276900  0.26134500  0.60860600  1
  C  C49  1  0.91355000  0.11446700  0.89195100  1
  C  C50  1  0.89272500  0.76609400  0.90416400  1
  C  C51  1  0.09316400  0.22339400  0.10536400  1
  C  C52  1  0.08258100  0.88510500  0.11220400  1
  C  C53  1  0.13317600  0.74144600  0.38853300  1
  C  C54  1  0.12225900  0.39978300  0.37906700  1
  C  C55  1  0.11136600  0.56149200  0.10027000  1
  C  C56  1  0.21868100  0.60608600  0.60501000  1
  C  C57  1  0.21145500  0.26179000  0.61098000  1
  C  C58  1  0.20936700  0.93172200  0.61926500  1
  C  C59  1  0.22906500  0.43205100  0.90618800  1
  C  C60  1  0.20686700  0.75619500  0.90679800  1
  C  C61  1  0.45770600  0.57919000  0.09960700  1
  C  C62  1  0.42157900  0.89000200  0.10902600  1
  C  C63  1  0.45989200  0.73900600  0.38715200  1
  C  C64  1  0.54087600  0.76138200  0.90156400  1
  C  C65  1  0.54559300  0.93508300  0.62120500  1
  C  C66  1  0.53380500  0.59383800  0.61190500  1
  C  C67  1  0.77253400  0.89936500  0.09617800  1
  C  C68  1  0.88630500  0.94336300  0.60860800  1
