# generated using pymatgen
data_CuNiC11
_symmetry_space_group_name_H-M   'P 1'
_cell_length_a   8.16390338
_cell_length_b   8.16399003
_cell_length_c   8.63793137
_cell_angle_alpha   90.93493034
_cell_angle_beta   89.05813972
_cell_angle_gamma   73.91717978
_symmetry_Int_Tables_number   1
_chemical_formula_structural   CuNiC11
_chemical_formula_sum   'Cu4 Ni4 C44'
_cell_volume   552.98076669
_cell_formula_units_Z   4
loop_
 _symmetry_equiv_pos_site_id
 _symmetry_equiv_pos_as_xyz
  1  'x, y, z'
loop_
 _atom_site_type_symbol
 _atom_site_label
 _atom_site_symmetry_multiplicity
 _atom_site_fract_x
 _atom_site_fract_y
 _atom_site_fract_z
 _atom_site_occupancy
  C  C0  1  0.50648100  0.78146800  0.11731600  1
  C  C1  1  0.00641200  0.28151300  0.11727400  1
  C  C2  1  0.53130900  0.25636900  0.88268200  1
  C  C3  1  0.03140800  0.75644200  0.88266700  1
  C  C4  1  0.32918700  0.11880700  0.30329400  1
  C  C5  1  0.82919400  0.61878200  0.30327300  1
  C  C6  1  0.86875400  0.07923900  0.69676300  1
  C  C7  1  0.36876900  0.57922500  0.69673000  1
  C  C8  1  0.75126800  0.97907900  0.36743100  1
  C  C9  1  0.25114100  0.47919700  0.36741900  1
  C  C10  1  0.22911200  0.00115300  0.63260100  1
  C  C11  1  0.72915100  0.50116300  0.63261400  1
  C  C12  1  0.10851400  0.87121400  0.24555900  1
  C  C13  1  0.12116800  0.35817600  0.75413900  1
  C  C14  1  0.60812800  0.37094100  0.24571300  1
  C  C15  1  0.62102900  0.85818400  0.75439800  1
  Ni  Ni16  1  0.47201300  0.76047800  0.41938200  1
  Ni  Ni17  1  0.97198000  0.26052500  0.41933300  1
  Ni  Ni18  1  0.51052400  0.22196400  0.58066100  1
  Ni  Ni19  1  0.01051200  0.72205000  0.58061500  1
  Cu  Cu20  1  0.77775900  0.01245400  0.03774000  1
  Cu  Cu21  1  0.27774900  0.51244700  0.03770200  1
  Cu  Cu22  1  0.26242900  0.02780300  0.96226900  1
  Cu  Cu23  1  0.76238700  0.52771600  0.96229800  1
  C  C24  1  0.91790900  0.89294800  0.06007900  1
  C  C25  1  0.41779700  0.39281700  0.06008700  1
  C  C26  1  0.14292300  0.16786900  0.93987200  1
  C  C27  1  0.64292300  0.66785000  0.93994800  1
  C  C28  1  0.28875600  0.97304900  0.10555700  1
  C  C29  1  0.78855000  0.47289400  0.10555300  1
  C  C30  1  0.72286300  0.03867600  0.89449500  1
  C  C31  1  0.22290700  0.53863800  0.89444200  1
  C  C32  1  0.69059900  0.10282600  0.14891700  1
  C  C33  1  0.19066100  0.60294500  0.14883900  1
  C  C34  1  0.35278400  0.94050500  0.85109700  1
  C  C35  1  0.85278800  0.44051700  0.85112800  1
  C  C36  1  0.44471200  0.60309400  0.33412000  1
  C  C37  1  0.94474700  0.10311500  0.33406100  1
  C  C38  1  0.35321300  0.19458500  0.66602000  1
  C  C39  1  0.85314000  0.69471100  0.66591700  1
  C  C40  1  0.61380600  0.81187400  0.32630000  1
  C  C41  1  0.11378500  0.31195500  0.32627900  1
  C  C42  1  0.56185600  0.36381800  0.67369100  1
  C  C43  1  0.06186100  0.86386700  0.67369700  1
  C  C44  1  0.46847600  0.26282700  0.40773900  1
  C  C45  1  0.96867800  0.76293200  0.40764200  1
  C  C46  1  0.51288200  0.71860700  0.59233800  1
  C  C47  1  0.01287600  0.21858100  0.59228500  1
  C  C48  1  0.30269300  0.90841700  0.41446400  1
  C  C49  1  0.80258100  0.40837700  0.41445300  1
  C  C50  1  0.65842500  0.05262800  0.58558400  1
  C  C51  1  0.15842400  0.55268000  0.58552400  1
