# generated using pymatgen
data_CuNi3C32
_symmetry_space_group_name_H-M   'P 1'
_cell_length_a   8.56021674
_cell_length_b   8.56021674
_cell_length_c   8.56021657
_cell_angle_alpha   60.91069965
_cell_angle_beta   60.91069965
_cell_angle_gamma   60.91069623
_symmetry_Int_Tables_number   1
_chemical_formula_structural   CuNi3C32
_chemical_formula_sum   'Cu1 Ni3 C32'
_cell_volume   452.65074194
_cell_formula_units_Z   1
loop_
 _symmetry_equiv_pos_site_id
 _symmetry_equiv_pos_as_xyz
  1  'x, y, z'
loop_
 _atom_site_type_symbol
 _atom_site_label
 _atom_site_symmetry_multiplicity
 _atom_site_fract_x
 _atom_site_fract_y
 _atom_site_fract_z
 _atom_site_occupancy
  Ni  Ni0  1  0.64281500  0.64281500  0.64281500  1
  Ni  Ni1  1  0.85455200  0.85455200  0.85455200  1
  Ni  Ni2  1  0.35664000  0.35664000  0.35664000  1
  C  C3  1  0.99449600  0.99449600  0.99449600  1
  C  C4  1  0.49911500  0.49911500  0.49911500  1
  C  C5  1  0.95385100  0.25352400  0.54867300  1
  C  C6  1  0.54867300  0.95385100  0.25352400  1
  C  C7  1  0.25352400  0.54867300  0.95385100  1
  C  C8  1  0.74483200  0.46132800  0.04458800  1
  C  C9  1  0.46132800  0.04458800  0.74483200  1
  C  C10  1  0.04458800  0.74483200  0.46132800  1
  Cu  Cu11  1  0.14227100  0.14227100  0.14227100  1
  C  C12  1  0.50104000  0.11001800  0.32167400  1
  C  C13  1  0.32167400  0.50104000  0.11001800  1
  C  C14  1  0.11001800  0.32167400  0.50104000  1
  C  C15  1  0.94119400  0.09120000  0.74095900  1
  C  C16  1  0.00059600  0.17956700  0.38881300  1
  C  C17  1  0.75849400  0.40985900  0.55294200  1
  C  C18  1  0.74095900  0.94119400  0.09120000  1
  C  C19  1  0.55294200  0.75849400  0.40985900  1
  C  C20  1  0.81969100  0.61082200  0.00285500  1
  C  C21  1  0.40985900  0.55294200  0.75849400  1
  C  C22  1  0.90888000  0.25852800  0.06500800  1
  C  C23  1  0.61082200  0.00285500  0.81969100  1
  C  C24  1  0.38881300  0.00059600  0.17956700  1
  C  C25  1  0.09120000  0.74095900  0.94119400  1
  C  C26  1  0.59006800  0.44169800  0.24227900  1
  C  C27  1  0.17956700  0.38881300  0.00059600  1
  C  C28  1  0.44169800  0.24227900  0.59006800  1
  C  C29  1  0.25852800  0.06500800  0.90888000  1
  C  C30  1  0.24227900  0.59006800  0.44169800  1
  C  C31  1  0.00285500  0.81969100  0.61082200  1
  C  C32  1  0.06500800  0.90888000  0.25852800  1
  C  C33  1  0.88616800  0.68802800  0.49293200  1
  C  C34  1  0.68802800  0.49293200  0.88616800  1
  C  C35  1  0.49293200  0.88616800  0.68802800  1
