# generated using pymatgen
data_Cu2Ni12C17
_symmetry_space_group_name_H-M   'P 1'
_cell_length_a   13.27662200
_cell_length_b   6.59355900
_cell_length_c   9.48745707
_cell_angle_alpha   74.59850456
_cell_angle_beta   90.00000000
_cell_angle_gamma   90.00000000
_symmetry_Int_Tables_number   1
_chemical_formula_structural   Cu2Ni12C17
_chemical_formula_sum   'Cu4 Ni24 C34'
_cell_volume   800.70806217
_cell_formula_units_Z   2
loop_
 _symmetry_equiv_pos_site_id
 _symmetry_equiv_pos_as_xyz
  1  'x, y, z'
loop_
 _atom_site_type_symbol
 _atom_site_label
 _atom_site_symmetry_multiplicity
 _atom_site_fract_x
 _atom_site_fract_y
 _atom_site_fract_z
 _atom_site_occupancy
  C  C0  1  0.35300700  0.65044300  0.13400400  1
  C  C1  1  0.85300700  0.34955700  0.36599600  1
  C  C2  1  0.14699300  0.65044300  0.63400400  1
  C  C3  1  0.64699300  0.34955700  0.86599600  1
  C  C4  1  0.00000000  0.00000000  0.00000000  1
  C  C5  1  0.50000000  0.00000000  0.50000000  1
  Ni  Ni6  1  0.06225400  0.33053800  0.09373400  1
  Ni  Ni7  1  0.86175500  0.69114200  0.02947700  1
  Ni  Ni8  1  0.40305100  0.07345000  0.22936900  1
  Ni  Ni9  1  0.62932100  0.09542700  0.26854100  1
  Ni  Ni10  1  0.09348000  0.68584900  0.19918100  1
  Ni  Ni11  1  0.82236700  0.00053500  0.14426500  1
  Ni  Ni12  1  0.32236700  0.99946500  0.35573500  1
  Ni  Ni13  1  0.59348000  0.31415100  0.30081900  1
  Ni  Ni14  1  0.12932100  0.90457300  0.23145900  1
  Ni  Ni15  1  0.90305100  0.92655000  0.27063100  1
  Ni  Ni16  1  0.36175500  0.30885800  0.47052300  1
  Ni  Ni17  1  0.56225400  0.66946200  0.40626600  1
  Ni  Ni18  1  0.43774600  0.33053800  0.59373400  1
  Ni  Ni19  1  0.63824500  0.69114200  0.52947700  1
  Ni  Ni20  1  0.09694900  0.07345000  0.72936900  1
  Ni  Ni21  1  0.87067900  0.09542700  0.76854100  1
  Ni  Ni22  1  0.40652000  0.68584900  0.69918100  1
  Ni  Ni23  1  0.67763300  0.00053500  0.64426500  1
  Ni  Ni24  1  0.17763300  0.99946500  0.85573500  1
  Ni  Ni25  1  0.90652000  0.31415100  0.80081900  1
  Ni  Ni26  1  0.37067900  0.90457300  0.73145900  1
  Ni  Ni27  1  0.59694900  0.92655000  0.77063100  1
  Ni  Ni28  1  0.13824500  0.30885800  0.97052300  1
  Ni  Ni29  1  0.93774600  0.66946200  0.90626600  1
  Cu  Cu30  1  0.64502600  0.74366700  0.10296400  1
  Cu  Cu31  1  0.14502600  0.25633300  0.39703600  1
  Cu  Cu32  1  0.85497400  0.74366700  0.60296400  1
  Cu  Cu33  1  0.35497400  0.25633300  0.89703600  1
  C  C34  1  0.06581400  0.28881600  0.00044500  1
  C  C35  1  0.42650300  0.20327700  0.04758400  1
  C  C36  1  0.89394600  0.01828100  0.16960400  1
  C  C37  1  0.74483200  0.60005900  0.08012200  1
  C  C38  1  0.11015800  0.83594800  0.15382900  1
  C  C39  1  0.68532500  0.96658500  0.14015100  1
  C  C40  1  0.07547900  0.40082600  0.25752700  1
  C  C41  1  0.57547900  0.59917400  0.24247300  1
  C  C42  1  0.18532500  0.03341500  0.35984900  1
  C  C43  1  0.61015800  0.16405200  0.34617100  1
  C  C44  1  0.24483200  0.39994100  0.41987800  1
  C  C45  1  0.39394600  0.98171900  0.33039600  1
  C  C46  1  0.43418600  0.28881600  0.50044500  1
  C  C47  1  0.07349700  0.20327700  0.54758400  1
  C  C48  1  0.92650300  0.79672300  0.45241600  1
  C  C49  1  0.56581400  0.71118400  0.49955500  1
  C  C50  1  0.60605400  0.01828100  0.66960400  1
  C  C51  1  0.75516800  0.60005900  0.58012200  1
  C  C52  1  0.38984200  0.83594800  0.65382900  1
  C  C53  1  0.81467500  0.96658500  0.64015100  1
  C  C54  1  0.42452100  0.40082600  0.75752700  1
  C  C55  1  0.92452100  0.59917400  0.74247300  1
  C  C56  1  0.31467500  0.03341500  0.85984900  1
  C  C57  1  0.88984200  0.16405200  0.84617100  1
  C  C58  1  0.25516800  0.39994100  0.91987800  1
  C  C59  1  0.10605400  0.98171900  0.83039600  1
  C  C60  1  0.57349700  0.79672300  0.95241600  1
  C  C61  1  0.93418600  0.71118400  0.99955500  1
