# generated using pymatgen
data_CuNiC5
_symmetry_space_group_name_H-M   'P 1'
_cell_length_a   10.79210900
_cell_length_b   12.91324300
_cell_length_c   18.96767198
_cell_angle_alpha   51.01934937
_cell_angle_beta   90.00000000
_cell_angle_gamma   90.00000000
_symmetry_Int_Tables_number   1
_chemical_formula_structural   CuNiC5
_chemical_formula_sum   'Cu8 Ni8 C40'
_cell_volume   2054.83520730
_cell_formula_units_Z   8
loop_
 _symmetry_equiv_pos_site_id
 _symmetry_equiv_pos_as_xyz
  1  'x, y, z'
loop_
 _atom_site_type_symbol
 _atom_site_label
 _atom_site_symmetry_multiplicity
 _atom_site_fract_x
 _atom_site_fract_y
 _atom_site_fract_z
 _atom_site_occupancy
  Ni  Ni0  1  0.71733900  0.33224400  0.85750800  1
  Ni  Ni1  1  0.72988600  0.79157900  0.45648800  1
  Ni  Ni2  1  0.21733900  0.66775600  0.64249200  1
  Ni  Ni3  1  0.22988600  0.20842100  0.04351200  1
  Ni  Ni4  1  0.77011400  0.79157900  0.95648800  1
  Ni  Ni5  1  0.78266100  0.33224400  0.35750800  1
  Ni  Ni6  1  0.27011400  0.20842100  0.54351200  1
  Ni  Ni7  1  0.28266100  0.66775600  0.14249200  1
  Cu  Cu8  1  0.19508500  0.20732500  0.80996600  1
  Cu  Cu9  1  0.22038000  0.78535400  0.34014200  1
  Cu  Cu10  1  0.72038100  0.21464600  0.15985800  1
  Cu  Cu11  1  0.69508500  0.79267500  0.69003400  1
  Cu  Cu12  1  0.30491500  0.20732500  0.30996600  1
  Cu  Cu13  1  0.27962000  0.78535400  0.84014200  1
  Cu  Cu14  1  0.77962000  0.21464600  0.65985800  1
  Cu  Cu15  1  0.80491500  0.79267500  0.19003400  1
  C  C16  1  0.23021800  0.41254200  0.62866700  1
  C  C17  1  0.81513000  0.00835700  0.00514700  1
  C  C18  1  0.77957500  0.44685700  0.63770400  1
  C  C19  1  0.39917400  0.28690400  0.85479100  1
  C  C20  1  0.36337800  0.90045900  0.18609100  1
  C  C21  1  0.02358800  0.88922300  0.20914500  1
  C  C22  1  0.05192500  0.36766500  0.83057300  1
  C  C23  1  0.40970200  0.73089800  0.45636300  1
  C  C24  1  0.04194500  0.72512300  0.46819000  1
  C  C25  1  0.68194200  0.94050000  0.23216900  1
  C  C26  1  0.55192500  0.63233500  0.66942700  1
  C  C27  1  0.18194200  0.05950000  0.26783100  1
  C  C28  1  0.54194500  0.27487700  0.03181000  1
  C  C29  1  0.90970200  0.26910200  0.04363700  1
  C  C30  1  0.89917400  0.71309600  0.64520900  1
  C  C31  1  0.27957500  0.55314300  0.86229600  1
  C  C32  1  0.52358800  0.11077700  0.29085500  1
  C  C33  1  0.86337800  0.09954100  0.31390900  1
  C  C34  1  0.73021800  0.58745800  0.87133300  1
  C  C35  1  0.31513000  0.99164300  0.49485300  1
  C  C36  1  0.68487000  0.00835700  0.50514700  1
  C  C37  1  0.26978200  0.41254200  0.12866700  1
  C  C38  1  0.13662200  0.90045900  0.68609100  1
  C  C39  1  0.47641200  0.88922300  0.70914500  1
  C  C40  1  0.72042500  0.44685700  0.13770400  1
  C  C41  1  0.10082600  0.28690400  0.35479100  1
  C  C42  1  0.09029800  0.73089800  0.95636300  1
  C  C43  1  0.45805500  0.72512300  0.96819000  1
  C  C44  1  0.81805800  0.94050000  0.73216900  1
  C  C45  1  0.44807500  0.36766500  0.33057300  1
  C  C46  1  0.31805800  0.05950000  0.76783100  1
  C  C47  1  0.95805500  0.27487700  0.53181000  1
  C  C48  1  0.59029800  0.26910200  0.54363700  1
  C  C49  1  0.94807500  0.63233500  0.16942700  1
  C  C50  1  0.97641200  0.11077700  0.79085500  1
  C  C51  1  0.63662200  0.09954100  0.81390900  1
  C  C52  1  0.60082600  0.71309600  0.14520900  1
  C  C53  1  0.22042500  0.55314300  0.36229600  1
  C  C54  1  0.18487000  0.99164300  0.99485300  1
  C  C55  1  0.76978200  0.58745800  0.37133300  1
