# generated using pymatgen
data_CuNiC5
_symmetry_space_group_name_H-M   'P 1'
_cell_length_a   6.61792600
_cell_length_b   7.56232200
_cell_length_c   7.59623600
_cell_angle_alpha   90.00000000
_cell_angle_beta   90.00000000
_cell_angle_gamma   90.00000000
_symmetry_Int_Tables_number   1
_chemical_formula_structural   CuNiC5
_chemical_formula_sum   'Cu4 Ni4 C20'
_cell_volume   380.16796764
_cell_formula_units_Z   4
loop_
 _symmetry_equiv_pos_site_id
 _symmetry_equiv_pos_as_xyz
  1  'x, y, z'
loop_
 _atom_site_type_symbol
 _atom_site_label
 _atom_site_symmetry_multiplicity
 _atom_site_fract_x
 _atom_site_fract_y
 _atom_site_fract_z
 _atom_site_occupancy
  Ni  Ni0  1  0.25000000  0.13791100  0.74331000  1
  Ni  Ni1  1  0.75000000  0.36208900  0.24331000  1
  Ni  Ni2  1  0.25000000  0.63791100  0.75669000  1
  Ni  Ni3  1  0.75000000  0.86208900  0.25669000  1
  Cu  Cu4  1  0.75000000  0.12506300  0.62677000  1
  Cu  Cu5  1  0.25000000  0.37493700  0.12677000  1
  Cu  Cu6  1  0.75000000  0.62506300  0.87323000  1
  Cu  Cu7  1  0.25000000  0.87493700  0.37323000  1
  C  C8  1  0.25000000  0.05255800  0.47593600  1
  C  C9  1  0.75000000  0.11011300  0.17499300  1
  C  C10  1  0.56548000  0.13375200  0.75185200  1
  C  C11  1  0.93452000  0.13375200  0.75185200  1
  C  C12  1  0.25000000  0.20985000  0.00468700  1
  C  C13  1  0.75000000  0.29015000  0.50468700  1
  C  C14  1  0.06548000  0.36624800  0.25185200  1
  C  C15  1  0.43452000  0.36624800  0.25185200  1
  C  C16  1  0.25000000  0.38988700  0.67499300  1
  C  C17  1  0.75000000  0.44744200  0.97593600  1
  C  C18  1  0.25000000  0.55255800  0.02406400  1
  C  C19  1  0.75000000  0.61011300  0.32500700  1
  C  C20  1  0.56548000  0.63375200  0.74814800  1
  C  C21  1  0.93452000  0.63375200  0.74814800  1
  C  C22  1  0.25000000  0.70985000  0.49531300  1
  C  C23  1  0.75000000  0.79015000  0.99531300  1
  C  C24  1  0.06548000  0.86624800  0.24814800  1
  C  C25  1  0.43452000  0.86624800  0.24814800  1
  C  C26  1  0.25000000  0.88988700  0.82500700  1
  C  C27  1  0.75000000  0.94744200  0.52406400  1
