# generated using pymatgen
data_Cu3NiC8
_symmetry_space_group_name_H-M   'P 1'
_cell_length_a   5.72530188
_cell_length_b   5.72530188
_cell_length_c   5.72530156
_cell_angle_alpha   59.52715209
_cell_angle_beta   59.52715209
_cell_angle_gamma   59.52715224
_symmetry_Int_Tables_number   1
_chemical_formula_structural   Cu3NiC8
_chemical_formula_sum   'Cu3 Ni1 C8'
_cell_volume   131.27599159
_cell_formula_units_Z   1
loop_
 _symmetry_equiv_pos_site_id
 _symmetry_equiv_pos_as_xyz
  1  'x, y, z'
loop_
 _atom_site_type_symbol
 _atom_site_label
 _atom_site_symmetry_multiplicity
 _atom_site_fract_x
 _atom_site_fract_y
 _atom_site_fract_z
 _atom_site_occupancy
  Ni  Ni0  1  0.87815700  0.87815700  0.87815700  1
  Cu  Cu1  1  0.00931700  0.49591000  0.49591000  1
  Cu  Cu2  1  0.49591000  0.49591000  0.00931700  1
  Cu  Cu3  1  0.49591000  0.00931700  0.49591000  1
  C  C4  1  0.26340000  0.26340000  0.26340000  1
  C  C5  1  0.24900700  0.70266000  0.24900700  1
  C  C6  1  0.24900700  0.24900700  0.70266000  1
  C  C7  1  0.70266000  0.24900700  0.24900700  1
  C  C8  1  0.28605200  0.75263800  0.75263800  1
  C  C9  1  0.75263800  0.75263800  0.28605200  1
  C  C10  1  0.75263800  0.28605200  0.75263800  1
  C  C11  1  0.74030400  0.74030400  0.74030400  1
