# generated using pymatgen
data_Cu3Ni4C17
_symmetry_space_group_name_H-M   'P 1'
_cell_length_a   7.60824700
_cell_length_b   4.87236800
_cell_length_c   16.38926737
_cell_angle_alpha   82.21350296
_cell_angle_beta   90.00000000
_cell_angle_gamma   90.00000000
_symmetry_Int_Tables_number   1
_chemical_formula_structural   Cu3Ni4C17
_chemical_formula_sum   'Cu6 Ni8 C34'
_cell_volume   601.95131603
_cell_formula_units_Z   2
loop_
 _symmetry_equiv_pos_site_id
 _symmetry_equiv_pos_as_xyz
  1  'x, y, z'
loop_
 _atom_site_type_symbol
 _atom_site_label
 _atom_site_symmetry_multiplicity
 _atom_site_fract_x
 _atom_site_fract_y
 _atom_site_fract_z
 _atom_site_occupancy
  C  C0  1  0.13378300  0.78721200  0.15241200  1
  C  C1  1  0.63378300  0.21278800  0.34758800  1
  C  C2  1  0.36621700  0.78721200  0.65241200  1
  C  C3  1  0.86621700  0.21278800  0.84758800  1
  C  C4  1  0.50000000  0.00000000  0.00000000  1
  C  C5  1  0.00000000  0.00000000  0.50000000  1
  Ni  Ni6  1  0.76773300  0.47640100  0.55421000  1
  Ni  Ni7  1  0.46566400  0.34886100  0.79910900  1
  Ni  Ni8  1  0.96566400  0.65113900  0.70089100  1
  Ni  Ni9  1  0.26773300  0.52359900  0.94579000  1
  Ni  Ni10  1  0.73226700  0.47640100  0.05421000  1
  Ni  Ni11  1  0.03433600  0.34886100  0.29910900  1
  Ni  Ni12  1  0.53433600  0.65113900  0.20089100  1
  Ni  Ni13  1  0.23226700  0.52359900  0.44579000  1
  Cu  Cu14  1  0.16043600  0.31096000  0.75427600  1
  Cu  Cu15  1  0.50000000  0.50000000  0.50000000  1
  Cu  Cu16  1  0.66043600  0.68904000  0.74572400  1
  Cu  Cu17  1  0.33956400  0.31096000  0.25427600  1
  Cu  Cu18  1  0.00000000  0.50000000  0.00000000  1
  Cu  Cu19  1  0.83956400  0.68904000  0.24572400  1
  C  C20  1  0.60759000  0.19489700  0.85150400  1
  C  C21  1  0.85111900  0.47563800  0.64196800  1
  C  C22  1  0.57185500  0.54545200  0.56202000  1
  C  C23  1  0.66442600  0.81090600  0.24611400  1
  C  C24  1  0.53756500  0.59657400  0.73572500  1
  C  C25  1  0.03756500  0.40342600  0.76427500  1
  C  C26  1  0.85944300  0.68493100  0.48926800  1
  C  C27  1  0.07185500  0.45454800  0.93798000  1
  C  C28  1  0.35111900  0.52436200  0.85803200  1
  C  C29  1  0.21165900  0.81894800  0.46781100  1
  C  C30  1  0.83557400  0.81090600  0.74611400  1
  C  C31  1  0.71165900  0.18105200  0.03218900  1
  C  C32  1  0.10759000  0.80510300  0.64849600  1
  C  C33  1  0.64055700  0.68493100  0.98926800  1
  C  C34  1  0.35944300  0.31506900  0.01073200  1
  C  C35  1  0.89241000  0.19489700  0.35150400  1
  C  C36  1  0.28834100  0.81894800  0.96781100  1
  C  C37  1  0.16442600  0.18909400  0.25388600  1
  C  C38  1  0.78834100  0.18105200  0.53218900  1
  C  C39  1  0.64888100  0.47563800  0.14196800  1
  C  C40  1  0.92814500  0.54545200  0.06202000  1
  C  C41  1  0.14055700  0.31506900  0.51073200  1
  C  C42  1  0.96243500  0.59657400  0.23572500  1
  C  C43  1  0.46243500  0.40342600  0.26427500  1
  C  C44  1  0.33557400  0.18909400  0.75388600  1
  C  C45  1  0.42814500  0.45454800  0.43798000  1
  C  C46  1  0.14888100  0.52436200  0.35803200  1
  C  C47  1  0.39241000  0.80510300  0.14849600  1
