# generated using pymatgen
data_CuNiC
_symmetry_space_group_name_H-M   'P 1'
_cell_length_a   3.06422400
_cell_length_b   4.80310500
_cell_length_c   14.32928825
_cell_angle_alpha   87.30450696
_cell_angle_beta   90.00000000
_cell_angle_gamma   90.00000000
_symmetry_Int_Tables_number   1
_chemical_formula_structural   CuNiC
_chemical_formula_sum   'Cu6 Ni6 C6'
_cell_volume   210.66211029
_cell_formula_units_Z   6
loop_
 _symmetry_equiv_pos_site_id
 _symmetry_equiv_pos_as_xyz
  1  'x, y, z'
loop_
 _atom_site_type_symbol
 _atom_site_label
 _atom_site_symmetry_multiplicity
 _atom_site_fract_x
 _atom_site_fract_y
 _atom_site_fract_z
 _atom_site_occupancy
  C  C0  1  0.00000000  0.00000000  0.00000000  1
  C  C1  1  0.00000000  0.96173800  0.33364300  1
  C  C2  1  0.00000000  0.03826200  0.66635700  1
  C  C3  1  0.50000000  0.40733300  0.16621700  1
  C  C4  1  0.50000000  0.50000000  0.50000000  1
  C  C5  1  0.50000000  0.59266700  0.83378300  1
  Ni  Ni6  1  0.50000000  0.82465600  0.93651300  1
  Ni  Ni7  1  0.00000000  0.74745500  0.76379200  1
  Ni  Ni8  1  0.00000000  0.68331500  0.43265900  1
  Ni  Ni9  1  0.00000000  0.31668500  0.56734100  1
  Ni  Ni10  1  0.00000000  0.25254500  0.23620800  1
  Ni  Ni11  1  0.50000000  0.17534400  0.06348700  1
  Cu  Cu12  1  0.50000000  0.76219400  0.26873100  1
  Cu  Cu13  1  0.50000000  0.83424200  0.60031000  1
  Cu  Cu14  1  0.00000000  0.66080800  0.10727600  1
  Cu  Cu15  1  0.00000000  0.33919200  0.89272400  1
  Cu  Cu16  1  0.50000000  0.16575800  0.39969000  1
  Cu  Cu17  1  0.50000000  0.23780600  0.73126900  1
