# generated using pymatgen
data_Cu(NiC4)3
_symmetry_space_group_name_H-M   'P 1'
_cell_length_a   5.96298822
_cell_length_b   5.96298822
_cell_length_c   5.96298846
_cell_angle_alpha   59.63754553
_cell_angle_beta   59.63754553
_cell_angle_gamma   59.63754298
_symmetry_Int_Tables_number   1
_chemical_formula_structural   Cu(NiC4)3
_chemical_formula_sum   'Cu1 Ni3 C12'
_cell_volume   148.69113774
_cell_formula_units_Z   1
loop_
 _symmetry_equiv_pos_site_id
 _symmetry_equiv_pos_as_xyz
  1  'x, y, z'
loop_
 _atom_site_type_symbol
 _atom_site_label
 _atom_site_symmetry_multiplicity
 _atom_site_fract_x
 _atom_site_fract_y
 _atom_site_fract_z
 _atom_site_occupancy
  C  C0  1  0.50000000  0.50000000  0.50000000  1
  C  C1  1  0.00000000  0.00000000  0.50000000  1
  C  C2  1  0.50000000  0.00000000  0.00000000  1
  C  C3  1  0.00000000  0.50000000  0.00000000  1
  Ni  Ni4  1  0.50000000  0.50000000  0.00000000  1
  Ni  Ni5  1  0.00000000  0.50000000  0.50000000  1
  Ni  Ni6  1  0.50000000  0.00000000  0.50000000  1
  Cu  Cu7  1  0.00000000  0.00000000  0.00000000  1
  C  C8  1  0.24476000  0.24476000  0.24476000  1
  C  C9  1  0.76146600  0.76146600  0.26284300  1
  C  C10  1  0.26284300  0.76146600  0.76146600  1
  C  C11  1  0.75524000  0.75524000  0.75524000  1
  C  C12  1  0.76146600  0.26284300  0.76146600  1
  C  C13  1  0.23853400  0.23853400  0.73715700  1
  C  C14  1  0.73715700  0.23853400  0.23853400  1
  C  C15  1  0.23853400  0.73715700  0.23853400  1
