# generated using pymatgen
data_CuNiC17
_symmetry_space_group_name_H-M   'P 1'
_cell_length_a   8.98271097
_cell_length_b   8.59002718
_cell_length_c   8.27672061
_cell_angle_alpha   59.38712107
_cell_angle_beta   63.77067416
_cell_angle_gamma   92.28125909
_symmetry_Int_Tables_number   1
_chemical_formula_structural   CuNiC17
_chemical_formula_sum   'Cu2 Ni2 C34'
_cell_volume   463.11529361
_cell_formula_units_Z   2
loop_
 _symmetry_equiv_pos_site_id
 _symmetry_equiv_pos_as_xyz
  1  'x, y, z'
loop_
 _atom_site_type_symbol
 _atom_site_label
 _atom_site_symmetry_multiplicity
 _atom_site_fract_x
 _atom_site_fract_y
 _atom_site_fract_z
 _atom_site_occupancy
  C  C0  1  0.14127600  0.73950800  0.17858200  1
  C  C1  1  0.37198200  0.20676900  0.36383500  1
  C  C2  1  0.86162300  0.92763600  0.40318000  1
  C  C3  1  0.86471100  0.26199300  0.81527300  1
  Ni  Ni4  1  0.05039300  0.35245600  0.29878400  1
  Ni  Ni5  1  0.95349000  0.64619100  0.70265700  1
  Cu  Cu6  1  0.56460500  0.84935400  0.29893200  1
  Cu  Cu7  1  0.43931800  0.14555400  0.70637400  1
  C  C8  1  0.25484300  0.03500000  0.21104900  1
  C  C9  1  0.24876600  0.45444500  0.50620200  1
  C  C10  1  0.24960700  0.74722200  0.78604100  1
  C  C11  1  0.75493000  0.24916800  0.21037700  1
  C  C12  1  0.75746700  0.54394700  0.49268600  1
  C  C13  1  0.74866100  0.97116000  0.78162100  1
  C  C14  1  0.08967700  0.84186200  0.37067200  1
  C  C15  1  0.28119300  0.11042600  0.98309100  1
  C  C16  1  0.21593100  0.17216000  0.27649100  1
  C  C17  1  0.21466400  0.49481200  0.32086000  1
  C  C18  1  0.08908400  0.43299500  0.70055400  1
  C  C19  1  0.11376500  0.78638400  0.71760000  1
  C  C20  1  0.42222300  0.99786900  0.20761200  1
  C  C21  1  0.29730500  0.26620200  0.58504200  1
  C  C22  1  0.41266600  0.61956900  0.39563400  1
  C  C23  1  0.20017100  0.53866500  0.97521900  1
  C  C24  1  0.27238400  0.88559300  0.84864600  1
  C  C25  1  0.43157100  0.80410000  0.57844300  1
  C  C26  1  0.57067500  0.19237200  0.40878600  1
  C  C27  1  0.73782800  0.11193200  0.14461300  1
  C  C28  1  0.80635500  0.45892800  0.02316800  1
  C  C29  1  0.58966300  0.38176600  0.60332600  1
  C  C30  1  0.72562700  0.74115500  0.39672900  1
  C  C31  1  0.57641400  0.00809600  0.79065500  1
  C  C32  1  0.89100500  0.20639700  0.28068700  1
  C  C33  1  0.91737300  0.55898300  0.30238300  1
  C  C34  1  0.79304900  0.50388800  0.67709400  1
  C  C35  1  0.79363100  0.84225300  0.70681600  1
  C  C36  1  0.71033400  0.88769600  0.01788900  1
  C  C37  1  0.89781800  0.17144400  0.62808900  1
