# generated using pymatgen
data_CuNiC4
_symmetry_space_group_name_H-M   'P 1'
_cell_length_a   5.67313795
_cell_length_b   5.67313795
_cell_length_c   5.67313795
_cell_angle_alpha   106.71815678
_cell_angle_beta   106.71815678
_cell_angle_gamma   115.12989941
_symmetry_Int_Tables_number   1
_chemical_formula_structural   CuNiC4
_chemical_formula_sum   'Cu2 Ni2 C8'
_cell_volume   139.51717842
_cell_formula_units_Z   2
loop_
 _symmetry_equiv_pos_site_id
 _symmetry_equiv_pos_as_xyz
  1  'x, y, z'
loop_
 _atom_site_type_symbol
 _atom_site_label
 _atom_site_symmetry_multiplicity
 _atom_site_fract_x
 _atom_site_fract_y
 _atom_site_fract_z
 _atom_site_occupancy
  Ni  Ni0  1  0.26102100  0.76102100  0.50000000  1
  Ni  Ni1  1  0.01102100  0.01102100  0.00000000  1
  Cu  Cu2  1  0.74869600  0.24869600  0.50000000  1
  Cu  Cu3  1  0.49869600  0.49869600  0.00000000  1
  C  C4  1  0.43968800  0.23703700  0.20265100  1
  C  C5  1  0.95550500  0.75810400  0.19740100  1
  C  C6  1  0.00810400  0.31070300  0.30259900  1
  C  C7  1  0.48703700  0.78438700  0.29734900  1
  C  C8  1  0.00810400  0.70550500  0.69740100  1
  C  C9  1  0.48703700  0.18968800  0.70265100  1
  C  C10  1  0.56070300  0.75810400  0.80259900  1
  C  C11  1  0.03438700  0.23703700  0.79734900  1
