# generated using pymatgen
data_Cu5Ni3C26
_symmetry_space_group_name_H-M   'P 1'
_cell_length_a   6.02095600
_cell_length_b   6.06984923
_cell_length_c   9.94531588
_cell_angle_alpha   89.28148007
_cell_angle_beta   89.59168562
_cell_angle_gamma   60.89449498
_symmetry_Int_Tables_number   1
_chemical_formula_structural   Cu5Ni3C26
_chemical_formula_sum   'Cu5 Ni3 C26'
_cell_volume   317.54296453
_cell_formula_units_Z   1
loop_
 _symmetry_equiv_pos_site_id
 _symmetry_equiv_pos_as_xyz
  1  'x, y, z'
loop_
 _atom_site_type_symbol
 _atom_site_label
 _atom_site_symmetry_multiplicity
 _atom_site_fract_x
 _atom_site_fract_y
 _atom_site_fract_z
 _atom_site_occupancy
  C  C0  1  0.18562200  0.19045800  0.05294000  1
  C  C1  1  0.58759400  0.19401700  0.04603000  1
  C  C2  1  0.31883900  0.34669000  0.26425100  1
  C  C3  1  0.19413100  0.60184900  0.04423900  1
  C  C4  1  0.79807800  0.38849400  0.54977900  1
  C  C5  1  0.98225600  0.00675000  0.98080600  1
  C  C6  1  0.65979400  0.66251700  0.76480300  1
  C  C7  1  0.80149400  0.79895400  0.54778800  1
  C  C8  1  0.99157200  0.01512200  0.47889600  1
  C  C9  1  0.39056400  0.79282600  0.54882900  1
  Ni  Ni10  1  0.15421000  0.67218900  0.77931500  1
  Ni  Ni11  1  0.82331900  0.84131400  0.27817900  1
  Ni  Ni12  1  0.32995400  0.83813800  0.28123100  1
  Cu  Cu13  1  0.15865000  0.17087200  0.77978100  1
  Cu  Cu14  1  0.32742300  0.34286800  0.51979000  1
  Cu  Cu15  1  0.65330400  0.67133200  0.01988200  1
  Cu  Cu16  1  0.64946100  0.17223400  0.77869000  1
  Cu  Cu17  1  0.82218100  0.34923100  0.27827000  1
  C  C18  1  0.97765500  0.02547900  0.66771300  1
  C  C19  1  0.48636500  0.01972100  0.65557100  1
  C  C20  1  0.65382300  0.19372900  0.40552500  1
  C  C21  1  0.00045200  0.02127700  0.17276000  1
  C  C22  1  0.32781700  0.32184600  0.89639600  1
  C  C23  1  0.14658100  0.19752200  0.40401300  1
  C  C24  1  0.48816700  0.48546600  0.65129600  1
  C  C25  1  0.01579800  0.47903000  0.65176000  1
  C  C26  1  0.97347900  0.50374000  0.14965500  1
  C  C27  1  0.81516900  0.33404900  0.89710900  1
  C  C28  1  0.16532900  0.68910600  0.40591000  1
  C  C29  1  0.50983400  0.50059600  0.14778700  1
  C  C30  1  0.65206300  0.66422600  0.39573100  1
  C  C31  1  0.80609600  0.84695800  0.90861900  1
  C  C32  1  0.49208400  0.97738300  0.15403600  1
  C  C33  1  0.31254500  0.85485700  0.90577700  1
