# generated using pymatgen
data_CuNi3C2
_symmetry_space_group_name_H-M   'P 1'
_cell_length_a   5.78228900
_cell_length_b   6.37038300
_cell_length_c   8.25490300
_cell_angle_alpha   90.00000000
_cell_angle_beta   90.00000000
_cell_angle_gamma   90.00000000
_symmetry_Int_Tables_number   1
_chemical_formula_structural   CuNi3C2
_chemical_formula_sum   'Cu4 Ni12 C8'
_cell_volume   304.07261720
_cell_formula_units_Z   4
loop_
 _symmetry_equiv_pos_site_id
 _symmetry_equiv_pos_as_xyz
  1  'x, y, z'
loop_
 _atom_site_type_symbol
 _atom_site_label
 _atom_site_symmetry_multiplicity
 _atom_site_fract_x
 _atom_site_fract_y
 _atom_site_fract_z
 _atom_site_occupancy
  C  C0  1  0.00000000  0.00000000  0.00000000  1
  C  C1  1  0.00000000  0.50000000  0.00000000  1
  C  C2  1  0.21902100  0.75000000  0.24790800  1
  C  C3  1  0.28097900  0.25000000  0.74790800  1
  C  C4  1  0.50000000  0.00000000  0.50000000  1
  C  C5  1  0.50000000  0.50000000  0.50000000  1
  C  C6  1  0.71902100  0.75000000  0.25209200  1
  C  C7  1  0.78097900  0.25000000  0.75209200  1
  Ni  Ni8  1  0.02893200  0.04816200  0.76645000  1
  Ni  Ni9  1  0.02893200  0.45183800  0.76645000  1
  Ni  Ni10  1  0.19776700  0.75000000  0.01667900  1
  Ni  Ni11  1  0.30223300  0.25000000  0.51667900  1
  Ni  Ni12  1  0.47106800  0.95183800  0.26645000  1
  Ni  Ni13  1  0.47106800  0.54816200  0.26645000  1
  Ni  Ni14  1  0.52893200  0.04816200  0.73355000  1
  Ni  Ni15  1  0.52893200  0.45183800  0.73355000  1
  Ni  Ni16  1  0.69776700  0.75000000  0.48332100  1
  Ni  Ni17  1  0.80223300  0.25000000  0.98332100  1
  Ni  Ni18  1  0.97106800  0.95183800  0.23355000  1
  Ni  Ni19  1  0.97106800  0.54816200  0.23355000  1
  Cu  Cu20  1  0.21899700  0.75000000  0.48378500  1
  Cu  Cu21  1  0.28100300  0.25000000  0.98378500  1
  Cu  Cu22  1  0.71899700  0.75000000  0.01621500  1
  Cu  Cu23  1  0.78100300  0.25000000  0.51621500  1
