# generated using pymatgen
data_Cu(Ni2C3)5
_symmetry_space_group_name_H-M   'P 1'
_cell_length_a   6.70424500
_cell_length_b   14.61713100
_cell_length_c   17.59314400
_cell_angle_alpha   90.00000000
_cell_angle_beta   90.00000000
_cell_angle_gamma   90.00000000
_symmetry_Int_Tables_number   1
_chemical_formula_structural   Cu(Ni2C3)5
_chemical_formula_sum   'Cu4 Ni40 C60'
_cell_volume   1724.07229636
_cell_formula_units_Z   4
loop_
 _symmetry_equiv_pos_site_id
 _symmetry_equiv_pos_as_xyz
  1  'x, y, z'
loop_
 _atom_site_type_symbol
 _atom_site_label
 _atom_site_symmetry_multiplicity
 _atom_site_fract_x
 _atom_site_fract_y
 _atom_site_fract_z
 _atom_site_occupancy
  C  C0  1  0.06703700  0.25000000  0.57339300  1
  C  C1  1  0.43296300  0.25000000  0.07339300  1
  C  C2  1  0.93296300  0.75000000  0.42660700  1
  C  C3  1  0.56703700  0.75000000  0.92660700  1
  C  C4  1  0.05357900  0.33467200  0.69727600  1
  C  C5  1  0.44642100  0.16532800  0.19727600  1
  C  C6  1  0.94642100  0.83467200  0.30272400  1
  C  C7  1  0.55357900  0.66532800  0.80272400  1
  C  C8  1  0.94642100  0.66532800  0.30272400  1
  C  C9  1  0.55357900  0.83467200  0.80272400  1
  C  C10  1  0.05357900  0.16532800  0.69727600  1
  C  C11  1  0.44642100  0.33467200  0.19727600  1
  C  C12  1  0.19599900  0.34923200  0.60971900  1
  C  C13  1  0.30400100  0.15076800  0.10971900  1
  C  C14  1  0.80400100  0.84923200  0.39028100  1
  C  C15  1  0.69599900  0.65076800  0.89028100  1
  C  C16  1  0.80400100  0.65076800  0.39028100  1
  C  C17  1  0.69599900  0.84923200  0.89028100  1
  C  C18  1  0.19599900  0.15076800  0.60971900  1
  C  C19  1  0.30400100  0.34923200  0.10971900  1
  C  C20  1  0.19117900  0.25000000  0.75224800  1
  C  C21  1  0.30882100  0.25000000  0.25224800  1
  C  C22  1  0.80882100  0.75000000  0.24775200  1
  C  C23  1  0.69117900  0.75000000  0.74775200  1
  Ni  Ni24  1  0.94172900  0.25000000  0.81346700  1
  Ni  Ni25  1  0.55827100  0.25000000  0.31346700  1
  Ni  Ni26  1  0.05827100  0.75000000  0.18653300  1
  Ni  Ni27  1  0.44172900  0.75000000  0.68653300  1
  Ni  Ni28  1  0.33059500  0.34238400  0.80722700  1
  Ni  Ni29  1  0.16940500  0.15761600  0.30722700  1
  Ni  Ni30  1  0.66940500  0.84238400  0.19277300  1
  Ni  Ni31  1  0.83059500  0.65761600  0.69277300  1
  Ni  Ni32  1  0.66940500  0.65761600  0.19277300  1
  Ni  Ni33  1  0.83059500  0.84238400  0.69277300  1
  Ni  Ni34  1  0.33059500  0.15761600  0.80722700  1
  Ni  Ni35  1  0.16940500  0.34238400  0.30722700  1
  Ni  Ni36  1  0.32529600  0.45425800  0.65138500  1
  Ni  Ni37  1  0.17470400  0.04574200  0.15138500  1
  Ni  Ni38  1  0.67470400  0.95425800  0.34861500  1
  Ni  Ni39  1  0.82529600  0.54574200  0.84861500  1
  Ni  Ni40  1  0.67470400  0.54574200  0.34861500  1
  Ni  Ni41  1  0.82529600  0.95425800  0.84861500  1
  Ni  Ni42  1  0.32529600  0.04574200  0.65138500  1
  Ni  Ni43  1  0.17470400  0.45425800  0.15138500  1
  Ni  Ni44  1  0.34465800  0.36039800  0.51785900  1
  Ni  Ni45  1  0.15534200  0.13960200  0.01785900  1
  Ni  Ni46  1  0.65534200  0.86039800  0.48214100  1
  Ni  Ni47  1  0.84465800  0.63960200  0.98214100  1
  Ni  Ni48  1  0.65534200  0.63960200  0.48214100  1
  Ni  Ni49  1  0.84465800  0.86039800  0.98214100  1
  Ni  Ni50  1  0.34465800  0.13960200  0.51785900  1
  Ni  Ni51  1  0.15534200  0.36039800  0.01785900  1
  Ni  Ni52  1  0.95081100  0.41093500  0.57375100  1
  Ni  Ni53  1  0.54918900  0.08906500  0.07375100  1
  Ni  Ni54  1  0.04918900  0.91093500  0.42624900  1
  Ni  Ni55  1  0.45081100  0.58906500  0.92624900  1
  Ni  Ni56  1  0.04918900  0.58906500  0.42624900  1
  Ni  Ni57  1  0.45081100  0.91093500  0.92624900  1
  Ni  Ni58  1  0.95081100  0.08906500  0.57375100  1
  Ni  Ni59  1  0.54918900  0.41093500  0.07375100  1
  Ni  Ni60  1  0.38301900  0.25000000  0.65834000  1
  Ni  Ni61  1  0.11698100  0.25000000  0.15834000  1
  Ni  Ni62  1  0.61698100  0.75000000  0.34166000  1
  Ni  Ni63  1  0.88301900  0.75000000  0.84166000  1
  Cu  Cu64  1  0.64246100  0.25000000  0.65892500  1
  Cu  Cu65  1  0.85753900  0.25000000  0.15892500  1
  Cu  Cu66  1  0.35753900  0.75000000  0.34107500  1
  Cu  Cu67  1  0.14246100  0.75000000  0.84107500  1
  C  C68  1  0.79671000  0.25000000  0.84885900  1
  C  C69  1  0.70329000  0.25000000  0.34885900  1
  C  C70  1  0.20329000  0.75000000  0.15114100  1
  C  C71  1  0.29671000  0.75000000  0.65114100  1
  C  C72  1  0.42212900  0.39735900  0.83946200  1
  C  C73  1  0.07787100  0.10264100  0.33946200  1
  C  C74  1  0.57787100  0.89735900  0.16053800  1
  C  C75  1  0.92212900  0.60264100  0.66053800  1
  C  C76  1  0.57787100  0.60264100  0.16053800  1
  C  C77  1  0.92212900  0.89735900  0.66053800  1
  C  C78  1  0.42212900  0.10264100  0.83946200  1
  C  C79  1  0.07787100  0.39735900  0.33946200  1
  C  C80  1  0.40721400  0.51633100  0.67785200  1
  C  C81  1  0.09278600  0.98366900  0.17785200  1
  C  C82  1  0.59278600  0.01633100  0.32214800  1
  C  C83  1  0.90721400  0.48366900  0.82214800  1
  C  C84  1  0.59278600  0.48366900  0.32214800  1
  C  C85  1  0.90721400  0.01633100  0.82214800  1
  C  C86  1  0.40721400  0.98366900  0.67785200  1
  C  C87  1  0.09278600  0.51633100  0.17785200  1
  C  C88  1  0.43922600  0.36581000  0.46294800  1
  C  C89  1  0.06077400  0.13419000  0.96294800  1
  C  C90  1  0.56077400  0.86581000  0.53705200  1
  C  C91  1  0.93922600  0.63419000  0.03705200  1
  C  C92  1  0.56077400  0.63419000  0.53705200  1
  C  C93  1  0.93922600  0.86581000  0.03705200  1
  C  C94  1  0.43922600  0.13419000  0.46294800  1
  C  C95  1  0.06077400  0.36581000  0.96294800  1
  C  C96  1  0.80834800  0.44561800  0.55042800  1
  C  C97  1  0.69165200  0.05438200  0.05042800  1
  C  C98  1  0.19165200  0.94561800  0.44957200  1
  C  C99  1  0.30834800  0.55438200  0.94957200  1
  C  C100  1  0.19165200  0.55438200  0.44957200  1
  C  C101  1  0.30834800  0.94561800  0.94957200  1
  C  C102  1  0.80834800  0.05438200  0.55042800  1
  C  C103  1  0.69165200  0.44561800  0.05042800  1
