# generated using pymatgen
data_CuNi2C9
_symmetry_space_group_name_H-M   'P 1'
_cell_length_a   6.74777000
_cell_length_b   5.30517100
_cell_length_c   9.05971483
_cell_angle_alpha   89.58659372
_cell_angle_beta   90.00000000
_cell_angle_gamma   90.00000000
_symmetry_Int_Tables_number   1
_chemical_formula_structural   CuNi2C9
_chemical_formula_sum   'Cu2 Ni4 C18'
_cell_volume   324.31189709
_cell_formula_units_Z   2
loop_
 _symmetry_equiv_pos_site_id
 _symmetry_equiv_pos_as_xyz
  1  'x, y, z'
loop_
 _atom_site_type_symbol
 _atom_site_label
 _atom_site_symmetry_multiplicity
 _atom_site_fract_x
 _atom_site_fract_y
 _atom_site_fract_z
 _atom_site_occupancy
  Ni  Ni0  1  0.49939300  0.23563700  0.77771300  1
  Ni  Ni1  1  0.00060700  0.23563700  0.77771300  1
  Ni  Ni2  1  0.50060700  0.76436300  0.22228700  1
  Ni  Ni3  1  0.99939300  0.76436300  0.22228700  1
  Cu  Cu4  1  0.75000000  0.78283500  0.64269100  1
  Cu  Cu5  1  0.25000000  0.21716500  0.35730900  1
  C  C6  1  0.25000000  0.70929600  0.57567500  1
  C  C7  1  0.75000000  0.29070400  0.42432500  1
  C  C8  1  0.75000000  0.73139600  0.92662400  1
  C  C9  1  0.25000000  0.26860400  0.07337600  1
  C  C10  1  0.25000000  0.29921700  0.93534900  1
  C  C11  1  0.75000000  0.95296700  0.86171400  1
  C  C12  1  0.75000000  0.54024700  0.83299200  1
  C  C13  1  0.06192300  0.79148700  0.65933700  1
  C  C14  1  0.43807700  0.79148700  0.65933700  1
  C  C15  1  0.75000000  0.16844100  0.58239800  1
  C  C16  1  0.25000000  0.41588500  0.55741300  1
  C  C17  1  0.75000000  0.58411500  0.44258700  1
  C  C18  1  0.25000000  0.83155900  0.41760200  1
  C  C19  1  0.56192300  0.20851300  0.34066300  1
  C  C20  1  0.93807700  0.20851300  0.34066300  1
  C  C21  1  0.25000000  0.45975300  0.16700800  1
  C  C22  1  0.25000000  0.04703300  0.13828600  1
  C  C23  1  0.75000000  0.70078300  0.06465100  1
