# generated using pymatgen
data_Cu9Ni3C4
_symmetry_space_group_name_H-M   'P 1'
_cell_length_a   5.25278700
_cell_length_b   5.38656621
_cell_length_c   17.46649521
_cell_angle_alpha   89.28094244
_cell_angle_beta   97.95863051
_cell_angle_gamma   118.79021630
_symmetry_Int_Tables_number   1
_chemical_formula_structural   Cu9Ni3C4
_chemical_formula_sum   'Cu18 Ni6 C8'
_cell_volume   428.10950488
_cell_formula_units_Z   2
loop_
 _symmetry_equiv_pos_site_id
 _symmetry_equiv_pos_as_xyz
  1  'x, y, z'
loop_
 _atom_site_type_symbol
 _atom_site_label
 _atom_site_symmetry_multiplicity
 _atom_site_fract_x
 _atom_site_fract_y
 _atom_site_fract_z
 _atom_site_occupancy
  C  C0  1  0.74362300  0.36666200  0.12527500  1
  C  C1  1  0.75303400  0.90513100  0.62988100  1
  C  C2  1  0.50670100  0.71625800  0.24877400  1
  C  C3  1  0.51682100  0.25831100  0.75049400  1
  C  C4  1  0.24944900  0.13594600  0.37071900  1
  C  C5  1  0.21579900  0.61304400  0.87258400  1
  C  C6  1  0.97608000  0.01171300  0.00209200  1
  C  C7  1  0.98420700  0.48523300  0.50513800  1
  Ni  Ni8  1  0.81618300  0.21232600  0.56087500  1
  Ni  Ni9  1  0.83878100  0.19667400  0.04244700  1
  Ni  Ni10  1  0.29392800  0.40773300  0.31410200  1
  Ni  Ni11  1  0.86225500  0.42889600  0.83260900  1
  Ni  Ni12  1  0.65205600  0.54129900  0.20725000  1
  Ni  Ni13  1  0.67156100  0.04716500  0.70258400  1
  Cu  Cu14  1  0.31413900  0.13722300  0.08365700  1
  Cu  Cu15  1  0.76677100  0.66923200  0.05803200  1
  Cu  Cu16  1  0.71884900  0.06712500  0.19333500  1
  Cu  Cu17  1  0.32312200  0.92701500  0.29297600  1
  Cu  Cu18  1  0.33804500  0.68209500  0.58255900  1
  Cu  Cu19  1  0.35174200  0.48068400  0.78965100  1
  Cu  Cu20  1  0.17343200  0.59696300  0.16647800  1
  Cu  Cu21  1  0.17339700  0.09080800  0.66401600  1
  Cu  Cu22  1  0.18400000  0.30116600  0.46037100  1
  Cu  Cu23  1  0.72531000  0.57312000  0.68474000  1
  Cu  Cu24  1  0.82278300  0.90311800  0.33824900  1
  Cu  Cu25  1  0.82905400  0.72176000  0.54073400  1
  Cu  Cu26  1  0.15878500  0.79179100  0.96061900  1
  Cu  Cu27  1  0.67238700  0.32230300  0.41456600  1
  Cu  Cu28  1  0.29095400  0.95300600  0.81564300  1
  Cu  Cu29  1  0.21832100  0.31076300  0.93729800  1
  Cu  Cu30  1  0.20041100  0.81233100  0.43830600  1
  Cu  Cu31  1  0.65802200  0.83311100  0.91394700  1
