# generated using pymatgen
data_Cu3NiC2
_symmetry_space_group_name_H-M   'P 1'
_cell_length_a   4.83055000
_cell_length_b   5.80410546
_cell_length_c   13.64285095
_cell_angle_alpha   78.87221998
_cell_angle_beta   89.15188311
_cell_angle_gamma   88.97626111
_symmetry_Int_Tables_number   1
_chemical_formula_structural   Cu3NiC2
_chemical_formula_sum   'Cu15 Ni5 C10'
_cell_volume   375.22847138
_cell_formula_units_Z   5
loop_
 _symmetry_equiv_pos_site_id
 _symmetry_equiv_pos_as_xyz
  1  'x, y, z'
loop_
 _atom_site_type_symbol
 _atom_site_label
 _atom_site_symmetry_multiplicity
 _atom_site_fract_x
 _atom_site_fract_y
 _atom_site_fract_z
 _atom_site_occupancy
  C  C0  1  0.49563400  0.50266600  0.00189600  1
  C  C1  1  0.49728400  0.29989000  0.59999000  1
  C  C2  1  0.54839800  0.68613700  0.40464400  1
  C  C3  1  0.47786400  0.90434200  0.78638200  1
  C  C4  1  0.49644400  0.09694900  0.20109300  1
  C  C5  1  0.97035700  0.40099400  0.81414100  1
  C  C6  1  0.01464100  0.79221400  0.59584200  1
  C  C7  1  0.00992300  0.60716700  0.19805000  1
  C  C8  1  0.98737900  0.22078000  0.39839800  1
  C  C9  1  0.99263700  0.99704900  0.99965000  1
  Ni  Ni10  1  0.81789700  0.52981500  0.33429200  1
  Ni  Ni11  1  0.79290100  0.30263200  0.94845000  1
  Ni  Ni12  1  0.69195200  0.59103500  0.54012700  1
  Ni  Ni13  1  0.31210600  0.00064600  0.65588800  1
  Ni  Ni14  1  0.19237600  0.69444100  0.06048900  1
  Cu  Cu15  1  0.80877900  0.92217400  0.13971300  1
  Cu  Cu16  1  0.80346700  0.72708800  0.73807200  1
  Cu  Cu17  1  0.79731300  0.10700700  0.53917300  1
  Cu  Cu18  1  0.68763800  0.82144200  0.92674700  1
  Cu  Cu19  1  0.69573200  0.22737700  0.73806400  1
  Cu  Cu20  1  0.69083000  0.42644200  0.13961900  1
  Cu  Cu21  1  0.70163800  0.02413600  0.34014700  1
  Cu  Cu22  1  0.30532300  0.57738100  0.86046700  1
  Cu  Cu23  1  0.29503200  0.18569900  0.06094400  1
  Cu  Cu24  1  0.32390600  0.76834600  0.27036900  1
  Cu  Cu25  1  0.29964100  0.37081800  0.46468900  1
  Cu  Cu26  1  0.21138100  0.88377100  0.45287900  1
  Cu  Cu27  1  0.19845100  0.47661100  0.67189300  1
  Cu  Cu28  1  0.19322500  0.07080500  0.86153600  1
  Cu  Cu29  1  0.18985200  0.28414700  0.25635700  1
