# generated using pymatgen
data_Cu6Ni11C52
_symmetry_space_group_name_H-M   'P 1'
_cell_length_a   5.17763797
_cell_length_b   5.17763797
_cell_length_c   33.00673600
_cell_angle_alpha   90.00000000
_cell_angle_beta   90.00000000
_cell_angle_gamma   119.99999956
_symmetry_Int_Tables_number   1
_chemical_formula_structural   Cu6Ni11C52
_chemical_formula_sum   'Cu6 Ni11 C52'
_cell_volume   766.29602618
_cell_formula_units_Z   1
loop_
 _symmetry_equiv_pos_site_id
 _symmetry_equiv_pos_as_xyz
  1  'x, y, z'
loop_
 _atom_site_type_symbol
 _atom_site_label
 _atom_site_symmetry_multiplicity
 _atom_site_fract_x
 _atom_site_fract_y
 _atom_site_fract_z
 _atom_site_occupancy
  C  C0  1  0.66666700  0.33333300  0.19301200  1
  C  C1  1  0.33333300  0.66666700  0.05548600  1
  C  C2  1  0.33333300  0.66666700  0.55440900  1
  C  C3  1  0.33333300  0.66666700  0.74021900  1
  C  C4  1  0.33333300  0.66666700  0.94685800  1
  C  C5  1  0.66666700  0.33333300  0.87425700  1
  C  C6  1  0.66666700  0.33333300  0.69391800  1
  C  C7  1  0.00000000  0.00000000  0.80459100  1
  C  C8  1  0.00000000  0.00000000  0.62766600  1
  C  C9  1  0.00000000  0.00000000  0.12702400  1
  Ni  Ni10  1  0.66666700  0.33333300  0.99012500  1
  Ni  Ni11  1  0.66666700  0.33333300  0.08167400  1
  Ni  Ni12  1  0.66666700  0.33333300  0.49065500  1
  Ni  Ni13  1  0.66666700  0.33333300  0.58186900  1
  Ni  Ni14  1  0.66666700  0.33333300  0.27837100  1
  Ni  Ni15  1  0.66666700  0.33333300  0.36922200  1
  Ni  Ni16  1  0.00000000  0.00000000  0.71523300  1
  Ni  Ni17  1  0.00000000  0.00000000  0.51101200  1
  Ni  Ni18  1  0.00000000  0.00000000  0.42555700  1
  Ni  Ni19  1  0.00000000  0.00000000  0.01047500  1
  Ni  Ni20  1  0.00000000  0.00000000  0.92044900  1
  Cu  Cu21  1  0.33333300  0.66666700  0.64652900  1
  Cu  Cu22  1  0.33333300  0.66666700  0.14708100  1
  Cu  Cu23  1  0.33333300  0.66666700  0.85567300  1
  Cu  Cu24  1  0.33333300  0.66666700  0.35157500  1
  Cu  Cu25  1  0.66666700  0.33333300  0.78404300  1
  Cu  Cu26  1  0.00000000  0.00000000  0.21842400  1
  C  C27  1  0.37212500  0.37716500  0.10729200  1
  C  C28  1  0.34414700  0.28906500  0.24930400  1
  C  C29  1  0.37477200  0.36843200  0.82150700  1
  C  C30  1  0.35581800  0.29848000  0.53410600  1
  C  C31  1  0.62620300  0.63035400  0.60713800  1
  C  C32  1  0.32988700  0.04464400  0.74911800  1
  C  C33  1  0.61524800  0.59063600  0.32550900  1
  C  C34  1  0.35538500  0.05661600  0.03386100  1
  C  C35  1  0.36964600  0.99584900  0.60713800  1
  C  C36  1  0.40936400  0.02461100  0.32550900  1
  C  C37  1  0.70123100  0.64461500  0.03386100  1
  C  C38  1  0.94266200  0.64418200  0.53410600  1
  C  C39  1  0.63156800  0.00634000  0.82150700  1
  C  C40  1  0.62283500  0.99496000  0.10729200  1
  C  C41  1  0.67177200  0.99816900  0.39187600  1
  C  C42  1  0.70152000  0.05733800  0.53410600  1
  C  C43  1  0.99366000  0.62522800  0.82150700  1
  C  C44  1  0.71093500  0.05508200  0.24930400  1
  C  C45  1  0.67247300  0.95811200  0.67906700  1
  C  C46  1  0.00504000  0.62787500  0.10729200  1
  C  C47  1  0.72461300  0.03630300  0.96483300  1
  C  C48  1  0.94338400  0.29876900  0.03386100  1
  C  C49  1  0.66286700  0.70486100  0.89257300  1
  C  C50  1  0.97538900  0.38475200  0.32550900  1
  C  C51  1  0.95535600  0.28524400  0.74911800  1
  C  C52  1  0.67759800  0.71032600  0.17797500  1
  C  C53  1  0.93796200  0.24902200  0.46406800  1
  C  C54  1  0.00415100  0.37379700  0.60713800  1
  C  C55  1  0.04199400  0.33713300  0.89257300  1
  C  C56  1  0.71475600  0.67011300  0.74911800  1
  C  C57  1  0.03272800  0.32240200  0.17797500  1
  C  C58  1  0.75097800  0.68894100  0.46406800  1
  C  C59  1  0.96369700  0.68831000  0.96483300  1
  C  C60  1  0.28563900  0.32752700  0.67906700  1
  C  C61  1  0.94491800  0.65585300  0.24930400  1
  C  C62  1  0.32639700  0.32822800  0.39187600  1
  C  C63  1  0.31169000  0.27538700  0.96483300  1
  C  C64  1  0.04188800  0.71436100  0.67906700  1
  C  C65  1  0.00183100  0.67360300  0.39187600  1
  C  C66  1  0.31105900  0.06203800  0.46406800  1
  C  C67  1  0.28967400  0.96727200  0.17797500  1
  C  C68  1  0.29513900  0.95800600  0.89257300  1
