# generated using pymatgen
data_CuNiC
_symmetry_space_group_name_H-M   'P 1'
_cell_length_a   3.09834100
_cell_length_b   4.75418700
_cell_length_c   18.98500950
_cell_angle_alpha   86.18970611
_cell_angle_beta   90.00000000
_cell_angle_gamma   90.00000000
_symmetry_Int_Tables_number   1
_chemical_formula_structural   CuNiC
_chemical_formula_sum   'Cu8 Ni8 C8'
_cell_volume   279.03279042
_cell_formula_units_Z   8
loop_
 _symmetry_equiv_pos_site_id
 _symmetry_equiv_pos_as_xyz
  1  'x, y, z'
loop_
 _atom_site_type_symbol
 _atom_site_label
 _atom_site_symmetry_multiplicity
 _atom_site_fract_x
 _atom_site_fract_y
 _atom_site_fract_z
 _atom_site_occupancy
  C  C0  1  0.00000000  0.99244700  0.25038500  1
  C  C1  1  0.00000000  0.95490900  0.99936900  1
  C  C2  1  0.00000000  0.00165000  0.49973400  1
  C  C3  1  0.00000000  0.01562200  0.74978200  1
  C  C4  1  0.50000000  0.48204100  0.12524300  1
  C  C5  1  0.50000000  0.55050400  0.87556000  1
  C  C6  1  0.50000000  0.49816900  0.37511800  1
  C  C7  1  0.50000000  0.50650600  0.62455200  1
  Ni  Ni8  1  0.50000000  0.79851400  0.94998600  1
  Ni  Ni9  1  0.00000000  0.71528200  0.82401100  1
  Ni  Ni10  1  0.00000000  0.68499000  0.07693900  1
  Ni  Ni11  1  0.00000000  0.70335900  0.57468000  1
  Ni  Ni12  1  0.00000000  0.69697000  0.32561400  1
  Ni  Ni13  1  0.00000000  0.28763400  0.17523200  1
  Ni  Ni14  1  0.00000000  0.29933800  0.42514600  1
  Ni  Ni15  1  0.00000000  0.30855600  0.67487200  1
  Cu  Cu16  1  0.50000000  0.79453400  0.20160600  1
  Cu  Cu17  1  0.50000000  0.80460300  0.45109900  1
  Cu  Cu18  1  0.50000000  0.81392100  0.70130100  1
  Cu  Cu19  1  0.00000000  0.30244100  0.92439100  1
  Cu  Cu20  1  0.50000000  0.18852200  0.04605700  1
  Cu  Cu21  1  0.50000000  0.19224900  0.29895200  1
  Cu  Cu22  1  0.50000000  0.19758900  0.54899600  1
  Cu  Cu23  1  0.50000000  0.20965200  0.80137600  1
