# generated using pymatgen
data_Cu2NiC4
_symmetry_space_group_name_H-M   'P 1'
_cell_length_a   6.02273900
_cell_length_b   7.81652300
_cell_length_c   10.71314500
_cell_angle_alpha   90.00000000
_cell_angle_beta   90.00000000
_cell_angle_gamma   90.00000000
_symmetry_Int_Tables_number   1
_chemical_formula_structural   Cu2NiC4
_chemical_formula_sum   'Cu8 Ni4 C16'
_cell_volume   504.34141927
_cell_formula_units_Z   4
loop_
 _symmetry_equiv_pos_site_id
 _symmetry_equiv_pos_as_xyz
  1  'x, y, z'
loop_
 _atom_site_type_symbol
 _atom_site_label
 _atom_site_symmetry_multiplicity
 _atom_site_fract_x
 _atom_site_fract_y
 _atom_site_fract_z
 _atom_site_occupancy
  Ni  Ni0  1  0.75000000  0.25147100  0.08346400  1
  Ni  Ni1  1  0.75000000  0.75147100  0.41653600  1
  Ni  Ni2  1  0.25000000  0.74852900  0.91653600  1
  Ni  Ni3  1  0.25000000  0.24852900  0.58346400  1
  Cu  Cu4  1  0.75000000  0.81496400  0.08299900  1
  Cu  Cu5  1  0.75000000  0.31496400  0.41700100  1
  Cu  Cu6  1  0.25000000  0.18503600  0.91700100  1
  Cu  Cu7  1  0.25000000  0.68503600  0.58299900  1
  Cu  Cu8  1  0.25000000  0.49983700  0.18884400  1
  Cu  Cu9  1  0.25000000  0.99983700  0.31115600  1
  Cu  Cu10  1  0.75000000  0.50016300  0.81115600  1
  Cu  Cu11  1  0.75000000  0.00016300  0.68884400  1
  C  C12  1  0.75000000  0.44009900  0.08278400  1
  C  C13  1  0.75000000  0.94009900  0.41721600  1
  C  C14  1  0.25000000  0.55990100  0.91721600  1
  C  C15  1  0.25000000  0.05990100  0.58278400  1
  C  C16  1  0.75000000  0.18599700  0.95249700  1
  C  C17  1  0.75000000  0.68599700  0.54750300  1
  C  C18  1  0.25000000  0.81400300  0.04750300  1
  C  C19  1  0.25000000  0.31400300  0.45249700  1
  C  C20  1  0.95109500  0.18601100  0.14800100  1
  C  C21  1  0.54890500  0.68601100  0.35199900  1
  C  C22  1  0.45109500  0.81398900  0.85199900  1
  C  C23  1  0.04890500  0.31398900  0.64800100  1
  C  C24  1  0.04890500  0.81398900  0.85199900  1
  C  C25  1  0.45109500  0.31398900  0.64800100  1
  C  C26  1  0.54890500  0.18601100  0.14800100  1
  C  C27  1  0.95109500  0.68601100  0.35199900  1
