# generated using pymatgen
data_CuNiC3
_symmetry_space_group_name_H-M   'P 1'
_cell_length_a   5.03794600
_cell_length_b   5.33040400
_cell_length_c   8.77720000
_cell_angle_alpha   90.00000000
_cell_angle_beta   90.00000000
_cell_angle_gamma   90.00000000
_symmetry_Int_Tables_number   1
_chemical_formula_structural   CuNiC3
_chemical_formula_sum   'Cu4 Ni4 C12'
_cell_volume   235.70545233
_cell_formula_units_Z   4
loop_
 _symmetry_equiv_pos_site_id
 _symmetry_equiv_pos_as_xyz
  1  'x, y, z'
loop_
 _atom_site_type_symbol
 _atom_site_label
 _atom_site_symmetry_multiplicity
 _atom_site_fract_x
 _atom_site_fract_y
 _atom_site_fract_z
 _atom_site_occupancy
  Ni  Ni0  1  0.04452800  0.42956500  0.25000000  1
  Ni  Ni1  1  0.45547200  0.92956500  0.25000000  1
  Ni  Ni2  1  0.54452800  0.07043500  0.75000000  1
  Ni  Ni3  1  0.95547200  0.57043500  0.75000000  1
  Cu  Cu4  1  0.00000000  0.00000000  0.50000000  1
  Cu  Cu5  1  0.00000000  0.00000000  0.00000000  1
  Cu  Cu6  1  0.50000000  0.50000000  0.50000000  1
  Cu  Cu7  1  0.50000000  0.50000000  0.00000000  1
  C  C8  1  0.17777600  0.90578000  0.75000000  1
  C  C9  1  0.19489600  0.70077500  0.10076900  1
  C  C10  1  0.19489600  0.70077500  0.39923100  1
  C  C11  1  0.30510400  0.20077500  0.10076900  1
  C  C12  1  0.30510400  0.20077500  0.39923100  1
  C  C13  1  0.32222400  0.40578000  0.75000000  1
  C  C14  1  0.67777600  0.59422000  0.25000000  1
  C  C15  1  0.69489600  0.79922500  0.60076900  1
  C  C16  1  0.69489600  0.79922500  0.89923100  1
  C  C17  1  0.80510400  0.29922500  0.60076900  1
  C  C18  1  0.80510400  0.29922500  0.89923100  1
  C  C19  1  0.82222400  0.09422000  0.25000000  1
