# generated using pymatgen
data_Cu(Ni2C9)3
_symmetry_space_group_name_H-M   'P 1'
_cell_length_a   4.91970100
_cell_length_b   8.00249343
_cell_length_c   11.42330261
_cell_angle_alpha   89.27073239
_cell_angle_beta   89.28493420
_cell_angle_gamma   87.13515349
_symmetry_Int_Tables_number   1
_chemical_formula_structural   Cu(Ni2C9)3
_chemical_formula_sum   'Cu1 Ni6 C27'
_cell_volume   449.10395224
_cell_formula_units_Z   1
loop_
 _symmetry_equiv_pos_site_id
 _symmetry_equiv_pos_as_xyz
  1  'x, y, z'
loop_
 _atom_site_type_symbol
 _atom_site_label
 _atom_site_symmetry_multiplicity
 _atom_site_fract_x
 _atom_site_fract_y
 _atom_site_fract_z
 _atom_site_occupancy
  C  C0  1  0.73252500  0.00477100  0.17539900  1
  C  C1  1  0.26747500  0.99522900  0.82460100  1
  C  C2  1  0.00000000  0.00000000  0.50000000  1
  C  C3  1  0.72464500  0.49354000  0.20508000  1
  C  C4  1  0.27535500  0.50646000  0.79492000  1
  Ni  Ni5  1  0.18447100  0.70408300  0.05124100  1
  Ni  Ni6  1  0.81552900  0.29591700  0.94875900  1
  Ni  Ni7  1  0.23714100  0.30083700  0.34344400  1
  Ni  Ni8  1  0.76285900  0.69916300  0.65655600  1
  Ni  Ni9  1  0.52545800  0.75715200  0.42450900  1
  Ni  Ni10  1  0.47454200  0.24284800  0.57549100  1
  Cu  Cu11  1  0.50000000  0.50000000  0.00000000  1
  C  C12  1  0.92135500  0.68113200  0.12363800  1
  C  C13  1  0.07864500  0.31886800  0.87636200  1
  C  C14  1  0.40851100  0.56514200  0.08702000  1
  C  C15  1  0.59148900  0.43485800  0.91298000  1
  C  C16  1  0.27142600  0.88443300  0.07042700  1
  C  C17  1  0.72857400  0.11556700  0.92957300  1
  C  C18  1  0.14102100  0.67884400  0.91788500  1
  C  C19  1  0.85897900  0.32115600  0.08211500  1
  C  C20  1  0.13153000  0.12204900  0.34881900  1
  C  C21  1  0.86847000  0.87795100  0.65118100  1
  C  C22  1  0.02077200  0.43438000  0.31010500  1
  C  C23  1  0.97922800  0.56562000  0.68989500  1
  C  C24  1  0.67325700  0.64675800  0.52686100  1
  C  C25  1  0.32674300  0.35324200  0.47313900  1
  C  C26  1  0.49156700  0.30046600  0.26349600  1
  C  C27  1  0.50843300  0.69953400  0.73650400  1
  C  C28  1  0.69129200  0.91510600  0.40720300  1
  C  C29  1  0.30870800  0.08489400  0.59279700  1
  C  C30  1  0.23104500  0.79672900  0.46033200  1
  C  C31  1  0.76895500  0.20327100  0.53966800  1
  C  C32  1  0.54434900  0.65552200  0.31266100  1
  C  C33  1  0.45565100  0.34447800  0.68733900  1
