# generated using pymatgen
data_CuNi5C4
_symmetry_space_group_name_H-M   'P 1'
_cell_length_a   6.97483600
_cell_length_b   12.12347000
_cell_length_c   21.24204000
_cell_angle_alpha   90.00000000
_cell_angle_beta   90.00000000
_cell_angle_gamma   90.00000000
_symmetry_Int_Tables_number   1
_chemical_formula_structural   CuNi5C4
_chemical_formula_sum   'Cu8 Ni40 C32'
_cell_volume   1796.21022742
_cell_formula_units_Z   8
loop_
 _symmetry_equiv_pos_site_id
 _symmetry_equiv_pos_as_xyz
  1  'x, y, z'
loop_
 _atom_site_type_symbol
 _atom_site_label
 _atom_site_symmetry_multiplicity
 _atom_site_fract_x
 _atom_site_fract_y
 _atom_site_fract_z
 _atom_site_occupancy
  Ni  Ni0  1  0.90036900  0.92881300  0.43562400  1
  Ni  Ni1  1  0.59963100  0.92881300  0.93562400  1
  Ni  Ni2  1  0.39231200  0.91476900  0.74923200  1
  Ni  Ni3  1  0.10768800  0.91476900  0.24923200  1
  Ni  Ni4  1  0.09500600  0.83382100  0.00258800  1
  Ni  Ni5  1  0.40499400  0.83382100  0.50258800  1
  Ni  Ni6  1  0.60801600  0.82456200  0.32616100  1
  Ni  Ni7  1  0.89198400  0.82456200  0.82616100  1
  Ni  Ni8  1  0.41595200  0.80418800  0.13755700  1
  Ni  Ni9  1  0.08404800  0.80418800  0.63755700  1
  Ni  Ni10  1  0.91595200  0.69581200  0.13755700  1
  Ni  Ni11  1  0.58404800  0.69581200  0.63755700  1
  Ni  Ni12  1  0.10801600  0.67543800  0.32616100  1
  Ni  Ni13  1  0.39198400  0.67543800  0.82616100  1
  Ni  Ni14  1  0.59500600  0.66617900  0.00258800  1
  Ni  Ni15  1  0.90499400  0.66617900  0.50258800  1
  Ni  Ni16  1  0.60768800  0.58523100  0.24923200  1
  Ni  Ni17  1  0.89231200  0.58523100  0.74923200  1
  Ni  Ni18  1  0.09963100  0.57118700  0.93562400  1
  Ni  Ni19  1  0.40036900  0.57118700  0.43562400  1
  Ni  Ni20  1  0.90036900  0.42881300  0.06437600  1
  Ni  Ni21  1  0.59963100  0.42881300  0.56437600  1
  Ni  Ni22  1  0.10768800  0.41476900  0.25076800  1
  Ni  Ni23  1  0.39231200  0.41476900  0.75076800  1
  Ni  Ni24  1  0.40499400  0.33382100  0.99741200  1
  Ni  Ni25  1  0.09500600  0.33382100  0.49741200  1
  Ni  Ni26  1  0.89198400  0.32456200  0.67383900  1
  Ni  Ni27  1  0.60801600  0.32456200  0.17383900  1
  Ni  Ni28  1  0.41595200  0.30418800  0.36244300  1
  Ni  Ni29  1  0.08404800  0.30418800  0.86244300  1
  Ni  Ni30  1  0.91595200  0.19581200  0.36244300  1
  Ni  Ni31  1  0.58404800  0.19581200  0.86244300  1
  Ni  Ni32  1  0.39198400  0.17543800  0.67383900  1
  Ni  Ni33  1  0.10801600  0.17543800  0.17383900  1
  Ni  Ni34  1  0.59500600  0.16617900  0.49741200  1
  Ni  Ni35  1  0.90499400  0.16617900  0.99741200  1
  Ni  Ni36  1  0.60768800  0.08523100  0.25076800  1
  Ni  Ni37  1  0.89231200  0.08523100  0.75076800  1
  Ni  Ni38  1  0.09963100  0.07118700  0.56437600  1
  Ni  Ni39  1  0.40036900  0.07118700  0.06437600  1
  Cu  Cu40  1  0.82313200  0.96259300  0.12283700  1
  Cu  Cu41  1  0.67686800  0.96259300  0.62283700  1
  Cu  Cu42  1  0.32313200  0.53740700  0.12283700  1
  Cu  Cu43  1  0.17686800  0.53740700  0.62283700  1
  Cu  Cu44  1  0.67686800  0.46259300  0.87716300  1
  Cu  Cu45  1  0.82313200  0.46259300  0.37716300  1
  Cu  Cu46  1  0.32313200  0.03740700  0.37716300  1
  Cu  Cu47  1  0.17686800  0.03740700  0.87716300  1
  C  C48  1  0.13170800  0.95292000  0.12001300  1
  C  C49  1  0.36829200  0.95292000  0.62001300  1
  C  C50  1  0.76556700  0.88095700  0.70918100  1
  C  C51  1  0.73443300  0.88095700  0.20918100  1
  C  C52  1  0.70141500  0.86601800  0.04703300  1
  C  C53  1  0.79858500  0.86601800  0.54703300  1
  C  C54  1  0.23835600  0.86500200  0.37561800  1
  C  C55  1  0.26164400  0.86500200  0.87561800  1
  C  C56  1  0.76164400  0.63499800  0.87561800  1
  C  C57  1  0.73835600  0.63499800  0.37561800  1
  C  C58  1  0.20141500  0.63398200  0.04703300  1
  C  C59  1  0.29858500  0.63398200  0.54703300  1
  C  C60  1  0.23443300  0.61904300  0.20918100  1
  C  C61  1  0.26556700  0.61904300  0.70918100  1
  C  C62  1  0.63170800  0.54708000  0.12001300  1
  C  C63  1  0.86829200  0.54708000  0.62001300  1
  C  C64  1  0.36829200  0.45292000  0.87998700  1
  C  C65  1  0.13170800  0.45292000  0.37998700  1
  C  C66  1  0.73443300  0.38095700  0.29081900  1
  C  C67  1  0.76556700  0.38095700  0.79081900  1
  C  C68  1  0.79858500  0.36601800  0.95296700  1
  C  C69  1  0.70141500  0.36601800  0.45296700  1
  C  C70  1  0.26164400  0.36500200  0.62438200  1
  C  C71  1  0.23835600  0.36500200  0.12438200  1
  C  C72  1  0.76164400  0.13499800  0.62438200  1
  C  C73  1  0.73835600  0.13499800  0.12438200  1
  C  C74  1  0.20141500  0.13398200  0.45296700  1
  C  C75  1  0.29858500  0.13398200  0.95296700  1
  C  C76  1  0.23443300  0.11904300  0.29081900  1
  C  C77  1  0.26556700  0.11904300  0.79081900  1
  C  C78  1  0.63170800  0.04708000  0.37998700  1
  C  C79  1  0.86829200  0.04708000  0.87998700  1
