# generated using pymatgen
data_Cu3Ni15C19
_symmetry_space_group_name_H-M   'P 1'
_cell_length_a   9.37195400
_cell_length_b   10.16570786
_cell_length_c   7.13976112
_cell_angle_alpha   97.62566830
_cell_angle_beta   100.06827272
_cell_angle_gamma   95.73271977
_symmetry_Int_Tables_number   1
_chemical_formula_structural   Cu3Ni15C19
_chemical_formula_sum   'Cu6 Ni30 C38'
_cell_volume   658.52347919
_cell_formula_units_Z   2
loop_
 _symmetry_equiv_pos_site_id
 _symmetry_equiv_pos_as_xyz
  1  'x, y, z'
loop_
 _atom_site_type_symbol
 _atom_site_label
 _atom_site_symmetry_multiplicity
 _atom_site_fract_x
 _atom_site_fract_y
 _atom_site_fract_z
 _atom_site_occupancy
  C  C0  1  0.15178500  0.38281300  0.31772800  1
  C  C1  1  0.84821500  0.61718700  0.68227200  1
  C  C2  1  0.29344500  0.82397500  0.55419500  1
  C  C3  1  0.70655500  0.17602500  0.44580500  1
  C  C4  1  0.37597600  0.29311200  0.77086300  1
  C  C5  1  0.62402400  0.70688800  0.22913700  1
  C  C6  1  0.12886700  0.47119000  0.66550000  1
  C  C7  1  0.87113300  0.52881000  0.33450000  1
  C  C8  1  0.39835500  0.19391200  0.42956200  1
  C  C9  1  0.60164500  0.80608800  0.57043800  1
  C  C10  1  0.93531200  0.13893800  0.25265700  1
  C  C11  1  0.06468800  0.86106200  0.74734300  1
  C  C12  1  0.04146200  0.00841100  0.18377400  1
  C  C13  1  0.95853800  0.99158900  0.81622600  1
  C  C14  1  0.09172200  0.34269300  0.04060000  1
  C  C15  1  0.90827800  0.65730700  0.95940000  1
  C  C16  1  0.24765800  0.34188900  0.06507100  1
  C  C17  1  0.75234200  0.65811100  0.93492900  1
  C  C18  1  0.03131400  0.80573100  0.48785700  1
  C  C19  1  0.96868600  0.19426900  0.51214300  1
  C  C20  1  0.10854500  0.96922300  0.41515500  1
  C  C21  1  0.89145500  0.03077700  0.58484500  1
  C  C22  1  0.52220100  0.61451300  0.91034200  1
  C  C23  1  0.47779900  0.38548700  0.08965800  1
  C  C24  1  0.45704300  0.63379200  0.75017700  1
  C  C25  1  0.54295700  0.36620800  0.24982300  1
  C  C26  1  0.59658900  0.19806700  0.89936400  1
  C  C27  1  0.40341100  0.80193300  0.10063600  1
  C  C28  1  0.59436600  0.16181000  0.72485300  1
  C  C29  1  0.40563400  0.83819000  0.27514700  1
  C  C30  1  0.05410300  0.69449300  0.16137800  1
  C  C31  1  0.94589700  0.30550700  0.83862200  1
  C  C32  1  0.14069600  0.79879100  0.05551300  1
  C  C33  1  0.85930400  0.20120900  0.94448700  1
  C  C34  1  0.28081300  0.79521200  0.87636200  1
  C  C35  1  0.71918700  0.20478800  0.12363800  1
  C  C36  1  0.31206500  0.00391900  0.97006300  1
  C  C37  1  0.68793500  0.99608100  0.02993700  1
  Ni  Ni38  1  0.10171900  0.35992500  0.50442900  1
  Ni  Ni39  1  0.89828100  0.64007500  0.49557100  1
  Ni  Ni40  1  0.00613700  0.51063700  0.27334400  1
  Ni  Ni41  1  0.99386300  0.48936300  0.72665600  1
  Ni  Ni42  1  0.29563900  0.25234700  0.32026800  1
  Ni  Ni43  1  0.70436100  0.74765300  0.67973200  1
  Ni  Ni44  1  0.03097200  0.12970700  0.25227500  1
  Ni  Ni45  1  0.96902800  0.87029300  0.74772500  1
  Ni  Ni46  1  0.17266700  0.39017700  0.11228000  1
  Ni  Ni47  1  0.82733300  0.60982300  0.88772000  1
  Ni  Ni48  1  0.20467100  0.67838100  0.67390300  1
  Ni  Ni49  1  0.79532900  0.32161900  0.32609700  1
  Ni  Ni50  1  0.36005300  0.97373200  0.42566800  1
  Ni  Ni51  1  0.63994700  0.02626800  0.57433200  1
  Ni  Ni52  1  0.46222500  0.77122400  0.62525800  1
  Ni  Ni53  1  0.53777500  0.22877600  0.37474200  1
  Ni  Ni54  1  0.11785100  0.89246900  0.49050200  1
  Ni  Ni55  1  0.88214900  0.10753100  0.50949800  1
  Ni  Ni56  1  0.20438300  0.35746600  0.76022500  1
  Ni  Ni57  1  0.79561700  0.64253400  0.23977500  1
  Ni  Ni58  1  0.40324800  0.30989800  0.58355400  1
  Ni  Ni59  1  0.59675200  0.69010200  0.41644600  1
  Ni  Ni60  1  0.44672000  0.56092800  0.83232900  1
  Ni  Ni61  1  0.55328000  0.43907200  0.16767100  1
  Ni  Ni62  1  0.55350200  0.22924800  0.80812300  1
  Ni  Ni63  1  0.44649800  0.77075200  0.19187700  1
  Ni  Ni64  1  0.05272400  0.78790200  0.09449800  1
  Ni  Ni65  1  0.94727600  0.21209800  0.90550200  1
  Ni  Ni66  1  0.28796200  0.86786400  0.97678300  1
  Ni  Ni67  1  0.71203800  0.13213600  0.02321700  1
  Cu  Cu68  1  0.25991100  0.61528200  0.39641700  1
  Cu  Cu69  1  0.74008900  0.38471800  0.60358300  1
  Cu  Cu70  1  0.30734600  0.03195300  0.70890300  1
  Cu  Cu71  1  0.69265400  0.96804700  0.29109700  1
  Cu  Cu72  1  0.36152400  0.26147100  0.96107100  1
  Cu  Cu73  1  0.63847600  0.73852900  0.03892900  1
