# generated using pymatgen
data_Cu3NiC20
_symmetry_space_group_name_H-M   'P 1'
_cell_length_a   5.88879800
_cell_length_b   4.87401100
_cell_length_c   9.95859938
_cell_angle_alpha   88.85301239
_cell_angle_beta   90.00000000
_cell_angle_gamma   90.00000000
_symmetry_Int_Tables_number   1
_chemical_formula_structural   Cu3NiC20
_chemical_formula_sum   'Cu3 Ni1 C20'
_cell_volume   285.77510742
_cell_formula_units_Z   1
loop_
 _symmetry_equiv_pos_site_id
 _symmetry_equiv_pos_as_xyz
  1  'x, y, z'
loop_
 _atom_site_type_symbol
 _atom_site_label
 _atom_site_symmetry_multiplicity
 _atom_site_fract_x
 _atom_site_fract_y
 _atom_site_fract_z
 _atom_site_occupancy
  Ni  Ni0  1  0.50000000  0.96832400  0.72780200  1
  Cu  Cu1  1  0.00000000  0.05114200  0.28082400  1
  Cu  Cu2  1  0.00000000  0.46222400  0.77021000  1
  Cu  Cu3  1  0.50000000  0.54960200  0.22323300  1
  C  C4  1  0.50000000  0.08894200  0.40169400  1
  C  C5  1  0.50000000  0.38942800  0.90572700  1
  C  C6  1  0.00000000  0.59717600  0.09884000  1
  C  C7  1  0.00000000  0.92567200  0.59475000  1
  C  C8  1  0.50000000  0.14490400  0.55628500  1
  C  C9  1  0.29391300  0.23842000  0.33459100  1
  C  C10  1  0.70608700  0.23842000  0.33459100  1
  C  C11  1  0.00000000  0.23374100  0.60781800  1
  C  C12  1  0.00000000  0.28242800  0.11791900  1
  C  C13  1  0.30014100  0.24282000  0.82856500  1
  C  C14  1  0.69985900  0.24282000  0.82856500  1
  C  C15  1  0.50000000  0.33469000  0.05369500  1
  C  C16  1  0.00000000  0.65114500  0.94743200  1
  C  C17  1  0.79472700  0.73852100  0.16845400  1
  C  C18  1  0.20527300  0.73852100  0.16845400  1
  C  C19  1  0.50000000  0.69942000  0.86921200  1
  C  C20  1  0.50000000  0.77954000  0.38556500  1
  C  C21  1  0.79324200  0.78645300  0.67338900  1
  C  C22  1  0.20675800  0.78645300  0.67338900  1
  C  C23  1  0.00000000  0.82919500  0.44899300  1
