# generated using pymatgen
data_CuNiC4
_symmetry_space_group_name_H-M   'P 1'
_cell_length_a   5.36528783
_cell_length_b   6.19182650
_cell_length_c   10.29146712
_cell_angle_alpha   72.50091061
_cell_angle_beta   79.56249556
_cell_angle_gamma   89.99396218
_symmetry_Int_Tables_number   1
_chemical_formula_structural   CuNiC4
_chemical_formula_sum   'Cu4 Ni4 C16'
_cell_volume   320.13530414
_cell_formula_units_Z   4
loop_
 _symmetry_equiv_pos_site_id
 _symmetry_equiv_pos_as_xyz
  1  'x, y, z'
loop_
 _atom_site_type_symbol
 _atom_site_label
 _atom_site_symmetry_multiplicity
 _atom_site_fract_x
 _atom_site_fract_y
 _atom_site_fract_z
 _atom_site_occupancy
  Ni  Ni0  1  0.25044600  0.87486400  0.74994900  1
  Ni  Ni1  1  0.74956100  0.62515400  0.25005200  1
  Ni  Ni2  1  0.24998900  0.37491700  0.74984600  1
  Ni  Ni3  1  0.74993300  0.12505100  0.25019700  1
  Cu  Cu4  1  0.24994700  0.37502600  0.24996100  1
  Cu  Cu5  1  0.24992100  0.87504400  0.24996900  1
  Cu  Cu6  1  0.75007800  0.12497800  0.75003100  1
  Cu  Cu7  1  0.75011100  0.62495800  0.75002300  1
  C  C8  1  0.40702700  0.57756200  0.84479200  1
  C  C9  1  0.40704100  0.07766100  0.84478900  1
  C  C10  1  0.90696100  0.32771300  0.34487800  1
  C  C11  1  0.90697500  0.82761300  0.34487700  1
  C  C12  1  0.09304600  0.17229100  0.65511800  1
  C  C13  1  0.09303000  0.67238500  0.65512400  1
  C  C14  1  0.59297900  0.92244000  0.15520400  1
  C  C15  1  0.59296400  0.42233700  0.15521200  1
  C  C16  1  0.35431300  0.06895900  0.36211900  1
  C  C17  1  0.35436000  0.56898200  0.36208600  1
  C  C18  1  0.85441900  0.81894900  0.86207700  1
  C  C19  1  0.85442700  0.31894600  0.86208100  1
  C  C20  1  0.14557900  0.68105600  0.13791800  1
  C  C21  1  0.14557000  0.18105300  0.13791300  1
  C  C22  1  0.64568300  0.43103900  0.63787600  1
  C  C23  1  0.64563800  0.93102400  0.63790800  1
