# generated using pymatgen
data_Cu(NiC6)2
_symmetry_space_group_name_H-M   'P 1'
_cell_length_a   6.77962100
_cell_length_b   6.47820400
_cell_length_c   8.75582562
_cell_angle_alpha   71.42753299
_cell_angle_beta   90.00000000
_cell_angle_gamma   90.00000000
_symmetry_Int_Tables_number   1
_chemical_formula_structural   Cu(NiC6)2
_chemical_formula_sum   'Cu2 Ni4 C24'
_cell_volume   364.52687057
_cell_formula_units_Z   2
loop_
 _symmetry_equiv_pos_site_id
 _symmetry_equiv_pos_as_xyz
  1  'x, y, z'
loop_
 _atom_site_type_symbol
 _atom_site_label
 _atom_site_symmetry_multiplicity
 _atom_site_fract_x
 _atom_site_fract_y
 _atom_site_fract_z
 _atom_site_occupancy
  C  C0  1  0.25000000  0.09799200  0.16823700  1
  C  C1  1  0.75000000  0.90200800  0.83176300  1
  C  C2  1  0.25000000  0.47748800  0.70765300  1
  C  C3  1  0.75000000  0.52251200  0.29234700  1
  C  C4  1  0.50000000  0.50000000  0.00000000  1
  C  C5  1  0.00000000  0.50000000  0.00000000  1
  Ni  Ni6  1  0.25000000  0.92143300  0.80148400  1
  Ni  Ni7  1  0.75000000  0.58485700  0.65866200  1
  Ni  Ni8  1  0.25000000  0.41514300  0.34133800  1
  Ni  Ni9  1  0.75000000  0.07856700  0.19851600  1
  Cu  Cu10  1  0.75000000  0.03937400  0.46340600  1
  Cu  Cu11  1  0.25000000  0.96062600  0.53659400  1
  C  C12  1  0.43928100  0.83125500  0.89550100  1
  C  C13  1  0.06071900  0.83125500  0.89550100  1
  C  C14  1  0.75000000  0.83323000  0.61814800  1
  C  C15  1  0.25000000  0.83471300  0.64553200  1
  C  C16  1  0.75000000  0.83359900  0.26270500  1
  C  C17  1  0.25000000  0.41136400  0.95555700  1
  C  C18  1  0.56045100  0.48862000  0.76390000  1
  C  C19  1  0.93954900  0.48862000  0.76390000  1
  C  C20  1  0.25000000  0.51715100  0.47739500  1
  C  C21  1  0.75000000  0.48284900  0.52260500  1
  C  C22  1  0.43954900  0.51138000  0.23610000  1
  C  C23  1  0.06045100  0.51138000  0.23610000  1
  C  C24  1  0.75000000  0.58863600  0.04444300  1
  C  C25  1  0.25000000  0.16640100  0.73729500  1
  C  C26  1  0.75000000  0.16528700  0.35446800  1
  C  C27  1  0.25000000  0.16677000  0.38185200  1
  C  C28  1  0.93928100  0.16874500  0.10449900  1
  C  C29  1  0.56071900  0.16874500  0.10449900  1
