# generated using pymatgen
data_Cu2NiC3
_symmetry_space_group_name_H-M   'P 1'
_cell_length_a   6.96624178
_cell_length_b   6.96624178
_cell_length_c   4.47095500
_cell_angle_alpha   90.00000000
_cell_angle_beta   90.00000000
_cell_angle_gamma   142.56406042
_symmetry_Int_Tables_number   1
_chemical_formula_structural   Cu2NiC3
_chemical_formula_sum   'Cu4 Ni2 C6'
_cell_volume   131.88972844
_cell_formula_units_Z   2
loop_
 _symmetry_equiv_pos_site_id
 _symmetry_equiv_pos_as_xyz
  1  'x, y, z'
loop_
 _atom_site_type_symbol
 _atom_site_label
 _atom_site_symmetry_multiplicity
 _atom_site_fract_x
 _atom_site_fract_y
 _atom_site_fract_z
 _atom_site_occupancy
  Ni  Ni0  1  0.66538200  0.33461800  0.00000000  1
  Ni  Ni1  1  0.33461800  0.66538200  0.00000000  1
  Cu  Cu2  1  0.16876500  0.83123500  0.50000000  1
  Cu  Cu3  1  0.83123500  0.16876500  0.50000000  1
  Cu  Cu4  1  0.00000000  0.00000000  0.00000000  1
  Cu  Cu5  1  0.50000000  0.50000000  0.50000000  1
  C  C6  1  0.66905400  0.33094600  0.50000000  1
  C  C7  1  0.16425500  0.83574500  0.00000000  1
  C  C8  1  0.33094600  0.66905400  0.50000000  1
  C  C9  1  0.83574500  0.16425500  0.00000000  1
  C  C10  1  0.50000000  0.50000000  0.00000000  1
  C  C11  1  0.00000000  0.00000000  0.50000000  1
