# generated using pymatgen
data_Cu3NiC10
_symmetry_space_group_name_H-M   'P 1'
_cell_length_a   8.59080000
_cell_length_b   8.59080000
_cell_length_c   8.59080000
_cell_angle_alpha   90.00000000
_cell_angle_beta   90.00000000
_cell_angle_gamma   90.00000000
_symmetry_Int_Tables_number   1
_chemical_formula_structural   Cu3NiC10
_chemical_formula_sum   'Cu12 Ni4 C40'
_cell_volume   634.01688693
_cell_formula_units_Z   4
loop_
 _symmetry_equiv_pos_site_id
 _symmetry_equiv_pos_as_xyz
  1  'x, y, z'
loop_
 _atom_site_type_symbol
 _atom_site_label
 _atom_site_symmetry_multiplicity
 _atom_site_fract_x
 _atom_site_fract_y
 _atom_site_fract_z
 _atom_site_occupancy
  C  C0  1  0.99988400  0.99988400  0.99988400  1
  C  C1  1  0.25011600  0.25011600  0.25011600  1
  C  C2  1  0.24988400  0.74988400  0.75011600  1
  C  C3  1  0.50011600  0.00011600  0.49988400  1
  C  C4  1  0.49988400  0.50011600  0.00011600  1
  C  C5  1  0.75011600  0.24988400  0.74988400  1
  C  C6  1  0.74988400  0.75011600  0.24988400  1
  C  C7  1  0.00011600  0.49988400  0.50011600  1
  Ni  Ni8  1  0.12500000  0.87500000  0.37500000  1
  Ni  Ni9  1  0.37500000  0.12500000  0.87500000  1
  Ni  Ni10  1  0.62500000  0.62500000  0.62500000  1
  Ni  Ni11  1  0.87500000  0.37500000  0.12500000  1
  Cu  Cu12  1  0.12023500  0.12976500  0.62500000  1
  Cu  Cu13  1  0.12500000  0.37976500  0.87023500  1
  Cu  Cu14  1  0.12976500  0.62500000  0.12023500  1
  Cu  Cu15  1  0.37023500  0.37500000  0.62023500  1
  Cu  Cu16  1  0.37500000  0.62023500  0.37023500  1
  Cu  Cu17  1  0.37976500  0.87023500  0.12500000  1
  Cu  Cu18  1  0.62023500  0.37023500  0.37500000  1
  Cu  Cu19  1  0.62500000  0.12023500  0.12976500  1
  Cu  Cu20  1  0.62976500  0.87500000  0.87976500  1
  Cu  Cu21  1  0.87023500  0.12500000  0.37976500  1
  Cu  Cu22  1  0.87500000  0.87976500  0.62976500  1
  Cu  Cu23  1  0.87976500  0.62976500  0.87500000  1
  C  C24  1  0.11041200  0.11067700  0.38093900  1
  C  C25  1  0.11906100  0.88958800  0.61067700  1
  C  C26  1  0.11382100  0.61382100  0.88617900  1
  C  C27  1  0.13932300  0.13958800  0.86906100  1
  C  C28  1  0.11067700  0.38093900  0.11041200  1
  C  C29  1  0.13617900  0.36382100  0.63617900  1
  C  C30  1  0.13093900  0.63932300  0.36041200  1
  C  C31  1  0.13958800  0.86906100  0.13932300  1
  C  C32  1  0.36041200  0.13093900  0.63932300  1
  C  C33  1  0.36906100  0.36067700  0.86041200  1
  C  C34  1  0.36382100  0.63617900  0.13617900  1
  C  C35  1  0.38932300  0.61906100  0.61041200  1
  C  C36  1  0.36067700  0.86041200  0.36906100  1
  C  C37  1  0.38617900  0.38617900  0.38617900  1
  C  C38  1  0.38093900  0.11041200  0.11067700  1
  C  C39  1  0.38958800  0.88932300  0.88093900  1
  C  C40  1  0.61041200  0.38932300  0.61906100  1
  C  C41  1  0.61906100  0.61041200  0.38932300  1
  C  C42  1  0.61382100  0.88617900  0.11382100  1
  C  C43  1  0.63932300  0.36041200  0.13093900  1
  C  C44  1  0.61067700  0.11906100  0.88958800  1
  C  C45  1  0.63617900  0.13617900  0.36382100  1
  C  C46  1  0.63093900  0.86067700  0.63958800  1
  C  C47  1  0.63958800  0.63093900  0.86067700  1
  C  C48  1  0.86041200  0.36906100  0.36067700  1
  C  C49  1  0.86906100  0.13932300  0.13958800  1
  C  C50  1  0.86382100  0.86382100  0.86382100  1
  C  C51  1  0.88932300  0.88093900  0.38958800  1
  C  C52  1  0.86067700  0.63958800  0.63093900  1
  C  C53  1  0.88617900  0.11382100  0.61382100  1
  C  C54  1  0.88093900  0.38958800  0.88932300  1
  C  C55  1  0.88958800  0.61067700  0.11906100  1
