# generated using pymatgen
data_Cu2(NiC4)3
_symmetry_space_group_name_H-M   'P 1'
_cell_length_a   11.75990600
_cell_length_b   11.75990600
_cell_length_c   7.16450200
_cell_angle_alpha   90.00000000
_cell_angle_beta   90.00000000
_cell_angle_gamma   90.00000000
_symmetry_Int_Tables_number   1
_chemical_formula_structural   Cu2(NiC4)3
_chemical_formula_sum   'Cu4 Ni6 C24'
_cell_volume   990.81759200
_cell_formula_units_Z   2
loop_
 _symmetry_equiv_pos_site_id
 _symmetry_equiv_pos_as_xyz
  1  'x, y, z'
loop_
 _atom_site_type_symbol
 _atom_site_label
 _atom_site_symmetry_multiplicity
 _atom_site_fract_x
 _atom_site_fract_y
 _atom_site_fract_z
 _atom_site_occupancy
  Ni  Ni0  1  0.00000000  0.00000000  0.00000000  1
  Ni  Ni1  1  0.68244000  0.18244000  0.50000000  1
  Ni  Ni2  1  0.18244000  0.31756000  0.50000000  1
  Ni  Ni3  1  0.50000000  0.50000000  0.00000000  1
  Ni  Ni4  1  0.81756000  0.68244000  0.50000000  1
  Ni  Ni5  1  0.31756000  0.81756000  0.50000000  1
  Cu  Cu6  1  0.36403000  0.13597000  0.00000000  1
  Cu  Cu7  1  0.86403000  0.36403000  0.00000000  1
  Cu  Cu8  1  0.13597000  0.63597000  0.00000000  1
  Cu  Cu9  1  0.63597000  0.86403000  0.00000000  1
  C  C10  1  0.50000000  0.00000000  0.25626800  1
  C  C11  1  0.50000000  0.00000000  0.74373200  1
  C  C12  1  0.20789900  0.06163800  0.27041000  1
  C  C13  1  0.20789900  0.06163800  0.72959000  1
  C  C14  1  0.68890500  0.18890500  0.00000000  1
  C  C15  1  0.93836200  0.20789900  0.27041000  1
  C  C16  1  0.93836200  0.20789900  0.72959000  1
  C  C17  1  0.43836200  0.29210100  0.27041000  1
  C  C18  1  0.43836200  0.29210100  0.72959000  1
  C  C19  1  0.18890500  0.31109500  0.00000000  1
  C  C20  1  0.70789900  0.43836200  0.27041000  1
  C  C21  1  0.70789900  0.43836200  0.72959000  1
  C  C22  1  0.00000000  0.50000000  0.74373200  1
  C  C23  1  0.00000000  0.50000000  0.25626800  1
  C  C24  1  0.29210100  0.56163800  0.27041000  1
  C  C25  1  0.29210100  0.56163800  0.72959000  1
  C  C26  1  0.81109500  0.68890500  0.00000000  1
  C  C27  1  0.56163800  0.70789900  0.27041000  1
  C  C28  1  0.56163800  0.70789900  0.72959000  1
  C  C29  1  0.06163800  0.79210100  0.27041000  1
  C  C30  1  0.06163800  0.79210100  0.72959000  1
  C  C31  1  0.31109500  0.81109500  0.00000000  1
  C  C32  1  0.79210100  0.93836200  0.27041000  1
  C  C33  1  0.79210100  0.93836200  0.72959000  1
