# generated using pymatgen
data_Cu2Ni2C7
_symmetry_space_group_name_H-M   'P 1'
_cell_length_a   10.25415928
_cell_length_b   10.25415928
_cell_length_c   13.04641305
_cell_angle_alpha   77.31415889
_cell_angle_beta   77.31415889
_cell_angle_gamma   101.01069331
_symmetry_Int_Tables_number   1
_chemical_formula_structural   Cu2Ni2C7
_chemical_formula_sum   'Cu16 Ni16 C56'
_cell_volume   1263.73173258
_cell_formula_units_Z   8
loop_
 _symmetry_equiv_pos_site_id
 _symmetry_equiv_pos_as_xyz
  1  'x, y, z'
loop_
 _atom_site_type_symbol
 _atom_site_label
 _atom_site_symmetry_multiplicity
 _atom_site_fract_x
 _atom_site_fract_y
 _atom_site_fract_z
 _atom_site_occupancy
  Ni  Ni0  1  0.19129800  0.03181700  0.39336500  1
  Ni  Ni1  1  0.96818300  0.80870200  0.10663500  1
  Ni  Ni2  1  0.80870200  0.96818300  0.60663500  1
  Ni  Ni3  1  0.03181700  0.19129800  0.89336500  1
  Ni  Ni4  1  0.03754400  0.37664700  0.10230500  1
  Ni  Ni5  1  0.62335300  0.96245600  0.39769500  1
  Ni  Ni6  1  0.96245600  0.62335300  0.89769500  1
  Ni  Ni7  1  0.37664700  0.03754400  0.60230500  1
  Ni  Ni8  1  0.16565700  0.54766300  0.40754600  1
  Ni  Ni9  1  0.45233700  0.83434300  0.09245400  1
  Ni  Ni10  1  0.83434300  0.45233700  0.59245400  1
  Ni  Ni11  1  0.54766300  0.16565700  0.90754600  1
  Ni  Ni12  1  0.42774800  0.54754700  0.93987600  1
  Ni  Ni13  1  0.45245300  0.57225200  0.56012400  1
  Ni  Ni14  1  0.57225200  0.45245300  0.06012400  1
  Ni  Ni15  1  0.54754700  0.42774800  0.43987600  1
  Cu  Cu16  1  0.18860700  0.35927400  0.36105200  1
  Cu  Cu17  1  0.64072600  0.81139300  0.13894800  1
  Cu  Cu18  1  0.81139300  0.64072600  0.63894800  1
  Cu  Cu19  1  0.35927400  0.18860700  0.86105200  1
  Cu  Cu20  1  0.36088800  0.36086900  0.15317800  1
  Cu  Cu21  1  0.63913100  0.63911200  0.34682200  1
  Cu  Cu22  1  0.63911200  0.63913100  0.84682200  1
  Cu  Cu23  1  0.36086900  0.36088800  0.65317800  1
  Cu  Cu24  1  0.83436700  0.18520400  0.85652300  1
  Cu  Cu25  1  0.81479600  0.16563300  0.64347700  1
  Cu  Cu26  1  0.16563300  0.81479600  0.14347700  1
  Cu  Cu27  1  0.18520400  0.83436700  0.35652300  1
  Cu  Cu28  1  0.81390100  0.34708300  0.13292200  1
  Cu  Cu29  1  0.65291700  0.18609900  0.36707800  1
  Cu  Cu30  1  0.18609900  0.65291700  0.86707800  1
  Cu  Cu31  1  0.34708300  0.81390100  0.63292200  1
  C  C32  1  0.32931000  0.43296000  0.25257500  1
  C  C33  1  0.56704000  0.67069000  0.24742500  1
  C  C34  1  0.67069000  0.56704000  0.74742500  1
  C  C35  1  0.43296000  0.32931000  0.75257500  1
  C  C36  1  0.87610500  0.12389500  0.75000000  1
  C  C37  1  0.12389500  0.87610500  0.25000000  1
  C  C38  1  0.78172000  0.21828000  0.25000000  1
  C  C39  1  0.21828000  0.78172000  0.75000000  1
  C  C40  1  0.06900300  0.35782000  0.32185100  1
  C  C41  1  0.64218000  0.93099700  0.17814900  1
  C  C42  1  0.93099700  0.64218000  0.67814900  1
  C  C43  1  0.35782000  0.06900300  0.82185100  1
  C  C44  1  0.21503900  0.23823600  0.42194400  1
  C  C45  1  0.76176400  0.78496100  0.07805600  1
  C  C46  1  0.78496100  0.76176400  0.57805600  1
  C  C47  1  0.23823600  0.21503900  0.92194400  1
  C  C48  1  0.21613700  0.47349500  0.42083000  1
  C  C49  1  0.52650500  0.78386300  0.07917000  1
  C  C50  1  0.78386300  0.52650500  0.57917000  1
  C  C51  1  0.47349500  0.21613700  0.92083000  1
  C  C52  1  0.33080000  0.44729600  0.06177600  1
  C  C53  1  0.55270400  0.66920000  0.43822400  1
  C  C54  1  0.66920000  0.55270400  0.93822400  1
  C  C55  1  0.44729600  0.33080000  0.56177600  1
  C  C56  1  0.51946500  0.38427400  0.13292200  1
  C  C57  1  0.61572600  0.48053500  0.36707800  1
  C  C58  1  0.48053500  0.61572600  0.86707800  1
  C  C59  1  0.38427400  0.51946500  0.63292200  1
  C  C60  1  0.29443100  0.21735200  0.19215600  1
  C  C61  1  0.78264800  0.70556900  0.30784400  1
  C  C62  1  0.70556900  0.78264800  0.80784400  1
  C  C63  1  0.21735200  0.29443100  0.69215600  1
  C  C64  1  0.69851700  0.10396000  0.92023100  1
  C  C65  1  0.89604000  0.30148300  0.57976900  1
  C  C66  1  0.30148300  0.89604000  0.07976900  1
  C  C67  1  0.10396000  0.69851700  0.42023100  1
  C  C68  1  0.86273500  0.33199800  0.81942700  1
  C  C69  1  0.66800200  0.13726500  0.68057300  1
  C  C70  1  0.13726500  0.66800200  0.18057300  1
  C  C71  1  0.33199800  0.86273500  0.31942700  1
  C  C72  1  0.93614300  0.13169400  0.91735800  1
  C  C73  1  0.86830600  0.06385700  0.58264200  1
  C  C74  1  0.06385700  0.86830600  0.08264200  1
  C  C75  1  0.13169400  0.93614300  0.41735800  1
  C  C76  1  0.95707800  0.05271000  0.20142800  1
  C  C77  1  0.94729000  0.04292200  0.29857200  1
  C  C78  1  0.04292200  0.94729000  0.79857200  1
  C  C79  1  0.05271000  0.95707800  0.70142800  1
  C  C80  1  0.96390000  0.32637100  0.07762700  1
  C  C81  1  0.67362900  0.03610000  0.42237300  1
  C  C82  1  0.03610000  0.67362900  0.92237300  1
  C  C83  1  0.32637100  0.96390000  0.57762700  1
  C  C84  1  0.83405300  0.47734400  0.16152100  1
  C  C85  1  0.52265600  0.16594700  0.33847900  1
  C  C86  1  0.16594700  0.52265600  0.83847900  1
  C  C87  1  0.47734400  0.83405300  0.66152100  1
