# generated using pymatgen
data_Cu16Ni4C9
_symmetry_space_group_name_H-M   'P 1'
_cell_length_a   9.88670479
_cell_length_b   9.88670479
_cell_length_c   9.88670479
_cell_angle_alpha   60.00000000
_cell_angle_beta   60.00000000
_cell_angle_gamma   60.00000000
_symmetry_Int_Tables_number   1
_chemical_formula_structural   Cu16Ni4C9
_chemical_formula_sum   'Cu32 Ni8 C18'
_cell_volume   683.34449787
_cell_formula_units_Z   2
loop_
 _symmetry_equiv_pos_site_id
 _symmetry_equiv_pos_as_xyz
  1  'x, y, z'
loop_
 _atom_site_type_symbol
 _atom_site_label
 _atom_site_symmetry_multiplicity
 _atom_site_fract_x
 _atom_site_fract_y
 _atom_site_fract_z
 _atom_site_occupancy
  C  C0  1  0.28436300  0.71563700  0.28436300  1
  C  C1  1  0.71563700  0.28436300  0.28436300  1
  C  C2  1  0.71563700  0.71563700  0.28436300  1
  C  C3  1  0.53436300  0.96563700  0.53436300  1
  C  C4  1  0.28436300  0.28436300  0.71563700  1
  C  C5  1  0.28436300  0.71563700  0.71563700  1
  C  C6  1  0.96563700  0.96563700  0.53436300  1
  C  C7  1  0.96563700  0.53436300  0.53436300  1
  C  C8  1  0.71563700  0.28436300  0.71563700  1
  C  C9  1  0.53436300  0.96563700  0.96563700  1
  C  C10  1  0.53436300  0.53436300  0.96563700  1
  C  C11  1  0.96563700  0.53436300  0.96563700  1
  C  C12  1  0.12500000  0.62500000  0.12500000  1
  C  C13  1  0.12500000  0.12500000  0.12500000  1
  C  C14  1  0.62500000  0.12500000  0.12500000  1
  C  C15  1  0.12500000  0.12500000  0.62500000  1
  Ni  Ni16  1  0.90577800  0.90577800  0.28266500  1
  Ni  Ni17  1  0.34422200  0.96733500  0.34422200  1
  Ni  Ni18  1  0.34422200  0.34422200  0.34422200  1
  Ni  Ni19  1  0.96733500  0.34422200  0.34422200  1
  Ni  Ni20  1  0.28266500  0.90577800  0.90577800  1
  Ni  Ni21  1  0.90577800  0.28266500  0.90577800  1
  Ni  Ni22  1  0.90577800  0.90577800  0.90577800  1
  Ni  Ni23  1  0.34422200  0.34422200  0.96733500  1
  C  C24  1  0.75000000  0.75000000  0.75000000  1
  C  C25  1  0.50000000  0.50000000  0.50000000  1
  Cu  Cu26  1  0.02486900  0.92653300  0.28454800  1
  Cu  Cu27  1  0.92653300  0.76405000  0.28454800  1
  Cu  Cu28  1  0.76405000  0.02486900  0.28454800  1
  Cu  Cu29  1  0.48595000  0.32346700  0.22513100  1
  Cu  Cu30  1  0.93553500  0.68815500  0.68815500  1
  Cu  Cu31  1  0.48595000  0.96545200  0.32346700  1
  Cu  Cu32  1  0.32346700  0.96545200  0.22513100  1
  Cu  Cu33  1  0.68815500  0.93553500  0.68815500  1
  Cu  Cu34  1  0.68815500  0.68815500  0.68815500  1
  Cu  Cu35  1  0.22513100  0.48595000  0.32346700  1
  Cu  Cu36  1  0.32346700  0.22513100  0.48595000  1
  Cu  Cu37  1  0.68815500  0.68815500  0.93553500  1
  Cu  Cu38  1  0.96545200  0.48595000  0.22513100  1
  Cu  Cu39  1  0.22513100  0.96545200  0.48595000  1
  Cu  Cu40  1  0.96545200  0.22513100  0.32346700  1
  Cu  Cu41  1  0.28454800  0.92653300  0.76405000  1
  Cu  Cu42  1  0.96545200  0.32346700  0.48595000  1
  Cu  Cu43  1  0.28454800  0.02486900  0.92653300  1
  Cu  Cu44  1  0.02486900  0.28454800  0.76405000  1
  Cu  Cu45  1  0.28454800  0.76405000  0.02486900  1
  Cu  Cu46  1  0.56184500  0.56184500  0.31446500  1
  Cu  Cu47  1  0.92653300  0.02486900  0.76405000  1
  Cu  Cu48  1  0.02486900  0.76405000  0.92653300  1
  Cu  Cu49  1  0.56184500  0.56184500  0.56184500  1
  Cu  Cu50  1  0.56184500  0.31446500  0.56184500  1
  Cu  Cu51  1  0.92653300  0.28454800  0.02486900  1
  Cu  Cu52  1  0.76405000  0.28454800  0.92653300  1
  Cu  Cu53  1  0.31446500  0.56184500  0.56184500  1
  Cu  Cu54  1  0.76405000  0.92653300  0.02486900  1
  Cu  Cu55  1  0.48595000  0.22513100  0.96545200  1
  Cu  Cu56  1  0.32346700  0.48595000  0.96545200  1
  Cu  Cu57  1  0.22513100  0.32346700  0.96545200  1
