# generated using pymatgen
data_Cu2Ni4C5
_symmetry_space_group_name_H-M   'P 1'
_cell_length_a   5.15235595
_cell_length_b   5.15235595
_cell_length_c   14.85375339
_cell_angle_alpha   89.65246570
_cell_angle_beta   89.65246570
_cell_angle_gamma   120.25174728
_symmetry_Int_Tables_number   1
_chemical_formula_structural   Cu2Ni4C5
_chemical_formula_sum   'Cu6 Ni12 C15'
_cell_volume   340.59561253
_cell_formula_units_Z   3
loop_
 _symmetry_equiv_pos_site_id
 _symmetry_equiv_pos_as_xyz
  1  'x, y, z'
loop_
 _atom_site_type_symbol
 _atom_site_label
 _atom_site_symmetry_multiplicity
 _atom_site_fract_x
 _atom_site_fract_y
 _atom_site_fract_z
 _atom_site_occupancy
  C  C0  1  0.65698900  0.34301100  0.50000000  1
  C  C1  1  0.66662300  0.33337700  0.00000000  1
  C  C2  1  0.00000000  0.00000000  0.50000000  1
  C  C3  1  0.33756200  0.00314400  0.35933700  1
  C  C4  1  0.66243800  0.99685600  0.64066300  1
  C  C5  1  0.33337700  0.66662300  0.00000000  1
  C  C6  1  0.34301100  0.65698900  0.50000000  1
  C  C7  1  0.99685600  0.66243800  0.64066300  1
  C  C8  1  0.00314400  0.33756200  0.35933700  1
  C  C9  1  0.66696400  0.66696400  0.83121800  1
  C  C10  1  0.33303600  0.33303600  0.16878200  1
  C  C11  1  0.32986500  0.00303900  0.83269600  1
  C  C12  1  0.67013500  0.99696100  0.16730400  1
  C  C13  1  0.99696100  0.67013500  0.16730400  1
  C  C14  1  0.00303900  0.32986500  0.83269600  1
  Ni  Ni15  1  0.64561700  0.64561700  0.09347900  1
  Ni  Ni16  1  0.67476100  0.33947200  0.76498700  1
  Ni  Ni17  1  0.66052800  0.32523900  0.23501300  1
  Ni  Ni18  1  0.35438300  0.35438300  0.90652100  1
  Ni  Ni19  1  0.97962100  0.97962100  0.76349900  1
  Ni  Ni20  1  0.02037900  0.02037900  0.23650100  1
  Ni  Ni21  1  0.34674100  0.00572100  0.09440300  1
  Ni  Ni22  1  0.65325900  0.99427900  0.90559700  1
  Ni  Ni23  1  0.32523900  0.66052800  0.23501300  1
  Ni  Ni24  1  0.33947200  0.67476100  0.76498700  1
  Ni  Ni25  1  0.99427900  0.65325900  0.90559700  1
  Ni  Ni26  1  0.00572100  0.34674100  0.09440300  1
  Cu  Cu27  1  0.68709000  0.68709000  0.57653600  1
  Cu  Cu28  1  0.31291000  0.31291000  0.42346400  1
  Cu  Cu29  1  0.33133700  0.97474300  0.57962400  1
  Cu  Cu30  1  0.66866300  0.02525700  0.42037600  1
  Cu  Cu31  1  0.02525700  0.66866300  0.42037600  1
  Cu  Cu32  1  0.97474300  0.33133700  0.57962400  1
