# generated using pymatgen
data_Cu6Ni7C32
_symmetry_space_group_name_H-M   'P 1'
_cell_length_a   5.20402624
_cell_length_b   5.20402624
_cell_length_c   24.02098800
_cell_angle_alpha   90.00000000
_cell_angle_beta   90.00000000
_cell_angle_gamma   120.00000311
_symmetry_Int_Tables_number   1
_chemical_formula_structural   Cu6Ni7C32
_chemical_formula_sum   'Cu6 Ni7 C32'
_cell_volume   563.37872230
_cell_formula_units_Z   1
loop_
 _symmetry_equiv_pos_site_id
 _symmetry_equiv_pos_as_xyz
  1  'x, y, z'
loop_
 _atom_site_type_symbol
 _atom_site_label
 _atom_site_symmetry_multiplicity
 _atom_site_fract_x
 _atom_site_fract_y
 _atom_site_fract_z
 _atom_site_occupancy
  C  C0  1  0.33333300  0.66666700  0.20771300  1
  C  C1  1  0.33333300  0.66666700  0.47486000  1
  Ni  Ni2  1  0.00000000  0.00000000  0.28601800  1
  Ni  Ni3  1  0.00000000  0.00000000  0.88446000  1
  Ni  Ni4  1  0.00000000  0.00000000  0.00553800  1
  Ni  Ni5  1  0.00000000  0.00000000  0.69695700  1
  Ni  Ni6  1  0.33333300  0.66666700  0.97829500  1
  Ni  Ni7  1  0.33333300  0.66666700  0.71843500  1
  Ni  Ni8  1  0.33333300  0.66666700  0.31456700  1
  Cu  Cu9  1  0.00000000  0.00000000  0.41298200  1
  Cu  Cu10  1  0.66666700  0.33333300  0.19784300  1
  Cu  Cu11  1  0.66666700  0.33333300  0.50536900  1
  Cu  Cu12  1  0.66666700  0.33333300  0.80400500  1
  Cu  Cu13  1  0.33333300  0.66666700  0.09942500  1
  Cu  Cu14  1  0.33333300  0.66666700  0.59786500  1
  C  C15  1  0.59153200  0.99569100  0.15347900  1
  C  C16  1  0.68743600  0.93173900  0.34687900  1
  C  C17  1  0.67038500  0.00370100  0.74652700  1
  C  C18  1  0.96759900  0.30391900  0.45086600  1
  C  C19  1  0.65080300  0.72796000  0.04592800  1
  C  C20  1  0.07715700  0.34919700  0.04592800  1
  C  C21  1  0.69608100  0.66368000  0.45086600  1
  C  C22  1  0.99629900  0.66668400  0.74652700  1
  C  C23  1  0.24430400  0.31256400  0.34687900  1
  C  C24  1  0.00430900  0.59584200  0.15347900  1
  C  C25  1  0.33331600  0.32961500  0.74652700  1
  C  C26  1  0.06826100  0.75569600  0.34687900  1
  C  C27  1  0.00707300  0.61137800  0.54807000  1
  C  C28  1  0.40415800  0.40846800  0.15347900  1
  C  C29  1  0.06101500  0.75179400  0.94783200  1
  C  C30  1  0.27204000  0.92284300  0.04592800  1
  C  C31  1  0.94457700  0.27705300  0.84555200  1
  C  C32  1  0.33632000  0.03240100  0.45086600  1
  C  C33  1  0.25436300  0.90822800  0.65505100  1
  C  C34  1  0.00631000  0.33933200  0.25298300  1
  C  C35  1  0.33247600  0.05542300  0.84555200  1
  C  C36  1  0.09177200  0.34613400  0.65505100  1
  C  C37  1  0.33302200  0.99369000  0.25298300  1
  C  C38  1  0.60430400  0.99292700  0.54807000  1
  C  C39  1  0.24820600  0.30922200  0.94783200  1
  C  C40  1  0.69077800  0.93898500  0.94783200  1
  C  C41  1  0.38862200  0.39569600  0.54807000  1
  C  C42  1  0.66066800  0.66697800  0.25298300  1
  C  C43  1  0.65386600  0.74563700  0.65505100  1
  C  C44  1  0.72294700  0.66752400  0.84555200  1
