# generated using pymatgen
data_Cu4Ni5C12
_symmetry_space_group_name_H-M   'P 1'
_cell_length_a   6.11131700
_cell_length_b   6.12663705
_cell_length_c   13.68167976
_cell_angle_alpha   102.42020284
_cell_angle_beta   102.60088839
_cell_angle_gamma   90.32414840
_symmetry_Int_Tables_number   1
_chemical_formula_structural   Cu4Ni5C12
_chemical_formula_sum   'Cu8 Ni10 C24'
_cell_volume   487.48463480
_cell_formula_units_Z   2
loop_
 _symmetry_equiv_pos_site_id
 _symmetry_equiv_pos_as_xyz
  1  'x, y, z'
loop_
 _atom_site_type_symbol
 _atom_site_label
 _atom_site_symmetry_multiplicity
 _atom_site_fract_x
 _atom_site_fract_y
 _atom_site_fract_z
 _atom_site_occupancy
  Ni  Ni0  1  0.00033800  0.49895000  0.99861000  1
  Ni  Ni1  1  0.79400300  0.04090800  0.08500600  1
  Ni  Ni2  1  0.16694100  0.16931300  0.33394700  1
  Ni  Ni3  1  0.33556500  0.83164200  0.16758200  1
  Ni  Ni4  1  0.44817200  0.70952600  0.41524200  1
  Ni  Ni5  1  0.53682800  0.29119300  0.58403700  1
  Ni  Ni6  1  0.88590700  0.62730600  0.25035000  1
  Ni  Ni7  1  0.12614500  0.37814500  0.75048800  1
  Ni  Ni8  1  0.33069100  0.83182100  0.66586300  1
  Ni  Ni9  1  0.20699400  0.95435000  0.91475300  1
  Cu  Cu10  1  0.50353600  0.49551300  0.99957300  1
  Cu  Cu11  1  0.33567400  0.33376200  0.16792900  1
  Cu  Cu12  1  0.99764200  0.50068200  0.49907600  1
  Cu  Cu13  1  0.66657800  0.16732500  0.33365100  1
  Cu  Cu14  1  0.99906200  0.00236700  0.49977200  1
  Cu  Cu15  1  0.66553600  0.16621100  0.83290400  1
  Cu  Cu16  1  0.83013000  0.83673500  0.66828200  1
  Cu  Cu17  1  0.66788500  0.66222100  0.83247500  1
  C  C18  1  0.10541200  0.10309900  0.18390800  1
  C  C19  1  0.24482200  0.28165900  0.00904800  1
  C  C20  1  0.54676800  0.07609000  0.16752400  1
  C  C21  1  0.25427500  0.72547600  0.00929000  1
  C  C22  1  0.12562600  0.59122500  0.16523700  1
  C  C23  1  0.08706400  0.04874500  0.65807000  1
  C  C24  1  0.56324600  0.56487000  0.15850200  1
  C  C25  1  0.39795800  0.38821100  0.32567200  1
  C  C26  1  0.22083700  0.24537600  0.48671900  1
  C  C27  1  0.08415600  0.60978300  0.65610000  1
  C  C28  1  0.23067100  0.75845500  0.51425400  1
  C  C29  1  0.57208700  0.04345100  0.66521300  1
  C  C30  1  0.78350500  0.25045000  0.50094300  1
  C  C31  1  0.94018000  0.40023800  0.34381400  1
  C  C32  1  0.39476100  0.94118200  0.32672300  1
  C  C33  1  0.78074200  0.75352900  0.50603300  1
  C  C34  1  0.57382200  0.61629700  0.67214700  1
  C  C35  1  0.44062600  0.43854000  0.84726600  1
  C  C36  1  0.94060500  0.94683100  0.34426700  1
  C  C37  1  0.88817400  0.42352700  0.83340200  1
  C  C38  1  0.75471600  0.28174400  0.99908900  1
  C  C39  1  0.42583800  0.90147100  0.81632900  1
  C  C40  1  0.75701200  0.71710500  0.99163300  1
  C  C41  1  0.88946600  0.89467600  0.81928000  1
