# generated using pymatgen
data_CuNi19C10
_symmetry_space_group_name_H-M   'P 1'
_cell_length_a   4.61243500
_cell_length_b   7.52357397
_cell_length_c   9.68626779
_cell_angle_alpha   70.06008156
_cell_angle_beta   89.29635091
_cell_angle_gamma   89.47571880
_symmetry_Int_Tables_number   1
_chemical_formula_structural   CuNi19C10
_chemical_formula_sum   'Cu1 Ni19 C10'
_cell_volume   315.95368494
_cell_formula_units_Z   1
loop_
 _symmetry_equiv_pos_site_id
 _symmetry_equiv_pos_as_xyz
  1  'x, y, z'
loop_
 _atom_site_type_symbol
 _atom_site_label
 _atom_site_symmetry_multiplicity
 _atom_site_fract_x
 _atom_site_fract_y
 _atom_site_fract_z
 _atom_site_occupancy
  C  C0  1  0.49967600  0.69953600  0.90158900  1
  C  C1  1  0.50469400  0.90151000  0.30173300  1
  C  C2  1  0.50080200  0.09907500  0.70081800  1
  C  C3  1  0.47991700  0.29644100  0.09312600  1
  C  C4  1  0.50088800  0.50095400  0.49761600  1
  C  C5  1  0.99296200  0.40064500  0.79615800  1
  C  C6  1  0.00183500  0.79855300  0.60197900  1
  C  C7  1  0.01528900  0.19636000  0.40911200  1
  C  C8  1  0.01114800  0.60935400  0.20063400  1
  C  C9  1  0.99500200  0.99870900  0.99833600  1
  Ni  Ni10  1  0.17878300  0.23638100  0.97141700  1
  Ni  Ni11  1  0.19804400  0.03047500  0.58393800  1
  Ni  Ni12  1  0.19156700  0.44068700  0.37479300  1
  Ni  Ni13  1  0.18632000  0.63640300  0.77596500  1
  Ni  Ni14  1  0.19673300  0.84729500  0.17442700  1
  Ni  Ni15  1  0.31020800  0.93710200  0.87859900  1
  Ni  Ni16  1  0.30787600  0.33831200  0.67482300  1
  Ni  Ni17  1  0.30653800  0.53659100  0.07693000  1
  Ni  Ni18  1  0.30900900  0.14192200  0.27691100  1
  Ni  Ni19  1  0.31129900  0.73802000  0.47609800  1
  Ni  Ni20  1  0.69363800  0.86020200  0.72653100  1
  Ni  Ni21  1  0.69231800  0.26108100  0.52152900  1
  Ni  Ni22  1  0.69456600  0.66147500  0.32268500  1
  Ni  Ni23  1  0.69079600  0.06332500  0.12356600  1
  Ni  Ni24  1  0.68595900  0.46117900  0.92336800  1
  Ni  Ni25  1  0.80869700  0.56302100  0.62244900  1
  Ni  Ni26  1  0.81499200  0.95944800  0.42844400  1
  Ni  Ni27  1  0.80438000  0.16114100  0.82197200  1
  Ni  Ni28  1  0.81186900  0.76305200  0.02371100  1
  Cu  Cu29  1  0.80419000  0.36174800  0.22074200  1
