# generated using pymatgen
data_Cu7NiC4
_symmetry_space_group_name_H-M   'P 1'
_cell_length_a   4.78544200
_cell_length_b   5.79010300
_cell_length_c   10.88396602
_cell_angle_alpha   82.15544839
_cell_angle_beta   90.00000000
_cell_angle_gamma   90.00000000
_symmetry_Int_Tables_number   1
_chemical_formula_structural   Cu7NiC4
_chemical_formula_sum   'Cu14 Ni2 C8'
_cell_volume   298.75299357
_cell_formula_units_Z   2
loop_
 _symmetry_equiv_pos_site_id
 _symmetry_equiv_pos_as_xyz
  1  'x, y, z'
loop_
 _atom_site_type_symbol
 _atom_site_label
 _atom_site_symmetry_multiplicity
 _atom_site_fract_x
 _atom_site_fract_y
 _atom_site_fract_z
 _atom_site_occupancy
  C  C0  1  0.75862800  0.00954100  0.49652900  1
  C  C1  1  0.75502400  0.48514300  0.99879200  1
  C  C2  1  0.76872500  0.24626100  0.76486200  1
  C  C3  1  0.75149400  0.75300600  0.24623300  1
  C  C4  1  0.23127500  0.24626100  0.26486200  1
  C  C5  1  0.24497600  0.48514300  0.49879200  1
  C  C6  1  0.24850600  0.75300600  0.74623300  1
  C  C7  1  0.24137200  0.00954100  0.99652900  1
  Ni  Ni8  1  0.05847800  0.22142800  0.41725200  1
  Ni  Ni9  1  0.94152200  0.22142800  0.91725200  1
  Cu  Cu10  1  0.03560000  0.47746400  0.67416600  1
  Cu  Cu11  1  0.05174700  0.72076700  0.92203700  1
  Cu  Cu12  1  0.05755600  0.98630000  0.18278600  1
  Cu  Cu13  1  0.96440000  0.47746400  0.17416600  1
  Cu  Cu14  1  0.94825300  0.72076700  0.42203700  1
  Cu  Cu15  1  0.94244400  0.98630000  0.68278600  1
  Cu  Cu16  1  0.55055900  0.77775100  0.07080400  1
  Cu  Cu17  1  0.55698000  0.27764700  0.59109400  1
  Cu  Cu18  1  0.54647000  0.51812500  0.81584000  1
  Cu  Cu19  1  0.54349500  0.02656700  0.31960400  1
  Cu  Cu20  1  0.45650500  0.02656700  0.81960400  1
  Cu  Cu21  1  0.44302000  0.27764700  0.09109400  1
  Cu  Cu22  1  0.45353000  0.51812500  0.31584000  1
  Cu  Cu23  1  0.44944100  0.77775100  0.57080400  1
