# generated using pymatgen
data_Cu3NiC10
_symmetry_space_group_name_H-M   'P 1'
_cell_length_a   5.90243418
_cell_length_b   5.90243418
_cell_length_c   9.43517400
_cell_angle_alpha   90.00000000
_cell_angle_beta   90.00000000
_cell_angle_gamma   120.00000206
_symmetry_Int_Tables_number   1
_chemical_formula_structural   Cu3NiC10
_chemical_formula_sum   'Cu6 Ni2 C20'
_cell_volume   284.67074800
_cell_formula_units_Z   2
loop_
 _symmetry_equiv_pos_site_id
 _symmetry_equiv_pos_as_xyz
  1  'x, y, z'
loop_
 _atom_site_type_symbol
 _atom_site_label
 _atom_site_symmetry_multiplicity
 _atom_site_fract_x
 _atom_site_fract_y
 _atom_site_fract_z
 _atom_site_occupancy
  C  C0  1  0.33333300  0.66666700  0.89085300  1
  C  C1  1  0.00000000  0.00000000  0.99472500  1
  C  C2  1  0.00000000  0.00000000  0.49472500  1
  C  C3  1  0.66666700  0.33333300  0.39085300  1
  Ni  Ni4  1  0.33333300  0.66666700  0.49780100  1
  Ni  Ni5  1  0.66666700  0.33333300  0.99780100  1
  Cu  Cu6  1  0.17187400  0.82812600  0.21687400  1
  Cu  Cu7  1  0.17187400  0.34374900  0.21687400  1
  Cu  Cu8  1  0.65625100  0.82812600  0.21687400  1
  Cu  Cu9  1  0.34374900  0.17187400  0.71687400  1
  Cu  Cu10  1  0.82812600  0.65625100  0.71687400  1
  Cu  Cu11  1  0.82812600  0.17187400  0.71687400  1
  C  C12  1  0.16747700  0.83252300  0.59618900  1
  C  C13  1  0.04019800  0.52009900  0.34207300  1
  C  C14  1  0.33333300  0.66666700  0.10413600  1
  C  C15  1  0.00000000  0.00000000  0.30146500  1
  C  C16  1  0.00000000  0.00000000  0.80146500  1
  C  C17  1  0.16747700  0.33495300  0.59618900  1
  C  C18  1  0.47990100  0.95980200  0.34207300  1
  C  C19  1  0.47990100  0.52009900  0.34207300  1
  C  C20  1  0.33495300  0.16747700  0.09618900  1
  C  C21  1  0.66504700  0.83252300  0.59618900  1
  C  C22  1  0.52009900  0.47990100  0.84207300  1
  C  C23  1  0.52009900  0.04019800  0.84207300  1
  C  C24  1  0.66666700  0.33333300  0.60413600  1
  C  C25  1  0.83252300  0.66504700  0.09618900  1
  C  C26  1  0.95980200  0.47990100  0.84207300  1
  C  C27  1  0.83252300  0.16747700  0.09618900  1
