# generated using pymatgen
data_Cu(NiC2)2
_symmetry_space_group_name_H-M   'P 1'
_cell_length_a   5.43423144
_cell_length_b   5.78646990
_cell_length_c   10.01399356
_cell_angle_alpha   105.03581897
_cell_angle_beta   92.49890437
_cell_angle_gamma   64.54799523
_symmetry_Int_Tables_number   1
_chemical_formula_structural   Cu(NiC2)2
_chemical_formula_sum   'Cu4 Ni8 C16'
_cell_volume   273.76101181
_cell_formula_units_Z   4
loop_
 _symmetry_equiv_pos_site_id
 _symmetry_equiv_pos_as_xyz
  1  'x, y, z'
loop_
 _atom_site_type_symbol
 _atom_site_label
 _atom_site_symmetry_multiplicity
 _atom_site_fract_x
 _atom_site_fract_y
 _atom_site_fract_z
 _atom_site_occupancy
  C  C0  1  0.05660700  0.26701500  0.23502800  1
  C  C1  1  0.48596300  0.37402000  0.74916000  1
  C  C2  1  0.53096800  0.34711200  0.39012300  1
  C  C3  1  0.96790900  0.66157600  0.11549200  1
  C  C4  1  0.05679200  0.65030700  0.44297300  1
  C  C5  1  0.52763400  0.66553300  0.95754600  1
  C  C6  1  0.96180800  0.01759700  0.66079100  1
  C  C7  1  0.47184100  0.30284200  0.05939700  1
  C  C8  1  0.95771000  0.33487000  0.52971300  1
  C  C9  1  0.98732000  0.38392500  0.88910900  1
  C  C10  1  0.49454000  0.64402500  0.61788800  1
  C  C11  1  0.47293800  0.70312800  0.27252100  1
  C  C12  1  0.00503000  0.64825800  0.74669900  1
  C  C13  1  0.52446300  0.97054100  0.83062600  1
  C  C14  1  0.50561100  0.00456200  0.50614900  1
  C  C15  1  0.00105900  0.99937100  0.96260600  1
  Ni  Ni16  1  0.25056700  0.23830200  0.40213600  1
  Ni  Ni17  1  0.29205900  0.76304000  0.80215900  1
  Ni  Ni18  1  0.15802300  0.23776900  0.03613400  1
  Ni  Ni19  1  0.67071700  0.25166700  0.56541900  1
  Ni  Ni20  1  0.69482000  0.26139100  0.89351300  1
  Ni  Ni21  1  0.34202900  0.75974800  0.46123800  1
  Ni  Ni22  1  0.82645200  0.76480900  0.93987900  1
  Ni  Ni23  1  0.77849500  0.76842100  0.60975900  1
  Cu  Cu24  1  0.83078400  0.70036700  0.29106200  1
  Cu  Cu25  1  0.28385500  0.72602100  0.10911600  1
  Cu  Cu26  1  0.68827400  0.28503100  0.21172000  1
  Cu  Cu27  1  0.17573200  0.26874600  0.71204400  1
