# generated using pymatgen
data_CuNi5C23
_symmetry_space_group_name_H-M   'P 1'
_cell_length_a   7.26478700
_cell_length_b   7.26845500
_cell_length_c   33.62024204
_cell_angle_alpha   81.52906155
_cell_angle_beta   90.00000000
_cell_angle_gamma   90.00000000
_symmetry_Int_Tables_number   1
_chemical_formula_structural   CuNi5C23
_chemical_formula_sum   'Cu4 Ni20 C92'
_cell_volume   1755.90877466
_cell_formula_units_Z   4
loop_
 _symmetry_equiv_pos_site_id
 _symmetry_equiv_pos_as_xyz
  1  'x, y, z'
loop_
 _atom_site_type_symbol
 _atom_site_label
 _atom_site_symmetry_multiplicity
 _atom_site_fract_x
 _atom_site_fract_y
 _atom_site_fract_z
 _atom_site_occupancy
  C  C0  1  0.84808200  0.16851200  0.24582400  1
  C  C1  1  0.65191800  0.16851200  0.74582400  1
  C  C2  1  0.15191800  0.83148800  0.75417600  1
  C  C3  1  0.34808200  0.83148800  0.25417600  1
  C  C4  1  0.59817100  0.66405900  0.44390000  1
  C  C5  1  0.90182900  0.66405900  0.94390000  1
  C  C6  1  0.40182900  0.33594100  0.55610000  1
  C  C7  1  0.09817100  0.33594100  0.05610000  1
  C  C8  1  0.15853200  0.32091800  0.44559300  1
  C  C9  1  0.34146800  0.32091800  0.94559300  1
  C  C10  1  0.84146800  0.67908200  0.55440700  1
  C  C11  1  0.65853200  0.67908200  0.05440700  1
  C  C12  1  0.11437100  0.99058800  0.35485000  1
  C  C13  1  0.38562900  0.99058800  0.85485000  1
  C  C14  1  0.88562900  0.00941200  0.64515000  1
  C  C15  1  0.61437100  0.00941200  0.14515000  1
  C  C16  1  0.77453700  0.45796500  0.34358800  1
  C  C17  1  0.72546300  0.45796500  0.84358800  1
  C  C18  1  0.22546300  0.54203500  0.65641200  1
  C  C19  1  0.27453700  0.54203500  0.15641200  1
  Ni  Ni20  1  0.65705400  0.20299500  0.45796100  1
  Ni  Ni21  1  0.84294600  0.20299500  0.95796100  1
  Ni  Ni22  1  0.34294600  0.79700500  0.54203900  1
  Ni  Ni23  1  0.15705400  0.79700500  0.04203900  1
  Ni  Ni24  1  0.90423600  0.18807400  0.53930900  1
  Ni  Ni25  1  0.59576400  0.18807400  0.03930900  1
  Ni  Ni26  1  0.09576400  0.81192600  0.46069100  1
  Ni  Ni27  1  0.40423600  0.81192600  0.96069100  1
  Ni  Ni28  1  0.33962100  0.30717600  0.26642600  1
  Ni  Ni29  1  0.16037900  0.30717600  0.76642600  1
  Ni  Ni30  1  0.66037900  0.69282400  0.73357400  1
  Ni  Ni31  1  0.83962100  0.69282400  0.23357400  1
  Ni  Ni32  1  0.29521400  0.49406900  0.34814000  1
  Ni  Ni33  1  0.20478600  0.49406900  0.84814000  1
  Ni  Ni34  1  0.70478600  0.50593100  0.65186000  1
  Ni  Ni35  1  0.79521400  0.50593100  0.15186000  1
  Ni  Ni36  1  0.67234000  0.91360400  0.34299400  1
  Ni  Ni37  1  0.82766000  0.91360400  0.84299400  1
  Ni  Ni38  1  0.32766000  0.08639600  0.65700600  1
  Ni  Ni39  1  0.17234000  0.08639600  0.15700600  1
  Cu  Cu40  1  0.50675500  0.01536500  0.39481600  1
  Cu  Cu41  1  0.99324500  0.01536500  0.89481600  1
  Cu  Cu42  1  0.49324500  0.98463500  0.60518400  1
  Cu  Cu43  1  0.00675500  0.98463500  0.10518400  1
  C  C44  1  0.56720600  0.02238400  0.43779900  1
  C  C45  1  0.93279400  0.02238400  0.93779900  1
  C  C46  1  0.43279400  0.97761600  0.56220100  1
  C  C47  1  0.06720600  0.97761600  0.06220100  1
  C  C48  1  0.79821500  0.35805200  0.42918600  1
  C  C49  1  0.70178500  0.35805200  0.92918600  1
  C  C50  1  0.20178500  0.64194800  0.57081400  1
  C  C51  1  0.29821500  0.64194800  0.07081400  1
  C  C52  1  0.48920300  0.32871000  0.47765800  1
  C  C53  1  0.01079700  0.32871000  0.97765800  1
  C  C54  1  0.51079700  0.67129000  0.52234200  1
  C  C55  1  0.98920300  0.67129000  0.02234200  1
  C  C56  1  0.79519900  0.08896500  0.49870400  1
  C  C57  1  0.70480100  0.08896500  0.99870400  1
  C  C58  1  0.20480100  0.91103500  0.50129600  1
  C  C59  1  0.29519900  0.91103500  0.00129600  1
  C  C60  1  0.09732600  0.29854800  0.52002300  1
  C  C61  1  0.40267400  0.29854800  0.02002300  1
  C  C62  1  0.90267400  0.70145200  0.47997700  1
  C  C63  1  0.59732600  0.70145200  0.97997700  1
  C  C64  1  0.93186500  0.98997900  0.57240100  1
  C  C65  1  0.56813500  0.98997900  0.07240100  1
  C  C66  1  0.06813500  0.01002100  0.42759900  1
  C  C67  1  0.43186500  0.01002100  0.92759900  1
  C  C68  1  0.75931900  0.33606400  0.55845500  1
  C  C69  1  0.74068100  0.33606400  0.05845500  1
  C  C70  1  0.24068100  0.66393600  0.44154500  1
  C  C71  1  0.25931900  0.66393600  0.94154500  1
  C  C72  1  0.12001900  0.34670700  0.36643000  1
  C  C73  1  0.37998100  0.34670700  0.86643000  1
  C  C74  1  0.87998100  0.65329300  0.63357000  1
  C  C75  1  0.62001900  0.65329300  0.13357000  1
  C  C76  1  0.46288800  0.49249500  0.38352300  1
  C  C77  1  0.03711200  0.49249500  0.88352300  1
  C  C78  1  0.53711200  0.50750500  0.61647700  1
  C  C79  1  0.96288800  0.50750500  0.11647700  1
  C  C80  1  0.20411000  0.69857400  0.32579900  1
  C  C81  1  0.29589000  0.69857400  0.82579900  1
  C  C82  1  0.79589000  0.30142600  0.67420100  1
  C  C83  1  0.70411000  0.30142600  0.17420100  1
  C  C84  1  0.43003400  0.39364400  0.31134100  1
  C  C85  1  0.06996600  0.39364400  0.81134100  1
  C  C86  1  0.56996600  0.60635600  0.68865900  1
  C  C87  1  0.93003400  0.60635600  0.18865900  1
  C  C88  1  0.30477400  0.50534200  0.23368300  1
  C  C89  1  0.19522600  0.50534200  0.73368300  1
  C  C90  1  0.69522600  0.49465800  0.76631700  1
  C  C91  1  0.80477400  0.49465800  0.26631700  1
  C  C92  1  0.50066400  0.15959600  0.25323100  1
  C  C93  1  0.99933600  0.15959600  0.75323100  1
  C  C94  1  0.49933600  0.84040400  0.74676900  1
  C  C95  1  0.00066400  0.84040400  0.24676900  1
  C  C96  1  0.15479600  0.17528500  0.28438300  1
  C  C97  1  0.34520400  0.17528500  0.78438300  1
  C  C98  1  0.84520400  0.82471500  0.71561700  1
  C  C99  1  0.65479600  0.82471500  0.21561700  1
  C  C100  1  0.79718600  0.11216800  0.32738100  1
  C  C101  1  0.70281400  0.11216800  0.82738100  1
  C  C102  1  0.20281400  0.88783200  0.67261900  1
  C  C103  1  0.29718600  0.88783200  0.17261900  1
  C  C104  1  0.61454900  0.79004300  0.30616800  1
  C  C105  1  0.88545100  0.79004300  0.80616800  1
  C  C106  1  0.38545100  0.20995700  0.69383200  1
  C  C107  1  0.11454900  0.20995700  0.19383200  1
  C  C108  1  0.80489600  0.77297000  0.37735000  1
  C  C109  1  0.69510400  0.77297000  0.87735000  1
  C  C110  1  0.19510400  0.22703000  0.62265000  1
  C  C111  1  0.30489600  0.22703000  0.12265000  1
  C  C112  1  0.46720600  0.97183800  0.36804900  1
  C  C113  1  0.03279400  0.97183800  0.86804900  1
  C  C114  1  0.53279400  0.02816200  0.63195100  1
  C  C115  1  0.96720600  0.02816200  0.13195100  1
