# generated using pymatgen
data_Cu14Ni2C9
_symmetry_space_group_name_H-M   'P 1'
_cell_length_a   6.59432200
_cell_length_b   9.01531300
_cell_length_c   10.50311941
_cell_angle_alpha   89.52206592
_cell_angle_beta   90.00000000
_cell_angle_gamma   90.00000000
_symmetry_Int_Tables_number   1
_chemical_formula_structural   Cu14Ni2C9
_chemical_formula_sum   'Cu28 Ni4 C18'
_cell_volume   624.38743192
_cell_formula_units_Z   2
loop_
 _symmetry_equiv_pos_site_id
 _symmetry_equiv_pos_as_xyz
  1  'x, y, z'
loop_
 _atom_site_type_symbol
 _atom_site_label
 _atom_site_symmetry_multiplicity
 _atom_site_fract_x
 _atom_site_fract_y
 _atom_site_fract_z
 _atom_site_occupancy
  C  C0  1  0.99859400  0.91312400  0.61602900  1
  C  C1  1  0.00140600  0.91312400  0.11602900  1
  C  C2  1  0.76972700  0.73306200  0.87395100  1
  C  C3  1  0.23027300  0.73306200  0.37395100  1
  C  C4  1  0.24657700  0.26161100  0.62488300  1
  C  C5  1  0.75305900  0.26133000  0.62753100  1
  C  C6  1  0.24694100  0.26133000  0.12753100  1
  C  C7  1  0.75342300  0.26161100  0.12488300  1
  C  C8  1  0.49094600  0.07340400  0.87883100  1
  C  C9  1  0.50905400  0.07340400  0.37883100  1
  C  C10  1  0.50322700  0.65410900  0.60694500  1
  C  C11  1  0.49677300  0.65410900  0.10694500  1
  C  C12  1  0.00203700  0.35221500  0.88844100  1
  C  C13  1  0.99796300  0.35221500  0.38844100  1
  C  C14  1  0.00036400  0.58224800  0.64971000  1
  C  C15  1  0.99963600  0.58224800  0.14971000  1
  C  C16  1  0.50135200  0.42111700  0.85655600  1
  C  C17  1  0.49864800  0.42111700  0.35655600  1
  Ni  Ni18  1  0.49838700  0.93638500  0.63415900  1
  Ni  Ni19  1  0.50161300  0.93638500  0.13415900  1
  Ni  Ni20  1  0.99540600  0.06187300  0.86354000  1
  Ni  Ni21  1  0.00459400  0.06187300  0.36354000  1
  Cu  Cu22  1  0.98221300  0.92207100  0.85249900  1
  Cu  Cu23  1  0.01778700  0.92207100  0.35249900  1
  Cu  Cu24  1  0.48419900  0.87293500  0.52320400  1
  Cu  Cu25  1  0.51580100  0.87293500  0.02320400  1
  Cu  Cu26  1  0.51160300  0.84876300  0.73251600  1
  Cu  Cu27  1  0.48839700  0.84876300  0.23251600  1
  Cu  Cu28  1  0.80797000  0.67835300  0.61679500  1
  Cu  Cu29  1  0.18869500  0.67699300  0.60716000  1
  Cu  Cu30  1  0.81130500  0.67699300  0.10716000  1
  Cu  Cu31  1  0.19203000  0.67835300  0.11679500  1
  Cu  Cu32  1  0.50825500  0.56582000  0.93455700  1
  Cu  Cu33  1  0.49174500  0.56582000  0.43455700  1
  Cu  Cu34  1  0.99980600  0.55453600  0.79443600  1
  Cu  Cu35  1  0.00019400  0.55453600  0.29443600  1
  Cu  Cu36  1  0.49966700  0.46413900  0.71092500  1
  Cu  Cu37  1  0.50033300  0.46413900  0.21092500  1
  Cu  Cu38  1  0.99812600  0.43370000  0.57744300  1
  Cu  Cu39  1  0.00187400  0.43370000  0.07744300  1
  Cu  Cu40  1  0.31540000  0.32275600  0.88789200  1
  Cu  Cu41  1  0.68684000  0.31945300  0.88366300  1
  Cu  Cu42  1  0.31316000  0.31945300  0.38366300  1
  Cu  Cu43  1  0.68460000  0.32275600  0.38789200  1
  Cu  Cu44  1  0.00321600  0.14923000  0.76262700  1
  Cu  Cu45  1  0.99678400  0.14923000  0.26262700  1
  Cu  Cu46  1  0.00228100  0.12522300  0.97591400  1
  Cu  Cu47  1  0.99771900  0.12522300  0.47591400  1
  Cu  Cu48  1  0.49947300  0.07903000  0.64458400  1
  Cu  Cu49  1  0.50052700  0.07903000  0.14458400  1
