# generated using pymatgen
data_Cu2Ni2C13
_symmetry_space_group_name_H-M   'P 1'
_cell_length_a   6.11110700
_cell_length_b   7.29078600
_cell_length_c   15.37497700
_cell_angle_alpha   90.00000000
_cell_angle_beta   90.00000000
_cell_angle_gamma   90.00000000
_symmetry_Int_Tables_number   1
_chemical_formula_structural   Cu2Ni2C13
_chemical_formula_sum   'Cu8 Ni8 C52'
_cell_volume   685.02861565
_cell_formula_units_Z   4
loop_
 _symmetry_equiv_pos_site_id
 _symmetry_equiv_pos_as_xyz
  1  'x, y, z'
loop_
 _atom_site_type_symbol
 _atom_site_label
 _atom_site_symmetry_multiplicity
 _atom_site_fract_x
 _atom_site_fract_y
 _atom_site_fract_z
 _atom_site_occupancy
  C  C0  1  0.25000000  0.16663800  0.51487700  1
  C  C1  1  0.25000000  0.66663800  0.98512300  1
  C  C2  1  0.75000000  0.83336200  0.48512300  1
  C  C3  1  0.75000000  0.33336200  0.01487700  1
  C  C4  1  0.25000000  0.38021900  0.55390500  1
  C  C5  1  0.25000000  0.88021900  0.94609500  1
  C  C6  1  0.75000000  0.61978100  0.44609500  1
  C  C7  1  0.75000000  0.11978100  0.05390500  1
  C  C8  1  0.38738200  0.33334400  0.46190500  1
  C  C9  1  0.11261800  0.83334400  0.03809500  1
  C  C10  1  0.88738200  0.66665600  0.53809500  1
  C  C11  1  0.61261800  0.16665600  0.96190500  1
  C  C12  1  0.61261800  0.66665600  0.53809500  1
  C  C13  1  0.88738200  0.16665600  0.96190500  1
  C  C14  1  0.11261800  0.33334400  0.46190500  1
  C  C15  1  0.38738200  0.83334400  0.03809500  1
  C  C16  1  0.25000000  0.37932800  0.87150100  1
  C  C17  1  0.25000000  0.87932800  0.62849900  1
  C  C18  1  0.75000000  0.62067200  0.12849900  1
  C  C19  1  0.75000000  0.12067200  0.37150100  1
  C  C20  1  0.25000000  0.16335000  0.83262000  1
  C  C21  1  0.25000000  0.66335000  0.66738000  1
  C  C22  1  0.75000000  0.83665000  0.16738000  1
  C  C23  1  0.75000000  0.33665000  0.33262000  1
  C  C24  1  0.38715400  0.33002700  0.78016600  1
  C  C25  1  0.11284600  0.83002700  0.71983400  1
  C  C26  1  0.88715400  0.66997300  0.21983400  1
  C  C27  1  0.61284600  0.16997300  0.28016600  1
  C  C28  1  0.61284600  0.66997300  0.21983400  1
  C  C29  1  0.88715400  0.16997300  0.28016600  1
  C  C30  1  0.11284600  0.33002700  0.78016600  1
  C  C31  1  0.38715400  0.83002700  0.71983400  1
  Ni  Ni32  1  0.75000000  0.16623100  0.59229600  1
  Ni  Ni33  1  0.75000000  0.66623100  0.90770400  1
  Ni  Ni34  1  0.25000000  0.83376900  0.40770400  1
  Ni  Ni35  1  0.25000000  0.33376900  0.09229600  1
  Ni  Ni36  1  0.75000000  0.39618800  0.69076800  1
  Ni  Ni37  1  0.75000000  0.89618800  0.80923200  1
  Ni  Ni38  1  0.25000000  0.60381200  0.30923200  1
  Ni  Ni39  1  0.25000000  0.10381200  0.19076800  1
  Cu  Cu40  1  0.25000000  0.30345000  0.49802900  1
  Cu  Cu41  1  0.25000000  0.80345000  0.00197100  1
  Cu  Cu42  1  0.75000000  0.69655000  0.50197100  1
  Cu  Cu43  1  0.75000000  0.19655000  0.99802900  1
  Cu  Cu44  1  0.25000000  0.29957900  0.81617400  1
  Cu  Cu45  1  0.25000000  0.79957900  0.68382600  1
  Cu  Cu46  1  0.75000000  0.70042100  0.18382600  1
  Cu  Cu47  1  0.75000000  0.20042100  0.31617400  1
  C  C48  1  0.54435900  0.49513800  0.66187400  1
  C  C49  1  0.95564100  0.99513800  0.83812600  1
  C  C50  1  0.04435900  0.50486200  0.33812600  1
  C  C51  1  0.45564100  0.00486200  0.16187400  1
  C  C52  1  0.45564100  0.50486200  0.33812600  1
  C  C53  1  0.04435900  0.00486200  0.16187400  1
  C  C54  1  0.95564100  0.49513800  0.66187400  1
  C  C55  1  0.54435900  0.99513800  0.83812600  1
  C  C56  1  0.54795800  0.05877100  0.60748300  1
  C  C57  1  0.95204200  0.55877100  0.89251700  1
  C  C58  1  0.04795800  0.94122900  0.39251700  1
  C  C59  1  0.45204200  0.44122900  0.10748300  1
  C  C60  1  0.45204200  0.94122900  0.39251700  1
  C  C61  1  0.04795800  0.44122900  0.10748300  1
  C  C62  1  0.95204200  0.05877100  0.60748300  1
  C  C63  1  0.54795800  0.55877100  0.89251700  1
  C  C64  1  0.75000000  0.26291800  0.50675600  1
  C  C65  1  0.75000000  0.76291800  0.99324400  1
  C  C66  1  0.25000000  0.73708200  0.49324400  1
  C  C67  1  0.25000000  0.23708200  0.00675600  1
