# generated using pymatgen
data_Cu11NiC6
_symmetry_space_group_name_H-M   'P 1'
_cell_length_a   3.29600576
_cell_length_b   10.17695887
_cell_length_c   6.63451627
_cell_angle_alpha   108.05264513
_cell_angle_beta   84.48175428
_cell_angle_gamma   87.58905307
_symmetry_Int_Tables_number   1
_chemical_formula_structural   Cu11NiC6
_chemical_formula_sum   'Cu11 Ni1 C6'
_cell_volume   209.99960640
_cell_formula_units_Z   1
loop_
 _symmetry_equiv_pos_site_id
 _symmetry_equiv_pos_as_xyz
  1  'x, y, z'
loop_
 _atom_site_type_symbol
 _atom_site_label
 _atom_site_symmetry_multiplicity
 _atom_site_fract_x
 _atom_site_fract_y
 _atom_site_fract_z
 _atom_site_occupancy
  C  C0  1  0.50192700  0.66351100  0.83158300  1
  C  C1  1  0.49549400  0.01128300  0.50571800  1
  C  C2  1  0.50121100  0.33377100  0.16667700  1
  C  C3  1  0.99892100  0.67032900  0.33513400  1
  C  C4  1  0.98421600  0.31251600  0.65670200  1
  C  C5  1  0.99928400  0.99965500  0.00004900  1
  Ni  Ni6  1  0.47495400  0.20008100  0.59919600  1
  Cu  Cu7  1  0.96170700  0.66705200  0.62733700  1
  Cu  Cu8  1  0.95697000  0.33165900  0.96184400  1
  Cu  Cu9  1  0.94947400  0.00097400  0.29534200  1
  Cu  Cu10  1  0.46644600  0.86376100  0.93182600  1
  Cu  Cu11  1  0.54298800  0.46589900  0.73359400  1
  Cu  Cu12  1  0.53622400  0.81020600  0.40575100  1
  Cu  Cu13  1  0.46136600  0.53291000  0.26594600  1
  Cu  Cu14  1  0.53492900  0.13461800  0.06745400  1
  Cu  Cu15  1  0.03982400  0.66734500  0.03974400  1
  Cu  Cu16  1  0.04757600  0.00166600  0.70620700  1
  Cu  Cu17  1  0.04649100  0.33276500  0.36989700  1
