# generated using pymatgen
data_Cu(NiC)3
_symmetry_space_group_name_H-M   'P 1'
_cell_length_a   3.13881100
_cell_length_b   9.44119300
_cell_length_c   9.50429500
_cell_angle_alpha   90.00000000
_cell_angle_beta   90.00000000
_cell_angle_gamma   90.00000000
_symmetry_Int_Tables_number   1
_chemical_formula_structural   Cu(NiC)3
_chemical_formula_sum   'Cu4 Ni12 C12'
_cell_volume   281.65142274
_cell_formula_units_Z   4
loop_
 _symmetry_equiv_pos_site_id
 _symmetry_equiv_pos_as_xyz
  1  'x, y, z'
loop_
 _atom_site_type_symbol
 _atom_site_label
 _atom_site_symmetry_multiplicity
 _atom_site_fract_x
 _atom_site_fract_y
 _atom_site_fract_z
 _atom_site_occupancy
  C  C0  1  0.25000000  0.60052300  0.81914700  1
  C  C1  1  0.75000000  0.89947700  0.31914700  1
  C  C2  1  0.25000000  0.10052300  0.68085300  1
  C  C3  1  0.75000000  0.39947700  0.18085300  1
  C  C4  1  0.75000000  0.36437700  0.56961500  1
  C  C5  1  0.25000000  0.63562300  0.43038500  1
  C  C6  1  0.75000000  0.86437700  0.93038500  1
  C  C7  1  0.25000000  0.13562300  0.06961500  1
  C  C8  1  0.75000000  0.82661900  0.63066600  1
  C  C9  1  0.75000000  0.32661900  0.86933400  1
  C  C10  1  0.25000000  0.67338100  0.13066600  1
  C  C11  1  0.25000000  0.17338100  0.36933400  1
  Ni  Ni12  1  0.25000000  0.25744700  0.24816600  1
  Ni  Ni13  1  0.25000000  0.75744700  0.25183400  1
  Ni  Ni14  1  0.75000000  0.74255300  0.75183400  1
  Ni  Ni15  1  0.75000000  0.47049200  0.85619200  1
  Ni  Ni16  1  0.25000000  0.02950800  0.35619200  1
  Ni  Ni17  1  0.75000000  0.24255300  0.74816600  1
  Ni  Ni18  1  0.75000000  0.97049200  0.64380800  1
  Ni  Ni19  1  0.25000000  0.52950800  0.14380800  1
  Ni  Ni20  1  0.25000000  0.23794900  0.50210800  1
  Ni  Ni21  1  0.75000000  0.76205100  0.49789200  1
  Ni  Ni22  1  0.25000000  0.73794900  0.99789200  1
  Ni  Ni23  1  0.75000000  0.26205100  0.00210800  1
  Cu  Cu24  1  0.25000000  0.50718300  0.60965000  1
  Cu  Cu25  1  0.25000000  0.00718300  0.89035000  1
  Cu  Cu26  1  0.75000000  0.99281700  0.10965000  1
  Cu  Cu27  1  0.75000000  0.49281700  0.39035000  1
