# generated using pymatgen
data_Cu(NiC6)2
_symmetry_space_group_name_H-M   'P 1'
_cell_length_a   8.31890400
_cell_length_b   8.40790612
_cell_length_c   5.97266617
_cell_angle_alpha   110.29088077
_cell_angle_beta   95.53994165
_cell_angle_gamma   105.39614141
_symmetry_Int_Tables_number   1
_chemical_formula_structural   Cu(NiC6)2
_chemical_formula_sum   'Cu2 Ni4 C24'
_cell_volume   369.46153074
_cell_formula_units_Z   2
loop_
 _symmetry_equiv_pos_site_id
 _symmetry_equiv_pos_as_xyz
  1  'x, y, z'
loop_
 _atom_site_type_symbol
 _atom_site_label
 _atom_site_symmetry_multiplicity
 _atom_site_fract_x
 _atom_site_fract_y
 _atom_site_fract_z
 _atom_site_occupancy
  Ni  Ni0  1  0.80873500  0.68552500  0.22131000  1
  Ni  Ni1  1  0.19126500  0.31447500  0.77869000  1
  Ni  Ni2  1  0.66409600  0.01968900  0.75125700  1
  Ni  Ni3  1  0.33590400  0.98031100  0.24874300  1
  C  C4  1  0.38811400  0.78299000  0.74908400  1
  C  C5  1  0.61188600  0.21701000  0.25091600  1
  C  C6  1  0.55284800  0.79037300  0.49341300  1
  C  C7  1  0.44715200  0.20962700  0.50658700  1
  C  C8  1  0.58625000  0.80640800  0.16895900  1
  C  C9  1  0.41375000  0.19359200  0.83104100  1
  C  C10  1  0.77985000  0.55352500  0.45492000  1
  C  C11  1  0.22015000  0.44647500  0.54508000  1
  Cu  Cu12  1  0.94730600  0.69881100  0.83929200  1
  Cu  Cu13  1  0.05269400  0.30118900  0.16070800  1
  C  C14  1  0.47466500  0.95520200  0.78492900  1
  C  C15  1  0.52533500  0.04479800  0.21507100  1
  C  C16  1  0.70053800  0.25544500  0.68967700  1
  C  C17  1  0.29946200  0.74455500  0.31032300  1
  C  C18  1  0.80147700  0.00266600  0.90707900  1
  C  C19  1  0.19852300  0.99733400  0.09292100  1
  C  C20  1  0.85122100  0.55110600  0.08174400  1
  C  C21  1  0.14877900  0.44889400  0.91825600  1
  C  C22  1  0.63209800  0.79429000  0.60623100  1
  C  C23  1  0.36790200  0.20571000  0.39376900  1
  C  C24  1  0.60489100  0.65063000  0.16543100  1
  C  C25  1  0.39510900  0.34937000  0.83456900  1
  C  C26  1  0.92993400  0.94607700  0.30026100  1
  C  C27  1  0.07006600  0.05392300  0.69973900  1
  C  C28  1  0.80661100  0.49873900  0.35461300  1
  C  C29  1  0.19338900  0.50126100  0.64538700  1
