# generated using pymatgen
data_CuNi2C15
_symmetry_space_group_name_H-M   'P 1'
_cell_length_a   3.17373600
_cell_length_b   8.26508200
_cell_length_c   14.30866845
_cell_angle_alpha   89.87610777
_cell_angle_beta   90.00000000
_cell_angle_gamma   90.00000000
_symmetry_Int_Tables_number   1
_chemical_formula_structural   CuNi2C15
_chemical_formula_sum   'Cu2 Ni4 C30'
_cell_volume   375.33249881
_cell_formula_units_Z   2
loop_
 _symmetry_equiv_pos_site_id
 _symmetry_equiv_pos_as_xyz
  1  'x, y, z'
loop_
 _atom_site_type_symbol
 _atom_site_label
 _atom_site_symmetry_multiplicity
 _atom_site_fract_x
 _atom_site_fract_y
 _atom_site_fract_z
 _atom_site_occupancy
  C  C0  1  0.50000000  0.70707100  0.00914200  1
  C  C1  1  0.50000000  0.66066700  0.64111600  1
  C  C2  1  0.50000000  0.63435300  0.34932900  1
  C  C3  1  0.50000000  0.20707400  0.50761400  1
  C  C4  1  0.50000000  0.15908500  0.14279200  1
  C  C5  1  0.50000000  0.13299100  0.84916000  1
  Ni  Ni6  1  0.00000000  0.82645700  0.18602600  1
  Ni  Ni7  1  0.00000000  0.80898600  0.82043700  1
  Ni  Ni8  1  0.00000000  0.36491200  0.99446500  1
  Ni  Ni9  1  0.00000000  0.32564700  0.68606600  1
  Cu  Cu10  1  0.00000000  0.86328700  0.49565400  1
  Cu  Cu11  1  0.00000000  0.31225700  0.32052400  1
  C  C12  1  0.50000000  0.00163900  0.33443400  1
  C  C13  1  0.00000000  0.99993400  0.00006800  1
  C  C14  1  0.50000000  0.99897700  0.66549400  1
  C  C15  1  0.50000000  0.50011400  0.83314000  1
  C  C16  1  0.00000000  0.49954800  0.49894100  1
  C  C17  1  0.50000000  0.49893400  0.16773100  1
  C  C18  1  0.50000000  0.98780100  0.56849000  1
  C  C19  1  0.50000000  0.98491000  0.23741500  1
  C  C20  1  0.50000000  0.86434600  0.39134500  1
  C  C21  1  0.50000000  0.85950100  0.71968300  1
  C  C22  1  0.00000000  0.84519200  0.03904900  1
  C  C23  1  0.50000000  0.65204100  0.87487500  1
  C  C24  1  0.50000000  0.64969900  0.21024300  1
  C  C25  1  0.00000000  0.63847300  0.55448300  1
  C  C26  1  0.00000000  0.51432300  0.40191500  1
  C  C27  1  0.50000000  0.48821800  0.07079300  1
  C  C28  1  0.50000000  0.48668500  0.73606400  1
  C  C29  1  0.50000000  0.36138800  0.88841900  1
  C  C30  1  0.50000000  0.35901300  0.22199900  1
  C  C31  1  0.00000000  0.34692000  0.53990300  1
  C  C32  1  0.50000000  0.15568600  0.37350600  1
  C  C33  1  0.50000000  0.14945400  0.70863900  1
  C  C34  1  0.00000000  0.13544600  0.05791100  1
  C  C35  1  0.00000000  0.01897700  0.90313000  1
