# generated using pymatgen
data_Cu3NiC20
_symmetry_space_group_name_H-M   'P 1'
_cell_length_a   5.96167100
_cell_length_b   4.90049300
_cell_length_c   9.91954823
_cell_angle_alpha   89.57552018
_cell_angle_beta   90.00000000
_cell_angle_gamma   90.00000000
_symmetry_Int_Tables_number   1
_chemical_formula_structural   Cu3NiC20
_chemical_formula_sum   'Cu3 Ni1 C20'
_cell_volume   289.79290813
_cell_formula_units_Z   1
loop_
 _symmetry_equiv_pos_site_id
 _symmetry_equiv_pos_as_xyz
  1  'x, y, z'
loop_
 _atom_site_type_symbol
 _atom_site_label
 _atom_site_symmetry_multiplicity
 _atom_site_fract_x
 _atom_site_fract_y
 _atom_site_fract_z
 _atom_site_occupancy
  Ni  Ni0  1  0.00000000  0.06033300  0.28151100  1
  Cu  Cu1  1  0.00000000  0.46809200  0.77320800  1
  Cu  Cu2  1  0.50000000  0.53660900  0.22378900  1
  Cu  Cu3  1  0.50000000  0.96833600  0.72731800  1
  C  C4  1  0.50000000  0.08064300  0.40321100  1
  C  C5  1  0.50000000  0.41484900  0.90271600  1
  C  C6  1  0.00000000  0.58100100  0.09968300  1
  C  C7  1  0.00000000  0.92129700  0.59641400  1
  C  C8  1  0.50000000  0.14838700  0.55295600  1
  C  C9  1  0.30096900  0.23010300  0.32850100  1
  C  C10  1  0.69903100  0.23010300  0.32850100  1
  C  C11  1  0.00000000  0.22925000  0.61743400  1
  C  C12  1  0.00000000  0.26737100  0.11926100  1
  C  C13  1  0.29872100  0.27195000  0.82737100  1
  C  C14  1  0.70127900  0.27195000  0.82737100  1
  C  C15  1  0.50000000  0.34370500  0.05287800  1
  C  C16  1  0.00000000  0.64013300  0.94790200  1
  C  C17  1  0.79592500  0.71861700  0.17124300  1
  C  C18  1  0.20407500  0.71861700  0.17124300  1
  C  C19  1  0.50000000  0.72335500  0.88035900  1
  C  C20  1  0.50000000  0.77371100  0.38057200  1
  C  C21  1  0.79903500  0.77481200  0.67051600  1
  C  C22  1  0.20096500  0.77481200  0.67051600  1
  C  C23  1  0.00000000  0.85196700  0.44553000  1
