# generated using pymatgen
data_Cu3NiC11
_symmetry_space_group_name_H-M   'P 1'
_cell_length_a   5.66029200
_cell_length_b   10.88951700
_cell_length_c   20.44134000
_cell_angle_alpha   90.00000000
_cell_angle_beta   90.00000000
_cell_angle_gamma   90.00000000
_symmetry_Int_Tables_number   1
_chemical_formula_structural   Cu3NiC11
_chemical_formula_sum   'Cu6 Ni2 C22'
_cell_volume   1259.96016611
_cell_formula_units_Z   2
loop_
 _symmetry_equiv_pos_site_id
 _symmetry_equiv_pos_as_xyz
  1  'x, y, z'
loop_
 _atom_site_type_symbol
 _atom_site_label
 _atom_site_symmetry_multiplicity
 _atom_site_fract_x
 _atom_site_fract_y
 _atom_site_fract_z
 _atom_site_occupancy
  Ni  Ni0  1  0.00000000  0.25000000  0.01000800  1
  Ni  Ni1  1  0.00000000  0.75000000  0.98999200  1
  Cu  Cu2  1  0.00000000  0.50127900  0.23665200  1
  Cu  Cu3  1  0.00000000  0.99872100  0.23665200  1
  Cu  Cu4  1  0.00000000  0.50000000  0.50000000  1
  Cu  Cu5  1  0.00000000  0.00000000  0.50000000  1
  Cu  Cu6  1  0.00000000  0.49872100  0.76334800  1
  Cu  Cu7  1  0.00000000  0.00127900  0.76334800  1
  C  C8  1  0.50000000  0.25000000  0.06261300  1
  C  C9  1  0.00000000  0.53516600  0.10088700  1
  C  C10  1  0.00000000  0.96483400  0.10088700  1
  C  C11  1  0.00000000  0.25000000  0.20270200  1
  C  C12  1  0.50000000  0.50204800  0.23874200  1
  C  C13  1  0.50000000  0.99795200  0.23874200  1
  C  C14  1  0.00000000  0.75000000  0.27307900  1
  C  C15  1  0.00000000  0.42734200  0.36849700  1
  C  C16  1  0.00000000  0.07265800  0.36849700  1
  C  C17  1  0.00000000  0.75000000  0.46325700  1
  C  C18  1  0.50000000  0.50000000  0.50000000  1
  C  C19  1  0.50000000  0.00000000  0.50000000  1
  C  C20  1  0.00000000  0.25000000  0.53674300  1
  C  C21  1  0.00000000  0.57265800  0.63150300  1
  C  C22  1  0.00000000  0.92734200  0.63150300  1
  C  C23  1  0.00000000  0.25000000  0.72692100  1
  C  C24  1  0.50000000  0.49795200  0.76125800  1
  C  C25  1  0.50000000  0.00204800  0.76125800  1
  C  C26  1  0.00000000  0.75000000  0.79729800  1
  C  C27  1  0.00000000  0.46483400  0.89911300  1
  C  C28  1  0.00000000  0.03516600  0.89911300  1
  C  C29  1  0.50000000  0.75000000  0.93738700  1
