# generated using pymatgen
data_CuNiC16
_symmetry_space_group_name_H-M   'P 1'
_cell_length_a   9.35135724
_cell_length_b   9.35135724
_cell_length_c   9.35135669
_cell_angle_alpha   56.01506746
_cell_angle_beta   56.01506746
_cell_angle_gamma   56.01506844
_symmetry_Int_Tables_number   1
_chemical_formula_structural   CuNiC16
_chemical_formula_sum   'Cu2 Ni2 C32'
_cell_volume   524.86194747
_cell_formula_units_Z   2
loop_
 _symmetry_equiv_pos_site_id
 _symmetry_equiv_pos_as_xyz
  1  'x, y, z'
loop_
 _atom_site_type_symbol
 _atom_site_label
 _atom_site_symmetry_multiplicity
 _atom_site_fract_x
 _atom_site_fract_y
 _atom_site_fract_z
 _atom_site_occupancy
  Ni  Ni0  1  0.85392600  0.85392600  0.85392600  1
  Ni  Ni1  1  0.35392600  0.35392600  0.35392600  1
  Cu  Cu2  1  0.65345700  0.65345700  0.65345700  1
  Cu  Cu3  1  0.15345700  0.15345700  0.15345700  1
  C  C4  1  0.95607200  0.26341400  0.52587900  1
  C  C5  1  0.52587900  0.95607200  0.26341400  1
  C  C6  1  0.26341400  0.52587900  0.95607200  1
  C  C7  1  0.76341400  0.45607200  0.02587900  1
  C  C8  1  0.45607200  0.02587900  0.76341400  1
  C  C9  1  0.02587900  0.76341400  0.45607200  1
  C  C10  1  0.01252500  0.01252500  0.01252500  1
  C  C11  1  0.51252500  0.51252500  0.51252500  1
  C  C12  1  0.85905400  0.74388500  0.48378900  1
  C  C13  1  0.74388500  0.48378900  0.85905400  1
  C  C14  1  0.48378900  0.85905400  0.74388500  1
  C  C15  1  0.92170400  0.09322200  0.70435900  1
  C  C16  1  0.78175200  0.44032900  0.54919500  1
  C  C17  1  0.98378900  0.24388500  0.35905400  1
  C  C18  1  0.70435900  0.92170400  0.09322200  1
  C  C19  1  0.54919500  0.78175200  0.44032900  1
  C  C20  1  0.44032900  0.54919500  0.78175200  1
  C  C21  1  0.78214000  0.62135400  0.00394500  1
  C  C22  1  0.94032900  0.28175200  0.04919500  1
  C  C23  1  0.62135400  0.00394500  0.78214000  1
  C  C24  1  0.35905400  0.98378900  0.24388500  1
  C  C25  1  0.09322200  0.70435900  0.92170400  1
  C  C26  1  0.24388500  0.35905400  0.98378900  1
  C  C27  1  0.59322200  0.42170400  0.20435900  1
  C  C28  1  0.42170400  0.20435900  0.59322200  1
  C  C29  1  0.28175200  0.04919500  0.94032900  1
  C  C30  1  0.00394500  0.78214000  0.62135400  1
  C  C31  1  0.20435900  0.59322200  0.42170400  1
  C  C32  1  0.04919500  0.94032900  0.28175200  1
  C  C33  1  0.50394500  0.12135400  0.28214000  1
  C  C34  1  0.28214000  0.50394500  0.12135400  1
  C  C35  1  0.12135400  0.28214000  0.50394500  1
