# generated using pymatgen
data_Cu(Ni2C11)2
_symmetry_space_group_name_H-M   'P 1'
_cell_length_a   9.91268800
_cell_length_b   10.06055696
_cell_length_c   10.14440890
_cell_angle_alpha   90.28001877
_cell_angle_beta   119.10757627
_cell_angle_gamma   117.59821250
_symmetry_Int_Tables_number   1
_chemical_formula_structural   Cu(Ni2C11)2
_chemical_formula_sum   'Cu2 Ni8 C44'
_cell_volume   747.90036446
_cell_formula_units_Z   2
loop_
 _symmetry_equiv_pos_site_id
 _symmetry_equiv_pos_as_xyz
  1  'x, y, z'
loop_
 _atom_site_type_symbol
 _atom_site_label
 _atom_site_symmetry_multiplicity
 _atom_site_fract_x
 _atom_site_fract_y
 _atom_site_fract_z
 _atom_site_occupancy
  C  C0  1  0.75863100  0.83606800  0.07979400  1
  C  C1  1  0.16201300  0.83998600  0.07963000  1
  C  C2  1  0.75221500  0.42208400  0.08135800  1
  C  C3  1  0.24873300  0.56202700  0.33046600  1
  C  C4  1  0.75355200  0.83153200  0.67271900  1
  C  C5  1  0.73569300  0.41894600  0.66064400  1
  C  C6  1  0.25510000  0.57430000  0.92052600  1
  C  C7  1  0.25836600  0.18594000  0.92248900  1
  C  C8  1  0.49784500  0.00140700  0.49982700  1
  C  C9  1  0.00086200  0.00184800  0.49807800  1
  C  C10  1  0.99668400  0.49505800  0.49979700  1
  C  C11  1  0.51407600  0.00898000  0.99784400  1
  Ni  Ni12  1  0.56858900  0.84327700  0.29272900  1
  Ni  Ni13  1  0.06859200  0.78949700  0.33904100  1
  Ni  Ni14  1  0.05768800  0.79315100  0.72684600  1
  Ni  Ni15  1  0.43738400  0.77455400  0.70297300  1
  Ni  Ni16  1  0.55714300  0.21614000  0.29058900  1
  Ni  Ni17  1  0.93755300  0.20784200  0.27828400  1
  Ni  Ni18  1  0.92645700  0.20555100  0.65932600  1
  Ni  Ni19  1  0.43080600  0.15886200  0.71013100  1
  Cu  Cu20  1  0.25370000  0.37686700  0.12424200  1
  Cu  Cu21  1  0.75684900  0.63020900  0.87933200  1
  C  C22  1  0.43674100  0.81344600  0.15506300  1
  C  C23  1  0.05129700  0.90996800  0.35245700  1
  C  C24  1  0.71904100  0.86367100  0.31349300  1
  C  C25  1  0.21851400  0.81751900  0.34847700  1
  C  C26  1  0.55787000  0.85178500  0.41762100  1
  C  C27  1  0.37155200  0.43498600  0.05816500  1
  C  C28  1  0.13721900  0.44747800  0.06834200  1
  C  C29  1  0.94671200  0.65007100  0.30835600  1
  C  C30  1  0.95234000  0.81150500  0.59059300  1
  C  C31  1  0.55085300  0.90854200  0.69035400  1
  C  C32  1  0.13861000  0.20196500  0.06172200  1
  C  C33  1  0.36785700  0.43090500  0.29977100  1
  C  C34  1  0.95795800  0.34337400  0.27578200  1
  C  C35  1  0.53843300  0.21440300  0.15503500  1
  C  C36  1  0.31431400  0.65441400  0.58176400  1
  C  C37  1  0.16687500  0.90636900  0.85541300  1
  C  C38  1  0.81729100  0.08645300  0.15565700  1
  C  C39  1  0.67204500  0.33641100  0.41041900  1
  C  C40  1  0.03838700  0.65735100  0.72062200  1
  C  C41  1  0.46387800  0.77841700  0.84039100  1
  C  C42  1  0.64612100  0.57942800  0.70333900  1
  C  C43  1  0.87102600  0.80814500  0.93557300  1
  C  C44  1  0.04359400  0.19603800  0.41657300  1
  C  C45  1  0.44864300  0.07759400  0.30010900  1
  C  C46  1  0.05569200  0.34262800  0.69436400  1
  C  C47  1  0.64215200  0.57464600  0.94510500  1
  C  C48  1  0.88281300  0.57043200  0.93909100  1
  C  C49  1  0.44137500  0.14464300  0.58704200  1
  C  C50  1  0.77507900  0.18302500  0.63889300  1
  C  C51  1  0.27668200  0.13175900  0.68740400  1
  C  C52  1  0.93924300  0.08098900  0.64559800  1
  C  C53  1  0.56481000  0.20106600  0.85075000  1
