# generated using pymatgen
data_CuNi2C11
_symmetry_space_group_name_H-M   'P 1'
_cell_length_a   4.51147117
_cell_length_b   9.28367881
_cell_length_c   7.89713597
_cell_angle_alpha   76.22868560
_cell_angle_beta   105.82263936
_cell_angle_gamma   74.87724099
_symmetry_Int_Tables_number   1
_chemical_formula_structural   CuNi2C11
_chemical_formula_sum   'Cu2 Ni4 C22'
_cell_volume   289.68287074
_cell_formula_units_Z   2
loop_
 _symmetry_equiv_pos_site_id
 _symmetry_equiv_pos_as_xyz
  1  'x, y, z'
loop_
 _atom_site_type_symbol
 _atom_site_label
 _atom_site_symmetry_multiplicity
 _atom_site_fract_x
 _atom_site_fract_y
 _atom_site_fract_z
 _atom_site_occupancy
  C  C0  1  0.16462200  0.57289600  0.86779700  1
  C  C1  1  0.16361400  0.07252400  0.36721000  1
  C  C2  1  0.86647900  0.43180900  0.13517200  1
  C  C3  1  0.86579200  0.93100600  0.63320900  1
  C  C4  1  0.72187100  0.35849600  0.78832400  1
  C  C5  1  0.72212800  0.85823100  0.28647800  1
  C  C6  1  0.29499000  0.63674400  0.21663200  1
  C  C7  1  0.29503500  0.13602800  0.71665700  1
  Ni  Ni8  1  0.56050100  0.78171100  0.92803100  1
  Ni  Ni9  1  0.56063100  0.28128000  0.42913500  1
  Ni  Ni10  1  0.41652900  0.22034700  0.06748500  1
  Ni  Ni11  1  0.41696500  0.71992200  0.56696300  1
  Cu  Cu12  1  0.01147600  0.49204800  0.51551900  1
  Cu  Cu13  1  0.01002800  0.99386700  0.01222100  1
  C  C14  1  0.67990200  0.25110200  0.24745900  1
  C  C15  1  0.67922300  0.75165100  0.74627800  1
  C  C16  1  0.33713200  0.56373600  0.66344700  1
  C  C17  1  0.33633000  0.06399000  0.16293700  1
  C  C18  1  0.22635700  0.44091400  0.33662600  1
  C  C19  1  0.22556200  0.94092700  0.83495300  1
  C  C20  1  0.85725000  0.81280800  0.07205000  1
  C  C21  1  0.85768500  0.31133000  0.57448800  1
  C  C22  1  0.60509500  0.18489300  0.92233700  1
  C  C23  1  0.60783300  0.68425600  0.42293600  1
  C  C24  1  0.49536700  0.62603700  0.03002000  1
  C  C25  1  0.49465600  0.12547800  0.52998300  1
  C  C26  1  0.09065900  0.37847200  0.96375600  1
  C  C27  1  0.09028800  0.87749500  0.46189800  1
