# generated using pymatgen
data_Cu3NiC30
_symmetry_space_group_name_H-M   'P 1'
_cell_length_a   8.41488500
_cell_length_b   8.43039004
_cell_length_c   8.93950310
_cell_angle_alpha   62.31887341
_cell_angle_beta   62.38623856
_cell_angle_gamma   60.07218878
_symmetry_Int_Tables_number   1
_chemical_formula_structural   Cu3NiC30
_chemical_formula_sum   'Cu3 Ni1 C30'
_cell_volume   463.98743561
_cell_formula_units_Z   1
loop_
 _symmetry_equiv_pos_site_id
 _symmetry_equiv_pos_as_xyz
  1  'x, y, z'
loop_
 _atom_site_type_symbol
 _atom_site_label
 _atom_site_symmetry_multiplicity
 _atom_site_fract_x
 _atom_site_fract_y
 _atom_site_fract_z
 _atom_site_occupancy
  Ni  Ni0  1  0.85043800  0.86150900  0.43274700  1
  Cu  Cu1  1  0.63984000  0.64654300  0.07127200  1
  Cu  Cu2  1  0.35586800  0.34853700  0.93555300  1
  Cu  Cu3  1  0.15707800  0.15398900  0.54555800  1
  C  C4  1  0.74585700  0.46278900  0.74507700  1
  C  C5  1  0.04407500  0.74735600  0.74711700  1
  C  C6  1  0.52934600  0.96237200  0.25137500  1
  C  C7  1  0.96137100  0.26005400  0.25101100  1
  C  C8  1  0.25603900  0.53227000  0.24748300  1
  C  C9  1  0.46269600  0.03988100  0.75012300  1
  C  C10  1  0.88032900  0.70576500  0.94451500  1
  C  C11  1  0.48216500  0.88604200  0.92005900  1
  C  C12  1  0.66294700  0.98860100  0.29022600  1
  C  C13  1  0.33775200  0.98390100  0.39490000  1
  C  C14  1  0.01357800  0.97821700  0.69922700  1
  C  C15  1  0.70168600  0.67047400  0.59076000  1
  C  C16  1  0.70113900  0.47411600  0.94320300  1
  C  C17  1  0.60294200  0.76736900  0.23955900  1
  C  C18  1  0.98124900  0.31787200  0.69868700  1
  C  C19  1  0.26354800  0.60832200  0.76818900  1
  C  C20  1  0.61791600  0.34675900  0.77097700  1
  C  C21  1  0.02437500  0.70720400  0.59461200  1
  C  C22  1  0.98700800  0.28906100  0.39254500  1
  C  C23  1  0.38753700  0.61076700  0.23245600  1
  C  C24  1  0.76655100  0.39567800  0.23842600  1
  C  C25  1  0.05775500  0.66352300  0.29051800  1
  C  C26  1  0.36680200  0.23021700  0.77978800  1
  C  C27  1  0.31112600  0.49918300  0.07852900  1
  C  C28  1  0.29038000  0.33897700  0.38981900  1
  C  C29  1  0.98037200  0.06318300  0.29552200  1
  C  C30  1  0.64719700  0.02565100  0.61134500  1
  C  C31  1  0.32907400  0.01904800  0.69769800  1
  C  C32  1  0.49823100  0.10350900  0.08114000  1
  C  C33  1  0.10573400  0.31125900  0.07998400  1
