# generated using pymatgen
data_Cu6Ni2C3
_symmetry_space_group_name_H-M   'P 1'
_cell_length_a   4.93527000
_cell_length_b   10.96402000
_cell_length_c   13.71785000
_cell_angle_alpha   90.00000000
_cell_angle_beta   90.00000000
_cell_angle_gamma   90.00000000
_symmetry_Int_Tables_number   1
_chemical_formula_structural   Cu6Ni2C3
_chemical_formula_sum   'Cu24 Ni8 C12'
_cell_volume   742.27833672
_cell_formula_units_Z   4
loop_
 _symmetry_equiv_pos_site_id
 _symmetry_equiv_pos_as_xyz
  1  'x, y, z'
loop_
 _atom_site_type_symbol
 _atom_site_label
 _atom_site_symmetry_multiplicity
 _atom_site_fract_x
 _atom_site_fract_y
 _atom_site_fract_z
 _atom_site_occupancy
  C  C0  1  0.01592500  0.67513300  0.31146300  1
  C  C1  1  0.51592500  0.32486700  0.68853700  1
  C  C2  1  0.51592500  0.82486700  0.81146300  1
  C  C3  1  0.01592500  0.17513300  0.18853700  1
  C  C4  1  0.45324000  0.44427100  0.18575700  1
  C  C5  1  0.95324000  0.55572900  0.81424300  1
  C  C6  1  0.95324000  0.05572900  0.68575700  1
  C  C7  1  0.45324000  0.94427100  0.31424300  1
  C  C8  1  0.56632000  0.66245600  0.55470800  1
  C  C9  1  0.06632000  0.33754400  0.44529200  1
  C  C10  1  0.06632000  0.83754400  0.05470800  1
  C  C11  1  0.56632000  0.16245600  0.94529200  1
  Ni  Ni12  1  0.59699400  0.46297900  0.07800900  1
  Ni  Ni13  1  0.09699400  0.53702100  0.92199100  1
  Ni  Ni14  1  0.09699400  0.03702100  0.57800900  1
  Ni  Ni15  1  0.59699400  0.96297900  0.42199100  1
  Ni  Ni16  1  0.89403200  0.66159800  0.53487300  1
  Ni  Ni17  1  0.39403200  0.33840200  0.46512700  1
  Ni  Ni18  1  0.39403200  0.83840200  0.03487300  1
  Ni  Ni19  1  0.89403200  0.16159800  0.96512700  1
  Cu  Cu20  1  0.57219500  0.33187200  0.22624400  1
  Cu  Cu21  1  0.07219500  0.66812800  0.77375600  1
  Cu  Cu22  1  0.07219500  0.16812800  0.72624400  1
  Cu  Cu23  1  0.57219500  0.83187200  0.27375600  1
  Cu  Cu24  1  0.15970200  0.43128600  0.16989900  1
  Cu  Cu25  1  0.65970200  0.56871400  0.83010100  1
  Cu  Cu26  1  0.65970200  0.06871400  0.66989900  1
  Cu  Cu27  1  0.15970200  0.93128600  0.33010100  1
  Cu  Cu28  1  0.51942100  0.55536200  0.24155400  1
  Cu  Cu29  1  0.01942100  0.44463800  0.75844600  1
  Cu  Cu30  1  0.01942100  0.94463800  0.74155400  1
  Cu  Cu31  1  0.51942100  0.05536200  0.25844600  1
  Cu  Cu32  1  0.51427700  0.76963600  0.61554600  1
  Cu  Cu33  1  0.01427700  0.23036400  0.38445400  1
  Cu  Cu34  1  0.01427700  0.73036400  0.11554600  1
  Cu  Cu35  1  0.51427700  0.26963600  0.88445400  1
  Cu  Cu36  1  0.49727800  0.54706200  0.60230600  1
  Cu  Cu37  1  0.99727800  0.45293800  0.39769400  1
  Cu  Cu38  1  0.99727800  0.95293800  0.10230600  1
  Cu  Cu39  1  0.49727800  0.04706200  0.89769400  1
  Cu  Cu40  1  0.46451500  0.17310400  0.04621400  1
  Cu  Cu41  1  0.96451500  0.82689600  0.95378600  1
  Cu  Cu42  1  0.96451500  0.32689600  0.54621400  1
  Cu  Cu43  1  0.46451500  0.67310400  0.45378600  1
