# generated using pymatgen
data_CuNiC3
_symmetry_space_group_name_H-M   'P 1'
_cell_length_a   6.38378836
_cell_length_b   6.38378836
_cell_length_c   12.69969500
_cell_angle_alpha   90.00000000
_cell_angle_beta   90.00000000
_cell_angle_gamma   120.00000377
_symmetry_Int_Tables_number   1
_chemical_formula_structural   CuNiC3
_chemical_formula_sum   'Cu6 Ni6 C18'
_cell_volume   448.20930423
_cell_formula_units_Z   6
loop_
 _symmetry_equiv_pos_site_id
 _symmetry_equiv_pos_as_xyz
  1  'x, y, z'
loop_
 _atom_site_type_symbol
 _atom_site_label
 _atom_site_symmetry_multiplicity
 _atom_site_fract_x
 _atom_site_fract_y
 _atom_site_fract_z
 _atom_site_occupancy
  Ni  Ni0  1  0.33333300  0.66666700  0.23711900  1
  Ni  Ni1  1  0.00000000  0.00000000  0.27045200  1
  Ni  Ni2  1  0.00000000  0.00000000  0.77045200  1
  Ni  Ni3  1  0.33333300  0.66666700  0.73711900  1
  Ni  Ni4  1  0.66666700  0.33333300  0.73711900  1
  Ni  Ni5  1  0.66666700  0.33333300  0.23711900  1
  Cu  Cu6  1  0.00000000  0.66674900  0.50162000  1
  Cu  Cu7  1  0.00000000  0.33325100  0.00162000  1
  Cu  Cu8  1  0.33325100  0.33325100  0.50162000  1
  Cu  Cu9  1  0.66674900  0.66674900  0.00162000  1
  Cu  Cu10  1  0.33325100  0.00000000  0.00162000  1
  Cu  Cu11  1  0.66674900  0.00000000  0.50162000  1
  C  C12  1  0.00000000  0.69251400  0.67380100  1
  C  C13  1  0.00000000  0.63931300  0.33064300  1
  C  C14  1  0.00000000  0.36068700  0.83064300  1
  C  C15  1  0.00000000  0.30748600  0.17380100  1
  C  C16  1  0.33333300  0.66666700  0.02691000  1
  C  C17  1  0.00000000  0.00000000  0.47092900  1
  C  C18  1  0.00000000  0.00000000  0.97092900  1
  C  C19  1  0.33333300  0.66666700  0.52691000  1
  C  C20  1  0.30748600  0.30748600  0.67380100  1
  C  C21  1  0.36068700  0.36068700  0.33064300  1
  C  C22  1  0.30748600  0.00000000  0.17380100  1
  C  C23  1  0.63931300  0.63931300  0.83064300  1
  C  C24  1  0.69251400  0.69251400  0.17380100  1
  C  C25  1  0.36068700  0.00000000  0.83064300  1
  C  C26  1  0.66666700  0.33333300  0.52691000  1
  C  C27  1  0.66666700  0.33333300  0.02691000  1
  C  C28  1  0.63931300  0.00000000  0.33064300  1
  C  C29  1  0.69251400  0.00000000  0.67380100  1
