# generated using pymatgen
data_Cu2Ni2C5
_symmetry_space_group_name_H-M   'P 1'
_cell_length_a   15.69626400
_cell_length_b   6.08746000
_cell_length_c   6.78314482
_cell_angle_alpha   75.09504376
_cell_angle_beta   90.00000000
_cell_angle_gamma   90.00000000
_symmetry_Int_Tables_number   1
_chemical_formula_structural   Cu2Ni2C5
_chemical_formula_sum   'Cu12 Ni12 C30'
_cell_volume   626.32490085
_cell_formula_units_Z   6
loop_
 _symmetry_equiv_pos_site_id
 _symmetry_equiv_pos_as_xyz
  1  'x, y, z'
loop_
 _atom_site_type_symbol
 _atom_site_label
 _atom_site_symmetry_multiplicity
 _atom_site_fract_x
 _atom_site_fract_y
 _atom_site_fract_z
 _atom_site_occupancy
  C  C0  1  0.50000000  0.00000000  0.50000000  1
  C  C1  1  0.00000000  0.00000000  0.00000000  1
  C  C2  1  0.05963700  0.67590800  0.74513900  1
  C  C3  1  0.55963700  0.32409200  0.75486100  1
  C  C4  1  0.94036300  0.32409200  0.25486100  1
  C  C5  1  0.44036300  0.67590800  0.24513900  1
  C  C6  1  0.95445000  0.41245700  0.72088400  1
  C  C7  1  0.45445000  0.58754300  0.77911600  1
  C  C8  1  0.04555000  0.58754300  0.27911600  1
  C  C9  1  0.54555000  0.41245700  0.22088400  1
  C  C10  1  0.70347200  0.18368700  0.54536000  1
  C  C11  1  0.20347200  0.81631300  0.95464000  1
  C  C12  1  0.29652800  0.81631300  0.45464000  1
  C  C13  1  0.79652800  0.18368700  0.04536000  1
  C  C14  1  0.41898200  0.46597500  0.59593400  1
  C  C15  1  0.91898200  0.53402500  0.90406600  1
  C  C16  1  0.58101800  0.53402500  0.40406600  1
  C  C17  1  0.08101800  0.46597500  0.09593400  1
  C  C18  1  0.80455800  0.74058400  0.62644200  1
  C  C19  1  0.30455800  0.25941600  0.87355800  1
  C  C20  1  0.19544200  0.25941600  0.37355800  1
  C  C21  1  0.69544200  0.74058400  0.12644200  1
  C  C22  1  0.20296400  0.18233200  0.30510300  1
  C  C23  1  0.70296400  0.81766800  0.19489700  1
  C  C24  1  0.79703600  0.81766800  0.69489700  1
  C  C25  1  0.29703600  0.18233200  0.80510300  1
  C  C26  1  0.10487900  0.65868800  0.71873200  1
  C  C27  1  0.60487900  0.34131200  0.78126800  1
  C  C28  1  0.89512100  0.34131200  0.28126800  1
  C  C29  1  0.39512100  0.65868800  0.21873200  1
  Ni  Ni30  1  0.60542100  0.18932900  0.43681600  1
  Ni  Ni31  1  0.10542100  0.81067100  0.06318400  1
  Ni  Ni32  1  0.39457900  0.81067100  0.56318400  1
  Ni  Ni33  1  0.89457900  0.18932900  0.93681600  1
  Ni  Ni34  1  0.90422100  0.42203700  0.81241500  1
  Ni  Ni35  1  0.40422100  0.57796300  0.68758500  1
  Ni  Ni36  1  0.09577900  0.57796300  0.18758500  1
  Ni  Ni37  1  0.59577900  0.42203700  0.31241500  1
  Ni  Ni38  1  0.54173400  0.93139400  0.78530100  1
  Ni  Ni39  1  0.04173400  0.06860600  0.71469900  1
  Ni  Ni40  1  0.45826600  0.06860600  0.21469900  1
  Ni  Ni41  1  0.95826600  0.93139400  0.28530100  1
  Cu  Cu42  1  0.55709700  0.72866200  0.47387500  1
  Cu  Cu43  1  0.05709700  0.27133800  0.02612500  1
  Cu  Cu44  1  0.44290300  0.27133800  0.52612500  1
  Cu  Cu45  1  0.94290300  0.72866200  0.97387500  1
  Cu  Cu46  1  0.24912600  0.79127300  0.37307800  1
  Cu  Cu47  1  0.74912600  0.20872700  0.12692200  1
  Cu  Cu48  1  0.75087400  0.20872700  0.62692200  1
  Cu  Cu49  1  0.25087400  0.79127300  0.87307800  1
  Cu  Cu50  1  0.52690700  0.68948500  0.88957000  1
  Cu  Cu51  1  0.02690700  0.31051500  0.61043000  1
  Cu  Cu52  1  0.47309300  0.31051500  0.11043000  1
  Cu  Cu53  1  0.97309300  0.68948500  0.38957000  1
