# generated using pymatgen
data_Cu3NiC40
_symmetry_space_group_name_H-M   'P 1'
_cell_length_a   4.86733300
_cell_length_b   7.05407793
_cell_length_c   16.58686502
_cell_angle_alpha   89.38960699
_cell_angle_beta   89.58795191
_cell_angle_gamma   71.20394104
_symmetry_Int_Tables_number   1
_chemical_formula_structural   Cu3NiC40
_chemical_formula_sum   'Cu3 Ni1 C40'
_cell_volume   539.09688398
_cell_formula_units_Z   1
loop_
 _symmetry_equiv_pos_site_id
 _symmetry_equiv_pos_as_xyz
  1  'x, y, z'
loop_
 _atom_site_type_symbol
 _atom_site_label
 _atom_site_symmetry_multiplicity
 _atom_site_fract_x
 _atom_site_fract_y
 _atom_site_fract_z
 _atom_site_occupancy
  C  C0  1  0.17410400  0.32590800  0.93121500  1
  C  C1  1  0.17642800  0.32538900  0.43080000  1
  C  C2  1  0.82347900  0.67548100  0.18011300  1
  C  C3  1  0.82247100  0.67442200  0.68064600  1
  Ni  Ni4  1  0.78422600  0.73140400  0.99978100  1
  Cu  Cu5  1  0.21617600  0.27368600  0.24982000  1
  Cu  Cu6  1  0.21381400  0.27100900  0.74972500  1
  Cu  Cu7  1  0.78386300  0.72841300  0.49984300  1
  C  C8  1  0.40220200  0.47802100  0.08866000  1
  C  C9  1  0.39986400  0.47728900  0.58990900  1
  C  C10  1  0.21331600  0.91434100  0.39187600  1
  C  C11  1  0.21336400  0.91158000  0.89233900  1
  C  C12  1  0.79004200  0.08672800  0.14349600  1
  C  C13  1  0.78756200  0.08560400  0.64228200  1
  C  C14  1  0.60124100  0.51731400  0.84025600  1
  C  C15  1  0.60036400  0.52274600  0.34026500  1
  C  C16  1  0.04961100  0.15357500  0.16309500  1
  C  C17  1  0.04983200  0.14866100  0.66242400  1
  C  C18  1  0.13275700  0.11563700  0.34820700  1
  C  C19  1  0.13113000  0.11183900  0.84755300  1
  C  C20  1  0.18945500  0.51781000  0.01773200  1
  C  C21  1  0.18676000  0.51794400  0.51906500  1
  C  C22  1  0.24674600  0.49314300  0.67153700  1
  C  C23  1  0.25019600  0.49456800  0.17081600  1
  C  C24  1  0.39662500  0.39584500  0.33881000  1
  C  C25  1  0.39224800  0.39415400  0.83735200  1
  C  C26  1  0.60053200  0.08677900  0.21817500  1
  C  C27  1  0.60025200  0.08346600  0.71703600  1
  C  C28  1  0.59853100  0.24721800  0.07663000  1
  C  C29  1  0.59634900  0.24716400  0.57634900  1
  C  C30  1  0.40549700  0.75401900  0.32652700  1
  C  C31  1  0.40516800  0.75068900  0.82778900  1
  C  C32  1  0.39745800  0.91556600  0.46663200  1
  C  C33  1  0.39575900  0.91604700  0.96712100  1
  C  C34  1  0.60302300  0.60475000  0.58860000  1
  C  C35  1  0.60388800  0.60831400  0.08762600  1
  C  C36  1  0.75216700  0.50584300  0.42180000  1
  C  C37  1  0.75426600  0.49436000  0.92093100  1
  C  C38  1  0.81173400  0.48193000  0.76812700  1
  C  C39  1  0.81418100  0.48377300  0.26912100  1
  C  C40  1  0.87457600  0.88543500  0.10204300  1
  C  C41  1  0.86740900  0.88593600  0.59866900  1
  C  C42  1  0.94969200  0.85148900  0.41202900  1
  C  C43  1  0.94164400  0.85470900  0.91275800  1
