# generated using pymatgen
data_Cu4Ni5C22
_symmetry_space_group_name_H-M   'P 1'
_cell_length_a   2.94337500
_cell_length_b   9.42692300
_cell_length_c   26.49639500
_cell_angle_alpha   90.00000000
_cell_angle_beta   90.00000000
_cell_angle_gamma   90.00000000
_symmetry_Int_Tables_number   1
_chemical_formula_structural   Cu4Ni5C22
_chemical_formula_sum   'Cu8 Ni10 C44'
_cell_volume   735.19466353
_cell_formula_units_Z   2
loop_
 _symmetry_equiv_pos_site_id
 _symmetry_equiv_pos_as_xyz
  1  'x, y, z'
loop_
 _atom_site_type_symbol
 _atom_site_label
 _atom_site_symmetry_multiplicity
 _atom_site_fract_x
 _atom_site_fract_y
 _atom_site_fract_z
 _atom_site_occupancy
  C  C0  1  0.00000000  0.17028500  0.99329000  1
  C  C1  1  0.00000000  0.21042500  0.20281600  1
  C  C2  1  0.00000000  0.28957500  0.70281600  1
  C  C3  1  0.00000000  0.32971500  0.49329000  1
  C  C4  1  0.00000000  0.67028500  0.50671000  1
  C  C5  1  0.00000000  0.71042500  0.29718400  1
  C  C6  1  0.00000000  0.78957500  0.79718400  1
  C  C7  1  0.00000000  0.82971500  0.00671000  1
  Ni  Ni8  1  0.00000000  0.00000000  0.50000000  1
  Ni  Ni9  1  0.00000000  0.01513200  0.10489900  1
  Ni  Ni10  1  0.50000000  0.13746400  0.80917800  1
  Ni  Ni11  1  0.50000000  0.36253600  0.30917800  1
  Ni  Ni12  1  0.00000000  0.48486800  0.60489900  1
  Ni  Ni13  1  0.00000000  0.50000000  0.00000000  1
  Ni  Ni14  1  0.00000000  0.51513200  0.39510100  1
  Ni  Ni15  1  0.50000000  0.63746400  0.69082200  1
  Ni  Ni16  1  0.50000000  0.86253600  0.19082200  1
  Ni  Ni17  1  0.00000000  0.98486800  0.89510100  1
  Cu  Cu18  1  0.00000000  0.02894600  0.30724800  1
  Cu  Cu19  1  0.50000000  0.14139800  0.59019800  1
  Cu  Cu20  1  0.50000000  0.35860200  0.09019800  1
  Cu  Cu21  1  0.00000000  0.47105400  0.80724800  1
  Cu  Cu22  1  0.00000000  0.52894600  0.19275200  1
  Cu  Cu23  1  0.50000000  0.64139800  0.90980200  1
  Cu  Cu24  1  0.50000000  0.85860200  0.40980200  1
  Cu  Cu25  1  0.00000000  0.97105400  0.69275200  1
  C  C26  1  0.00000000  0.98875300  0.42383700  1
  C  C27  1  0.00000000  0.01124700  0.57616300  1
  C  C28  1  0.50000000  0.02613200  0.94006800  1
  C  C29  1  0.50000000  0.05315900  0.15701100  1
  C  C30  1  0.50000000  0.09081000  0.66958500  1
  C  C31  1  0.00000000  0.08575500  0.76509300  1
  C  C32  1  0.50000000  0.13907800  0.50088800  1
  C  C33  1  0.50000000  0.16030100  0.28794000  1
  C  C34  1  0.00000000  0.16964500  0.85899500  1
  C  C35  1  0.00000000  0.21856600  0.09152100  1
  C  C36  1  0.00000000  0.28143400  0.59152100  1
  C  C37  1  0.00000000  0.33035500  0.35899500  1
  C  C38  1  0.50000000  0.33969900  0.78794000  1
  C  C39  1  0.50000000  0.36092200  0.00088800  1
  C  C40  1  0.00000000  0.41424500  0.26509300  1
  C  C41  1  0.50000000  0.40919000  0.16958500  1
  C  C42  1  0.50000000  0.44684100  0.65701100  1
  C  C43  1  0.50000000  0.47386800  0.44006800  1
  C  C44  1  0.00000000  0.48875300  0.07616300  1
  C  C45  1  0.00000000  0.51124700  0.92383700  1
  C  C46  1  0.50000000  0.52613200  0.55993200  1
  C  C47  1  0.50000000  0.55315900  0.34298900  1
  C  C48  1  0.50000000  0.59081000  0.83041500  1
  C  C49  1  0.00000000  0.58575500  0.73490700  1
  C  C50  1  0.50000000  0.63907800  0.99911200  1
  C  C51  1  0.50000000  0.66030100  0.21206000  1
  C  C52  1  0.00000000  0.66964500  0.64100500  1
  C  C53  1  0.00000000  0.71856600  0.40847900  1
  C  C54  1  0.00000000  0.78143400  0.90847900  1
  C  C55  1  0.00000000  0.83035500  0.14100500  1
  C  C56  1  0.50000000  0.83969900  0.71206000  1
  C  C57  1  0.50000000  0.86092200  0.49911200  1
  C  C58  1  0.00000000  0.91424500  0.23490700  1
  C  C59  1  0.50000000  0.90919000  0.33041500  1
  C  C60  1  0.50000000  0.94684100  0.84298900  1
  C  C61  1  0.50000000  0.97386800  0.05993200  1
