# generated using pymatgen
data_CuNiC4
_symmetry_space_group_name_H-M   'P 1'
_cell_length_a   20.97855200
_cell_length_b   6.08189400
_cell_length_c   10.09807446
_cell_angle_alpha   89.98272288
_cell_angle_beta   90.00000000
_cell_angle_gamma   90.00000000
_symmetry_Int_Tables_number   1
_chemical_formula_structural   CuNiC4
_chemical_formula_sum   'Cu4 Ni4 C16'
_cell_volume   1288.40649128
_cell_formula_units_Z   4
loop_
 _symmetry_equiv_pos_site_id
 _symmetry_equiv_pos_as_xyz
  1  'x, y, z'
loop_
 _atom_site_type_symbol
 _atom_site_label
 _atom_site_symmetry_multiplicity
 _atom_site_fract_x
 _atom_site_fract_y
 _atom_site_fract_z
 _atom_site_occupancy
  Ni  Ni0  1  0.86544300  0.18533500  0.75504300  1
  Ni  Ni1  1  0.63455700  0.18533500  0.25504300  1
  Ni  Ni2  1  0.36544300  0.81466500  0.74495700  1
  Ni  Ni3  1  0.13455700  0.81466500  0.24495700  1
  Cu  Cu4  1  0.15363800  0.29492400  0.75549300  1
  Cu  Cu5  1  0.34636200  0.29492400  0.25549300  1
  Cu  Cu6  1  0.65363800  0.70507600  0.74450700  1
  Cu  Cu7  1  0.84636200  0.70507600  0.24450700  1
  C  C8  1  0.69790300  0.20460700  0.78171100  1
  C  C9  1  0.39756000  0.30827400  0.55991100  1
  C  C10  1  0.30528300  0.30069400  0.91720800  1
  C  C11  1  0.80209700  0.20460700  0.28171100  1
  C  C12  1  0.01273700  0.25479400  0.64848100  1
  C  C13  1  0.10244000  0.30827400  0.05991100  1
  C  C14  1  0.19471700  0.30069400  0.41720800  1
  C  C15  1  0.48726300  0.25479400  0.14848100  1
  C  C16  1  0.51273700  0.74520600  0.85151900  1
  C  C17  1  0.80528300  0.69930600  0.58279200  1
  C  C18  1  0.89756000  0.69172600  0.94008900  1
  C  C19  1  0.98726300  0.74520600  0.35151900  1
  C  C20  1  0.19790300  0.79539300  0.71828900  1
  C  C21  1  0.69471700  0.69930600  0.08279200  1
  C  C22  1  0.60244000  0.69172600  0.44008900  1
  C  C23  1  0.30209700  0.79539300  0.21828900  1
