# generated using pymatgen
data_Cu5NiC16
_symmetry_space_group_name_H-M   'P 1'
_cell_length_a   5.14649175
_cell_length_b   5.14649175
_cell_length_c   10.26739102
_cell_angle_alpha   89.43620487
_cell_angle_beta   89.43620487
_cell_angle_gamma   119.75842790
_symmetry_Int_Tables_number   1
_chemical_formula_structural   Cu5NiC16
_chemical_formula_sum   'Cu5 Ni1 C16'
_cell_volume   236.03794682
_cell_formula_units_Z   1
loop_
 _symmetry_equiv_pos_site_id
 _symmetry_equiv_pos_as_xyz
  1  'x, y, z'
loop_
 _atom_site_type_symbol
 _atom_site_label
 _atom_site_symmetry_multiplicity
 _atom_site_fract_x
 _atom_site_fract_y
 _atom_site_fract_z
 _atom_site_occupancy
  C  C0  1  0.64505000  0.13489700  0.75040500  1
  C  C1  1  0.86510300  0.35495000  0.24959500  1
  C  C2  1  0.13489700  0.64505000  0.75040500  1
  C  C3  1  0.35495000  0.86510300  0.24959500  1
  Ni  Ni4  1  0.00000000  0.00000000  0.00000000  1
  Cu  Cu5  1  0.83566900  0.16433100  0.50000000  1
  Cu  Cu6  1  0.33650200  0.66349800  0.00000000  1
  Cu  Cu7  1  0.66349800  0.33650200  0.00000000  1
  Cu  Cu8  1  0.16433100  0.83566900  0.50000000  1
  Cu  Cu9  1  0.50000000  0.50000000  0.50000000  1
  C  C10  1  0.67248800  0.00888000  0.10796200  1
  C  C11  1  0.99112000  0.32751200  0.89203800  1
  C  C12  1  0.51705100  0.18218800  0.39321400  1
  C  C13  1  0.18218800  0.51705100  0.39321400  1
  C  C14  1  0.81781200  0.48294900  0.60678600  1
  C  C15  1  0.18493800  0.18493800  0.59494500  1
  C  C16  1  0.48294900  0.81781200  0.60678600  1
  C  C17  1  0.00888000  0.67248800  0.10796200  1
  C  C18  1  0.31506500  0.31506500  0.09713700  1
  C  C19  1  0.32751200  0.99112000  0.89203800  1
  C  C20  1  0.68493500  0.68493500  0.90286300  1
  C  C21  1  0.81506200  0.81506200  0.40505500  1
