# generated using pymatgen
data_Cu2Ni3C31
_symmetry_space_group_name_H-M   'P 1'
_cell_length_a   8.65679944
_cell_length_b   8.65679944
_cell_length_c   8.65679922
_cell_angle_alpha   61.21341990
_cell_angle_beta   61.21341990
_cell_angle_gamma   61.21341934
_symmetry_Int_Tables_number   1
_chemical_formula_structural   Cu2Ni3C31
_chemical_formula_sum   'Cu2 Ni3 C31'
_cell_volume   471.24974162
_cell_formula_units_Z   1
loop_
 _symmetry_equiv_pos_site_id
 _symmetry_equiv_pos_as_xyz
  1  'x, y, z'
loop_
 _atom_site_type_symbol
 _atom_site_label
 _atom_site_symmetry_multiplicity
 _atom_site_fract_x
 _atom_site_fract_y
 _atom_site_fract_z
 _atom_site_occupancy
  Ni  Ni0  1  0.85536900  0.85536900  0.85536900  1
  Ni  Ni1  1  0.64620500  0.64620500  0.64620500  1
  Ni  Ni2  1  0.35399000  0.35399000  0.35399000  1
  Cu  Cu3  1  0.00000500  0.00000500  0.00000500  1
  Cu  Cu4  1  0.50111200  0.50111200  0.50111200  1
  C  C5  1  0.14630100  0.14630100  0.14630100  1
  C  C6  1  0.94715000  0.25072500  0.55675100  1
  C  C7  1  0.55675100  0.94715000  0.25072500  1
  C  C8  1  0.73906200  0.46455300  0.04383800  1
  C  C9  1  0.46455300  0.04383800  0.73906200  1
  C  C10  1  0.04383800  0.73906200  0.46455300  1
  C  C11  1  0.25072500  0.55675100  0.94715000  1
  C  C12  1  0.88965600  0.66104900  0.52401100  1
  C  C13  1  0.66104900  0.52401100  0.88965600  1
  C  C14  1  0.93762700  0.09237500  0.74861300  1
  C  C15  1  0.52401100  0.88965600  0.66104900  1
  C  C16  1  0.96467900  0.18660900  0.41159400  1
  C  C17  1  0.75631000  0.41256400  0.57679600  1
  C  C18  1  0.74861300  0.93762700  0.09237500  1
  C  C19  1  0.57679600  0.75631000  0.41256400  1
  C  C20  1  0.81324900  0.61681500  0.00116700  1
  C  C21  1  0.41256400  0.57679600  0.75631000  1
  C  C22  1  0.88964300  0.27088700  0.04546500  1
  C  C23  1  0.61681500  0.00116700  0.81324900  1
  C  C24  1  0.41159400  0.96467900  0.18660900  1
  C  C25  1  0.09237500  0.74861300  0.93762700  1
  C  C26  1  0.58284500  0.45037700  0.23828500  1
  C  C27  1  0.18660900  0.41159400  0.96467900  1
  C  C28  1  0.45037700  0.23828500  0.58284500  1
  C  C29  1  0.27088700  0.04546500  0.88964300  1
  C  C30  1  0.23828500  0.58284500  0.45037700  1
  C  C31  1  0.00116700  0.81324900  0.61681500  1
  C  C32  1  0.49796200  0.11642100  0.30993900  1
  C  C33  1  0.04546500  0.88964300  0.27088700  1
  C  C34  1  0.30993900  0.49796200  0.11642100  1
  C  C35  1  0.11642100  0.30993900  0.49796200  1
