# generated using pymatgen
data_Cu2NiC4
_symmetry_space_group_name_H-M   'P 1'
_cell_length_a   12.74008240
_cell_length_b   12.74008240
_cell_length_c   14.87021951
_cell_angle_alpha   66.03034765
_cell_angle_beta   66.03034765
_cell_angle_gamma   20.31363143
_symmetry_Int_Tables_number   1
_chemical_formula_structural   Cu2NiC4
_chemical_formula_sum   'Cu16 Ni8 C32'
_cell_volume   763.20382815
_cell_formula_units_Z   8
loop_
 _symmetry_equiv_pos_site_id
 _symmetry_equiv_pos_as_xyz
  1  'x, y, z'
loop_
 _atom_site_type_symbol
 _atom_site_label
 _atom_site_symmetry_multiplicity
 _atom_site_fract_x
 _atom_site_fract_y
 _atom_site_fract_z
 _atom_site_occupancy
  C  C0  1  0.81064500  0.84000200  0.64781100  1
  C  C1  1  0.15999800  0.18935500  0.85218900  1
  C  C2  1  0.18935500  0.15999800  0.35218900  1
  C  C3  1  0.84000200  0.81064500  0.14781100  1
  C  C4  1  0.01486600  0.87178500  0.59525700  1
  C  C5  1  0.12821500  0.98513400  0.90474300  1
  C  C6  1  0.98513400  0.12821500  0.40474300  1
  C  C7  1  0.87178500  0.01486600  0.09525700  1
  C  C8  1  0.33009200  0.50166100  0.73062600  1
  C  C9  1  0.49833900  0.66990800  0.76937400  1
  C  C10  1  0.66990800  0.49833900  0.26937400  1
  C  C11  1  0.50166100  0.33009200  0.23062600  1
  C  C12  1  0.57204900  0.45612500  0.56485800  1
  C  C13  1  0.54387500  0.42795100  0.93514200  1
  C  C14  1  0.42795100  0.54387500  0.43514200  1
  C  C15  1  0.45612500  0.57204900  0.06485800  1
  C  C16  1  0.76157600  0.97689500  0.41987100  1
  C  C17  1  0.02310500  0.23842400  0.08012900  1
  C  C18  1  0.23842400  0.02310500  0.58012900  1
  C  C19  1  0.97689500  0.76157600  0.91987100  1
  C  C20  1  0.21939300  0.27863400  0.69915800  1
  C  C21  1  0.72136600  0.78060700  0.80084200  1
  C  C22  1  0.78060700  0.72136600  0.30084200  1
  C  C23  1  0.27863400  0.21939300  0.19915800  1
  Ni  Ni24  1  0.06433800  0.61989800  0.75662000  1
  Ni  Ni25  1  0.38010200  0.93566200  0.74338000  1
  Ni  Ni26  1  0.93566200  0.38010200  0.24338000  1
  Ni  Ni27  1  0.61989800  0.06433800  0.25662000  1
  Ni  Ni28  1  0.99090700  0.82554200  0.49537600  1
  Ni  Ni29  1  0.17445800  0.00909300  0.00462400  1
  Ni  Ni30  1  0.00909300  0.17445800  0.50462400  1
  Ni  Ni31  1  0.82554200  0.99090700  0.99537600  1
  C  C32  1  0.94797600  0.59074000  0.84772100  1
  C  C33  1  0.40926000  0.05202400  0.65227900  1
  C  C34  1  0.05202400  0.40926000  0.15227900  1
  C  C35  1  0.59074000  0.94797600  0.34772100  1
  C  C36  1  0.17214700  0.77635400  0.39279900  1
  C  C37  1  0.22364600  0.82785300  0.10720100  1
  C  C38  1  0.82785300  0.22364600  0.60720100  1
  C  C39  1  0.77635400  0.17214700  0.89279900  1
  Cu  Cu40  1  0.94861800  0.76153600  0.66691200  1
  Cu  Cu41  1  0.23846400  0.05138200  0.83308800  1
  Cu  Cu42  1  0.05138200  0.23846400  0.33308800  1
  Cu  Cu43  1  0.76153600  0.94861800  0.16691200  1
  Cu  Cu44  1  0.07312500  0.74281400  0.58679700  1
  Cu  Cu45  1  0.25718600  0.92687500  0.91320300  1
  Cu  Cu46  1  0.92687500  0.25718600  0.41320300  1
  Cu  Cu47  1  0.74281400  0.07312500  0.08679700  1
  Cu  Cu48  1  0.24960800  0.50149200  0.78629800  1
  Cu  Cu49  1  0.49850800  0.75039200  0.71370200  1
  Cu  Cu50  1  0.75039200  0.49850800  0.21370200  1
  Cu  Cu51  1  0.50149200  0.24960800  0.28629800  1
  Cu  Cu52  1  0.80502300  0.92776300  0.48958800  1
  Cu  Cu53  1  0.07223700  0.19497700  0.01041200  1
  Cu  Cu54  1  0.19497700  0.07223700  0.51041200  1
  Cu  Cu55  1  0.92776300  0.80502300  0.98958800  1
