# generated using pymatgen
data_CuNiC6
_symmetry_space_group_name_H-M   'P 1'
_cell_length_a   4.97647600
_cell_length_b   6.36139700
_cell_length_c   10.86224387
_cell_angle_alpha   88.30356719
_cell_angle_beta   90.00000000
_cell_angle_gamma   90.00000000
_symmetry_Int_Tables_number   1
_chemical_formula_structural   CuNiC6
_chemical_formula_sum   'Cu4 Ni4 C24'
_cell_volume   343.71902541
_cell_formula_units_Z   4
loop_
 _symmetry_equiv_pos_site_id
 _symmetry_equiv_pos_as_xyz
  1  'x, y, z'
loop_
 _atom_site_type_symbol
 _atom_site_label
 _atom_site_symmetry_multiplicity
 _atom_site_fract_x
 _atom_site_fract_y
 _atom_site_fract_z
 _atom_site_occupancy
  C  C0  1  0.19318500  0.50670900  0.58521800  1
  C  C1  1  0.30681500  0.50670900  0.08521800  1
  C  C2  1  0.19648900  0.26282200  0.82833300  1
  C  C3  1  0.30351100  0.26282200  0.32833300  1
  C  C4  1  0.69648900  0.73717800  0.67166700  1
  C  C5  1  0.80351100  0.73717800  0.17166700  1
  C  C6  1  0.69318500  0.49329100  0.91478200  1
  C  C7  1  0.80681500  0.49329100  0.41478200  1
  Ni  Ni8  1  0.69310800  0.26219700  0.66637000  1
  Ni  Ni9  1  0.80689200  0.26219700  0.16637000  1
  Ni  Ni10  1  0.19310800  0.73780300  0.83363000  1
  Ni  Ni11  1  0.30689200  0.73780300  0.33363000  1
  Cu  Cu12  1  0.20997400  0.00539100  0.58994400  1
  Cu  Cu13  1  0.29002600  0.00539100  0.08994400  1
  Cu  Cu14  1  0.70997400  0.99460900  0.91005600  1
  Cu  Cu15  1  0.79002600  0.99460900  0.41005600  1
  C  C16  1  0.79679400  0.47366100  0.59664700  1
  C  C17  1  0.70320600  0.47366100  0.09664700  1
  C  C18  1  0.35958300  0.25039800  0.66477200  1
  C  C19  1  0.14041700  0.25039800  0.16477200  1
  C  C20  1  0.79551200  0.24660500  0.81186100  1
  C  C21  1  0.70448800  0.24660500  0.31186100  1
  C  C22  1  0.80467100  0.04634600  0.59420200  1
  C  C23  1  0.69532900  0.04634600  0.09420200  1
  C  C24  1  0.30467100  0.95365400  0.90579800  1
  C  C25  1  0.19532900  0.95365400  0.40579800  1
  C  C26  1  0.85958300  0.74960200  0.83522800  1
  C  C27  1  0.64041700  0.74960200  0.33522800  1
  C  C28  1  0.29551200  0.75339500  0.68813900  1
  C  C29  1  0.20448800  0.75339500  0.18813900  1
  C  C30  1  0.29679400  0.52633900  0.90335300  1
  C  C31  1  0.20320600  0.52633900  0.40335300  1
