# generated using pymatgen
data_Cu7NiC7
_symmetry_space_group_name_H-M   'P 1'
_cell_length_a   5.78718700
_cell_length_b   7.54080562
_cell_length_c   7.29840144
_cell_angle_alpha   88.09065163
_cell_angle_beta   66.65869114
_cell_angle_gamma   85.16621494
_symmetry_Int_Tables_number   1
_chemical_formula_structural   Cu7NiC7
_chemical_formula_sum   'Cu14 Ni2 C14'
_cell_volume   291.39657580
_cell_formula_units_Z   2
loop_
 _symmetry_equiv_pos_site_id
 _symmetry_equiv_pos_as_xyz
  1  'x, y, z'
loop_
 _atom_site_type_symbol
 _atom_site_label
 _atom_site_symmetry_multiplicity
 _atom_site_fract_x
 _atom_site_fract_y
 _atom_site_fract_z
 _atom_site_occupancy
  C  C0  1  0.86781400  0.00767700  0.26914000  1
  C  C1  1  0.13665200  0.50699300  0.73080800  1
  C  C2  1  0.96806800  0.64857000  0.20822700  1
  C  C3  1  0.17629900  0.14796800  0.79165900  1
  C  C4  1  0.03238900  0.70768000  0.39113700  1
  C  C5  1  0.42343300  0.20708300  0.60885000  1
  C  C6  1  0.49588600  0.78193800  0.38084000  1
  C  C7  1  0.87604000  0.28149300  0.61927700  1
  C  C8  1  0.39166300  0.97209100  0.32665900  1
  C  C9  1  0.71778900  0.47172400  0.67331100  1
  C  C10  1  0.29702900  0.20733700  0.16155400  1
  C  C11  1  0.45788000  0.70707000  0.83828400  1
  C  C12  1  0.36741200  0.01781700  0.05342600  1
  C  C13  1  0.42033200  0.51771200  0.94666300  1
  Ni  Ni14  1  0.61803100  0.42665500  0.23073700  1
  Ni  Ni15  1  0.84880100  0.92622900  0.76929000  1
  Cu  Cu16  1  0.46560300  0.38773600  0.11496900  1
  Cu  Cu17  1  0.58067700  0.88735200  0.88513700  1
  Cu  Cu18  1  0.66923600  0.25675300  0.32714400  1
  Cu  Cu19  1  0.99638100  0.75634600  0.67281200  1
  Cu  Cu20  1  0.85952100  0.49859400  0.09575600  1
  Cu  Cu21  1  0.95543700  0.99819300  0.90427500  1
  Cu  Cu22  1  0.47385800  0.55541700  0.39407700  1
  Cu  Cu23  1  0.86787300  0.05498400  0.60599000  1
  Cu  Cu24  1  0.29012400  0.24648100  0.73680100  1
  Cu  Cu25  1  0.02715100  0.74701800  0.26308200  1
  Cu  Cu26  1  0.89092400  0.41223300  0.61968400  1
  Cu  Cu27  1  0.51108700  0.91269500  0.38044800  1
  Cu  Cu28  1  0.41484100  0.58344100  0.82571900  1
  Cu  Cu29  1  0.24116700  0.08372200  0.17424300  1
