# generated using pymatgen
data_Cu(NiC3)2
_symmetry_space_group_name_H-M   'P 1'
_cell_length_a   9.21973899
_cell_length_b   9.21973899
_cell_length_c   10.20515559
_cell_angle_alpha   88.64684546
_cell_angle_beta   88.64684546
_cell_angle_gamma   119.26140957
_symmetry_Int_Tables_number   1
_chemical_formula_structural   Cu(NiC3)2
_chemical_formula_sum   'Cu2 Ni4 C12'
_cell_volume   755.95790016
_cell_formula_units_Z   2
loop_
 _symmetry_equiv_pos_site_id
 _symmetry_equiv_pos_as_xyz
  1  'x, y, z'
loop_
 _atom_site_type_symbol
 _atom_site_label
 _atom_site_symmetry_multiplicity
 _atom_site_fract_x
 _atom_site_fract_y
 _atom_site_fract_z
 _atom_site_occupancy
  Ni  Ni0  1  0.39339300  0.72020000  0.51277000  1
  Ni  Ni1  1  0.27980000  0.60660700  0.98723000  1
  Ni  Ni2  1  0.72020000  0.39339300  0.01277000  1
  Ni  Ni3  1  0.60660700  0.27980000  0.48723000  1
  Cu  Cu4  1  0.04798600  0.95201400  0.75000000  1
  Cu  Cu5  1  0.95201400  0.04798600  0.25000000  1
  C  C6  1  0.65635300  0.69736200  0.84274200  1
  C  C7  1  0.43783600  0.01001600  0.78557000  1
  C  C8  1  0.18312900  0.94692200  0.45065500  1
  C  C9  1  0.05307800  0.81687100  0.04934500  1
  C  C10  1  0.98998400  0.56216400  0.71443000  1
  C  C11  1  0.30263800  0.34364700  0.65725800  1
  C  C12  1  0.69736200  0.65635300  0.34274200  1
  C  C13  1  0.01001600  0.43783600  0.28557000  1
  C  C14  1  0.94692200  0.18312900  0.95065500  1
  C  C15  1  0.81687100  0.05307800  0.54934500  1
  C  C16  1  0.56216400  0.98998400  0.21443000  1
  C  C17  1  0.34364700  0.30263800  0.15725800  1
