# generated using pymatgen
data_Cu5Ni7C6
_symmetry_space_group_name_H-M   'P 1'
_cell_length_a   5.55069700
_cell_length_b   5.58061997
_cell_length_c   7.35333912
_cell_angle_alpha   73.82823197
_cell_angle_beta   72.68221872
_cell_angle_gamma   71.24878022
_symmetry_Int_Tables_number   1
_chemical_formula_structural   Cu5Ni7C6
_chemical_formula_sum   'Cu5 Ni7 C6'
_cell_volume   201.65696949
_cell_formula_units_Z   1
loop_
 _symmetry_equiv_pos_site_id
 _symmetry_equiv_pos_as_xyz
  1  'x, y, z'
loop_
 _atom_site_type_symbol
 _atom_site_label
 _atom_site_symmetry_multiplicity
 _atom_site_fract_x
 _atom_site_fract_y
 _atom_site_fract_z
 _atom_site_occupancy
  C  C0  1  0.30209800  0.32084200  0.16186700  1
  C  C1  1  0.65306200  0.67410800  0.32402300  1
  C  C2  1  0.37038800  0.33745400  0.68231200  1
  C  C3  1  0.64581300  0.69170800  0.83582700  1
  C  C4  1  0.00231800  0.02359500  0.49615800  1
  C  C5  1  0.00946500  0.97074300  0.00294300  1
  Ni  Ni6  1  0.34718800  0.98165600  0.32947700  1
  Ni  Ni7  1  0.76509700  0.76372800  0.03714700  1
  Ni  Ni8  1  0.22637900  0.20874400  0.97173600  1
  Ni  Ni9  1  0.57351400  0.57824800  0.62402300  1
  Ni  Ni10  1  0.66317900  0.04706200  0.66401200  1
  Ni  Ni11  1  0.96162600  0.37403600  0.32312000  1
  Ni  Ni12  1  0.30058100  0.66709400  0.00505900  1
  Cu  Cu13  1  0.04854500  0.63899000  0.66886200  1
  Cu  Cu14  1  0.12968400  0.11700600  0.69316700  1
  Cu  Cu15  1  0.41765300  0.42577300  0.36304800  1
  Cu  Cu16  1  0.89286900  0.89973300  0.30853300  1
  Cu  Cu17  1  0.69053800  0.27947600  0.00868600  1
