# generated using pymatgen
data_Cu2NiC8
_symmetry_space_group_name_H-M   'P 1'
_cell_length_a   18.68800828
_cell_length_b   18.68800828
_cell_length_c   6.20651600
_cell_angle_alpha   90.00000000
_cell_angle_beta   90.00000000
_cell_angle_gamma   120.00000100
_symmetry_Int_Tables_number   1
_chemical_formula_structural   Cu2NiC8
_chemical_formula_sum   'Cu18 Ni9 C72'
_cell_volume   1877.17405232
_cell_formula_units_Z   9
loop_
 _symmetry_equiv_pos_site_id
 _symmetry_equiv_pos_as_xyz
  1  'x, y, z'
loop_
 _atom_site_type_symbol
 _atom_site_label
 _atom_site_symmetry_multiplicity
 _atom_site_fract_x
 _atom_site_fract_y
 _atom_site_fract_z
 _atom_site_occupancy
  Ni  Ni0  1  0.00000000  0.00000000  0.00000000  1
  Ni  Ni1  1  0.00163600  0.64824000  0.50000000  1
  Ni  Ni2  1  0.31457600  0.99676400  0.50000000  1
  Ni  Ni3  1  0.35176000  0.35339500  0.50000000  1
  Ni  Ni4  1  0.33333300  0.66666700  0.00000000  1
  Ni  Ni5  1  0.00323600  0.31781200  0.50000000  1
  Ni  Ni6  1  0.68218800  0.68542400  0.50000000  1
  Ni  Ni7  1  0.64660500  0.99836400  0.50000000  1
  Ni  Ni8  1  0.66666700  0.33333300  0.00000000  1
  Cu  Cu9  1  0.10658200  0.25457800  0.00000000  1
  Cu  Cu10  1  0.18830000  0.67711200  0.50000000  1
  Cu  Cu11  1  0.14799500  0.89341800  0.00000000  1
  Cu  Cu12  1  0.75830000  0.59070300  0.00000000  1
  Cu  Cu13  1  0.40929700  0.16759800  0.00000000  1
  Cu  Cu14  1  0.48881100  0.81170000  0.50000000  1
  Cu  Cu15  1  0.51147300  0.59779500  0.00000000  1
  Cu  Cu16  1  0.88560600  0.05848700  0.50000000  1
  Cu  Cu17  1  0.74542200  0.85200500  0.00000000  1
  Cu  Cu18  1  0.53527700  0.36341400  0.50000000  1
  Cu  Cu19  1  0.83240200  0.24170000  0.00000000  1
  Cu  Cu20  1  0.63658600  0.17186300  0.50000000  1
  Cu  Cu21  1  0.94151300  0.82711900  0.50000000  1
  Cu  Cu22  1  0.40220500  0.91367800  0.00000000  1
  Cu  Cu23  1  0.08632200  0.48852700  0.00000000  1
  Cu  Cu24  1  0.17288100  0.11439400  0.50000000  1
  Cu  Cu25  1  0.32288800  0.51118900  0.50000000  1
  Cu  Cu26  1  0.82813700  0.46472300  0.50000000  1
  C  C27  1  0.64071100  0.22877400  0.26679500  1
  C  C28  1  0.24425700  0.67943300  0.26783900  1
  C  C29  1  0.71387700  0.13699700  0.50000000  1
  C  C30  1  0.10753000  0.08042500  0.27196600  1
  C  C31  1  0.58806300  0.35928900  0.73320500  1
  C  C32  1  0.89703400  0.27139400  0.75891600  1
  C  C33  1  0.21041100  0.91895500  0.75673900  1
  C  C34  1  0.91957500  0.02710500  0.72803400  1
  C  C35  1  0.45383400  0.65130100  0.00000000  1
  C  C36  1  0.72860600  0.62564000  0.75891600  1
  C  C37  1  0.37436000  0.10296600  0.24108400  1
  C  C38  1  0.21041100  0.91895500  0.24326100  1
  C  C39  1  0.08104500  0.29145600  0.75673900  1
  C  C40  1  0.24355400  0.22999200  0.50000000  1
  C  C41  1  0.37297200  0.94578200  0.24553400  1
  C  C42  1  0.71315900  0.92570200  0.00000000  1
  C  C43  1  0.77122600  0.41193700  0.26679500  1
  C  C44  1  0.52046700  0.44968700  0.50000000  1
  C  C45  1  0.92922000  0.47953300  0.50000000  1
  C  C46  1  0.51977700  0.22355400  0.00000000  1
  C  C47  1  0.77644600  0.29622300  0.00000000  1
  C  C48  1  0.19746700  0.54616600  0.00000000  1
  C  C49  1  0.60213300  0.85813900  0.50000000  1
  C  C50  1  0.41292500  0.49978900  0.50000000  1
  C  C51  1  0.21254300  0.28684100  0.00000000  1
  C  C52  1  0.93424200  0.16710800  0.50000000  1
  C  C53  1  0.04335300  0.14390600  0.00000000  1
  C  C54  1  0.57281000  0.62702800  0.75446600  1
  C  C55  1  0.07429800  0.78745700  0.00000000  1
  C  C56  1  0.32056700  0.56482400  0.73216100  1
  C  C57  1  0.70377700  0.48022300  0.00000000  1
  C  C58  1  0.44352400  0.49022900  0.00000000  1
  C  C59  1  0.85609400  0.89944600  0.00000000  1
  C  C60  1  0.08104500  0.29145600  0.24326100  1
  C  C61  1  0.91957500  0.02710500  0.27196600  1
  C  C62  1  0.37436000  0.10296600  0.75891600  1
  C  C63  1  0.86511500  0.62672600  0.00000000  1
  C  C64  1  0.25600600  0.39786700  0.50000000  1
  C  C65  1  0.98643800  0.75644600  0.50000000  1
  C  C66  1  0.10753000  0.08042500  0.72803400  1
  C  C67  1  0.70854400  0.78958900  0.75673900  1
  C  C68  1  0.57281000  0.62702800  0.24553400  1
  C  C69  1  0.76161100  0.13488500  0.00000000  1
  C  C70  1  0.43517600  0.75574300  0.73216100  1
  C  C71  1  0.50977100  0.95329500  0.00000000  1
  C  C72  1  0.89703400  0.27139400  0.24108400  1
  C  C73  1  0.43517600  0.75574300  0.26783900  1
  C  C74  1  0.86300300  0.57688000  0.50000000  1
  C  C75  1  0.04670500  0.55647600  0.00000000  1
  C  C76  1  0.05421800  0.42719000  0.24553400  1
  C  C77  1  0.14186100  0.74399400  0.50000000  1
  C  C78  1  0.34869900  0.80253300  0.00000000  1
  C  C79  1  0.64071100  0.22877400  0.73320500  1
  C  C80  1  0.37297200  0.94578200  0.75446600  1
  C  C81  1  0.37327400  0.23838900  0.00000000  1
  C  C82  1  0.58806300  0.35928900  0.26679500  1
  C  C83  1  0.72860600  0.62564000  0.24108400  1
  C  C84  1  0.50021100  0.91313600  0.50000000  1
  C  C85  1  0.24425700  0.67943300  0.73216100  1
  C  C86  1  0.83289200  0.76713400  0.50000000  1
  C  C87  1  0.10055400  0.95664700  0.00000000  1
  C  C88  1  0.97289500  0.89247000  0.27196600  1
  C  C89  1  0.23286600  0.06575800  0.50000000  1
  C  C90  1  0.05421800  0.42719000  0.75446600  1
  C  C91  1  0.70854400  0.78958900  0.24326100  1
  C  C92  1  0.32056700  0.56482400  0.26783900  1
  C  C93  1  0.42312000  0.28612300  0.50000000  1
  C  C94  1  0.77000800  0.01356200  0.50000000  1
  C  C95  1  0.08686400  0.58707500  0.50000000  1
  C  C96  1  0.97289500  0.89247000  0.72803400  1
  C  C97  1  0.55031300  0.07078000  0.50000000  1
  C  C98  1  0.77122600  0.41193700  0.73320500  1
