# generated using pymatgen
data_CuNi5C32
_symmetry_space_group_name_H-M   'P 1'
_cell_length_a   10.25248400
_cell_length_b   15.44313000
_cell_length_c   17.59025300
_cell_angle_alpha   90.00000000
_cell_angle_beta   90.00000000
_cell_angle_gamma   90.00000000
_symmetry_Int_Tables_number   1
_chemical_formula_structural   CuNi5C32
_chemical_formula_sum   'Cu4 Ni20 C128'
_cell_volume   2785.07255410
_cell_formula_units_Z   4
loop_
 _symmetry_equiv_pos_site_id
 _symmetry_equiv_pos_as_xyz
  1  'x, y, z'
loop_
 _atom_site_type_symbol
 _atom_site_label
 _atom_site_symmetry_multiplicity
 _atom_site_fract_x
 _atom_site_fract_y
 _atom_site_fract_z
 _atom_site_occupancy
  Ni  Ni0  1  0.75017100  0.18624000  0.29007800  1
  Ni  Ni1  1  0.24982900  0.68624000  0.70992200  1
  Ni  Ni2  1  0.25017100  0.68624000  0.20992200  1
  Ni  Ni3  1  0.74982900  0.18624000  0.79007800  1
  Ni  Ni4  1  0.63598300  0.33037000  0.21919200  1
  Ni  Ni5  1  0.36401700  0.83037000  0.78080800  1
  Ni  Ni6  1  0.13598300  0.83037000  0.28080800  1
  Ni  Ni7  1  0.86401700  0.33037000  0.71919200  1
  Ni  Ni8  1  0.51693000  0.16762300  0.21103800  1
  Ni  Ni9  1  0.48307000  0.66762300  0.78896200  1
  Ni  Ni10  1  0.01693000  0.66762300  0.28896200  1
  Ni  Ni11  1  0.98307000  0.16762300  0.71103800  1
  Ni  Ni12  1  0.47586500  0.23512100  0.49194600  1
  Ni  Ni13  1  0.52413500  0.73512100  0.50805400  1
  Ni  Ni14  1  0.97586500  0.73512100  0.00805400  1
  Ni  Ni15  1  0.02413500  0.23512100  0.99194600  1
  Ni  Ni16  1  0.28899900  0.32332100  0.41097600  1
  Ni  Ni17  1  0.71100100  0.82332100  0.58902400  1
  Ni  Ni18  1  0.78899900  0.82332100  0.08902400  1
  Ni  Ni19  1  0.21100100  0.32332100  0.91097600  1
  Cu  Cu20  1  0.52040500  0.25881500  0.34873000  1
  Cu  Cu21  1  0.47959500  0.75881500  0.65127000  1
  Cu  Cu22  1  0.02040500  0.75881500  0.15127000  1
  Cu  Cu23  1  0.97959500  0.25881500  0.84873000  1
  C  C24  1  0.73078700  0.08986800  0.35706700  1
  C  C25  1  0.26921300  0.58986800  0.64293300  1
  C  C26  1  0.23078700  0.58986800  0.14293300  1
  C  C27  1  0.76921300  0.08986800  0.85706700  1
  C  C28  1  0.90355800  0.14083300  0.24488900  1
  C  C29  1  0.09644200  0.64083300  0.75511100  1
  C  C30  1  0.40355800  0.64083300  0.25511100  1
  C  C31  1  0.59644200  0.14083300  0.74488900  1
  C  C32  1  0.84362800  0.24935600  0.36553000  1
  C  C33  1  0.15637200  0.74935600  0.63447000  1
  C  C34  1  0.34362800  0.74935600  0.13447000  1
  C  C35  1  0.65637200  0.24935600  0.86553000  1
  C  C36  1  0.71336400  0.41195100  0.28701300  1
  C  C37  1  0.28663600  0.91195100  0.71298700  1
  C  C38  1  0.21336400  0.91195100  0.21298700  1
  C  C39  1  0.78663600  0.41195100  0.78701300  1
  C  C40  1  0.69966000  0.38508900  0.12962000  1
  C  C41  1  0.30034000  0.88508900  0.87038000  1
  C  C42  1  0.19966000  0.88508900  0.37038000  1
  C  C43  1  0.80034000  0.38508900  0.62962000  1
  C  C44  1  0.48139600  0.39649100  0.21036100  1
  C  C45  1  0.51860400  0.89649100  0.78963900  1
  C  C46  1  0.98139600  0.89649100  0.28963900  1
  C  C47  1  0.01860400  0.39649100  0.71036100  1
  C  C48  1  0.34544900  0.21160400  0.19781700  1
  C  C49  1  0.65455100  0.71160400  0.80218300  1
  C  C50  1  0.84544900  0.71160400  0.30218300  1
  C  C51  1  0.15455100  0.21160400  0.69781700  1
  C  C52  1  0.51069600  0.10287500  0.11896000  1
  C  C53  1  0.48930400  0.60287500  0.88104000  1
  C  C54  1  0.01069600  0.60287500  0.38104000  1
  C  C55  1  0.98930400  0.10287500  0.61896000  1
  C  C56  1  0.45555600  0.07382300  0.27067600  1
  C  C57  1  0.54444400  0.57382300  0.72932400  1
  C  C58  1  0.95555600  0.57382300  0.22932400  1
  C  C59  1  0.04444400  0.07382300  0.77067600  1
  C  C60  1  0.46341400  0.31217400  0.57342100  1
  C  C61  1  0.53658600  0.81217400  0.42657900  1
  C  C62  1  0.96341400  0.81217400  0.92657900  1
  C  C63  1  0.03658600  0.31217400  0.07342100  1
  C  C64  1  0.63071600  0.17768300  0.52921700  1
  C  C65  1  0.36928400  0.67768300  0.47078300  1
  C  C66  1  0.13071600  0.67768300  0.97078300  1
  C  C67  1  0.86928400  0.17768300  0.02921700  1
  C  C68  1  0.36270300  0.15686300  0.53777500  1
  C  C69  1  0.63729700  0.65686300  0.46222500  1
  C  C70  1  0.86270300  0.65686300  0.96222500  1
  C  C71  1  0.13729700  0.15686300  0.03777500  1
  C  C72  1  0.17859400  0.34368400  0.49537900  1
  C  C73  1  0.82140600  0.84368400  0.50462100  1
  C  C74  1  0.67859400  0.84368400  0.00462100  1
  C  C75  1  0.32140600  0.34368400  0.99537900  1
  C  C76  1  0.22179800  0.20701600  0.38956700  1
  C  C77  1  0.77820200  0.70701600  0.61043300  1
  C  C78  1  0.72179800  0.70701600  0.11043300  1
  C  C79  1  0.27820200  0.20701600  0.88956700  1
  C  C80  1  0.40236800  0.42412300  0.42656300  1
  C  C81  1  0.59763200  0.92412300  0.57343700  1
  C  C82  1  0.90236800  0.92412300  0.07343700  1
  C  C83  1  0.09763200  0.42412300  0.92656300  1
  C  C84  1  0.17515100  0.38147400  0.33827100  1
  C  C85  1  0.82484900  0.88147400  0.66172900  1
  C  C86  1  0.67515100  0.88147400  0.16172900  1
  C  C87  1  0.32484900  0.38147400  0.83827100  1
  C  C88  1  0.71513400  0.03569400  0.40211000  1
  C  C89  1  0.28486600  0.53569400  0.59789000  1
  C  C90  1  0.21513400  0.53569400  0.09789000  1
  C  C91  1  0.78486600  0.03569400  0.90211000  1
  C  C92  1  0.99796800  0.11394300  0.21646500  1
  C  C93  1  0.00203200  0.61394300  0.78353500  1
  C  C94  1  0.49796800  0.61394300  0.28353500  1
  C  C95  1  0.50203200  0.11394300  0.71646500  1
  C  C96  1  0.89474300  0.28621900  0.41513800  1
  C  C97  1  0.10525700  0.78621900  0.58486200  1
  C  C98  1  0.39474300  0.78621900  0.08486200  1
  C  C99  1  0.60525700  0.28621900  0.91513800  1
  C  C100  1  0.74967300  0.46073200  0.33273900  1
  C  C101  1  0.25032700  0.96073200  0.66726100  1
  C  C102  1  0.24967300  0.96073200  0.16726100  1
  C  C103  1  0.75032700  0.46073200  0.83273900  1
  C  C104  1  0.73776500  0.41788900  0.07432300  1
  C  C105  1  0.26223500  0.91788900  0.92567700  1
  C  C106  1  0.23776500  0.91788900  0.42567700  1
  C  C107  1  0.76223500  0.41788900  0.57432300  1
  C  C108  1  0.38632300  0.43795900  0.20961300  1
  C  C109  1  0.61367700  0.93795900  0.79038700  1
  C  C110  1  0.88632300  0.93795900  0.29038700  1
  C  C111  1  0.11367700  0.43795900  0.70961300  1
  C  C112  1  0.23846900  0.23739000  0.19694000  1
  C  C113  1  0.76153100  0.73739000  0.80306000  1
  C  C114  1  0.73846900  0.73739000  0.30306000  1
  C  C115  1  0.26153100  0.23739000  0.69694000  1
  C  C116  1  0.50931800  0.06210000  0.06332300  1
  C  C117  1  0.49068200  0.56210000  0.93667700  1
  C  C118  1  0.00931800  0.56210000  0.43667700  1
  C  C119  1  0.99068200  0.06210000  0.56332300  1
  C  C120  1  0.41221000  0.02267000  0.31205600  1
  C  C121  1  0.58779000  0.52267000  0.68794400  1
  C  C122  1  0.91221000  0.52267000  0.18794400  1
  C  C123  1  0.08779000  0.02267000  0.81205600  1
  C  C124  1  0.46290600  0.36701200  0.61848000  1
  C  C125  1  0.53709400  0.86701200  0.38152000  1
  C  C126  1  0.96290600  0.86701200  0.88152000  1
  C  C127  1  0.03709400  0.36701200  0.11848000  1
  C  C128  1  0.71707600  0.14490900  0.56059000  1
  C  C129  1  0.28292400  0.64490900  0.43941000  1
  C  C130  1  0.21707600  0.64490900  0.93941000  1
  C  C131  1  0.78292400  0.14490900  0.06059000  1
  C  C132  1  0.28846800  0.10394300  0.55616800  1
  C  C133  1  0.71153200  0.60394300  0.44383200  1
  C  C134  1  0.78846800  0.60394300  0.94383200  1
  C  C135  1  0.21153200  0.10394300  0.05616800  1
  C  C136  1  0.11603000  0.35241100  0.54990000  1
  C  C137  1  0.88397000  0.85241100  0.45010000  1
  C  C138  1  0.61603000  0.85241100  0.95010000  1
  C  C139  1  0.38397000  0.35241100  0.04990000  1
  C  C140  1  0.17407500  0.14005200  0.37880100  1
  C  C141  1  0.82592500  0.64005200  0.62119900  1
  C  C142  1  0.67407500  0.64005200  0.12119900  1
  C  C143  1  0.32592500  0.14005200  0.87880100  1
  C  C144  1  0.46245300  0.48668100  0.43707900  1
  C  C145  1  0.53754700  0.98668100  0.56292100  1
  C  C146  1  0.96245300  0.98668100  0.06292100  1
  C  C147  1  0.03754700  0.48668100  0.93707900  1
  C  C148  1  0.10098400  0.41750200  0.29990000  1
  C  C149  1  0.89901600  0.91750200  0.70010000  1
  C  C150  1  0.60098400  0.91750200  0.20010000  1
  C  C151  1  0.39901600  0.41750200  0.79990000  1
