# generated using pymatgen
data_CuNiC15
_symmetry_space_group_name_H-M   'P 1'
_cell_length_a   5.23822100
_cell_length_b   7.34975582
_cell_length_c   14.44064466
_cell_angle_alpha   91.90748453
_cell_angle_beta   92.85417245
_cell_angle_gamma   103.75023057
_symmetry_Int_Tables_number   1
_chemical_formula_structural   CuNiC15
_chemical_formula_sum   'Cu3 Ni3 C45'
_cell_volume   538.77292536
_cell_formula_units_Z   3
loop_
 _symmetry_equiv_pos_site_id
 _symmetry_equiv_pos_as_xyz
  1  'x, y, z'
loop_
 _atom_site_type_symbol
 _atom_site_label
 _atom_site_symmetry_multiplicity
 _atom_site_fract_x
 _atom_site_fract_y
 _atom_site_fract_z
 _atom_site_occupancy
  C  C0  1  0.25919100  0.03533600  0.18552900  1
  C  C1  1  0.40668000  0.63064900  0.48040600  1
  C  C2  1  0.74172400  0.96279600  0.81401500  1
  Ni  Ni3  1  0.99975400  0.99971500  0.99974100  1
  Ni  Ni4  1  0.33302300  0.33301700  0.33293200  1
  Ni  Ni5  1  0.66414800  0.66331200  0.66659700  1
  Cu  Cu6  1  0.66477400  0.65998600  0.16604900  1
  Cu  Cu7  1  0.00223100  0.00559400  0.49998600  1
  Cu  Cu8  1  0.33533900  0.33855600  0.83321800  1
  C  C9  1  0.59511800  0.26543400  0.04145100  1
  C  C10  1  0.74105900  0.05888800  0.29105900  1
  C  C11  1  0.92507200  0.60651900  0.37517400  1
  C  C12  1  0.07092200  0.39928900  0.62447700  1
  C  C13  1  0.25923700  0.93972300  0.70808700  1
  C  C14  1  0.40411600  0.73315900  0.95817600  1
  C  C15  1  0.10238500  0.74702300  0.09472700  1
  C  C16  1  0.21483800  0.56447900  0.23105900  1
  C  C17  1  0.45152700  0.10243500  0.43588700  1
  C  C18  1  0.56250000  0.91647800  0.57206300  1
  C  C19  1  0.78386600  0.43268600  0.76883100  1
  C  C20  1  0.89686200  0.25224500  0.90500000  1
  C  C21  1  0.77108600  0.12892700  0.05898200  1
  C  C22  1  0.32144100  0.18484700  0.07405100  1
  C  C23  1  0.40563300  0.68845400  0.06351600  1
  C  C24  1  0.72593100  0.45227500  0.09974800  1
  C  C25  1  0.02009200  0.12880300  0.26213700  1
  C  C26  1  0.97713200  0.82530700  0.10886000  1
  C  C27  1  0.56920700  0.20009600  0.27288900  1
  C  C28  1  0.36769700  0.50661600  0.22945200  1
  C  C29  1  0.73532100  0.01620400  0.39712600  1
  C  C30  1  0.59332600  0.88011700  0.23054100  1
  C  C31  1  0.93051400  0.64915200  0.26946700  1
  C  C32  1  0.29763200  0.15922800  0.43673900  1
  C  C33  1  0.09719100  0.46567000  0.39346900  1
  C  C34  1  0.64609900  0.53657000  0.40447800  1
  C  C35  1  0.07285200  0.78559600  0.43602800  1
  C  C36  1  0.93709400  0.21201800  0.56680000  1
  C  C37  1  0.34346200  0.47889200  0.59079700  1
  C  C38  1  0.89979000  0.53911400  0.60825700  1
  C  C39  1  0.68744600  0.83742100  0.55814800  1
  C  C40  1  0.07471700  0.35350300  0.72966000  1
  C  C41  1  0.40504200  0.11762600  0.76943900  1
  C  C42  1  0.26799200  0.98194600  0.60225800  1
  C  C43  1  0.63024500  0.48936600  0.77042100  1
  C  C44  1  0.43325400  0.79949100  0.72697200  1
  C  C45  1  0.02141900  0.17369200  0.89055900  1
  C  C46  1  0.97856900  0.87028900  0.73594800  1
  C  C47  1  0.27366600  0.54650500  0.90005500  1
  C  C48  1  0.59365800  0.31044300  0.93630500  1
  C  C49  1  0.67824700  0.81417200  0.92581900  1
  C  C50  1  0.22853800  0.87004300  0.94084700  1
