# generated using pymatgen
data_Cu8Ni4C5
_symmetry_space_group_name_H-M   'P 1'
_cell_length_a   9.55171979
_cell_length_b   8.59580677
_cell_length_c   5.65848270
_cell_angle_alpha   81.32588750
_cell_angle_beta   62.82669191
_cell_angle_gamma   35.84742059
_symmetry_Int_Tables_number   1
_chemical_formula_structural   Cu8Ni4C5
_chemical_formula_sum   'Cu8 Ni4 C5'
_cell_volume   219.54560819
_cell_formula_units_Z   1
loop_
 _symmetry_equiv_pos_site_id
 _symmetry_equiv_pos_as_xyz
  1  'x, y, z'
loop_
 _atom_site_type_symbol
 _atom_site_label
 _atom_site_symmetry_multiplicity
 _atom_site_fract_x
 _atom_site_fract_y
 _atom_site_fract_z
 _atom_site_occupancy
  C  C0  1  0.75000000  0.75000000  0.75000000  1
  C  C1  1  0.08743800  0.08743800  0.41256200  1
  C  C2  1  0.65905400  0.65905400  0.34094600  1
  C  C3  1  0.41256200  0.41256200  0.08743800  1
  C  C4  1  0.34094600  0.34094600  0.65905400  1
  Ni  Ni5  1  0.54087700  0.11989700  0.85814500  1
  Ni  Ni6  1  0.48108100  0.85814500  0.11989700  1
  Ni  Ni7  1  0.85814500  0.48108100  0.54087700  1
  Ni  Ni8  1  0.11989700  0.54087700  0.48108100  1
  Cu  Cu9  1  0.24913400  0.75086600  0.24913400  1
  Cu  Cu10  1  0.89563900  0.27233900  0.20223800  1
  Cu  Cu11  1  0.52330000  0.97670000  0.52330000  1
  Cu  Cu12  1  0.27233900  0.89563900  0.62978400  1
  Cu  Cu13  1  0.75086600  0.24913400  0.75086600  1
  Cu  Cu14  1  0.62978400  0.20223800  0.27233900  1
  Cu  Cu15  1  0.20223800  0.62978400  0.89563900  1
  Cu  Cu16  1  0.97670000  0.52330000  0.97670000  1
