# generated using pymatgen
data_CuNi3C26
_symmetry_space_group_name_H-M   'P 1'
_cell_length_a   9.07202100
_cell_length_b   9.38601300
_cell_length_c   13.11044900
_cell_angle_alpha   90.00000000
_cell_angle_beta   90.00000000
_cell_angle_gamma   90.00000000
_symmetry_Int_Tables_number   1
_chemical_formula_structural   CuNi3C26
_chemical_formula_sum   'Cu4 Ni12 C104'
_cell_volume   1116.35613572
_cell_formula_units_Z   4
loop_
 _symmetry_equiv_pos_site_id
 _symmetry_equiv_pos_as_xyz
  1  'x, y, z'
loop_
 _atom_site_type_symbol
 _atom_site_label
 _atom_site_symmetry_multiplicity
 _atom_site_fract_x
 _atom_site_fract_y
 _atom_site_fract_z
 _atom_site_occupancy
  C  C0  1  0.00000000  0.50000000  0.00000000  1
  C  C1  1  0.50000000  0.50000000  0.00000000  1
  C  C2  1  0.00000000  0.00000000  0.50000000  1
  C  C3  1  0.50000000  0.00000000  0.50000000  1
  C  C4  1  0.85991900  0.03767500  0.03106000  1
  C  C5  1  0.35991900  0.96232500  0.03106000  1
  C  C6  1  0.45922100  0.81152700  0.05970600  1
  C  C7  1  0.95922100  0.18847300  0.05970600  1
  C  C8  1  0.48202600  0.20997800  0.14957800  1
  C  C9  1  0.98202600  0.79002200  0.14957800  1
  C  C10  1  0.27317600  0.51845600  0.16391400  1
  C  C11  1  0.77317600  0.48154400  0.16391400  1
  C  C12  1  0.64912500  0.17361800  0.20920000  1
  C  C13  1  0.14912500  0.82638200  0.20920000  1
  C  C14  1  0.26803200  0.10093500  0.21572100  1
  C  C15  1  0.76803200  0.89906500  0.21572100  1
  C  C16  1  0.26803200  0.60093500  0.28427900  1
  C  C17  1  0.76803200  0.39906500  0.28427900  1
  C  C18  1  0.14912500  0.32638200  0.29080000  1
  C  C19  1  0.64912500  0.67361800  0.29080000  1
  C  C20  1  0.27317600  0.01845600  0.33608600  1
  C  C21  1  0.77317600  0.98154400  0.33608600  1
  C  C22  1  0.48202600  0.70997800  0.35042200  1
  C  C23  1  0.98202600  0.29002200  0.35042200  1
  C  C24  1  0.45922100  0.31152700  0.44029400  1
  C  C25  1  0.95922100  0.68847300  0.44029400  1
  C  C26  1  0.35991900  0.46232500  0.46894000  1
  C  C27  1  0.85991900  0.53767500  0.46894000  1
  C  C28  1  0.14008100  0.46232500  0.53106000  1
  C  C29  1  0.64008100  0.53767500  0.53106000  1
  C  C30  1  0.04077900  0.31152700  0.55970600  1
  C  C31  1  0.54077900  0.68847300  0.55970600  1
  C  C32  1  0.51797400  0.29002200  0.64957800  1
  C  C33  1  0.01797400  0.70997800  0.64957800  1
  C  C34  1  0.22682400  0.01845600  0.66391400  1
  C  C35  1  0.72682400  0.98154400  0.66391400  1
  C  C36  1  0.35087500  0.32638200  0.70920000  1
  C  C37  1  0.85087500  0.67361800  0.70920000  1
  C  C38  1  0.73196800  0.39906500  0.71572100  1
  C  C39  1  0.23196800  0.60093500  0.71572100  1
  C  C40  1  0.23196800  0.10093500  0.78427900  1
  C  C41  1  0.73196800  0.89906500  0.78427900  1
  C  C42  1  0.85087500  0.17361800  0.79080000  1
  C  C43  1  0.35087500  0.82638200  0.79080000  1
  C  C44  1  0.72682400  0.48154400  0.83608600  1
  C  C45  1  0.22682400  0.51845600  0.83608600  1
  C  C46  1  0.01797400  0.20997800  0.85042200  1
  C  C47  1  0.51797400  0.79002200  0.85042200  1
  C  C48  1  0.54077900  0.18847300  0.94029400  1
  C  C49  1  0.04077900  0.81152700  0.94029400  1
  C  C50  1  0.64008100  0.03767500  0.96894000  1
  C  C51  1  0.14008100  0.96232500  0.96894000  1
  Ni  Ni52  1  0.75000000  0.22216900  0.00000000  1
  Ni  Ni53  1  0.25000000  0.77783100  0.00000000  1
  Ni  Ni54  1  0.97145600  0.40780700  0.21569000  1
  Ni  Ni55  1  0.47145600  0.59219300  0.21569000  1
  Ni  Ni56  1  0.47145600  0.09219300  0.28431000  1
  Ni  Ni57  1  0.97145600  0.90780700  0.28431000  1
  Ni  Ni58  1  0.75000000  0.72216900  0.50000000  1
  Ni  Ni59  1  0.25000000  0.27783100  0.50000000  1
  Ni  Ni60  1  0.02854400  0.09219300  0.71569000  1
  Ni  Ni61  1  0.52854400  0.90780700  0.71569000  1
  Ni  Ni62  1  0.52854400  0.40780700  0.78431000  1
  Ni  Ni63  1  0.02854400  0.59219300  0.78431000  1
  Cu  Cu64  1  0.25000000  0.25083400  0.00000000  1
  Cu  Cu65  1  0.75000000  0.74916600  0.00000000  1
  Cu  Cu66  1  0.75000000  0.24916600  0.50000000  1
  Cu  Cu67  1  0.25000000  0.75083400  0.50000000  1
  C  C68  1  0.85908400  0.14429700  0.04460700  1
  C  C69  1  0.35908400  0.85570300  0.04460700  1
  C  C70  1  0.53854900  0.16071900  0.20687600  1
  C  C71  1  0.03854900  0.83928100  0.20687600  1
  C  C72  1  0.32575000  0.57124500  0.22094800  1
  C  C73  1  0.82575000  0.42875500  0.22094800  1
  C  C74  1  0.32575000  0.07124500  0.27905200  1
  C  C75  1  0.82575000  0.92875500  0.27905200  1
  C  C76  1  0.03854900  0.33928100  0.29312400  1
  C  C77  1  0.53854900  0.66071900  0.29312400  1
  C  C78  1  0.35908400  0.35570300  0.45539300  1
  C  C79  1  0.85908400  0.64429700  0.45539300  1
  C  C80  1  0.14091600  0.35570300  0.54460700  1
  C  C81  1  0.64091600  0.64429700  0.54460700  1
  C  C82  1  0.46145100  0.33928100  0.70687600  1
  C  C83  1  0.96145100  0.66071900  0.70687600  1
  C  C84  1  0.17425000  0.07124500  0.72094800  1
  C  C85  1  0.67425000  0.92875500  0.72094800  1
  C  C86  1  0.67425000  0.42875500  0.77905200  1
  C  C87  1  0.17425000  0.57124500  0.77905200  1
  C  C88  1  0.96145100  0.16071900  0.79312400  1
  C  C89  1  0.46145100  0.83928100  0.79312400  1
  C  C90  1  0.64091600  0.14429700  0.95539300  1
  C  C91  1  0.14091600  0.85570300  0.95539300  1
  C  C92  1  0.25000000  0.64318800  0.00000000  1
  C  C93  1  0.75000000  0.35681200  0.00000000  1
  C  C94  1  0.36637200  0.34242800  0.05071100  1
  C  C95  1  0.86637200  0.65757200  0.05071100  1
  C  C96  1  0.18337200  0.16133500  0.08048400  1
  C  C97  1  0.68337200  0.83866500  0.08048400  1
  C  C98  1  0.55050700  0.54853400  0.14060400  1
  C  C99  1  0.05050700  0.45146600  0.14060400  1
  C  C100  1  0.55050700  0.04853400  0.35939600  1
  C  C101  1  0.05050700  0.95146600  0.35939600  1
  C  C102  1  0.68337200  0.33866500  0.41951600  1
  C  C103  1  0.18337200  0.66133500  0.41951600  1
  C  C104  1  0.86637200  0.15757200  0.44928900  1
  C  C105  1  0.36637200  0.84242800  0.44928900  1
  C  C106  1  0.75000000  0.85681200  0.50000000  1
  C  C107  1  0.25000000  0.14318800  0.50000000  1
  C  C108  1  0.63362800  0.15757200  0.55071100  1
  C  C109  1  0.13362800  0.84242800  0.55071100  1
  C  C110  1  0.81662800  0.33866500  0.58048400  1
  C  C111  1  0.31662800  0.66133500  0.58048400  1
  C  C112  1  0.94949300  0.04853400  0.64060400  1
  C  C113  1  0.44949300  0.95146600  0.64060400  1
  C  C114  1  0.44949300  0.45146600  0.85939600  1
  C  C115  1  0.94949300  0.54853400  0.85939600  1
  C  C116  1  0.31662800  0.16133500  0.91951600  1
  C  C117  1  0.81662800  0.83866500  0.91951600  1
  C  C118  1  0.13362800  0.34242800  0.94928900  1
  C  C119  1  0.63362800  0.65757200  0.94928900  1
