# generated using pymatgen
data_CuNiC
_symmetry_space_group_name_H-M   'P 1'
_cell_length_a   3.09531300
_cell_length_b   6.69172000
_cell_length_c   6.69499000
_cell_angle_alpha   90.00000000
_cell_angle_beta   90.00000000
_cell_angle_gamma   90.00000000
_symmetry_Int_Tables_number   1
_chemical_formula_structural   CuNiC
_chemical_formula_sum   'Cu4 Ni4 C4'
_cell_volume   138.67311302
_cell_formula_units_Z   4
loop_
 _symmetry_equiv_pos_site_id
 _symmetry_equiv_pos_as_xyz
  1  'x, y, z'
loop_
 _atom_site_type_symbol
 _atom_site_label
 _atom_site_symmetry_multiplicity
 _atom_site_fract_x
 _atom_site_fract_y
 _atom_site_fract_z
 _atom_site_occupancy
  C  C0  1  0.00000000  0.98329600  0.72820100  1
  C  C1  1  0.00000000  0.48329600  0.27179900  1
  C  C2  1  0.50000000  0.52231800  0.73610400  1
  C  C3  1  0.50000000  0.02231800  0.26389600  1
  Ni  Ni4  1  0.50000000  0.49939300  0.44572600  1
  Ni  Ni5  1  0.00000000  0.69380500  0.75922400  1
  Ni  Ni6  1  0.00000000  0.19380500  0.24077600  1
  Ni  Ni7  1  0.50000000  0.99939300  0.55427400  1
  Cu  Cu8  1  0.50000000  0.99913400  0.94548900  1
  Cu  Cu9  1  0.00000000  0.30205500  0.75885800  1
  Cu  Cu10  1  0.00000000  0.80205500  0.24114200  1
  Cu  Cu11  1  0.50000000  0.49913400  0.05451100  1
