# generated using pymatgen
data_Cu2NiC13
_symmetry_space_group_name_H-M   'P 1'
_cell_length_a   9.81325100
_cell_length_b   9.84877800
_cell_length_c   14.22353800
_cell_angle_alpha   90.00000000
_cell_angle_beta   90.00000000
_cell_angle_gamma   90.00000000
_symmetry_Int_Tables_number   1
_chemical_formula_structural   Cu2NiC13
_chemical_formula_sum   'Cu16 Ni8 C104'
_cell_volume   1374.68404703
_cell_formula_units_Z   8
loop_
 _symmetry_equiv_pos_site_id
 _symmetry_equiv_pos_as_xyz
  1  'x, y, z'
loop_
 _atom_site_type_symbol
 _atom_site_label
 _atom_site_symmetry_multiplicity
 _atom_site_fract_x
 _atom_site_fract_y
 _atom_site_fract_z
 _atom_site_occupancy
  C  C0  1  0.72370600  0.02461800  0.50698500  1
  C  C1  1  0.72370600  0.02461800  0.99301500  1
  C  C2  1  0.52233500  0.00482400  0.10946000  1
  C  C3  1  0.52233500  0.00482400  0.39054000  1
  C  C4  1  0.98087800  0.25746900  0.75000000  1
  C  C5  1  0.55918100  0.18921900  0.75000000  1
  C  C6  1  0.25150200  0.21790100  0.63508400  1
  C  C7  1  0.25150200  0.21790100  0.86491600  1
  C  C8  1  0.74707100  0.22882500  0.62007400  1
  C  C9  1  0.74707100  0.22882500  0.87992600  1
  C  C10  1  0.24707100  0.27117500  0.12007400  1
  C  C11  1  0.24707100  0.27117500  0.37992600  1
  C  C12  1  0.75150200  0.28209900  0.36491600  1
  C  C13  1  0.75150200  0.28209900  0.13508400  1
  C  C14  1  0.05918100  0.31078100  0.25000000  1
  C  C15  1  0.48087800  0.24253100  0.25000000  1
  C  C16  1  0.02233500  0.49517600  0.60946000  1
  C  C17  1  0.02233500  0.49517600  0.89054000  1
  C  C18  1  0.22370600  0.47538200  0.00698500  1
  C  C19  1  0.22370600  0.47538200  0.49301500  1
  C  C20  1  0.77629400  0.52461800  0.50698500  1
  C  C21  1  0.77629400  0.52461800  0.99301500  1
  C  C22  1  0.97766500  0.50482400  0.10946000  1
  C  C23  1  0.97766500  0.50482400  0.39054000  1
  C  C24  1  0.51912200  0.75746900  0.75000000  1
  C  C25  1  0.94081900  0.68921900  0.75000000  1
  C  C26  1  0.24849800  0.71790100  0.63508400  1
  C  C27  1  0.24849800  0.71790100  0.86491600  1
  C  C28  1  0.75292900  0.72882500  0.87992600  1
  C  C29  1  0.75292900  0.72882500  0.62007400  1
  C  C30  1  0.25292900  0.77117500  0.12007400  1
  C  C31  1  0.25292900  0.77117500  0.37992600  1
  C  C32  1  0.74849800  0.78209900  0.13508400  1
  C  C33  1  0.74849800  0.78209900  0.36491600  1
  C  C34  1  0.44081900  0.81078100  0.25000000  1
  C  C35  1  0.01912200  0.74253100  0.25000000  1
  C  C36  1  0.47766500  0.99517600  0.89054000  1
  C  C37  1  0.47766500  0.99517600  0.60946000  1
  C  C38  1  0.27629400  0.97538200  0.00698500  1
  C  C39  1  0.27629400  0.97538200  0.49301500  1
  Ni  Ni40  1  0.00728800  0.00659200  0.13058800  1
  Ni  Ni41  1  0.00728800  0.00659200  0.36941200  1
  Ni  Ni42  1  0.50728800  0.49340800  0.63058800  1
  Ni  Ni43  1  0.50728800  0.49340800  0.86941200  1
  Ni  Ni44  1  0.49271200  0.50659200  0.13058800  1
  Ni  Ni45  1  0.49271200  0.50659200  0.36941200  1
  Ni  Ni46  1  0.99271200  0.99340800  0.63058800  1
  Ni  Ni47  1  0.99271200  0.99340800  0.86941200  1
  Cu  Cu48  1  0.72335500  0.01642800  0.25000000  1
  Cu  Cu49  1  0.27533300  0.02176900  0.25000000  1
  Cu  Cu50  1  0.99782900  0.25918000  0.00581400  1
  Cu  Cu51  1  0.99782900  0.25918000  0.49418600  1
  Cu  Cu52  1  0.49782900  0.24082000  0.50581400  1
  Cu  Cu53  1  0.49782900  0.24082000  0.99418600  1
  Cu  Cu54  1  0.77533300  0.47823100  0.75000000  1
  Cu  Cu55  1  0.22335500  0.48357200  0.75000000  1
  Cu  Cu56  1  0.77664500  0.51642800  0.25000000  1
  Cu  Cu57  1  0.22466700  0.52176900  0.25000000  1
  Cu  Cu58  1  0.50217100  0.75918000  0.00581400  1
  Cu  Cu59  1  0.50217100  0.75918000  0.49418600  1
  Cu  Cu60  1  0.00217100  0.74082000  0.99418600  1
  Cu  Cu61  1  0.00217100  0.74082000  0.50581400  1
  Cu  Cu62  1  0.72466700  0.97823100  0.75000000  1
  Cu  Cu63  1  0.27664500  0.98357200  0.75000000  1
  C  C64  1  0.10246600  0.97702100  0.25000000  1
  C  C65  1  0.17662600  0.01193400  0.65547500  1
  C  C66  1  0.17662600  0.01193400  0.84452500  1
  C  C67  1  0.66534500  0.04690400  0.84606900  1
  C  C68  1  0.66534500  0.04690400  0.65393100  1
  C  C69  1  0.38703800  0.10641600  0.75000000  1
  C  C70  1  0.91904100  0.13223900  0.55325400  1
  C  C71  1  0.91904100  0.13223900  0.94674600  1
  C  C72  1  0.38144400  0.13060700  0.53134600  1
  C  C73  1  0.38144400  0.13060700  0.96865400  1
  C  C74  1  0.66091900  0.16790900  0.25000000  1
  C  C75  1  0.62410000  0.17583700  0.05073800  1
  C  C76  1  0.62410000  0.17583700  0.44926200  1
  C  C77  1  0.29138500  0.18737700  0.25000000  1
  C  C78  1  0.05951300  0.18512900  0.10374200  1
  C  C79  1  0.05951300  0.18512900  0.39625800  1
  C  C80  1  0.55951300  0.31487100  0.60374200  1
  C  C81  1  0.55951300  0.31487100  0.89625800  1
  C  C82  1  0.79138500  0.31262300  0.75000000  1
  C  C83  1  0.12410000  0.32416300  0.55073800  1
  C  C84  1  0.12410000  0.32416300  0.94926200  1
  C  C85  1  0.16091900  0.33209100  0.75000000  1
  C  C86  1  0.88144400  0.36939300  0.03134600  1
  C  C87  1  0.88144400  0.36939300  0.46865400  1
  C  C88  1  0.41904100  0.36776100  0.05325400  1
  C  C89  1  0.41904100  0.36776100  0.44674600  1
  C  C90  1  0.88703800  0.39358400  0.25000000  1
  C  C91  1  0.16534500  0.45309600  0.34606900  1
  C  C92  1  0.16534500  0.45309600  0.15393100  1
  C  C93  1  0.67662600  0.48806600  0.34452500  1
  C  C94  1  0.67662600  0.48806600  0.15547500  1
  C  C95  1  0.60246600  0.52297900  0.75000000  1
  C  C96  1  0.39753400  0.47702100  0.25000000  1
  C  C97  1  0.32337400  0.51193400  0.65547500  1
  C  C98  1  0.32337400  0.51193400  0.84452500  1
  C  C99  1  0.83465500  0.54690400  0.65393100  1
  C  C100  1  0.83465500  0.54690400  0.84606900  1
  C  C101  1  0.11296200  0.60641600  0.75000000  1
  C  C102  1  0.58095900  0.63223900  0.94674600  1
  C  C103  1  0.58095900  0.63223900  0.55325400  1
  C  C104  1  0.11855600  0.63060700  0.96865400  1
  C  C105  1  0.11855600  0.63060700  0.53134600  1
  C  C106  1  0.83908100  0.66790900  0.25000000  1
  C  C107  1  0.87590000  0.67583700  0.05073800  1
  C  C108  1  0.87590000  0.67583700  0.44926200  1
  C  C109  1  0.20861500  0.68737700  0.25000000  1
  C  C110  1  0.44048700  0.68512900  0.10374200  1
  C  C111  1  0.44048700  0.68512900  0.39625800  1
  C  C112  1  0.94048700  0.81487100  0.89625800  1
  C  C113  1  0.94048700  0.81487100  0.60374200  1
  C  C114  1  0.70861500  0.81262300  0.75000000  1
  C  C115  1  0.37590000  0.82416300  0.55073800  1
  C  C116  1  0.37590000  0.82416300  0.94926200  1
  C  C117  1  0.33908100  0.83209100  0.75000000  1
  C  C118  1  0.61855600  0.86939300  0.03134600  1
  C  C119  1  0.61855600  0.86939300  0.46865400  1
  C  C120  1  0.08095900  0.86776100  0.05325400  1
  C  C121  1  0.08095900  0.86776100  0.44674600  1
  C  C122  1  0.61296200  0.89358400  0.25000000  1
  C  C123  1  0.33465500  0.95309600  0.15393100  1
  C  C124  1  0.33465500  0.95309600  0.34606900  1
  C  C125  1  0.82337400  0.98806600  0.15547500  1
  C  C126  1  0.82337400  0.98806600  0.34452500  1
  C  C127  1  0.89753400  0.02297900  0.75000000  1
