# generated using pymatgen
data_Cu3(Ni6C5)4
_symmetry_space_group_name_H-M   'P 1'
_cell_length_a   6.61473700
_cell_length_b   13.57341228
_cell_length_c   13.58250171
_cell_angle_alpha   119.89732873
_cell_angle_beta   91.25600114
_cell_angle_gamma   90.13958181
_symmetry_Int_Tables_number   1
_chemical_formula_structural   Cu3(Ni6C5)4
_chemical_formula_sum   'Cu6 Ni48 C40'
_cell_volume   1056.82829445
_cell_formula_units_Z   2
loop_
 _symmetry_equiv_pos_site_id
 _symmetry_equiv_pos_as_xyz
  1  'x, y, z'
loop_
 _atom_site_type_symbol
 _atom_site_label
 _atom_site_symmetry_multiplicity
 _atom_site_fract_x
 _atom_site_fract_y
 _atom_site_fract_z
 _atom_site_occupancy
  C  C0  1  0.25795000  0.92180900  0.73930900  1
  C  C1  1  0.75120400  0.73951600  0.81758700  1
  C  C2  1  0.75789700  0.87392000  0.49449700  1
  C  C3  1  0.25728400  0.37848700  0.87380700  1
  C  C4  1  0.75848000  0.18130300  0.92056200  1
  C  C5  1  0.25708800  0.49404200  0.61946300  1
  C  C6  1  0.44229300  0.33339400  0.66755700  1
  C  C7  1  0.94199600  0.66636200  0.33395100  1
  C  C8  1  0.75530200  0.50617800  0.37966900  1
  C  C9  1  0.24466700  0.81809100  0.07876200  1
  C  C10  1  0.75579600  0.61947900  0.12515000  1
  C  C11  1  0.25491900  0.12581000  0.50650400  1
  C  C12  1  0.25120700  0.26070100  0.18080200  1
  C  C13  1  0.74422700  0.07942400  0.26084500  1
  C  C14  1  0.01126200  0.57946800  0.87501500  1
  C  C15  1  0.51350800  0.57899500  0.87468200  1
  C  C16  1  0.51250200  0.70359500  0.57802600  1
  C  C17  1  0.01510900  0.70507000  0.58017400  1
  C  C18  1  0.01098300  0.87465600  0.29459300  1
  C  C19  1  0.50817800  0.87482000  0.29682600  1
  C  C20  1  0.00348700  0.99997300  0.99972500  1
  C  C21  1  0.50349900  0.99983800  0.99934700  1
  C  C22  1  0.01198100  0.12619000  0.70255900  1
  C  C23  1  0.51440400  0.12482600  0.70620100  1
  C  C24  1  0.50934600  0.29303300  0.41841800  1
  C  C25  1  0.00754000  0.29799700  0.42416200  1
  C  C26  1  0.01103700  0.41807200  0.12527900  1
  C  C27  1  0.50972800  0.42514100  0.12701400  1
  C  C28  1  0.76517000  0.93454100  0.75318100  1
  C  C29  1  0.25875300  0.75350100  0.81856000  1
  C  C30  1  0.26651700  0.88482800  0.51294300  1
  C  C31  1  0.76724300  0.37183500  0.88484700  1
  C  C32  1  0.76372900  0.51243100  0.62815100  1
  C  C33  1  0.25977200  0.18092400  0.93376900  1
  C  C34  1  0.74534100  0.81832600  0.06525800  1
  C  C35  1  0.26094500  0.48709500  0.37125600  1
  C  C36  1  0.26102400  0.62844200  0.11647100  1
  C  C37  1  0.75974400  0.11643000  0.48775700  1
  C  C38  1  0.74464400  0.24708500  0.18123400  1
  C  C39  1  0.23773500  0.06542500  0.24723700  1
  Ni  Ni40  1  0.78045600  0.01182700  0.88644800  1
  Ni  Ni41  1  0.27584900  0.88660100  0.87462500  1
  Ni  Ni42  1  0.73502700  0.68526000  0.99637500  1
  Ni  Ni43  1  0.24524700  0.99939700  0.62766500  1
  Ni  Ni44  1  0.57485700  0.85760300  0.72341800  1
  Ni  Ni45  1  0.06935200  0.72571400  0.86571500  1
  Ni  Ni46  1  0.96001500  0.86372300  0.71603200  1
  Ni  Ni47  1  0.45473800  0.71372500  0.85095200  1
  Ni  Ni48  1  0.23921400  0.68945400  0.68574700  1
  Ni  Ni49  1  0.75034300  0.37327600  0.00101800  1
  Ni  Ni50  1  0.46022200  0.88826400  0.45268100  1
  Ni  Ni51  1  0.96240200  0.43552700  0.88649300  1
  Ni  Ni52  1  0.28501700  0.78898300  0.54249300  1
  Ni  Ni53  1  0.57277600  0.42444500  0.86545700  1
  Ni  Ni54  1  0.07128500  0.86492800  0.43954200  1
  Ni  Ni55  1  0.23488800  0.99633300  0.31125700  1
  Ni  Ni56  1  0.78359400  0.54099400  0.75304100  1
  Ni  Ni57  1  0.74028500  0.62799700  0.62966400  1
  Ni  Ni58  1  0.25866800  0.12348100  0.01069600  1
  Ni  Ni59  1  0.78035500  0.24620900  0.78996100  1
  Ni  Ni60  1  0.45550900  0.14375000  0.86420000  1
  Ni  Ni61  1  0.95835000  0.45326600  0.56515500  1
  Ni  Ni62  1  0.06918100  0.13662300  0.85565500  1
  Ni  Ni63  1  0.07161900  0.55983300  0.42515100  1
  Ni  Ni64  1  0.57027300  0.43825300  0.57288400  1
  Ni  Ni65  1  0.55797100  0.86314900  0.14052400  1
  Ni  Ni66  1  0.46014700  0.54853800  0.43361100  1
  Ni  Ni67  1  0.94443700  0.85216300  0.13650900  1
  Ni  Ni68  1  0.27988400  0.75319300  0.21310100  1
  Ni  Ni69  1  0.74817000  0.87582600  0.98874000  1
  Ni  Ni70  1  0.24066800  0.37229500  0.37221300  1
  Ni  Ni71  1  0.26991800  0.45604300  0.24489900  1
  Ni  Ni72  1  0.74559200  0.00320400  0.68927400  1
  Ni  Ni73  1  0.57153700  0.13463700  0.56096500  1
  Ni  Ni74  1  0.07047800  0.57280200  0.13459000  1
  Ni  Ni75  1  0.77435200  0.21266700  0.45840700  1
  Ni  Ni76  1  0.45826700  0.56555700  0.11286900  1
  Ni  Ni77  1  0.95924700  0.11397600  0.54808200  1
  Ni  Ni78  1  0.23665400  0.63080700  0.00273500  1
  Ni  Ni79  1  0.74185300  0.31080200  0.31367900  1
  Ni  Ni80  1  0.94323300  0.27785900  0.14307900  1
  Ni  Ni81  1  0.43792300  0.13533800  0.28048000  1
  Ni  Ni82  1  0.55714400  0.28334900  0.13822300  1
  Ni  Ni83  1  0.05173900  0.14321000  0.28167500  1
  Ni  Ni84  1  0.73533000  0.00207700  0.37226200  1
  Ni  Ni85  1  0.25122900  0.31296900  0.00162500  1
  Ni  Ni86  1  0.73022900  0.11382800  0.12497600  1
  Ni  Ni87  1  0.22549900  0.98846200  0.11421400  1
  Cu  Cu88  1  0.29826200  0.47905900  0.75106300  1
  Cu  Cu89  1  0.79890000  0.72710200  0.47923100  1
  Cu  Cu90  1  0.79701700  0.75121600  0.27131900  1
  Cu  Cu91  1  0.29438900  0.24782900  0.72651200  1
  Cu  Cu92  1  0.29183300  0.27195200  0.52129700  1
  Cu  Cu93  1  0.78486900  0.52346700  0.25027400  1
