# generated using pymatgen
data_Cu3NiC12
_symmetry_space_group_name_H-M   'P 1'
_cell_length_a   5.11086600
_cell_length_b   7.75934163
_cell_length_c   7.76086502
_cell_angle_alpha   81.85897253
_cell_angle_beta   83.83847630
_cell_angle_gamma   71.00919580
_symmetry_Int_Tables_number   1
_chemical_formula_structural   Cu3NiC12
_chemical_formula_sum   'Cu6 Ni2 C24'
_cell_volume   287.47031614
_cell_formula_units_Z   2
loop_
 _symmetry_equiv_pos_site_id
 _symmetry_equiv_pos_as_xyz
  1  'x, y, z'
loop_
 _atom_site_type_symbol
 _atom_site_label
 _atom_site_symmetry_multiplicity
 _atom_site_fract_x
 _atom_site_fract_y
 _atom_site_fract_z
 _atom_site_occupancy
  C  C0  1  0.99988200  0.68787700  0.93747300  1
  C  C1  1  0.00030800  0.43678700  0.68693000  1
  C  C2  1  0.99969200  0.56321300  0.31307000  1
  C  C3  1  0.00017800  0.06269800  0.81090100  1
  C  C4  1  0.00033600  0.18598700  0.43845900  1
  C  C5  1  0.00011800  0.31212300  0.06252700  1
  C  C6  1  0.99966400  0.81401300  0.56154100  1
  C  C7  1  0.99982200  0.93730200  0.18909900  1
  Ni  Ni8  1  0.49986100  0.12378400  0.62372500  1
  Ni  Ni9  1  0.50013900  0.87621600  0.37627500  1
  Cu  Cu10  1  0.49984000  0.37371300  0.87367300  1
  Cu  Cu11  1  0.50000000  0.50000000  0.50000000  1
  Cu  Cu12  1  0.50016000  0.62628700  0.12632700  1
  Cu  Cu13  1  0.49993400  0.24722000  0.25292900  1
  Cu  Cu14  1  0.50006600  0.75278000  0.74707100  1
  Cu  Cu15  1  0.50000000  0.00000000  0.00000000  1
  C  C16  1  0.72680700  0.53684100  0.90637000  1
  C  C17  1  0.27251300  0.58980200  0.71744500  1
  C  C18  1  0.72170300  0.66822800  0.52567600  1
  C  C19  1  0.27838200  0.21003600  0.83414000  1
  C  C20  1  0.72058900  0.27886700  0.65483800  1
  C  C21  1  0.72748700  0.41019800  0.28255500  1
  C  C22  1  0.27829700  0.33177200  0.47432400  1
  C  C23  1  0.72133500  0.91906700  0.77628600  1
  C  C24  1  0.71589800  0.03206900  0.41416200  1
  C  C25  1  0.27319300  0.46315900  0.09363000  1
  C  C26  1  0.28410200  0.96793100  0.58583800  1
  C  C27  1  0.72728100  0.16094400  0.03307800  1
  C  C28  1  0.27866500  0.08093300  0.22371400  1
  C  C29  1  0.72161800  0.78996400  0.16586000  1
  C  C30  1  0.27941100  0.72113300  0.34516200  1
  C  C31  1  0.27271900  0.83905600  0.96692200  1
