# generated using pymatgen
data_CuNiC8
_symmetry_space_group_name_H-M   'P 1'
_cell_length_a   7.86785800
_cell_length_b   10.83736200
_cell_length_c   13.02876900
_cell_angle_alpha   90.00000000
_cell_angle_beta   90.00000000
_cell_angle_gamma   90.00000000
_symmetry_Int_Tables_number   1
_chemical_formula_structural   CuNiC8
_chemical_formula_sum   'Cu8 Ni8 C64'
_cell_volume   1110.92177034
_cell_formula_units_Z   8
loop_
 _symmetry_equiv_pos_site_id
 _symmetry_equiv_pos_as_xyz
  1  'x, y, z'
loop_
 _atom_site_type_symbol
 _atom_site_label
 _atom_site_symmetry_multiplicity
 _atom_site_fract_x
 _atom_site_fract_y
 _atom_site_fract_z
 _atom_site_occupancy
  Ni  Ni0  1  0.69302600  0.80285200  0.36866900  1
  Ni  Ni1  1  0.80697400  0.80285200  0.86866900  1
  Ni  Ni2  1  0.19302600  0.69714800  0.36866900  1
  Ni  Ni3  1  0.30697400  0.69714800  0.86866900  1
  Ni  Ni4  1  0.69302600  0.30285200  0.13133100  1
  Ni  Ni5  1  0.80697400  0.30285200  0.63133100  1
  Ni  Ni6  1  0.30697400  0.19714800  0.63133100  1
  Ni  Ni7  1  0.19302600  0.19714800  0.13133100  1
  Cu  Cu8  1  0.01769500  0.93069900  0.17716800  1
  Cu  Cu9  1  0.48230500  0.93069900  0.67716800  1
  Cu  Cu10  1  0.51769500  0.56930100  0.17716800  1
  Cu  Cu11  1  0.98230500  0.56930100  0.67716800  1
  Cu  Cu12  1  0.48230500  0.43069900  0.82283200  1
  Cu  Cu13  1  0.01769500  0.43069900  0.32283200  1
  Cu  Cu14  1  0.98230500  0.06930100  0.82283200  1
  Cu  Cu15  1  0.51769500  0.06930100  0.32283200  1
  C  C16  1  0.25541900  0.97509100  0.36151900  1
  C  C17  1  0.24458100  0.97509100  0.86151900  1
  C  C18  1  0.33819300  0.94671100  0.46939800  1
  C  C19  1  0.16180700  0.94671100  0.96939800  1
  C  C20  1  0.83819300  0.55328900  0.46939800  1
  C  C21  1  0.66180700  0.55328900  0.96939800  1
  C  C22  1  0.75541900  0.52490900  0.36151900  1
  C  C23  1  0.74458100  0.52490900  0.86151900  1
  C  C24  1  0.25541900  0.47509100  0.13848100  1
  C  C25  1  0.24458100  0.47509100  0.63848100  1
  C  C26  1  0.33819300  0.44671100  0.03060200  1
  C  C27  1  0.16180700  0.44671100  0.53060200  1
  C  C28  1  0.83819300  0.05328900  0.03060200  1
  C  C29  1  0.66180700  0.05328900  0.53060200  1
  C  C30  1  0.75541900  0.02490900  0.13848100  1
  C  C31  1  0.74458100  0.02490900  0.63848100  1
  C  C32  1  0.43859900  0.86943800  0.12448800  1
  C  C33  1  0.06140100  0.86943800  0.62448800  1
  C  C34  1  0.93859900  0.63056200  0.12448800  1
  C  C35  1  0.56140100  0.63056200  0.62448800  1
  C  C36  1  0.43859900  0.36943800  0.37551200  1
  C  C37  1  0.06140100  0.36943800  0.87551200  1
  C  C38  1  0.93859900  0.13056200  0.37551200  1
  C  C39  1  0.56140100  0.13056200  0.87551200  1
  C  C40  1  0.57029900  0.98132100  0.19368500  1
  C  C41  1  0.92970100  0.98132100  0.69368500  1
  C  C42  1  0.36441900  0.94960800  0.39481900  1
  C  C43  1  0.13558100  0.94960800  0.89481900  1
  C  C44  1  0.22758400  0.93399900  0.10055500  1
  C  C45  1  0.27241600  0.93399900  0.60055500  1
  C  C46  1  0.53308700  0.82983300  0.00363800  1
  C  C47  1  0.96691300  0.82983300  0.50363800  1
  C  C48  1  0.92121400  0.76841900  0.20371800  1
  C  C49  1  0.57878600  0.76841900  0.70371800  1
  C  C50  1  0.42121400  0.73158100  0.20371800  1
  C  C51  1  0.07878600  0.73158100  0.70371800  1
  C  C52  1  0.03308700  0.67016700  0.00363800  1
  C  C53  1  0.46691300  0.67016700  0.50363800  1
  C  C54  1  0.72758400  0.56600100  0.10055500  1
  C  C55  1  0.77241600  0.56600100  0.60055500  1
  C  C56  1  0.86441900  0.55039200  0.39481900  1
  C  C57  1  0.63558100  0.55039200  0.89481900  1
  C  C58  1  0.42970100  0.51867900  0.69368500  1
  C  C59  1  0.07029900  0.51867900  0.19368500  1
  C  C60  1  0.57029900  0.48132100  0.30631500  1
  C  C61  1  0.92970100  0.48132100  0.80631500  1
  C  C62  1  0.36441900  0.44960800  0.10518100  1
  C  C63  1  0.13558100  0.44960800  0.60518100  1
  C  C64  1  0.22758400  0.43399900  0.39944500  1
  C  C65  1  0.27241600  0.43399900  0.89944500  1
  C  C66  1  0.53308700  0.32983300  0.49636200  1
  C  C67  1  0.96691300  0.32983300  0.99636200  1
  C  C68  1  0.92121400  0.26841900  0.29628200  1
  C  C69  1  0.57878600  0.26841900  0.79628200  1
  C  C70  1  0.42121400  0.23158100  0.29628200  1
  C  C71  1  0.07878600  0.23158100  0.79628200  1
  C  C72  1  0.46691300  0.17016700  0.99636200  1
  C  C73  1  0.03308700  0.17016700  0.49636200  1
  C  C74  1  0.77241600  0.06600100  0.89944500  1
  C  C75  1  0.72758400  0.06600100  0.39944500  1
  C  C76  1  0.86441900  0.05039200  0.10518100  1
  C  C77  1  0.63558100  0.05039200  0.60518100  1
  C  C78  1  0.42970100  0.01867900  0.80631500  1
  C  C79  1  0.07029900  0.01867900  0.30631500  1
