# generated using pymatgen
data_Cu(NiC9)2
_symmetry_space_group_name_H-M   'P 1'
_cell_length_a   12.73365300
_cell_length_b   7.25482700
_cell_length_c   8.63665007
_cell_angle_alpha   82.67934330
_cell_angle_beta   90.00000000
_cell_angle_gamma   90.00000000
_symmetry_Int_Tables_number   1
_chemical_formula_structural   Cu(NiC9)2
_chemical_formula_sum   'Cu4 Ni8 C72'
_cell_volume   791.35393395
_cell_formula_units_Z   4
loop_
 _symmetry_equiv_pos_site_id
 _symmetry_equiv_pos_as_xyz
  1  'x, y, z'
loop_
 _atom_site_type_symbol
 _atom_site_label
 _atom_site_symmetry_multiplicity
 _atom_site_fract_x
 _atom_site_fract_y
 _atom_site_fract_z
 _atom_site_occupancy
  Ni  Ni0  1  0.37787500  0.12263700  0.63819300  1
  Ni  Ni1  1  0.87787400  0.37736300  0.36180700  1
  Ni  Ni2  1  0.62212500  0.87736300  0.36180700  1
  Ni  Ni3  1  0.12212500  0.62263700  0.63819300  1
  Ni  Ni4  1  0.37335900  0.35155900  0.89262900  1
  Ni  Ni5  1  0.87335900  0.14844100  0.10737100  1
  Ni  Ni6  1  0.62664100  0.64844100  0.10737100  1
  Ni  Ni7  1  0.12664100  0.85155900  0.89262900  1
  Cu  Cu8  1  0.32710500  0.73737600  0.75805100  1
  Cu  Cu9  1  0.82710500  0.76262400  0.24194900  1
  Cu  Cu10  1  0.67289500  0.26262400  0.24194900  1
  Cu  Cu11  1  0.17289500  0.23737600  0.75805100  1
  C  C12  1  0.48726000  0.17553900  0.41444600  1
  C  C13  1  0.98726000  0.32446100  0.58555400  1
  C  C14  1  0.51274000  0.82446100  0.58555400  1
  C  C15  1  0.01274000  0.67553900  0.41444600  1
  C  C16  1  0.39070900  0.33134300  0.41642300  1
  C  C17  1  0.89070900  0.16865700  0.58357700  1
  C  C18  1  0.60929100  0.66865700  0.58357700  1
  C  C19  1  0.10929100  0.83134300  0.41642300  1
  C  C20  1  0.47702300  0.33708100  0.11257100  1
  C  C21  1  0.97702300  0.16291900  0.88742900  1
  C  C22  1  0.52297700  0.66291900  0.88742900  1
  C  C23  1  0.02297700  0.83708100  0.11257100  1
  C  C24  1  0.39643800  0.15801300  0.11782800  1
  C  C25  1  0.89643800  0.34198700  0.88217200  1
  C  C26  1  0.60356200  0.84198700  0.88217200  1
  C  C27  1  0.10356200  0.65801300  0.11782800  1
  C  C28  1  0.31610500  0.88640200  0.07198800  1
  C  C29  1  0.81610500  0.61359800  0.92801200  1
  C  C30  1  0.68389500  0.11359800  0.92801200  1
  C  C31  1  0.18389500  0.38640200  0.07198800  1
  C  C32  1  0.29413900  0.94466400  0.23960700  1
  C  C33  1  0.79413900  0.55533600  0.76039300  1
  C  C34  1  0.70586100  0.05533600  0.76039300  1
  C  C35  1  0.20586100  0.44466400  0.23960700  1
  C  C36  1  0.35338600  0.62452700  0.28210700  1
  C  C37  1  0.85338600  0.87547300  0.71789300  1
  C  C38  1  0.64661400  0.37547300  0.71789300  1
  C  C39  1  0.14661400  0.12452700  0.28210700  1
  C  C40  1  0.29739300  0.58471500  0.44571100  1
  C  C41  1  0.79739300  0.91528500  0.55428900  1
  C  C42  1  0.70260700  0.41528500  0.55428900  1
  C  C43  1  0.20260700  0.08471500  0.44571100  1
  C  C44  1  0.49951700  0.18132100  0.80081500  1
  C  C45  1  0.99951700  0.31867900  0.19918500  1
  C  C46  1  0.50048300  0.81867900  0.19918500  1
  C  C47  1  0.00048300  0.68132100  0.80081500  1
  C  C48  1  0.24560700  0.32836700  0.89743500  1
  C  C49  1  0.74560700  0.17163300  0.10256500  1
  C  C50  1  0.75439300  0.67163300  0.10256500  1
  C  C51  1  0.25439300  0.82836700  0.89743500  1
  C  C52  1  0.41022100  0.90153700  0.66389100  1
  C  C53  1  0.91022100  0.59846300  0.33610900  1
  C  C54  1  0.58977900  0.09846300  0.33610900  1
  C  C55  1  0.08977900  0.40153700  0.66389100  1
  C  C56  1  0.41063800  0.56957400  0.84607800  1
  C  C57  1  0.91063800  0.93042600  0.15392200  1
  C  C58  1  0.58936200  0.43042600  0.15392200  1
  C  C59  1  0.08936200  0.06957400  0.84607800  1
  C  C60  1  0.25115100  0.15345900  0.62149600  1
  C  C61  1  0.75115100  0.34654100  0.37850400  1
  C  C62  1  0.74884900  0.84654100  0.37850400  1
  C  C63  1  0.24884900  0.65345900  0.62149600  1
  C  C64  1  0.42730800  0.22123400  0.77861700  1
  C  C65  1  0.92730800  0.27876600  0.22138300  1
  C  C66  1  0.57269200  0.77876600  0.22138300  1
  C  C67  1  0.07269200  0.72123400  0.77861700  1
  C  C68  1  0.41978400  0.20929300  0.46454100  1
  C  C69  1  0.91978400  0.29070700  0.53545900  1
  C  C70  1  0.58021600  0.79070700  0.53545900  1
  C  C71  1  0.08021600  0.70929300  0.46454100  1
  C  C72  1  0.40677900  0.29220400  0.07869500  1
  C  C73  1  0.90677900  0.20779600  0.92130500  1
  C  C74  1  0.59322100  0.70779600  0.92130500  1
  C  C75  1  0.09322100  0.79220400  0.07869500  1
  C  C76  1  0.35181100  0.91747800  0.16817700  1
  C  C77  1  0.85181100  0.58252200  0.83182300  1
  C  C78  1  0.64818900  0.08252200  0.83182300  1
  C  C79  1  0.14818900  0.41747800  0.16817700  1
  C  C80  1  0.31891700  0.52568400  0.35228500  1
  C  C81  1  0.81891700  0.97431600  0.64771500  1
  C  C82  1  0.68108300  0.47431600  0.64771500  1
  C  C83  1  0.18108300  0.02568400  0.35228500  1
