# generated using pymatgen
data_Cu2NiC9
_symmetry_space_group_name_H-M   'P 1'
_cell_length_a   6.11040501
_cell_length_b   10.08292092
_cell_length_c   10.25138676
_cell_angle_alpha   89.29196477
_cell_angle_beta   89.99922105
_cell_angle_gamma   89.99363669
_symmetry_Int_Tables_number   1
_chemical_formula_structural   Cu2NiC9
_chemical_formula_sum   'Cu8 Ni4 C36'
_cell_volume   631.54719877
_cell_formula_units_Z   4
loop_
 _symmetry_equiv_pos_site_id
 _symmetry_equiv_pos_as_xyz
  1  'x, y, z'
loop_
 _atom_site_type_symbol
 _atom_site_label
 _atom_site_symmetry_multiplicity
 _atom_site_fract_x
 _atom_site_fract_y
 _atom_site_fract_z
 _atom_site_occupancy
  C  C0  1  0.74987900  0.72485500  0.22418100  1
  C  C1  1  0.25017100  0.27532700  0.77584500  1
  C  C2  1  0.74983600  0.22476700  0.22397400  1
  C  C3  1  0.25007900  0.77517400  0.77593000  1
  Ni  Ni4  1  0.24999400  0.47778100  0.28201700  1
  Ni  Ni5  1  0.24997700  0.97789700  0.28194800  1
  Ni  Ni6  1  0.75005900  0.02212200  0.71804800  1
  Ni  Ni7  1  0.75001100  0.52212500  0.71800300  1
  Cu  Cu8  1  0.24997400  0.19612000  0.10168900  1
  Cu  Cu9  1  0.24994300  0.69607200  0.10178100  1
  Cu  Cu10  1  0.75004600  0.30391000  0.89824100  1
  Cu  Cu11  1  0.75008900  0.80389700  0.89829200  1
  Cu  Cu12  1  0.74999400  0.45689400  0.40749000  1
  Cu  Cu13  1  0.74998300  0.95696400  0.40749400  1
  Cu  Cu14  1  0.25001000  0.04302100  0.59252000  1
  Cu  Cu15  1  0.24998700  0.54310600  0.59250800  1
  C  C16  1  0.75003800  0.32116900  0.04348100  1
  C  C17  1  0.75011100  0.82111000  0.04349500  1
  C  C18  1  0.25002700  0.17891800  0.95647700  1
  C  C19  1  0.24991700  0.67879400  0.95653700  1
  C  C20  1  0.24999900  0.34592200  0.13436100  1
  C  C21  1  0.24999400  0.84591400  0.13434900  1
  C  C22  1  0.74996800  0.15409700  0.86563500  1
  C  C23  1  0.74994500  0.65409100  0.86560000  1
  C  C24  1  0.74995900  0.10557300  0.39282500  1
  C  C25  1  0.74994300  0.60544100  0.39288000  1
  C  C26  1  0.25002700  0.39451500  0.60710700  1
  C  C27  1  0.25000800  0.89445500  0.60719500  1
  C  C28  1  0.24999300  0.08848400  0.44672200  1
  C  C29  1  0.24998200  0.58855600  0.44672100  1
  C  C30  1  0.74997900  0.41141300  0.55330600  1
  C  C31  1  0.74996100  0.91148600  0.55326900  1
  C  C32  1  0.05493800  0.12087200  0.17420400  1
  C  C33  1  0.05492700  0.62086000  0.17431800  1
  C  C34  1  0.44501900  0.12085000  0.17421500  1
  C  C35  1  0.44502600  0.62084400  0.17428300  1
  C  C36  1  0.55499200  0.37918200  0.82574500  1
  C  C37  1  0.55504200  0.87920400  0.82582600  1
  C  C38  1  0.94507100  0.37913600  0.82571700  1
  C  C39  1  0.94514100  0.87912900  0.82577500  1
  C  C40  1  0.95015600  0.38737600  0.33699300  1
  C  C41  1  0.95013000  0.88745900  0.33698900  1
  C  C42  1  0.54985000  0.38737300  0.33697900  1
  C  C43  1  0.54985200  0.88745300  0.33697600  1
  C  C44  1  0.04984700  0.11256900  0.66299400  1
  C  C45  1  0.04983200  0.61258500  0.66303700  1
  C  C46  1  0.45016600  0.11254900  0.66299400  1
  C  C47  1  0.45013000  0.61258700  0.66303200  1
