# generated using pymatgen
data_Cu5Ni7C60
_symmetry_space_group_name_H-M   'P 1'
_cell_length_a   5.07264500
_cell_length_b   9.79981476
_cell_length_c   13.41193652
_cell_angle_alpha   97.18828826
_cell_angle_beta   100.68346717
_cell_angle_gamma   94.84197894
_symmetry_Int_Tables_number   1
_chemical_formula_structural   Cu5Ni7C60
_chemical_formula_sum   'Cu5 Ni7 C60'
_cell_volume   646.04316334
_cell_formula_units_Z   1
loop_
 _symmetry_equiv_pos_site_id
 _symmetry_equiv_pos_as_xyz
  1  'x, y, z'
loop_
 _atom_site_type_symbol
 _atom_site_label
 _atom_site_symmetry_multiplicity
 _atom_site_fract_x
 _atom_site_fract_y
 _atom_site_fract_z
 _atom_site_occupancy
  C  C0  1  0.16706500  0.00073800  0.83329200  1
  C  C1  1  0.04685100  0.00019400  0.61236100  1
  C  C2  1  0.00093400  0.75018900  0.25126800  1
  C  C3  1  0.33245900  0.75020500  0.91566600  1
  C  C4  1  0.04723300  0.49995400  0.11269800  1
  C  C5  1  0.38418700  0.49892200  0.78027100  1
  C  C6  1  0.16099100  0.50035800  0.33430200  1
  C  C7  1  0.50229200  0.49844500  0.99934600  1
  C  C8  1  0.28669900  0.50041300  0.55374100  1
  C  C9  1  0.33276300  0.25017400  0.41584300  1
  C  C10  1  0.49355300  0.99959500  0.50069000  1
  C  C11  1  0.28510700  0.00054500  0.05347200  1
  C  C12  1  0.61996600  0.00112400  0.72166300  1
  C  C13  1  0.38520800  0.00129700  0.28066000  1
  C  C14  1  0.71162200  0.99924700  0.94477900  1
  C  C15  1  0.66754900  0.74963900  0.58400600  1
  C  C16  1  0.72032800  0.50016400  0.44703300  1
  C  C17  1  0.83286500  0.50048000  0.66672400  1
  C  C18  1  0.61638500  0.49944600  0.21973600  1
  C  C19  1  0.94850600  0.50007200  0.88628700  1
  C  C20  1  0.66749000  0.25002300  0.08314300  1
  C  C21  1  0.83680600  0.00057300  0.16597200  1
  C  C22  1  0.00140400  0.24968000  0.75035700  1
  C  C23  1  0.95250100  0.99899400  0.38718400  1
  Ni  Ni24  1  0.11200800  0.25276600  0.97541800  1
  Ni  Ni25  1  0.22111400  0.74677600  0.69406900  1
  Ni  Ni26  1  0.43766600  0.24679700  0.63931800  1
  Ni  Ni27  1  0.44436900  0.74978800  0.13881600  1
  Ni  Ni28  1  0.55658400  0.75106500  0.36139200  1
  Ni  Ni29  1  0.88527600  0.25086900  0.52516900  1
  Ni  Ni30  1  0.89239900  0.75168500  0.02666400  1
  Cu  Cu31  1  0.11277300  0.74999500  0.47404900  1
  Cu  Cu32  1  0.22581700  0.25054500  0.19810600  1
  Cu  Cu33  1  0.56012600  0.24945300  0.86089800  1
  Cu  Cu34  1  0.77417900  0.75040400  0.80609300  1
  Cu  Cu35  1  0.77507200  0.24965100  0.30154700  1
  C  C36  1  0.00412400  0.86366300  0.92853500  1
  C  C37  1  0.06538300  0.63556500  0.78604400  1
  C  C38  1  0.99922000  0.36158500  0.42584000  1
  C  C39  1  0.14368900  0.36392300  0.64298000  1
  C  C40  1  0.26759400  0.36346400  0.88123000  1
  C  C41  1  0.33261700  0.86231300  0.59376800  1
  C  C42  1  0.07623900  0.13596500  0.28238600  1
  C  C43  1  0.19078300  0.13606400  0.52252100  1
  C  C44  1  0.40617900  0.13601100  0.95118300  1
  C  C45  1  0.14346600  0.86372000  0.14303100  1
  C  C46  1  0.26484000  0.86574600  0.38122500  1
  C  C47  1  0.48458200  0.86227100  0.81069900  1
  C  C48  1  0.32692800  0.13557100  0.73679100  1
  C  C49  1  0.18979500  0.63631400  0.02230500  1
  C  C50  1  0.39519700  0.63563100  0.45302800  1
  C  C51  1  0.52262800  0.63678400  0.68930900  1
  C  C52  1  0.33223700  0.63597100  0.23816700  1
  C  C53  1  0.66340600  0.63815900  0.90196800  1
  C  C54  1  0.33431600  0.36290900  0.09806300  1
  C  C55  1  0.66944800  0.36155200  0.76581800  1
  C  C56  1  0.46829600  0.36221800  0.30757800  1
  C  C57  1  0.59771900  0.36636200  0.54851300  1
  C  C58  1  0.81343200  0.36465300  0.97873700  1
  C  C59  1  0.66857000  0.86393300  0.26245300  1
  C  C60  1  0.53241300  0.13827500  0.19234400  1
  C  C61  1  0.73612500  0.13390400  0.61747400  1
  C  C62  1  0.84769300  0.13788200  0.85639500  1
  C  C63  1  0.59653600  0.86631200  0.04788700  1
  C  C64  1  0.81639200  0.86133700  0.47786700  1
  C  C65  1  0.92822100  0.86445800  0.71545500  1
  C  C66  1  0.66496100  0.13789500  0.40196600  1
  C  C67  1  0.73579600  0.63410600  0.11749300  1
  C  C68  1  0.85797800  0.63734800  0.35748900  1
  C  C69  1  0.99757500  0.63606400  0.57154000  1
  C  C70  1  0.92396700  0.36440600  0.21681800  1
  C  C71  1  0.00351200  0.13740600  0.07306200  1
