# generated using pymatgen
data_Cu10NiC13
_symmetry_space_group_name_H-M   'P 1'
_cell_length_a   12.13922600
_cell_length_b   12.13922600
_cell_length_c   12.13922600
_cell_angle_alpha   90.00000000
_cell_angle_beta   90.00000000
_cell_angle_gamma   90.00000000
_symmetry_Int_Tables_number   1
_chemical_formula_structural   Cu10NiC13
_chemical_formula_sum   'Cu80 Ni8 C104'
_cell_volume   1788.84615039
_cell_formula_units_Z   8
loop_
 _symmetry_equiv_pos_site_id
 _symmetry_equiv_pos_as_xyz
  1  'x, y, z'
loop_
 _atom_site_type_symbol
 _atom_site_label
 _atom_site_symmetry_multiplicity
 _atom_site_fract_x
 _atom_site_fract_y
 _atom_site_fract_z
 _atom_site_occupancy
  C  C0  1  0.00000000  0.00000000  0.50000000  1
  C  C1  1  0.00000000  0.50000000  0.00000000  1
  C  C2  1  0.50000000  0.00000000  0.00000000  1
  C  C3  1  0.50000000  0.50000000  0.50000000  1
  C  C4  1  0.50000000  0.50000000  0.00000000  1
  C  C5  1  0.50000000  0.00000000  0.50000000  1
  C  C6  1  0.00000000  0.50000000  0.50000000  1
  C  C7  1  0.00000000  0.00000000  0.00000000  1
  C  C8  1  0.55787000  0.70141300  0.01600100  1
  C  C9  1  0.44213000  0.20141300  0.48399900  1
  C  C10  1  0.94213000  0.29858700  0.51600100  1
  C  C11  1  0.05787000  0.79858700  0.98399900  1
  C  C12  1  0.01600100  0.55787000  0.70141300  1
  C  C13  1  0.48399900  0.44213000  0.20141300  1
  C  C14  1  0.51600100  0.94213000  0.29858700  1
  C  C15  1  0.98399900  0.05787000  0.79858700  1
  C  C16  1  0.70141300  0.01600100  0.55787000  1
  C  C17  1  0.20141300  0.48399900  0.44213000  1
  C  C18  1  0.29858700  0.51600100  0.94213000  1
  C  C19  1  0.79858700  0.98399900  0.05787000  1
  C  C20  1  0.44213000  0.29858700  0.98399900  1
  C  C21  1  0.55787000  0.79858700  0.51600100  1
  C  C22  1  0.05787000  0.70141300  0.48399900  1
  C  C23  1  0.94213000  0.20141300  0.01600100  1
  C  C24  1  0.98399900  0.44213000  0.29858700  1
  C  C25  1  0.51600100  0.55787000  0.79858700  1
  C  C26  1  0.48399900  0.05787000  0.70141300  1
  C  C27  1  0.01600100  0.94213000  0.20141300  1
  C  C28  1  0.29858700  0.98399900  0.44213000  1
  C  C29  1  0.79858700  0.51600100  0.55787000  1
  C  C30  1  0.70141300  0.48399900  0.05787000  1
  C  C31  1  0.20141300  0.01600100  0.94213000  1
  C  C32  1  0.42532500  0.71253400  0.01479300  1
  C  C33  1  0.57467500  0.21253400  0.48520700  1
  C  C34  1  0.07467500  0.28746600  0.51479300  1
  C  C35  1  0.92532500  0.78746600  0.98520700  1
  C  C36  1  0.01479300  0.42532500  0.71253400  1
  C  C37  1  0.48520700  0.57467500  0.21253400  1
  C  C38  1  0.51479300  0.07467500  0.28746600  1
  C  C39  1  0.98520700  0.92532500  0.78746600  1
  C  C40  1  0.71253400  0.01479300  0.42532500  1
  C  C41  1  0.21253400  0.48520700  0.57467500  1
  C  C42  1  0.28746600  0.51479300  0.07467500  1
  C  C43  1  0.78746600  0.98520700  0.92532500  1
  C  C44  1  0.57467500  0.28746600  0.98520700  1
  C  C45  1  0.42532500  0.78746600  0.51479300  1
  C  C46  1  0.92532500  0.71253400  0.48520700  1
  C  C47  1  0.07467500  0.21253400  0.01479300  1
  C  C48  1  0.98520700  0.57467500  0.28746600  1
  C  C49  1  0.51479300  0.42532500  0.78746600  1
  C  C50  1  0.48520700  0.92532500  0.71253400  1
  C  C51  1  0.01479300  0.07467500  0.21253400  1
  C  C52  1  0.28746600  0.98520700  0.57467500  1
  C  C53  1  0.78746600  0.51479300  0.42532500  1
  C  C54  1  0.71253400  0.48520700  0.92532500  1
  C  C55  1  0.21253400  0.01479300  0.07467500  1
  C  C56  1  0.20484400  0.62452100  0.18585000  1
  C  C57  1  0.79515600  0.12452100  0.31415000  1
  C  C58  1  0.29515600  0.37547900  0.68585000  1
  C  C59  1  0.70484400  0.87547900  0.81415000  1
  C  C60  1  0.18585000  0.20484400  0.62452100  1
  C  C61  1  0.31415000  0.79515600  0.12452100  1
  C  C62  1  0.68585000  0.29515600  0.37547900  1
  C  C63  1  0.81415000  0.70484400  0.87547900  1
  C  C64  1  0.62452100  0.18585000  0.20484400  1
  C  C65  1  0.12452100  0.31415000  0.79515600  1
  C  C66  1  0.37547900  0.68585000  0.29515600  1
  C  C67  1  0.87547900  0.81415000  0.70484400  1
  C  C68  1  0.79515600  0.37547900  0.81415000  1
  C  C69  1  0.20484400  0.87547900  0.68585000  1
  C  C70  1  0.70484400  0.62452100  0.31415000  1
  C  C71  1  0.29515600  0.12452100  0.18585000  1
  C  C72  1  0.81415000  0.79515600  0.37547900  1
  C  C73  1  0.68585000  0.20484400  0.87547900  1
  C  C74  1  0.31415000  0.70484400  0.62452100  1
  C  C75  1  0.18585000  0.29515600  0.12452100  1
  C  C76  1  0.37547900  0.81415000  0.79515600  1
  C  C77  1  0.87547900  0.68585000  0.20484400  1
  C  C78  1  0.62452100  0.31415000  0.70484400  1
  C  C79  1  0.12452100  0.18585000  0.29515600  1
  C  C80  1  0.20100400  0.50033800  0.21826200  1
  C  C81  1  0.79899600  0.00033800  0.28173800  1
  C  C82  1  0.29899600  0.49966200  0.71826200  1
  C  C83  1  0.70100400  0.99966200  0.78173800  1
  C  C84  1  0.21826200  0.20100400  0.50033800  1
  C  C85  1  0.28173800  0.79899600  0.00033800  1
  C  C86  1  0.71826200  0.29899600  0.49966200  1
  C  C87  1  0.78173800  0.70100400  0.99966200  1
  C  C88  1  0.50033800  0.21826200  0.20100400  1
  C  C89  1  0.00033800  0.28173800  0.79899600  1
  C  C90  1  0.49966200  0.71826200  0.29899600  1
  C  C91  1  0.99966200  0.78173800  0.70100400  1
  C  C92  1  0.79899600  0.49966200  0.78173800  1
  C  C93  1  0.20100400  0.99966200  0.71826200  1
  C  C94  1  0.70100400  0.50033800  0.28173800  1
  C  C95  1  0.29899600  0.00033800  0.21826200  1
  C  C96  1  0.78173800  0.79899600  0.49966200  1
  C  C97  1  0.71826200  0.20100400  0.99966200  1
  C  C98  1  0.28173800  0.70100400  0.50033800  1
  C  C99  1  0.21826200  0.29899600  0.00033800  1
  C  C100  1  0.49966200  0.78173800  0.79899600  1
  C  C101  1  0.99966200  0.71826200  0.20100400  1
  C  C102  1  0.50033800  0.28173800  0.70100400  1
  C  C103  1  0.00033800  0.21826200  0.29899600  1
  Ni  Ni104  1  0.18039300  0.81960700  0.31960700  1
  Ni  Ni105  1  0.81960700  0.31960700  0.18039300  1
  Ni  Ni106  1  0.31960700  0.18039300  0.81960700  1
  Ni  Ni107  1  0.68039300  0.68039300  0.68039300  1
  Ni  Ni108  1  0.81960700  0.18039300  0.68039300  1
  Ni  Ni109  1  0.18039300  0.68039300  0.81960700  1
  Ni  Ni110  1  0.68039300  0.81960700  0.18039300  1
  Ni  Ni111  1  0.31960700  0.31960700  0.31960700  1
  Cu  Cu112  1  0.25199000  0.74801000  0.24801000  1
  Cu  Cu113  1  0.74801000  0.24801000  0.25199000  1
  Cu  Cu114  1  0.24801000  0.25199000  0.74801000  1
  Cu  Cu115  1  0.75199000  0.75199000  0.75199000  1
  Cu  Cu116  1  0.74801000  0.25199000  0.75199000  1
  Cu  Cu117  1  0.25199000  0.75199000  0.74801000  1
  Cu  Cu118  1  0.75199000  0.74801000  0.25199000  1
  Cu  Cu119  1  0.24801000  0.24801000  0.24801000  1
  Cu  Cu120  1  0.07004200  0.83190500  0.26699600  1
  Cu  Cu121  1  0.92995800  0.33190500  0.23300400  1
  Cu  Cu122  1  0.42995800  0.16809500  0.76699600  1
  Cu  Cu123  1  0.57004200  0.66809500  0.73300400  1
  Cu  Cu124  1  0.26699600  0.07004200  0.83190500  1
  Cu  Cu125  1  0.23300400  0.92995800  0.33190500  1
  Cu  Cu126  1  0.76699600  0.42995800  0.16809500  1
  Cu  Cu127  1  0.73300400  0.57004200  0.66809500  1
  Cu  Cu128  1  0.83190500  0.26699600  0.07004200  1
  Cu  Cu129  1  0.33190500  0.23300400  0.92995800  1
  Cu  Cu130  1  0.16809500  0.76699600  0.42995800  1
  Cu  Cu131  1  0.66809500  0.73300400  0.57004200  1
  Cu  Cu132  1  0.92995800  0.16809500  0.73300400  1
  Cu  Cu133  1  0.07004200  0.66809500  0.76699600  1
  Cu  Cu134  1  0.57004200  0.83190500  0.23300400  1
  Cu  Cu135  1  0.42995800  0.33190500  0.26699600  1
  Cu  Cu136  1  0.73300400  0.92995800  0.16809500  1
  Cu  Cu137  1  0.76699600  0.07004200  0.66809500  1
  Cu  Cu138  1  0.23300400  0.57004200  0.83190500  1
  Cu  Cu139  1  0.26699600  0.42995800  0.33190500  1
  Cu  Cu140  1  0.16809500  0.73300400  0.92995800  1
  Cu  Cu141  1  0.66809500  0.76699600  0.07004200  1
  Cu  Cu142  1  0.83190500  0.23300400  0.57004200  1
  Cu  Cu143  1  0.33190500  0.26699600  0.42995800  1
  Cu  Cu144  1  0.33554100  0.48823800  0.01030800  1
  Cu  Cu145  1  0.66445900  0.98823800  0.48969200  1
  Cu  Cu146  1  0.16445900  0.51176200  0.51030800  1
  Cu  Cu147  1  0.83554100  0.01176200  0.98969200  1
  Cu  Cu148  1  0.01030800  0.33554100  0.48823800  1
  Cu  Cu149  1  0.48969200  0.66445900  0.98823800  1
  Cu  Cu150  1  0.51030800  0.16445900  0.51176200  1
  Cu  Cu151  1  0.98969200  0.83554100  0.01176200  1
  Cu  Cu152  1  0.48823800  0.01030800  0.33554100  1
  Cu  Cu153  1  0.98823800  0.48969200  0.66445900  1
  Cu  Cu154  1  0.51176200  0.51030800  0.16445900  1
  Cu  Cu155  1  0.01176200  0.98969200  0.83554100  1
  Cu  Cu156  1  0.66445900  0.51176200  0.98969200  1
  Cu  Cu157  1  0.33554100  0.01176200  0.51030800  1
  Cu  Cu158  1  0.83554100  0.48823800  0.48969200  1
  Cu  Cu159  1  0.16445900  0.98823800  0.01030800  1
  Cu  Cu160  1  0.98969200  0.66445900  0.51176200  1
  Cu  Cu161  1  0.51030800  0.33554100  0.01176200  1
  Cu  Cu162  1  0.48969200  0.83554100  0.48823800  1
  Cu  Cu163  1  0.01030800  0.16445900  0.98823800  1
  Cu  Cu164  1  0.51176200  0.98969200  0.66445900  1
  Cu  Cu165  1  0.01176200  0.51030800  0.33554100  1
  Cu  Cu166  1  0.48823800  0.48969200  0.83554100  1
  Cu  Cu167  1  0.98823800  0.01030800  0.16445900  1
  Cu  Cu168  1  0.19159300  0.54999400  0.15429800  1
  Cu  Cu169  1  0.80840700  0.04999400  0.34570200  1
  Cu  Cu170  1  0.30840700  0.45000600  0.65429800  1
  Cu  Cu171  1  0.69159300  0.95000600  0.84570200  1
  Cu  Cu172  1  0.15429800  0.19159300  0.54999400  1
  Cu  Cu173  1  0.34570200  0.80840700  0.04999400  1
  Cu  Cu174  1  0.65429800  0.30840700  0.45000600  1
  Cu  Cu175  1  0.84570200  0.69159300  0.95000600  1
  Cu  Cu176  1  0.54999400  0.15429800  0.19159300  1
  Cu  Cu177  1  0.04999400  0.34570200  0.80840700  1
  Cu  Cu178  1  0.45000600  0.65429800  0.30840700  1
  Cu  Cu179  1  0.95000600  0.84570200  0.69159300  1
  Cu  Cu180  1  0.80840700  0.45000600  0.84570200  1
  Cu  Cu181  1  0.19159300  0.95000600  0.65429800  1
  Cu  Cu182  1  0.69159300  0.54999400  0.34570200  1
  Cu  Cu183  1  0.30840700  0.04999400  0.15429800  1
  Cu  Cu184  1  0.84570200  0.80840700  0.45000600  1
  Cu  Cu185  1  0.65429800  0.19159300  0.95000600  1
  Cu  Cu186  1  0.34570200  0.69159300  0.54999400  1
  Cu  Cu187  1  0.15429800  0.30840700  0.04999400  1
  Cu  Cu188  1  0.45000600  0.84570200  0.80840700  1
  Cu  Cu189  1  0.95000600  0.65429800  0.19159300  1
  Cu  Cu190  1  0.54999400  0.34570200  0.69159300  1
  Cu  Cu191  1  0.04999400  0.15429800  0.30840700  1
