# generated using pymatgen
data_CuNi2C5
_symmetry_space_group_name_H-M   'P 1'
_cell_length_a   5.37868114
_cell_length_b   5.37868114
_cell_length_c   10.27286900
_cell_angle_alpha   90.00000000
_cell_angle_beta   90.00000000
_cell_angle_gamma   137.37261674
_symmetry_Int_Tables_number   1
_chemical_formula_structural   CuNi2C5
_chemical_formula_sum   'Cu2 Ni4 C10'
_cell_volume   201.26954167
_cell_formula_units_Z   2
loop_
 _symmetry_equiv_pos_site_id
 _symmetry_equiv_pos_as_xyz
  1  'x, y, z'
loop_
 _atom_site_type_symbol
 _atom_site_label
 _atom_site_symmetry_multiplicity
 _atom_site_fract_x
 _atom_site_fract_y
 _atom_site_fract_z
 _atom_site_occupancy
  Ni  Ni0  1  0.86208100  0.13791900  0.55757900  1
  Ni  Ni1  1  0.86208100  0.13791900  0.94242100  1
  Ni  Ni2  1  0.13791900  0.86208100  0.05757900  1
  Ni  Ni3  1  0.13791900  0.86208100  0.44242100  1
  Cu  Cu4  1  0.80425300  0.19574700  0.25000000  1
  Cu  Cu5  1  0.19574700  0.80425300  0.75000000  1
  C  C6  1  0.95289000  0.04711000  0.10808100  1
  C  C7  1  0.95289000  0.04711000  0.39191900  1
  C  C8  1  0.68945000  0.31055000  0.44644600  1
  C  C9  1  0.68945000  0.31055000  0.05355400  1
  C  C10  1  0.78882400  0.21117600  0.75000000  1
  C  C11  1  0.21117600  0.78882400  0.25000000  1
  C  C12  1  0.04711000  0.95289000  0.60808100  1
  C  C13  1  0.31055000  0.68945000  0.55355400  1
  C  C14  1  0.04711000  0.95289000  0.89191900  1
  C  C15  1  0.31055000  0.68945000  0.94644600  1
