# generated using pymatgen
data_Cu(NiC)4
_symmetry_space_group_name_H-M   'P 1'
_cell_length_a   9.99408792
_cell_length_b   9.99408792
_cell_length_c   6.56721700
_cell_angle_alpha   90.00000000
_cell_angle_beta   90.00000000
_cell_angle_gamma   119.99999945
_symmetry_Int_Tables_number   1
_chemical_formula_structural   Cu(NiC)4
_chemical_formula_sum   'Cu6 Ni24 C24'
_cell_volume   568.06539249
_cell_formula_units_Z   6
loop_
 _symmetry_equiv_pos_site_id
 _symmetry_equiv_pos_as_xyz
  1  'x, y, z'
loop_
 _atom_site_type_symbol
 _atom_site_label
 _atom_site_symmetry_multiplicity
 _atom_site_fract_x
 _atom_site_fract_y
 _atom_site_fract_z
 _atom_site_occupancy
  C  C0  1  0.49959700  0.50052000  0.50184300  1
  C  C1  1  0.66666700  0.33333300  0.56021400  1
  C  C2  1  0.66666700  0.33333300  0.94484600  1
  C  C3  1  0.33333300  0.66666700  0.44906200  1
  C  C4  1  0.33333300  0.66666700  0.06563300  1
  C  C5  1  0.49948000  0.99907800  0.50184300  1
  C  C6  1  0.00092200  0.50040300  0.50184300  1
  C  C7  1  0.79831200  0.14843400  0.73495800  1
  C  C8  1  0.65367900  0.80240300  0.27359100  1
  C  C9  1  0.14872400  0.34632100  0.27359100  1
  C  C10  1  0.00000000  0.00000000  0.98395000  1
  C  C11  1  0.00000000  0.00000000  0.49010000  1
  C  C12  1  0.85156600  0.64987800  0.73495800  1
  C  C13  1  0.35012200  0.20168800  0.73495800  1
  C  C14  1  0.19759700  0.85127600  0.27359100  1
  C  C15  1  0.50010300  0.50038700  0.00384300  1
  C  C16  1  0.49961300  0.99971600  0.00384300  1
  C  C17  1  0.00028400  0.49989700  0.00384300  1
  C  C18  1  0.36836100  0.19168600  0.26022000  1
  C  C19  1  0.82332400  0.63163900  0.26022000  1
  C  C20  1  0.63162000  0.80931200  0.74962300  1
  C  C21  1  0.80831400  0.17667600  0.26022000  1
  C  C22  1  0.17769200  0.36838000  0.74962300  1
  C  C23  1  0.19068800  0.82230800  0.74962300  1
  Ni  Ni24  1  0.34988800  0.40598300  0.77210400  1
  Ni  Ni25  1  0.45183300  0.29501300  0.06809600  1
  Ni  Ni26  1  0.44609300  0.28142200  0.45421600  1
  Ni  Ni27  1  0.65174100  0.59593600  0.23529000  1
  Ni  Ni28  1  0.40406400  0.05580500  0.23529000  1
  Ni  Ni29  1  0.83532900  0.55390700  0.45421600  1
  Ni  Ni30  1  0.84318000  0.54816700  0.06809600  1
  Ni  Ni31  1  0.59401700  0.94390500  0.77210400  1
  Ni  Ni32  1  0.70498700  0.15682000  0.06809600  1
  Ni  Ni33  1  0.71857800  0.16467100  0.45421600  1
  Ni  Ni34  1  0.55679100  0.72004800  0.55470100  1
  Ni  Ni35  1  0.54733800  0.70560900  0.94101400  1
  Ni  Ni36  1  0.94419500  0.34825900  0.23529000  1
  Ni  Ni37  1  0.05609500  0.65011200  0.77210400  1
  Ni  Ni38  1  0.87064100  0.06447800  0.25586000  1
  Ni  Ni39  1  0.80675100  0.87358700  0.75781100  1
  Ni  Ni40  1  0.15827100  0.45266200  0.94101400  1
  Ni  Ni41  1  0.16325700  0.44320900  0.55470100  1
  Ni  Ni42  1  0.06683600  0.19324900  0.75781100  1
  Ni  Ni43  1  0.93552200  0.80616200  0.25586000  1
  Ni  Ni44  1  0.19383800  0.12935900  0.25586000  1
  Ni  Ni45  1  0.12641300  0.93316400  0.75781100  1
  Ni  Ni46  1  0.27995200  0.83674300  0.55470100  1
  Ni  Ni47  1  0.29439100  0.84172900  0.94101400  1
  Cu  Cu48  1  0.35929600  0.51329200  0.24103700  1
  Cu  Cu49  1  0.64155400  0.48655700  0.76971300  1
  Cu  Cu50  1  0.51344300  0.15499700  0.76971300  1
  Cu  Cu51  1  0.48670800  0.84600400  0.24103700  1
  Cu  Cu52  1  0.84500300  0.35844600  0.76971300  1
  Cu  Cu53  1  0.15399600  0.64070400  0.24103700  1
