# generated using pymatgen
data_Cu12Ni19C48
_symmetry_space_group_name_H-M   'P 1'
_cell_length_a   7.70350800
_cell_length_b   11.44279454
_cell_length_c   11.46432676
_cell_angle_alpha   68.23685806
_cell_angle_beta   74.64030123
_cell_angle_gamma   81.69128809
_symmetry_Int_Tables_number   1
_chemical_formula_structural   Cu12Ni19C48
_chemical_formula_sum   'Cu12 Ni19 C48'
_cell_volume   903.81391252
_cell_formula_units_Z   1
loop_
 _symmetry_equiv_pos_site_id
 _symmetry_equiv_pos_as_xyz
  1  'x, y, z'
loop_
 _atom_site_type_symbol
 _atom_site_label
 _atom_site_symmetry_multiplicity
 _atom_site_fract_x
 _atom_site_fract_y
 _atom_site_fract_z
 _atom_site_occupancy
  Ni  Ni0  1  0.00000000  0.00000000  0.50000000  1
  Ni  Ni1  1  0.26436400  0.00510700  0.22851200  1
  Ni  Ni2  1  0.25621800  0.00836400  0.72539300  1
  Ni  Ni3  1  0.31982600  0.34149000  0.99514500  1
  Ni  Ni4  1  0.68218000  0.16319700  0.99391000  1
  Ni  Ni5  1  0.07154500  0.32988100  0.27376900  1
  Ni  Ni6  1  0.07152400  0.32500900  0.77106100  1
  Ni  Ni7  1  0.33154600  0.33555800  0.50023100  1
  Ni  Ni8  1  0.60055900  0.33702400  0.23021000  1
  Ni  Ni9  1  0.58843900  0.33744900  0.72000900  1
  Ni  Ni10  1  0.68017400  0.65851000  0.00485500  1
  Ni  Ni11  1  0.31782000  0.83680300  0.00609000  1
  Ni  Ni12  1  0.41156100  0.66255100  0.27999100  1
  Ni  Ni13  1  0.39944100  0.66297600  0.76979000  1
  Ni  Ni14  1  0.66845400  0.66444200  0.49976900  1
  Ni  Ni15  1  0.92847600  0.67499100  0.22893900  1
  Ni  Ni16  1  0.92845500  0.67011900  0.72623100  1
  Ni  Ni17  1  0.74378200  0.99163600  0.27460700  1
  Ni  Ni18  1  0.73563600  0.99489300  0.77148800  1
  Cu  Cu19  1  0.38448200  0.13490400  0.40347700  1
  Cu  Cu20  1  0.33712300  0.09580400  0.90721500  1
  Cu  Cu21  1  0.98551300  0.23754400  0.09695600  1
  Cu  Cu22  1  0.32484700  0.56916000  0.09755700  1
  Cu  Cu23  1  0.94881800  0.19600500  0.59678300  1
  Cu  Cu24  1  0.27687300  0.53165300  0.59826900  1
  Cu  Cu25  1  0.72312700  0.46834700  0.40173100  1
  Cu  Cu26  1  0.05118200  0.80399500  0.40321700  1
  Cu  Cu27  1  0.67515300  0.43084000  0.90244300  1
  Cu  Cu28  1  0.01448700  0.76245600  0.90304400  1
  Cu  Cu29  1  0.66287700  0.90419600  0.09278500  1
  Cu  Cu30  1  0.61551800  0.86509600  0.59652300  1
  C  C31  1  0.26130900  0.00164700  0.05605900  1
  C  C32  1  0.16025400  0.19302300  0.16873000  1
  C  C33  1  0.26828700  0.03403200  0.39044400  1
  C  C34  1  0.01936100  0.04405400  0.66825200  1
  C  C35  1  0.36573000  0.12631900  0.55255900  1
  C  C36  1  0.59550500  0.13915000  0.31953200  1
  C  C37  1  0.32076900  0.28679200  0.32976400  1
  C  C38  1  0.86512100  0.12634600  0.10863700  1
  C  C39  1  0.21717600  0.45227600  0.10836800  1
  C  C40  1  0.06026300  0.29957700  0.60923500  1
  C  C41  1  0.18538300  0.14439300  0.82028400  1
  C  C42  1  0.45891400  0.99816500  0.83242300  1
  C  C43  1  0.58849100  0.33374200  0.05161300  1
  C  C44  1  0.08245500  0.31906200  0.94698400  1
  C  C45  1  0.20152200  0.66783800  0.16697500  1
  C  C46  1  0.87017700  0.32730600  0.17895600  1
  C  C47  1  0.50401500  0.52155100  0.16227500  1
  C  C48  1  0.60498300  0.36669900  0.39039300  1
  C  C49  1  0.45468700  0.20631800  0.90640700  1
  C  C50  1  0.33338900  0.37988000  0.67434900  1
  C  C51  1  0.73978500  0.18322200  0.68319600  1
  C  C52  1  0.06432900  0.52763100  0.68186100  1
  C  C53  1  0.29649900  0.53595400  0.45161400  1
  C  C54  1  0.96955200  0.20685400  0.44686400  1
  C  C55  1  0.70350100  0.46404600  0.54838600  1
  C  C56  1  0.03044800  0.79314600  0.55313600  1
  C  C57  1  0.93567100  0.47236900  0.31813900  1
  C  C58  1  0.26021500  0.81677800  0.31680400  1
  C  C59  1  0.66661100  0.62012000  0.32565100  1
  C  C60  1  0.54531300  0.79368200  0.09359300  1
  C  C61  1  0.39501700  0.63330100  0.60960700  1
  C  C62  1  0.49598500  0.47844900  0.83772500  1
  C  C63  1  0.79847800  0.33216200  0.83302500  1
  C  C64  1  0.12982300  0.67269400  0.82104400  1
  C  C65  1  0.91754500  0.68093800  0.05301600  1
  C  C66  1  0.41150900  0.66625800  0.94838700  1
  C  C67  1  0.54108600  0.00183500  0.16757700  1
  C  C68  1  0.81461700  0.85560700  0.17971600  1
  C  C69  1  0.93973700  0.70042300  0.39076500  1
  C  C70  1  0.13487900  0.87365400  0.89136300  1
  C  C71  1  0.78282400  0.54772400  0.89163200  1
  C  C72  1  0.67923100  0.71320800  0.67023600  1
  C  C73  1  0.40449500  0.86085000  0.68046800  1
  C  C74  1  0.63427000  0.87368100  0.44744100  1
  C  C75  1  0.98063900  0.95594600  0.33174800  1
  C  C76  1  0.73171300  0.96596800  0.60955600  1
  C  C77  1  0.83974600  0.80697700  0.83127000  1
  C  C78  1  0.73869100  0.99835300  0.94394100  1
