# generated using pymatgen
data_Cu(NiC3)2
_symmetry_space_group_name_H-M   'P 1'
_cell_length_a   8.31457600
_cell_length_b   8.58513700
_cell_length_c   25.24408090
_cell_angle_alpha   86.52067253
_cell_angle_beta   90.00000000
_cell_angle_gamma   90.00000000
_symmetry_Int_Tables_number   1
_chemical_formula_structural   Cu(NiC3)2
_chemical_formula_sum   'Cu4 Ni8 C24'
_cell_volume   1798.64582089
_cell_formula_units_Z   4
loop_
 _symmetry_equiv_pos_site_id
 _symmetry_equiv_pos_as_xyz
  1  'x, y, z'
loop_
 _atom_site_type_symbol
 _atom_site_label
 _atom_site_symmetry_multiplicity
 _atom_site_fract_x
 _atom_site_fract_y
 _atom_site_fract_z
 _atom_site_occupancy
  Ni  Ni0  1  0.44828800  0.76896500  0.73964100  1
  Ni  Ni1  1  0.02118200  0.66851500  0.90828600  1
  Ni  Ni2  1  0.05171200  0.76896500  0.23964100  1
  Ni  Ni3  1  0.47881800  0.66851500  0.40828600  1
  Ni  Ni4  1  0.52118200  0.33148500  0.59171400  1
  Ni  Ni5  1  0.94828800  0.23103500  0.76035900  1
  Ni  Ni6  1  0.97881800  0.33148500  0.09171400  1
  Ni  Ni7  1  0.55171200  0.23103500  0.26035900  1
  Cu  Cu8  1  0.96545400  0.84217400  0.58969900  1
  Cu  Cu9  1  0.53454600  0.84217400  0.08969900  1
  Cu  Cu10  1  0.46545400  0.15782600  0.91030100  1
  Cu  Cu11  1  0.03454600  0.15782600  0.41030100  1
  C  C12  1  0.21167900  0.97101700  0.82789500  1
  C  C13  1  0.71352200  0.92350000  0.83934100  1
  C  C14  1  0.30089400  0.86468000  0.98462600  1
  C  C15  1  0.28832100  0.97101700  0.32789500  1
  C  C16  1  0.78647800  0.92350000  0.33934100  1
  C  C17  1  0.19910600  0.86468000  0.48462600  1
  C  C18  1  0.71156300  0.63897400  0.52098300  1
  C  C19  1  0.23807700  0.58811300  0.64226200  1
  C  C20  1  0.75368300  0.53866000  0.68478100  1
  C  C21  1  0.25368300  0.46134000  0.81521900  1
  C  C22  1  0.78843700  0.63897400  0.02098300  1
  C  C23  1  0.73807700  0.41188700  0.85773800  1
  C  C24  1  0.26192300  0.58811300  0.14226200  1
  C  C25  1  0.21156300  0.36102600  0.97901700  1
  C  C26  1  0.74631700  0.53866000  0.18478100  1
  C  C27  1  0.24631700  0.46134000  0.31521900  1
  C  C28  1  0.76192300  0.41188700  0.35773800  1
  C  C29  1  0.28843700  0.36102600  0.47901700  1
  C  C30  1  0.80089400  0.13532000  0.51537400  1
  C  C31  1  0.21352200  0.07650000  0.66065900  1
  C  C32  1  0.71167900  0.02898300  0.67210500  1
  C  C33  1  0.69910600  0.13532000  0.01537400  1
  C  C34  1  0.28647800  0.07650000  0.16065900  1
  C  C35  1  0.78832100  0.02898300  0.17210500  1
