# generated using pymatgen
data_Cu5(NiC2)3
_symmetry_space_group_name_H-M   'P 1'
_cell_length_a   5.84003238
_cell_length_b   10.53275117
_cell_length_c   6.24524927
_cell_angle_alpha   104.31864098
_cell_angle_beta   62.12573841
_cell_angle_gamma   106.09382207
_symmetry_Int_Tables_number   1
_chemical_formula_structural   Cu5(NiC2)3
_chemical_formula_sum   'Cu10 Ni6 C12'
_cell_volume   323.12675588
_cell_formula_units_Z   2
loop_
 _symmetry_equiv_pos_site_id
 _symmetry_equiv_pos_as_xyz
  1  'x, y, z'
loop_
 _atom_site_type_symbol
 _atom_site_label
 _atom_site_symmetry_multiplicity
 _atom_site_fract_x
 _atom_site_fract_y
 _atom_site_fract_z
 _atom_site_occupancy
  C  C0  1  0.17868800  0.56912800  0.21213200  1
  C  C1  1  0.67833500  0.06912600  0.71213500  1
  C  C2  1  0.87663800  0.61348800  0.86017700  1
  C  C3  1  0.37671000  0.11348600  0.36017700  1
  C  C4  1  0.01379500  0.01808600  0.99060600  1
  C  C5  1  0.51368200  0.51808800  0.49061800  1
  C  C6  1  0.93668500  0.31098900  0.43773400  1
  C  C7  1  0.92389300  0.30793300  0.94319600  1
  C  C8  1  0.42375100  0.80780000  0.44316600  1
  C  C9  1  0.43659700  0.81098400  0.93769700  1
  C  C10  1  0.44087500  0.30779300  0.94315000  1
  C  C11  1  0.94084600  0.80793000  0.44318100  1
  Ni  Ni12  1  0.07519100  0.21575800  0.06619800  1
  Ni  Ni13  1  0.57436600  0.71576300  0.56621200  1
  Ni  Ni14  1  0.79705400  0.40691000  0.81205700  1
  Ni  Ni15  1  0.29780800  0.90691300  0.31205900  1
  Ni  Ni16  1  0.57991800  0.19913400  0.03889800  1
  Ni  Ni17  1  0.08028600  0.69913900  0.53889900  1
  Cu  Cu18  1  0.29794100  0.42416800  0.82853700  1
  Cu  Cu19  1  0.79769900  0.92417300  0.32853500  1
  Cu  Cu20  1  0.55304400  0.68044800  0.06849700  1
  Cu  Cu21  1  0.05257900  0.18087800  0.56913500  1
  Cu  Cu22  1  0.05923300  0.68089100  0.06905400  1
  Cu  Cu23  1  0.55893700  0.18043900  0.56841600  1
  Cu  Cu24  1  0.82923700  0.44486700  0.30208500  1
  Cu  Cu25  1  0.32889200  0.94543900  0.80268900  1
  Cu  Cu26  1  0.31383000  0.44540900  0.30266500  1
  Cu  Cu27  1  0.81349500  0.94484000  0.80209500  1
