# generated using pymatgen
data_Cu3NiC9
_symmetry_space_group_name_H-M   'P 1'
_cell_length_a   12.16198700
_cell_length_b   7.63475600
_cell_length_c   10.76091924
_cell_angle_alpha   48.89588716
_cell_angle_beta   90.00000000
_cell_angle_gamma   90.00000000
_symmetry_Int_Tables_number   1
_chemical_formula_structural   Cu3NiC9
_chemical_formula_sum   'Cu12 Ni4 C36'
_cell_volume   752.90757046
_cell_formula_units_Z   4
loop_
 _symmetry_equiv_pos_site_id
 _symmetry_equiv_pos_as_xyz
  1  'x, y, z'
loop_
 _atom_site_type_symbol
 _atom_site_label
 _atom_site_symmetry_multiplicity
 _atom_site_fract_x
 _atom_site_fract_y
 _atom_site_fract_z
 _atom_site_occupancy
  C  C0  1  0.32529800  0.75603400  0.62444700  1
  C  C1  1  0.82529800  0.24396600  0.87555300  1
  C  C2  1  0.17470200  0.75603400  0.12444700  1
  C  C3  1  0.67470200  0.24396600  0.37555300  1
  Ni  Ni4  1  0.81907300  0.30921300  0.15299600  1
  Ni  Ni5  1  0.31907300  0.69078700  0.34700400  1
  Ni  Ni6  1  0.68092700  0.30921300  0.65299600  1
  Ni  Ni7  1  0.18092700  0.69078700  0.84700400  1
  Cu  Cu8  1  0.65806300  0.48460600  0.97678900  1
  Cu  Cu9  1  0.87397600  0.85990400  0.57961400  1
  Cu  Cu10  1  0.54654200  0.84315200  0.40898300  1
  Cu  Cu11  1  0.04654200  0.15684800  0.09101700  1
  Cu  Cu12  1  0.37397600  0.14009600  0.92038600  1
  Cu  Cu13  1  0.15806300  0.51539400  0.52321100  1
  Cu  Cu14  1  0.84193700  0.48460600  0.47678900  1
  Cu  Cu15  1  0.62602400  0.85990400  0.07961400  1
  Cu  Cu16  1  0.95345800  0.84315200  0.90898300  1
  Cu  Cu17  1  0.45345800  0.15684800  0.59101700  1
  Cu  Cu18  1  0.12602400  0.14009600  0.42038600  1
  Cu  Cu19  1  0.34193700  0.51539400  0.02321100  1
  C  C20  1  0.26259800  0.28545900  0.12381000  1
  C  C21  1  0.74072700  0.28093400  0.18522700  1
  C  C22  1  0.04270600  0.09762600  0.28407000  1
  C  C23  1  0.40914100  0.77305200  0.45337500  1
  C  C24  1  0.54585500  0.12445600  0.33232700  1
  C  C25  1  0.73651100  0.91390300  0.54964600  1
  C  C26  1  0.38769900  0.42940100  0.80370300  1
  C  C27  1  0.18549700  0.65573900  0.59524900  1
  C  C28  1  0.68549700  0.34426100  0.90475100  1
  C  C29  1  0.88769900  0.57059900  0.69629700  1
  C  C30  1  0.23651100  0.08609700  0.95035400  1
  C  C31  1  0.04585500  0.87554400  0.16767300  1
  C  C32  1  0.90914100  0.22694800  0.04662500  1
  C  C33  1  0.54270600  0.90237400  0.21593000  1
  C  C34  1  0.24072700  0.71906600  0.31477300  1
  C  C35  1  0.76259800  0.71454100  0.37619000  1
  C  C36  1  0.23740200  0.28545900  0.62381000  1
  C  C37  1  0.75927300  0.28093400  0.68522700  1
  C  C38  1  0.45729400  0.09762600  0.78407000  1
  C  C39  1  0.09085900  0.77305200  0.95337500  1
  C  C40  1  0.95414500  0.12445600  0.83232700  1
  C  C41  1  0.76348900  0.91390300  0.04964600  1
  C  C42  1  0.11230100  0.42940100  0.30370300  1
  C  C43  1  0.31450300  0.65573900  0.09524900  1
  C  C44  1  0.81450300  0.34426100  0.40475100  1
  C  C45  1  0.61230100  0.57059900  0.19629700  1
  C  C46  1  0.26348900  0.08609700  0.45035400  1
  C  C47  1  0.45414500  0.87554400  0.66767300  1
  C  C48  1  0.59085900  0.22694800  0.54662500  1
  C  C49  1  0.95729400  0.90237400  0.71593000  1
  C  C50  1  0.25927300  0.71906600  0.81477300  1
  C  C51  1  0.73740200  0.71454100  0.87619000  1
