# generated using pymatgen
data_CuNi3C10
_symmetry_space_group_name_H-M   'P 1'
_cell_length_a   5.83729186
_cell_length_b   5.83729186
_cell_length_c   9.64964800
_cell_angle_alpha   90.00000000
_cell_angle_beta   90.00000000
_cell_angle_gamma   119.99999842
_symmetry_Int_Tables_number   1
_chemical_formula_structural   CuNi3C10
_chemical_formula_sum   'Cu2 Ni6 C20'
_cell_volume   284.75078274
_cell_formula_units_Z   2
loop_
 _symmetry_equiv_pos_site_id
 _symmetry_equiv_pos_as_xyz
  1  'x, y, z'
loop_
 _atom_site_type_symbol
 _atom_site_label
 _atom_site_symmetry_multiplicity
 _atom_site_fract_x
 _atom_site_fract_y
 _atom_site_fract_z
 _atom_site_occupancy
  C  C0  1  0.33333300  0.66666700  0.88619600  1
  C  C1  1  0.00000000  0.00000000  0.99813600  1
  C  C2  1  0.00000000  0.00000000  0.49813600  1
  C  C3  1  0.66666700  0.33333300  0.38619600  1
  Ni  Ni4  1  0.16881700  0.83118300  0.21523100  1
  Ni  Ni5  1  0.16881700  0.33763400  0.21523100  1
  Ni  Ni6  1  0.66236600  0.83118300  0.21523100  1
  Ni  Ni7  1  0.33763400  0.16881700  0.71523100  1
  Ni  Ni8  1  0.83118300  0.66236600  0.71523100  1
  Ni  Ni9  1  0.83118300  0.16881700  0.71523100  1
  Cu  Cu10  1  0.33333300  0.66666700  0.49351400  1
  Cu  Cu11  1  0.66666700  0.33333300  0.99351400  1
  C  C12  1  0.15889000  0.84111000  0.60641300  1
  C  C13  1  0.03519600  0.51759800  0.33021700  1
  C  C14  1  0.33333300  0.66666700  0.10896000  1
  C  C15  1  0.00000000  0.00000000  0.31151100  1
  C  C16  1  0.00000000  0.00000000  0.81151100  1
  C  C17  1  0.15889000  0.31778100  0.60641300  1
  C  C18  1  0.48240200  0.96480400  0.33021700  1
  C  C19  1  0.48240200  0.51759800  0.33021700  1
  C  C20  1  0.31778100  0.15889000  0.10641300  1
  C  C21  1  0.68221900  0.84111000  0.60641300  1
  C  C22  1  0.51759800  0.48240200  0.83021700  1
  C  C23  1  0.51759800  0.03519600  0.83021700  1
  C  C24  1  0.66666700  0.33333300  0.60896000  1
  C  C25  1  0.84111000  0.68221900  0.10641300  1
  C  C26  1  0.96480400  0.48240200  0.83021700  1
  C  C27  1  0.84111000  0.15889000  0.10641300  1
