# generated using pymatgen
data_Cu3Ni2C29
_symmetry_space_group_name_H-M   'P 1'
_cell_length_a   6.00516500
_cell_length_b   6.04933458
_cell_length_c   9.98708303
_cell_angle_alpha   90.39569789
_cell_angle_beta   90.20802366
_cell_angle_gamma   119.55722552
_symmetry_Int_Tables_number   1
_chemical_formula_structural   Cu3Ni2C29
_chemical_formula_sum   'Cu3 Ni2 C29'
_cell_volume   315.57145939
_cell_formula_units_Z   1
loop_
 _symmetry_equiv_pos_site_id
 _symmetry_equiv_pos_as_xyz
  1  'x, y, z'
loop_
 _atom_site_type_symbol
 _atom_site_label
 _atom_site_symmetry_multiplicity
 _atom_site_fract_x
 _atom_site_fract_y
 _atom_site_fract_z
 _atom_site_occupancy
  C  C0  1  0.98519400  0.97335200  0.51435600  1
  C  C1  1  0.97740100  0.98508000  0.01455100  1
  C  C2  1  0.64980900  0.31924500  0.22519000  1
  C  C3  1  0.80372600  0.18978400  0.43640100  1
  C  C4  1  0.78643000  0.58767600  0.44044500  1
  C  C5  1  0.37828000  0.19113900  0.43683600  1
  C  C6  1  0.31924700  0.64701400  0.72457200  1
  C  C7  1  0.58182600  0.78049500  0.94307800  1
  C  C8  1  0.18288700  0.79738800  0.93720400  1
  C  C9  1  0.18749200  0.37559300  0.93624700  1
  Ni  Ni10  1  0.65585300  0.32349500  0.97603900  1
  Ni  Ni11  1  0.32253000  0.65879900  0.47430900  1
  C  C12  1  0.82018500  0.15006300  0.71375900  1
  C  C13  1  0.32576700  0.15118200  0.71235200  1
  C  C14  1  0.15279800  0.32542100  0.21319400  1
  Cu  Cu15  1  0.82069300  0.64774100  0.71458800  1
  Cu  Cu16  1  0.64882400  0.82166300  0.21467800  1
  Cu  Cu17  1  0.15164500  0.82188900  0.21350900  1
  C  C18  1  0.82390100  0.67212800  0.09911300  1
  C  C19  1  0.97677100  0.47588200  0.82827600  1
  C  C20  1  0.82368200  0.14681400  0.10226700  1
  C  C21  1  0.65237900  0.32282900  0.59575000  1
  C  C22  1  0.49714000  0.48291600  0.82960000  1
  C  C23  1  0.29764000  0.14619800  0.09902500  1
  C  C24  1  0.49697500  0.99756700  0.82877200  1
  C  C25  1  0.67032800  0.82396700  0.60110200  1
  C  C26  1  0.47935100  0.97811200  0.32983600  1
  C  C27  1  0.48025700  0.49620600  0.32705300  1
  C  C28  1  0.32095200  0.66326700  0.09712800  1
  C  C29  1  0.14246800  0.81467000  0.60052800  1
  C  C30  1  0.99907900  0.49747300  0.32681300  1
  C  C31  1  0.14109700  0.29343800  0.59607400  1
  C  C32  1  0.98205600  0.98333100  0.32728800  1
  C  C33  1  0.99485500  0.98031000  0.82749500  1
