# generated using pymatgen
data_Cu3Ni2C23
_symmetry_space_group_name_H-M   'P 1'
_cell_length_a   6.24789093
_cell_length_b   6.24789093
_cell_length_c   9.86189150
_cell_angle_alpha   89.34242524
_cell_angle_beta   89.34242524
_cell_angle_gamma   59.59693320
_symmetry_Int_Tables_number   1
_chemical_formula_structural   Cu3Ni2C23
_chemical_formula_sum   'Cu3 Ni2 C23'
_cell_volume   332.00258234
_cell_formula_units_Z   1
loop_
 _symmetry_equiv_pos_site_id
 _symmetry_equiv_pos_as_xyz
  1  'x, y, z'
loop_
 _atom_site_type_symbol
 _atom_site_label
 _atom_site_symmetry_multiplicity
 _atom_site_fract_x
 _atom_site_fract_y
 _atom_site_fract_z
 _atom_site_occupancy
  C  C0  1  0.67196100  0.67196100  0.89896600  1
  C  C1  1  0.98961200  0.98961200  0.98671800  1
  C  C2  1  0.99938700  0.99938700  0.49754500  1
  C  C3  1  0.33017000  0.33017000  0.40351600  1
  Ni  Ni4  1  0.67729500  0.67729500  0.49851400  1
  Ni  Ni5  1  0.34894600  0.34894600  0.97914800  1
  Cu  Cu6  1  0.82967200  0.82967200  0.21345700  1
  Cu  Cu7  1  0.66037400  0.17129300  0.71085100  1
  Cu  Cu8  1  0.17129300  0.66037400  0.71085100  1
  C  C9  1  0.83081700  0.33768200  0.21431900  1
  C  C10  1  0.33768200  0.83081700  0.21431900  1
  C  C11  1  0.17076600  0.17076600  0.71675100  1
  C  C12  1  0.82923800  0.34460300  0.59007600  1
  C  C13  1  0.51412000  0.51412000  0.34157500  1
  C  C14  1  0.66347000  0.66347000  0.10107800  1
  C  C15  1  0.99975100  0.99975100  0.31274900  1
  C  C16  1  0.00366600  0.00366600  0.80507200  1
  C  C17  1  0.34460300  0.82923800  0.59007600  1
  C  C18  1  0.95407000  0.51303100  0.34654300  1
  C  C19  1  0.51303100  0.95407000  0.34654300  1
  C  C20  1  0.16227600  0.16227600  0.09628100  1
  C  C21  1  0.83034400  0.83034400  0.58897800  1
  C  C22  1  0.47729700  0.04171800  0.85220400  1
  C  C23  1  0.04171800  0.47729700  0.85220400  1
  C  C24  1  0.32634200  0.32634200  0.60337500  1
  C  C25  1  0.66308200  0.17250900  0.09279100  1
  C  C26  1  0.48332100  0.48332100  0.85089800  1
  C  C27  1  0.17250900  0.66308200  0.09279100  1
