# generated using pymatgen
data_Cu2(NiC3)3
_symmetry_space_group_name_H-M   'P 1'
_cell_length_a   5.95560691
_cell_length_b   5.95560691
_cell_length_c   5.95560691
_cell_angle_alpha   121.21523352
_cell_angle_beta   120.47303682
_cell_angle_gamma   88.54526209
_symmetry_Int_Tables_number   1
_chemical_formula_structural   Cu2(NiC3)3
_chemical_formula_sum   'Cu2 Ni3 C9'
_cell_volume   147.40453560
_cell_formula_units_Z   1
loop_
 _symmetry_equiv_pos_site_id
 _symmetry_equiv_pos_as_xyz
  1  'x, y, z'
loop_
 _atom_site_type_symbol
 _atom_site_label
 _atom_site_symmetry_multiplicity
 _atom_site_fract_x
 _atom_site_fract_y
 _atom_site_fract_z
 _atom_site_occupancy
  C  C0  1  0.38517900  0.38517900  0.00000000  1
  Ni  Ni1  1  0.11527100  0.61527100  0.50000000  1
  Ni  Ni2  1  0.74636700  0.00017900  0.25381200  1
  Ni  Ni3  1  0.74636700  0.49255500  0.74618800  1
  Cu  Cu4  1  0.25344700  0.00114200  0.25230500  1
  Cu  Cu5  1  0.74883700  0.00114200  0.74769500  1
  C  C6  1  0.97652100  0.20479700  0.22827600  1
  C  C7  1  0.97652100  0.74824500  0.77172400  1
  C  C8  1  0.97226500  0.75311100  0.21915400  1
  C  C9  1  0.53395700  0.75311100  0.78084600  1
  C  C10  1  0.96660300  0.24857500  0.71802900  1
  C  C11  1  0.53054600  0.24857500  0.28197100  1
  C  C12  1  0.52405900  0.79334900  0.26929000  1
  C  C13  1  0.52405900  0.25476900  0.73071000  1
