# generated using pymatgen
data_Cu2Ni2C9
_symmetry_space_group_name_H-M   'P 1'
_cell_length_a   7.63796700
_cell_length_b   8.55119800
_cell_length_c   10.63132469
_cell_angle_alpha   68.37700188
_cell_angle_beta   90.00000000
_cell_angle_gamma   90.00000000
_symmetry_Int_Tables_number   1
_chemical_formula_structural   Cu2Ni2C9
_chemical_formula_sum   'Cu8 Ni8 C36'
_cell_volume   645.50798821
_cell_formula_units_Z   4
loop_
 _symmetry_equiv_pos_site_id
 _symmetry_equiv_pos_as_xyz
  1  'x, y, z'
loop_
 _atom_site_type_symbol
 _atom_site_label
 _atom_site_symmetry_multiplicity
 _atom_site_fract_x
 _atom_site_fract_y
 _atom_site_fract_z
 _atom_site_occupancy
  C  C0  1  0.69784200  0.07911600  0.47301900  1
  C  C1  1  0.19784200  0.92088400  0.02698100  1
  C  C2  1  0.30215800  0.92088400  0.52698100  1
  C  C3  1  0.80215800  0.07911600  0.97301900  1
  C  C4  1  0.70972900  0.34188700  0.11065000  1
  C  C5  1  0.20972900  0.65811300  0.38935000  1
  C  C6  1  0.29027100  0.65811300  0.88935000  1
  C  C7  1  0.79027100  0.34188700  0.61065000  1
  Ni  Ni8  1  0.74127500  0.72771100  0.57463800  1
  Ni  Ni9  1  0.24127500  0.27228900  0.92536200  1
  Ni  Ni10  1  0.25872500  0.27228900  0.42536200  1
  Ni  Ni11  1  0.75872500  0.72771100  0.07463800  1
  Ni  Ni12  1  0.91331500  0.82703100  0.60353000  1
  Ni  Ni13  1  0.41331500  0.17296900  0.89647000  1
  Ni  Ni14  1  0.08668500  0.17296900  0.39647000  1
  Ni  Ni15  1  0.58668500  0.82703100  0.10353000  1
  Cu  Cu16  1  0.59808400  0.94105300  0.78529500  1
  Cu  Cu17  1  0.09808400  0.05894700  0.71470500  1
  Cu  Cu18  1  0.40191600  0.05894700  0.21470500  1
  Cu  Cu19  1  0.90191600  0.94105300  0.28529500  1
  Cu  Cu20  1  0.56172800  0.48736500  0.32902900  1
  Cu  Cu21  1  0.06172800  0.51263500  0.17097100  1
  Cu  Cu22  1  0.43827200  0.51263500  0.67097100  1
  Cu  Cu23  1  0.93827200  0.48736500  0.82902900  1
  C  C24  1  0.40129000  0.87104600  0.87144500  1
  C  C25  1  0.90129000  0.12895400  0.62855500  1
  C  C26  1  0.59871000  0.12895400  0.12855500  1
  C  C27  1  0.09871000  0.87104600  0.37144500  1
  C  C28  1  0.51754700  0.02912500  0.61986100  1
  C  C29  1  0.01754700  0.97087500  0.88013900  1
  C  C30  1  0.48245300  0.97087500  0.38013900  1
  C  C31  1  0.98245300  0.02912500  0.11986100  1
  C  C32  1  0.62604500  0.12428700  0.82308000  1
  C  C33  1  0.12604500  0.87571300  0.67692000  1
  C  C34  1  0.37395500  0.87571300  0.17692000  1
  C  C35  1  0.87395500  0.12428700  0.32308000  1
  C  C36  1  0.52166900  0.39920100  0.21078400  1
  C  C37  1  0.02166900  0.60079900  0.28921600  1
  C  C38  1  0.47833100  0.60079900  0.78921600  1
  C  C39  1  0.97833100  0.39920100  0.71078400  1
  C  C40  1  0.35400900  0.46110100  0.40243900  1
  C  C41  1  0.85400900  0.53889900  0.09756100  1
  C  C42  1  0.64599100  0.53889900  0.59756100  1
  C  C43  1  0.14599100  0.46110100  0.90243900  1
  C  C44  1  0.68190500  0.32260900  0.44754700  1
  C  C45  1  0.18190500  0.67739100  0.05245300  1
  C  C46  1  0.31809500  0.67739100  0.55245300  1
  C  C47  1  0.81809500  0.32260900  0.94754700  1
  C  C48  1  0.79826500  0.83858200  0.55932300  1
  C  C49  1  0.29826500  0.16141800  0.94067700  1
  C  C50  1  0.20173500  0.16141800  0.44067700  1
  C  C51  1  0.70173500  0.83858200  0.05932300  1
