# generated using pymatgen
data_Cu(NiC3)2
_symmetry_space_group_name_H-M   'P 1'
_cell_length_a   5.28193700
_cell_length_b   6.48907700
_cell_length_c   10.77706800
_cell_angle_alpha   90.00000000
_cell_angle_beta   90.00000000
_cell_angle_gamma   90.00000000
_symmetry_Int_Tables_number   1
_chemical_formula_structural   Cu(NiC3)2
_chemical_formula_sum   'Cu4 Ni8 C24'
_cell_volume   369.38288383
_cell_formula_units_Z   4
loop_
 _symmetry_equiv_pos_site_id
 _symmetry_equiv_pos_as_xyz
  1  'x, y, z'
loop_
 _atom_site_type_symbol
 _atom_site_label
 _atom_site_symmetry_multiplicity
 _atom_site_fract_x
 _atom_site_fract_y
 _atom_site_fract_z
 _atom_site_occupancy
  C  C0  1  0.86046500  0.99979300  0.69315600  1
  C  C1  1  0.13953500  0.49979300  0.30684400  1
  C  C2  1  0.86046500  0.49979300  0.80684400  1
  C  C3  1  0.13953500  0.99979300  0.19315600  1
  C  C4  1  0.37810000  0.06437900  0.50119500  1
  C  C5  1  0.62190000  0.56437900  0.49880500  1
  C  C6  1  0.37810000  0.56437900  0.99880500  1
  C  C7  1  0.62190000  0.06437900  0.00119500  1
  Ni  Ni8  1  0.83736600  0.14790200  0.43365300  1
  Ni  Ni9  1  0.16263400  0.64790200  0.56634700  1
  Ni  Ni10  1  0.83736600  0.64790200  0.06634700  1
  Ni  Ni11  1  0.16263400  0.14790200  0.93365300  1
  Ni  Ni12  1  0.89977000  0.91784100  0.40943000  1
  Ni  Ni13  1  0.10023000  0.41784100  0.59057000  1
  Ni  Ni14  1  0.89977000  0.41784100  0.09057000  1
  Ni  Ni15  1  0.10023000  0.91784100  0.90943000  1
  Cu  Cu16  1  0.39801400  0.78546500  0.75491000  1
  Cu  Cu17  1  0.60198600  0.28546500  0.24509000  1
  Cu  Cu18  1  0.39801400  0.28546500  0.74509000  1
  Cu  Cu19  1  0.60198600  0.78546500  0.25491000  1
  C  C20  1  0.45303400  0.79878800  0.63751200  1
  C  C21  1  0.54696600  0.29878800  0.36248800  1
  C  C22  1  0.45303400  0.29878800  0.86248800  1
  C  C23  1  0.54696600  0.79878800  0.13751200  1
  C  C24  1  0.57536900  0.79690900  0.83749900  1
  C  C25  1  0.42463100  0.29690900  0.16250100  1
  C  C26  1  0.57536900  0.29690900  0.66250100  1
  C  C27  1  0.42463100  0.79690900  0.33749900  1
  C  C28  1  0.16215700  0.76056000  0.78875400  1
  C  C29  1  0.83784300  0.26056000  0.21124600  1
  C  C30  1  0.16215700  0.26056000  0.71124600  1
  C  C31  1  0.83784300  0.76056000  0.28875400  1
  C  C32  1  0.93175000  0.03216300  0.47093600  1
  C  C33  1  0.06825000  0.53216300  0.52906400  1
  C  C34  1  0.93175000  0.53216300  0.02906400  1
  C  C35  1  0.06825000  0.03216300  0.97093600  1
