# generated using pymatgen
data_Cu5NiC3
_symmetry_space_group_name_H-M   'P 1'
_cell_length_a   5.16912100
_cell_length_b   5.22578687
_cell_length_c   13.82690528
_cell_angle_alpha   90.42730970
_cell_angle_beta   89.87485333
_cell_angle_gamma   119.06953751
_symmetry_Int_Tables_number   1
_chemical_formula_structural   Cu5NiC3
_chemical_formula_sum   'Cu15 Ni3 C9'
_cell_volume   326.44301853
_cell_formula_units_Z   3
loop_
 _symmetry_equiv_pos_site_id
 _symmetry_equiv_pos_as_xyz
  1  'x, y, z'
loop_
 _atom_site_type_symbol
 _atom_site_label
 _atom_site_symmetry_multiplicity
 _atom_site_fract_x
 _atom_site_fract_y
 _atom_site_fract_z
 _atom_site_occupancy
  C  C0  1  0.00247800  0.98343800  0.23790700  1
  C  C1  1  0.35008500  0.69018700  0.60936400  1
  C  C2  1  0.69882800  0.35460500  0.89597100  1
  C  C3  1  0.01460600  0.98694700  0.99729800  1
  C  C4  1  0.31230300  0.66311300  0.33029500  1
  C  C5  1  0.32465700  0.67067500  0.83965000  1
  C  C6  1  0.66686900  0.31792700  0.65959600  1
  C  C7  1  0.69186900  0.35041900  0.17134400  1
  C  C8  1  0.97915700  0.00452100  0.50182100  1
  Ni  Ni9  1  0.05828200  0.71913000  0.91836500  1
  Ni  Ni10  1  0.71261000  0.04958900  0.58275800  1
  Ni  Ni11  1  0.00174700  0.61604500  0.24909900  1
  Cu  Cu12  1  0.26803400  0.95208100  0.41769100  1
  Cu  Cu13  1  0.04819000  0.33348400  0.41582800  1
  Cu  Cu14  1  0.37654900  0.97325500  0.74348200  1
  Cu  Cu15  1  0.63920500  0.98920900  0.25128900  1
  Cu  Cu16  1  0.32935900  0.34338500  0.91612800  1
  Cu  Cu17  1  0.33466600  0.32033000  0.58430100  1
  Cu  Cu18  1  0.36039800  0.34939600  0.25003700  1
  Cu  Cu19  1  0.68715900  0.98704000  0.91496400  1
  Cu  Cu20  1  0.65323500  0.71485300  0.41493700  1
  Cu  Cu21  1  0.59511200  0.59448000  0.74931600  1
  Cu  Cu22  1  0.33246800  0.06019300  0.08995200  1
  Cu  Cu23  1  0.72000700  0.67647600  0.08586200  1
  Cu  Cu24  1  0.98004800  0.67883600  0.58354300  1
  Cu  Cu25  1  0.94094200  0.27164200  0.07928200  1
  Cu  Cu26  1  0.97718900  0.37894700  0.75674100  1
