# generated using pymatgen
data_Cu11NiC4
_symmetry_space_group_name_H-M   'P 1'
_cell_length_a   5.29036100
_cell_length_b   5.46802874
_cell_length_c   15.50222963
_cell_angle_alpha   99.64151707
_cell_angle_beta   90.10714254
_cell_angle_gamma   90.12845389
_symmetry_Int_Tables_number   1
_chemical_formula_structural   Cu11NiC4
_chemical_formula_sum   'Cu22 Ni2 C8'
_cell_volume   442.10952351
_cell_formula_units_Z   2
loop_
 _symmetry_equiv_pos_site_id
 _symmetry_equiv_pos_as_xyz
  1  'x, y, z'
loop_
 _atom_site_type_symbol
 _atom_site_label
 _atom_site_symmetry_multiplicity
 _atom_site_fract_x
 _atom_site_fract_y
 _atom_site_fract_z
 _atom_site_occupancy
  C  C0  1  0.70865600  0.31440000  0.17906600  1
  C  C1  1  0.17669000  0.63569300  0.82429600  1
  C  C2  1  0.50510900  0.16857400  0.33828500  1
  C  C3  1  0.00299300  0.00176600  0.00286500  1
  C  C4  1  0.99681100  0.32727600  0.65981200  1
  C  C5  1  0.49723600  0.49740000  0.99138500  1
  C  C6  1  0.98232000  0.64306000  0.33409000  1
  C  C7  1  0.50146200  0.83437300  0.66352100  1
  Ni  Ni8  1  0.41074800  0.46860900  0.88797400  1
  Ni  Ni9  1  0.78112100  0.37364800  0.31153700  1
  Cu  Cu10  1  0.79982900  0.01799300  0.64242800  1
  Cu  Cu11  1  0.70924100  0.18487500  0.97743700  1
  Cu  Cu12  1  0.29926300  0.13707800  0.68732600  1
  Cu  Cu13  1  0.91146700  0.04480400  0.11637400  1
  Cu  Cu14  1  0.58470800  0.20774800  0.45025800  1
  Cu  Cu15  1  0.93143500  0.38704800  0.77898300  1
  Cu  Cu16  1  0.43051000  0.13343100  0.22060600  1
  Cu  Cu17  1  0.08982300  0.29773800  0.54907700  1
  Cu  Cu18  1  0.69659500  0.52535900  0.64253200  1
  Cu  Cu19  1  0.81193400  0.69837400  0.97701300  1
  Cu  Cu20  1  0.19705700  0.30099800  0.02495300  1
  Cu  Cu21  1  0.28595100  0.46169300  0.35765900  1
  Cu  Cu22  1  0.20364700  0.64265500  0.69353300  1
  Cu  Cu23  1  0.59168800  0.53473200  0.11218800  1
  Cu  Cu24  1  0.57410900  0.86720800  0.77804600  1
  Cu  Cu25  1  0.92549600  0.72291400  0.44787000  1
  Cu  Cu26  1  0.40889400  0.78942100  0.55328800  1
  Cu  Cu27  1  0.07998200  0.62760900  0.22215700  1
  Cu  Cu28  1  0.08903400  0.95516700  0.88734200  1
  Cu  Cu29  1  0.70446100  0.86426700  0.31139900  1
  Cu  Cu30  1  0.29531400  0.81564900  0.02591000  1
  Cu  Cu31  1  0.21538000  0.96497200  0.35388000  1
