# generated using pymatgen
data_CuNiC16
_symmetry_space_group_name_H-M   'P 1'
_cell_length_a   5.42692370
_cell_length_b   7.39666929
_cell_length_c   5.16594288
_cell_angle_alpha   109.02707665
_cell_angle_beta   97.88693187
_cell_angle_gamma   106.64675473
_symmetry_Int_Tables_number   1
_chemical_formula_structural   CuNiC16
_chemical_formula_sum   'Cu1 Ni1 C16'
_cell_volume   181.63135078
_cell_formula_units_Z   1
loop_
 _symmetry_equiv_pos_site_id
 _symmetry_equiv_pos_as_xyz
  1  'x, y, z'
loop_
 _atom_site_type_symbol
 _atom_site_label
 _atom_site_symmetry_multiplicity
 _atom_site_fract_x
 _atom_site_fract_y
 _atom_site_fract_z
 _atom_site_occupancy
  C  C0  1  0.39708500  0.82345000  0.74732000  1
  C  C1  1  0.60291500  0.17655100  0.25268200  1
  Ni  Ni2  1  0.99999800  0.49999800  0.99999900  1
  Cu  Cu3  1  0.99999600  0.99999200  0.99999400  1
  C  C4  1  0.35821100  0.23048400  0.67472800  1
  C  C5  1  0.64178900  0.76951600  0.32527200  1
  C  C6  1  0.06039900  0.33740800  0.36029700  1
  C  C7  1  0.93960000  0.66259300  0.63970300  1
  C  C8  1  0.05024300  0.72754000  0.83775700  1
  C  C9  1  0.20512100  0.38018400  0.72417500  1
  C  C10  1  0.34465800  0.65912400  0.30421600  1
  C  C11  1  0.24996400  0.06901500  0.36681600  1
  C  C12  1  0.33705600  0.11928300  0.88567400  1
  C  C13  1  0.66294600  0.88071900  0.11432900  1
  C  C14  1  0.75003800  0.93098800  0.63318300  1
  C  C15  1  0.65534300  0.34087900  0.69578500  1
  C  C16  1  0.79487900  0.61981800  0.27582800  1
  C  C17  1  0.94975900  0.27246000  0.16224200  1
