# generated using pymatgen
data_CuNi25C39
_symmetry_space_group_name_H-M   'P 1'
_cell_length_a   9.31736800
_cell_length_b   9.60600510
_cell_length_c   14.61983229
_cell_angle_alpha   93.06054559
_cell_angle_beta   90.43215718
_cell_angle_gamma   113.52584568
_symmetry_Int_Tables_number   1
_chemical_formula_structural   CuNi25C39
_chemical_formula_sum   'Cu1 Ni25 C39'
_cell_volume   1197.44434723
_cell_formula_units_Z   1
loop_
 _symmetry_equiv_pos_site_id
 _symmetry_equiv_pos_as_xyz
  1  'x, y, z'
loop_
 _atom_site_type_symbol
 _atom_site_label
 _atom_site_symmetry_multiplicity
 _atom_site_fract_x
 _atom_site_fract_y
 _atom_site_fract_z
 _atom_site_occupancy
  Ni  Ni0  1  0.23767200  0.44359900  0.91560900  1
  Ni  Ni1  1  0.62211400  0.80867200  0.94041300  1
  Ni  Ni2  1  0.45851100  0.86452600  0.64118100  1
  Ni  Ni3  1  0.21243000  0.45946500  0.66445600  1
  Ni  Ni4  1  0.33696300  0.95479000  0.86712300  1
  Ni  Ni5  1  0.95406800  0.65645700  0.85732400  1
  Ni  Ni6  1  0.27010900  0.73020100  0.42827300  1
  Ni  Ni7  1  0.07112300  0.93870300  0.26761400  1
  Ni  Ni8  1  0.52763500  0.34251800  0.77643600  1
  Ni  Ni9  1  0.77210400  0.23074500  0.93558600  1
  Ni  Ni10  1  0.28596000  0.10689800  0.57163700  1
  Ni  Ni11  1  0.73588700  0.93732500  0.42499100  1
  Ni  Ni12  1  0.93538800  0.74703000  0.54487500  1
  Ni  Ni13  1  0.09367900  0.29848800  0.40261800  1
  Ni  Ni14  1  0.26713900  0.75780100  0.08394400  1
  Ni  Ni15  1  0.40521200  0.52606300  0.24858100  1
  Ni  Ni16  1  0.76238000  0.30930400  0.55610500  1
  Ni  Ni17  1  0.95035500  0.09524100  0.72079500  1
  Ni  Ni18  1  0.99915700  0.36130700  0.14900800  1
  Ni  Ni19  1  0.67812800  0.96849000  0.18481200  1
  Ni  Ni20  1  0.84431200  0.52825500  0.33163000  1
  Ni  Ni21  1  0.45376200  0.22369600  0.35047900  1
  Ni  Ni22  1  0.66866600  0.69409700  0.70942500  1
  Ni  Ni23  1  0.78654500  0.61666100  0.08985300  1
  Ni  Ni24  1  0.45650700  0.21434900  0.09650100  1
  Cu  Cu25  1  0.56720200  0.56154200  0.46820700  1
  C  C26  1  0.99774300  0.71450100  0.00305000  1
  C  C27  1  0.00135400  0.36368800  0.99395600  1
  C  C28  1  0.05201600  0.97159300  0.64746900  1
  C  C29  1  0.30054200  0.68219300  0.94676700  1
  C  C30  1  0.54230400  0.91715100  0.83364200  1
  C  C31  1  0.09746300  0.44521000  0.80046300  1
  C  C32  1  0.46063300  0.52372200  0.82560100  1
  C  C33  1  0.20277600  0.82490700  0.55163700  1
  C  C34  1  0.81540200  0.80369900  0.83942500  1
  C  C35  1  0.37347500  0.97674200  0.01072700  1
  C  C36  1  0.72626700  0.93481100  0.65471400  1
  C  C37  1  0.44163000  0.19915000  0.88658100  1
  C  C38  1  0.75115200  0.45915400  0.87349700  1
  C  C39  1  0.24211300  0.05021400  0.39164400  1
  C  C40  1  0.28851000  0.27981200  0.69267600  1
  C  C41  1  0.49936400  0.88270100  0.49891800  1
  C  C42  1  0.75495700  0.02499000  0.00718300  1
  C  C43  1  0.56041100  0.57997000  0.56209200  1
  C  C44  1  0.20188800  0.52572000  0.50026600  1
  C  C45  1  0.04050200  0.44118400  0.31146600  1
  C  C46  1  0.86058300  0.63339900  0.67411800  1
  C  C47  1  0.43815700  0.07091700  0.67745700  1
  C  C48  1  0.57505100  0.87910400  0.31343500  1
  C  C49  1  0.69648000  0.65929200  0.42136900  1
  C  C50  1  0.52491000  0.21968500  0.49908000  1
  C  C51  1  0.88332100  0.51071800  0.48361700  1
  C  C52  1  0.25782800  0.28719300  0.27137000  1
  C  C53  1  0.23839500  0.50333500  0.12734900  1
  C  C54  1  0.50862500  0.77182200  0.11193900  1
  C  C55  1  0.99818700  0.26757200  0.62063400  1
  C  C56  1  0.01786600  0.75332600  0.36299500  1
  C  C57  1  0.83380800  0.81069700  0.18622900  1
  C  C58  1  0.56761500  0.44652600  0.18915300  1
  C  C59  1  0.81943200  0.19971500  0.44036200  1
  C  C60  1  0.44861300  0.44969500  0.41307600  1
  C  C61  1  0.48513800  0.07940800  0.19801900  1
  C  C62  1  0.94220500  0.55978300  0.17516000  1
  C  C63  1  0.93630100  0.05236300  0.32244600  1
  C  C64  1  0.69887600  0.30301600  0.06044000  1
