# generated using pymatgen
data_CuNiC4
_symmetry_space_group_name_H-M   'P 1'
_cell_length_a   6.56541697
_cell_length_b   7.85905525
_cell_length_c   6.80375712
_cell_angle_alpha   115.64907224
_cell_angle_beta   89.99984030
_cell_angle_gamma   114.30614835
_symmetry_Int_Tables_number   1
_chemical_formula_structural   CuNiC4
_chemical_formula_sum   'Cu4 Ni4 C16'
_cell_volume   281.55158936
_cell_formula_units_Z   4
loop_
 _symmetry_equiv_pos_site_id
 _symmetry_equiv_pos_as_xyz
  1  'x, y, z'
loop_
 _atom_site_type_symbol
 _atom_site_label
 _atom_site_symmetry_multiplicity
 _atom_site_fract_x
 _atom_site_fract_y
 _atom_site_fract_z
 _atom_site_occupancy
  Ni  Ni0  1  0.76196400  0.52920200  0.26461200  1
  Ni  Ni1  1  0.51139400  0.02928300  0.01463600  1
  Ni  Ni2  1  0.26221600  0.52915400  0.76458700  1
  Ni  Ni3  1  0.01171200  0.02921200  0.51460700  1
  Cu  Cu4  1  0.61890400  0.24306900  0.62153800  1
  Cu  Cu5  1  0.86973700  0.74448700  0.87224800  1
  Cu  Cu6  1  0.36980800  0.74447900  0.37224400  1
  Cu  Cu7  1  0.11919100  0.24320900  0.12161400  1
  C  C8  1  0.44265700  0.48842500  0.24417400  1
  C  C9  1  0.19508900  0.98912400  0.99454800  1
  C  C10  1  0.94232500  0.48995800  0.74494300  1
  C  C11  1  0.69336400  0.98813100  0.49404900  1
  C  C12  1  0.28838800  0.98608200  0.49306800  1
  C  C13  1  0.03939000  0.48656300  0.24329000  1
  C  C14  1  0.78911000  0.98501500  0.99253400  1
  C  C15  1  0.53751100  0.48497100  0.74250300  1
  C  C16  1  0.86931400  0.74440100  0.57047300  1
  C  C17  1  0.62001800  0.24441900  0.32065800  1
  C  C18  1  0.36965900  0.74444800  0.07058700  1
  C  C19  1  0.11921300  0.24443500  0.82066800  1
  C  C20  1  0.86933600  0.74439800  0.17393100  1
  C  C21  1  0.62003600  0.24442000  0.92376000  1
  C  C22  1  0.36967700  0.74444900  0.67386700  1
  C  C23  1  0.11923000  0.24443300  0.42376800  1
