# generated using pymatgen
data_Cu12Ni3C
_symmetry_space_group_name_H-M   'P 1'
_cell_length_a   9.38207227
_cell_length_b   9.38207227
_cell_length_c   5.82014500
_cell_angle_alpha   90.00000000
_cell_angle_beta   90.00000000
_cell_angle_gamma   120.00000188
_symmetry_Int_Tables_number   1
_chemical_formula_structural   Cu12Ni3C
_chemical_formula_sum   'Cu24 Ni6 C2'
_cell_volume   443.67195332
_cell_formula_units_Z   2
loop_
 _symmetry_equiv_pos_site_id
 _symmetry_equiv_pos_as_xyz
  1  'x, y, z'
loop_
 _atom_site_type_symbol
 _atom_site_label
 _atom_site_symmetry_multiplicity
 _atom_site_fract_x
 _atom_site_fract_y
 _atom_site_fract_z
 _atom_site_occupancy
  C  C0  1  0.33333300  0.66666700  0.75000000  1
  C  C1  1  0.66666700  0.33333300  0.25000000  1
  Ni  Ni2  1  0.09068000  0.70911700  0.25000000  1
  Ni  Ni3  1  0.29088300  0.38156400  0.25000000  1
  Ni  Ni4  1  0.61843600  0.90932000  0.25000000  1
  Ni  Ni5  1  0.38156400  0.09068000  0.75000000  1
  Ni  Ni6  1  0.70911700  0.61843600  0.75000000  1
  Ni  Ni7  1  0.90932000  0.29088300  0.75000000  1
  Cu  Cu8  1  0.01972100  0.81153800  0.25000000  1
  Cu  Cu9  1  0.03247700  0.46744900  0.75000000  1
  Cu  Cu10  1  0.19584000  0.74257200  0.04647300  1
  Cu  Cu11  1  0.19584000  0.74257200  0.45352700  1
  Cu  Cu12  1  0.43497100  0.96752300  0.75000000  1
  Cu  Cu13  1  0.25742800  0.45326800  0.45352700  1
  Cu  Cu14  1  0.25742800  0.45326800  0.04647300  1
  Cu  Cu15  1  0.18846200  0.20818300  0.25000000  1
  Cu  Cu16  1  0.54673200  0.80416000  0.04647300  1
  Cu  Cu17  1  0.54673200  0.80416000  0.45352700  1
  Cu  Cu18  1  0.20818300  0.01972100  0.75000000  1
  Cu  Cu19  1  0.46744900  0.43497100  0.25000000  1
  Cu  Cu20  1  0.53255100  0.56502900  0.75000000  1
  Cu  Cu21  1  0.79181700  0.98027900  0.25000000  1
  Cu  Cu22  1  0.45326800  0.19584000  0.54647300  1
  Cu  Cu23  1  0.45326800  0.19584000  0.95352700  1
  Cu  Cu24  1  0.81153800  0.79181700  0.75000000  1
  Cu  Cu25  1  0.74257200  0.54673200  0.95352700  1
  Cu  Cu26  1  0.74257200  0.54673200  0.54647300  1
  Cu  Cu27  1  0.56502900  0.03247700  0.25000000  1
  Cu  Cu28  1  0.80416000  0.25742800  0.95352700  1
  Cu  Cu29  1  0.80416000  0.25742800  0.54647300  1
  Cu  Cu30  1  0.96752300  0.53255100  0.25000000  1
  Cu  Cu31  1  0.98027900  0.18846200  0.75000000  1
