# generated using pymatgen
data_Cu2NiC8
_symmetry_space_group_name_H-M   'P 1'
_cell_length_a   7.94942672
_cell_length_b   7.94942672
_cell_length_c   6.04472620
_cell_angle_alpha   78.69106934
_cell_angle_beta   78.69106934
_cell_angle_gamma   68.47683312
_symmetry_Int_Tables_number   1
_chemical_formula_structural   Cu2NiC8
_chemical_formula_sum   'Cu6 Ni3 C24'
_cell_volume   345.20858850
_cell_formula_units_Z   3
loop_
 _symmetry_equiv_pos_site_id
 _symmetry_equiv_pos_as_xyz
  1  'x, y, z'
loop_
 _atom_site_type_symbol
 _atom_site_label
 _atom_site_symmetry_multiplicity
 _atom_site_fract_x
 _atom_site_fract_y
 _atom_site_fract_z
 _atom_site_occupancy
  C  C0  1  0.50015200  0.16414400  0.82964300  1
  C  C1  1  0.16414400  0.50015200  0.82964300  1
  C  C2  1  0.49984800  0.83585600  0.17035700  1
  C  C3  1  0.83585600  0.49984800  0.17035700  1
  C  C4  1  0.17058000  0.82942000  0.50000000  1
  C  C5  1  0.82942000  0.17058000  0.50000000  1
  Ni  Ni6  1  0.16696900  0.83303100  0.00000000  1
  Ni  Ni7  1  0.50000000  0.50000000  0.00000000  1
  Ni  Ni8  1  0.83303100  0.16696900  0.00000000  1
  Cu  Cu9  1  0.49206200  0.16482100  0.33652600  1
  Cu  Cu10  1  0.83353900  0.83353900  0.33700800  1
  Cu  Cu11  1  0.16482100  0.49206200  0.33652600  1
  Cu  Cu12  1  0.50793800  0.83517900  0.66347400  1
  Cu  Cu13  1  0.83517900  0.50793800  0.66347400  1
  Cu  Cu14  1  0.16646100  0.16646100  0.66299200  1
  C  C15  1  0.99215200  0.99215200  0.22720100  1
  C  C16  1  0.65804400  0.00460600  0.56287500  1
  C  C17  1  0.00460600  0.65804400  0.56287500  1
  C  C18  1  0.00784800  0.00784800  0.77279900  1
  C  C19  1  0.67076500  0.01737900  0.09867400  1
  C  C20  1  0.01737900  0.67076500  0.09867400  1
  C  C21  1  0.34195600  0.99539400  0.43712500  1
  C  C22  1  0.67815200  0.67815200  0.42653300  1
  C  C23  1  0.99539400  0.34195600  0.43712500  1
  C  C24  1  0.32923500  0.98262100  0.90132600  1
  C  C25  1  0.65208800  0.65208800  0.90666300  1
  C  C26  1  0.98262100  0.32923500  0.90132600  1
  C  C27  1  0.32932400  0.66979900  0.21825000  1
  C  C28  1  0.66979900  0.32932400  0.21825000  1
  C  C29  1  0.32184800  0.32184800  0.57346700  1
  C  C30  1  0.33020100  0.67067600  0.78175000  1
  C  C31  1  0.67067600  0.33020100  0.78175000  1
  C  C32  1  0.34791200  0.34791200  0.09333700  1
