# generated using pymatgen
data_Cu24NiC12
_symmetry_space_group_name_H-M   'P 1'
_cell_length_a   8.40370300
_cell_length_b   9.19109437
_cell_length_c   9.95868528
_cell_angle_alpha   103.16419644
_cell_angle_beta   103.94052897
_cell_angle_gamma   116.53019182
_symmetry_Int_Tables_number   1
_chemical_formula_structural   Cu24NiC12
_chemical_formula_sum   'Cu24 Ni1 C12'
_cell_volume   616.11316193
_cell_formula_units_Z   1
loop_
 _symmetry_equiv_pos_site_id
 _symmetry_equiv_pos_as_xyz
  1  'x, y, z'
loop_
 _atom_site_type_symbol
 _atom_site_label
 _atom_site_symmetry_multiplicity
 _atom_site_fract_x
 _atom_site_fract_y
 _atom_site_fract_z
 _atom_site_occupancy
  C  C0  1  0.07781000  0.93394700  0.37405600  1
  C  C1  1  0.42657300  0.02129900  0.04446200  1
  C  C2  1  0.97459700  0.66185700  0.03818400  1
  C  C3  1  0.96346500  0.11897300  0.71320600  1
  C  C4  1  0.84748300  0.59763100  0.58143600  1
  C  C5  1  0.40593500  0.47836800  0.58045000  1
  C  C6  1  0.61146900  0.35922300  0.72069100  1
  C  C7  1  0.03334800  0.04278400  0.08670700  1
  C  C8  1  0.30798000  0.55161900  0.02442100  1
  C  C9  1  0.81467100  0.45625800  0.25675600  1
  C  C10  1  0.20658500  0.58335700  0.78321300  1
  C  C11  1  0.10771900  0.31247200  0.26191100  1
  Ni  Ni12  1  0.75248300  0.89182100  0.92533400  1
  Cu  Cu13  1  0.64862800  0.51429700  0.64600800  1
  Cu  Cu14  1  0.65245400  0.09787700  0.66690100  1
  Cu  Cu15  1  0.70917100  0.41268700  0.89063900  1
  Cu  Cu16  1  0.14628500  0.94565400  0.07293400  1
  Cu  Cu17  1  0.87499300  0.82146400  0.62437200  1
  Cu  Cu18  1  0.95943000  0.37558700  0.26374600  1
  Cu  Cu19  1  0.97795800  0.80269200  0.53748200  1
  Cu  Cu20  1  0.38941000  0.96810600  0.65836100  1
  Cu  Cu21  1  0.92389300  0.64496400  0.24434300  1
  Cu  Cu22  1  0.37880400  0.94306300  0.77274800  1
  Cu  Cu23  1  0.01810700  0.10286300  0.25448200  1
  Cu  Cu24  1  0.33781600  0.59528100  0.68751300  1
  Cu  Cu25  1  0.75528700  0.45025400  0.40023500  1
  Cu  Cu26  1  0.20089400  0.13261400  0.62021300  1
  Cu  Cu27  1  0.60470000  0.31250100  0.11600900  1
  Cu  Cu28  1  0.16097700  0.41259600  0.84131100  1
  Cu  Cu29  1  0.58381400  0.98849200  0.31061000  1
  Cu  Cu30  1  0.63850600  0.21214300  0.60143400  1
  Cu  Cu31  1  0.02158000  0.59229300  0.71307900  1
  Cu  Cu32  1  0.36962000  0.28843400  0.63440800  1
  Cu  Cu33  1  0.12044900  0.25075000  0.09411100  1
  Cu  Cu34  1  0.33546000  0.72257400  0.96618400  1
  Cu  Cu35  1  0.43615200  0.88559600  0.32265900  1
  Cu  Cu36  1  0.31849100  0.44260900  0.39539200  1
