# generated using pymatgen
data_Cu10Ni2C7
_symmetry_space_group_name_H-M   'P 1'
_cell_length_a   12.83261700
_cell_length_b   5.64092000
_cell_length_c   5.88073807
_cell_angle_alpha   70.27883475
_cell_angle_beta   90.00000000
_cell_angle_gamma   90.00000000
_symmetry_Int_Tables_number   1
_chemical_formula_structural   Cu10Ni2C7
_chemical_formula_sum   'Cu20 Ni4 C14'
_cell_volume   400.72484589
_cell_formula_units_Z   2
loop_
 _symmetry_equiv_pos_site_id
 _symmetry_equiv_pos_as_xyz
  1  'x, y, z'
loop_
 _atom_site_type_symbol
 _atom_site_label
 _atom_site_symmetry_multiplicity
 _atom_site_fract_x
 _atom_site_fract_y
 _atom_site_fract_z
 _atom_site_occupancy
  C  C0  1  0.62354000  0.28835500  0.56919200  1
  C  C1  1  0.12354000  0.21164500  0.43080800  1
  C  C2  1  0.37646000  0.71164500  0.43080800  1
  C  C3  1  0.87646000  0.78835500  0.56919200  1
  C  C4  1  0.50000000  0.50000000  0.00000000  1
  C  C5  1  0.00000000  0.00000000  0.00000000  1
  C  C6  1  0.69898700  0.51552300  0.92846600  1
  C  C7  1  0.19898700  0.98447700  0.07153400  1
  C  C8  1  0.30101300  0.48447700  0.07153400  1
  C  C9  1  0.80101300  0.01552300  0.92846600  1
  C  C10  1  0.64462500  0.71630700  0.70239300  1
  C  C11  1  0.14462500  0.78369300  0.29760700  1
  C  C12  1  0.35537500  0.28369300  0.29760700  1
  C  C13  1  0.85537500  0.21630700  0.70239300  1
  Ni  Ni14  1  0.61926000  0.95496000  0.23964200  1
  Ni  Ni15  1  0.11926000  0.54504000  0.76035800  1
  Ni  Ni16  1  0.38074000  0.04504000  0.76035800  1
  Ni  Ni17  1  0.88074000  0.45496000  0.23964200  1
  Cu  Cu18  1  0.67559700  0.01442700  0.00872300  1
  Cu  Cu19  1  0.17559700  0.48557300  0.99127700  1
  Cu  Cu20  1  0.32440300  0.98557300  0.99127700  1
  Cu  Cu21  1  0.82440300  0.51442700  0.00872300  1
  Cu  Cu22  1  0.55830100  0.71859300  0.29331300  1
  Cu  Cu23  1  0.05830100  0.78140700  0.70668700  1
  Cu  Cu24  1  0.44169900  0.28140700  0.70668700  1
  Cu  Cu25  1  0.94169900  0.21859300  0.29331300  1
  Cu  Cu26  1  0.54468500  0.16766500  0.23197500  1
  Cu  Cu27  1  0.04468500  0.33233500  0.76802500  1
  Cu  Cu28  1  0.45531500  0.83233500  0.76802500  1
  Cu  Cu29  1  0.95531500  0.66766500  0.23197500  1
  Cu  Cu30  1  0.69154600  0.93406100  0.44574900  1
  Cu  Cu31  1  0.19154600  0.56593900  0.55425100  1
  Cu  Cu32  1  0.30845400  0.06593900  0.55425100  1
  Cu  Cu33  1  0.80845400  0.43406100  0.44574900  1
  Cu  Cu34  1  0.63402200  0.54689500  0.82817400  1
  Cu  Cu35  1  0.13402200  0.95310500  0.17182600  1
  Cu  Cu36  1  0.36597800  0.45310500  0.17182600  1
  Cu  Cu37  1  0.86597800  0.04689500  0.82817400  1
