# generated using pymatgen
data_Cu8Ni6C19
_symmetry_space_group_name_H-M   'P 1'
_cell_length_a   4.18570100
_cell_length_b   8.73339000
_cell_length_c   26.10246700
_cell_angle_alpha   90.00000000
_cell_angle_beta   90.00000000
_cell_angle_gamma   90.00000000
_symmetry_Int_Tables_number   1
_chemical_formula_structural   Cu8Ni6C19
_chemical_formula_sum   'Cu16 Ni12 C38'
_cell_volume   954.18505866
_cell_formula_units_Z   2
loop_
 _symmetry_equiv_pos_site_id
 _symmetry_equiv_pos_as_xyz
  1  'x, y, z'
loop_
 _atom_site_type_symbol
 _atom_site_label
 _atom_site_symmetry_multiplicity
 _atom_site_fract_x
 _atom_site_fract_y
 _atom_site_fract_z
 _atom_site_occupancy
  C  C0  1  0.50000000  0.32995100  0.00000000  1
  C  C1  1  0.00000000  0.67004900  0.50000000  1
  C  C2  1  0.03533200  0.86332300  0.19310400  1
  C  C3  1  0.53533200  0.13667700  0.30689600  1
  C  C4  1  0.46466800  0.13667700  0.69310400  1
  C  C5  1  0.96466800  0.86332300  0.80689600  1
  C  C6  1  0.90973800  0.61117800  0.02546500  1
  C  C7  1  0.49831300  0.96891600  0.02987600  1
  C  C8  1  0.96655100  0.12665600  0.06708600  1
  C  C9  1  0.27471500  0.51296000  0.09138300  1
  C  C10  1  0.96959400  0.28703500  0.09511000  1
  C  C11  1  0.59415600  0.59996800  0.09378100  1
  C  C12  1  0.20037900  0.43424000  0.17286900  1
  C  C13  1  0.88105400  0.34589300  0.17790600  1
  C  C14  1  0.38105400  0.65410700  0.32209400  1
  C  C15  1  0.70037900  0.56576000  0.32713100  1
  C  C16  1  0.09415600  0.40003200  0.40621900  1
  C  C17  1  0.46959400  0.71296500  0.40489000  1
  C  C18  1  0.77471500  0.48704000  0.40861700  1
  C  C19  1  0.46655100  0.87334400  0.43291400  1
  C  C20  1  0.99831300  0.03108400  0.47012400  1
  C  C21  1  0.40973800  0.38882200  0.47453500  1
  C  C22  1  0.59026200  0.38882200  0.52546500  1
  C  C23  1  0.00168700  0.03108400  0.52987600  1
  C  C24  1  0.53344900  0.87334400  0.56708600  1
  C  C25  1  0.22528500  0.48704000  0.59138300  1
  C  C26  1  0.53040600  0.71296500  0.59511000  1
  C  C27  1  0.90584400  0.40003200  0.59378100  1
  C  C28  1  0.29962100  0.56576000  0.67286900  1
  C  C29  1  0.61894600  0.65410700  0.67790600  1
  C  C30  1  0.11894600  0.34589300  0.82209400  1
  C  C31  1  0.79962100  0.43424000  0.82713100  1
  C  C32  1  0.40584400  0.59996800  0.90621900  1
  C  C33  1  0.03040600  0.28703500  0.90489000  1
  C  C34  1  0.72528500  0.51296000  0.90861700  1
  C  C35  1  0.03344900  0.12665600  0.93291400  1
  C  C36  1  0.50168700  0.96891600  0.97012400  1
  C  C37  1  0.09026200  0.61117800  0.97453500  1
  Ni  Ni38  1  0.99451600  0.83863700  0.08731300  1
  Ni  Ni39  1  0.54343900  0.08399700  0.19311000  1
  Ni  Ni40  1  0.52261600  0.65827300  0.21020600  1
  Ni  Ni41  1  0.02261600  0.34172700  0.28979400  1
  Ni  Ni42  1  0.04343900  0.91600300  0.30689000  1
  Ni  Ni43  1  0.49451600  0.16136300  0.41268700  1
  Ni  Ni44  1  0.50548400  0.16136300  0.58731300  1
  Ni  Ni45  1  0.95656100  0.91600300  0.69311000  1
  Ni  Ni46  1  0.97738400  0.34172700  0.71020600  1
  Ni  Ni47  1  0.47738400  0.65827300  0.78979400  1
  Ni  Ni48  1  0.45656100  0.08399700  0.80689000  1
  Ni  Ni49  1  0.00548400  0.83863700  0.91268700  1
  Cu  Cu50  1  0.00000000  0.54020400  0.00000000  1
  Cu  Cu51  1  0.50000000  0.03703300  0.00000000  1
  Cu  Cu52  1  0.96604600  0.23785100  0.06055600  1
  Cu  Cu53  1  0.49512000  0.50903800  0.07872500  1
  Cu  Cu54  1  0.02963700  0.38737400  0.15242100  1
  Cu  Cu55  1  0.52963700  0.61262600  0.34757900  1
  Cu  Cu56  1  0.99512000  0.49096200  0.42127500  1
  Cu  Cu57  1  0.46604600  0.76214900  0.43944400  1
  Cu  Cu58  1  0.00000000  0.96296700  0.50000000  1
  Cu  Cu59  1  0.50000000  0.45979600  0.50000000  1
  Cu  Cu60  1  0.53395400  0.76214900  0.56055600  1
  Cu  Cu61  1  0.00488000  0.49096200  0.57872500  1
  Cu  Cu62  1  0.47036300  0.61262600  0.65242100  1
  Cu  Cu63  1  0.97036300  0.38737400  0.84757900  1
  Cu  Cu64  1  0.50488000  0.50903800  0.92127500  1
  Cu  Cu65  1  0.03395400  0.23785100  0.93944400  1
