# generated using pymatgen
data_Cu10Ni2C5
_symmetry_space_group_name_H-M   'P 1'
_cell_length_a   5.76585800
_cell_length_b   9.58908800
_cell_length_c   11.90259000
_cell_angle_alpha   90.00000000
_cell_angle_beta   90.00000000
_cell_angle_gamma   90.00000000
_symmetry_Int_Tables_number   1
_chemical_formula_structural   Cu10Ni2C5
_chemical_formula_sum   'Cu40 Ni8 C20'
_cell_volume   658.08610445
_cell_formula_units_Z   4
loop_
 _symmetry_equiv_pos_site_id
 _symmetry_equiv_pos_as_xyz
  1  'x, y, z'
loop_
 _atom_site_type_symbol
 _atom_site_label
 _atom_site_symmetry_multiplicity
 _atom_site_fract_x
 _atom_site_fract_y
 _atom_site_fract_z
 _atom_site_occupancy
  C  C0  1  0.74556500  0.75288100  0.49654300  1
  C  C1  1  0.25443500  0.75288100  0.49654300  1
  C  C2  1  0.50000000  0.74789900  0.00155700  1
  C  C3  1  0.00000000  0.75338000  0.27912900  1
  C  C4  1  0.00000000  0.24662000  0.77912900  1
  C  C5  1  0.50000000  0.25210100  0.50155700  1
  C  C6  1  0.74556500  0.24711900  0.99654300  1
  C  C7  1  0.25443500  0.24711900  0.99654300  1
  C  C8  1  0.00000000  0.25221800  0.22017500  1
  C  C9  1  0.50000000  0.25233000  0.21816800  1
  C  C10  1  0.00000000  0.74778200  0.72017500  1
  C  C11  1  0.50000000  0.74767000  0.71816800  1
  C  C12  1  0.25011100  0.98973200  0.11148800  1
  C  C13  1  0.74988900  0.98973200  0.11148800  1
  C  C14  1  0.74988900  0.01026800  0.61148800  1
  C  C15  1  0.25011100  0.01026800  0.61148800  1
  C  C16  1  0.75031500  0.49367900  0.38820500  1
  C  C17  1  0.24968500  0.49367900  0.38820500  1
  C  C18  1  0.75031500  0.50632100  0.88820500  1
  C  C19  1  0.24968500  0.50632100  0.88820500  1
  Ni  Ni20  1  0.24948700  0.98761600  0.86222100  1
  Ni  Ni21  1  0.75051300  0.98761600  0.86222100  1
  Ni  Ni22  1  0.75051300  0.01238400  0.36222100  1
  Ni  Ni23  1  0.24948700  0.01238400  0.36222100  1
  Ni  Ni24  1  0.75006100  0.49059700  0.63897400  1
  Ni  Ni25  1  0.24993900  0.49059700  0.63897400  1
  Ni  Ni26  1  0.75006100  0.50940300  0.13897400  1
  Ni  Ni27  1  0.24993900  0.50940300  0.13897400  1
  Cu  Cu28  1  0.00000000  0.87683600  0.14766500  1
  Cu  Cu29  1  0.50000000  0.87421000  0.14333100  1
  Cu  Cu30  1  0.00000000  0.88178800  0.57599400  1
  Cu  Cu31  1  0.50000000  0.87962600  0.57785900  1
  Cu  Cu32  1  0.76193200  0.88173700  0.36317100  1
  Cu  Cu33  1  0.23806800  0.88173700  0.36317100  1
  Cu  Cu34  1  0.26010100  0.91148100  0.95443000  1
  Cu  Cu35  1  0.73989900  0.91148100  0.95443000  1
  Cu  Cu36  1  0.74873900  0.91481300  0.76706700  1
  Cu  Cu37  1  0.25126100  0.91481300  0.76706700  1
  Cu  Cu38  1  0.74873900  0.08518700  0.26706700  1
  Cu  Cu39  1  0.25126100  0.08518700  0.26706700  1
  Cu  Cu40  1  0.73989900  0.08851900  0.45443000  1
  Cu  Cu41  1  0.26010100  0.08851900  0.45443000  1
  Cu  Cu42  1  0.76193200  0.11826300  0.86317100  1
  Cu  Cu43  1  0.23806800  0.11826300  0.86317100  1
  Cu  Cu44  1  0.00000000  0.11821200  0.07599400  1
  Cu  Cu45  1  0.50000000  0.12037400  0.07785900  1
  Cu  Cu46  1  0.00000000  0.12316400  0.64766500  1
  Cu  Cu47  1  0.50000000  0.12579000  0.64333100  1
  Cu  Cu48  1  0.00000000  0.37673900  0.35265600  1
  Cu  Cu49  1  0.50000000  0.37172200  0.35457300  1
  Cu  Cu50  1  0.00000000  0.38052100  0.92395800  1
  Cu  Cu51  1  0.50000000  0.38529600  0.92550800  1
  Cu  Cu52  1  0.75024500  0.37660600  0.13761100  1
  Cu  Cu53  1  0.24975500  0.37660600  0.13761100  1
  Cu  Cu54  1  0.74396500  0.41545400  0.54664800  1
  Cu  Cu55  1  0.25603500  0.41545400  0.54664800  1
  Cu  Cu56  1  0.75619200  0.41960300  0.73301800  1
  Cu  Cu57  1  0.24380800  0.41960300  0.73301800  1
  Cu  Cu58  1  0.24380800  0.58039700  0.23301800  1
  Cu  Cu59  1  0.75619200  0.58039700  0.23301800  1
  Cu  Cu60  1  0.74396500  0.58454600  0.04664800  1
  Cu  Cu61  1  0.25603500  0.58454600  0.04664800  1
  Cu  Cu62  1  0.75024500  0.62339400  0.63761100  1
  Cu  Cu63  1  0.24975500  0.62339400  0.63761100  1
  Cu  Cu64  1  0.00000000  0.61947900  0.42395800  1
  Cu  Cu65  1  0.50000000  0.61470400  0.42550800  1
  Cu  Cu66  1  0.00000000  0.62326100  0.85265600  1
  Cu  Cu67  1  0.50000000  0.62827800  0.85457300  1
