# generated using pymatgen
data_CuNiC20
_symmetry_space_group_name_H-M   'P 1'
_cell_length_a   8.29630700
_cell_length_b   4.86305700
_cell_length_c   13.36461734
_cell_angle_alpha   88.52683313
_cell_angle_beta   90.00000000
_cell_angle_gamma   90.00000000
_symmetry_Int_Tables_number   1
_chemical_formula_structural   CuNiC20
_chemical_formula_sum   'Cu2 Ni2 C40'
_cell_volume   539.02279786
_cell_formula_units_Z   2
loop_
 _symmetry_equiv_pos_site_id
 _symmetry_equiv_pos_as_xyz
  1  'x, y, z'
loop_
 _atom_site_type_symbol
 _atom_site_label
 _atom_site_symmetry_multiplicity
 _atom_site_fract_x
 _atom_site_fract_y
 _atom_site_fract_z
 _atom_site_occupancy
  C  C0  1  0.35947100  0.41438600  0.41294000  1
  C  C1  1  0.85947100  0.58561400  0.58706000  1
  C  C2  1  0.36235000  0.91088900  0.91227300  1
  C  C3  1  0.86235000  0.08911100  0.08772700  1
  Ni  Ni4  1  0.99767600  0.40167300  0.38442700  1
  Ni  Ni5  1  0.49767600  0.59832700  0.61557300  1
  Cu  Cu6  1  0.00108400  0.89886100  0.88666900  1
  Cu  Cu7  1  0.50108400  0.10113900  0.11333100  1
  C  C8  1  0.18136400  0.38987900  0.01167400  1
  C  C9  1  0.78719700  0.41793100  0.79366700  1
  C  C10  1  0.28719700  0.58206900  0.20633300  1
  C  C11  1  0.68136400  0.61012100  0.98832600  1
  C  C12  1  0.17646100  0.89171500  0.50829800  1
  C  C13  1  0.78412100  0.91923100  0.29435200  1
  C  C14  1  0.28412100  0.08076900  0.70564800  1
  C  C15  1  0.67646100  0.10828500  0.49170200  1
  C  C16  1  0.83935900  0.24742300  0.50245100  1
  C  C17  1  0.53265800  0.30096800  0.50919600  1
  C  C18  1  0.67918800  0.34447500  0.05224700  1
  C  C19  1  0.43684400  0.39505500  0.20638100  1
  C  C20  1  0.32506300  0.38085700  0.67766300  1
  C  C21  1  0.15440100  0.46897100  0.12681300  1
  C  C22  1  0.70264400  0.43341000  0.69285100  1
  C  C23  1  0.65440100  0.53102900  0.87318700  1
  C  C24  1  0.20264400  0.56659000  0.30714900  1
  C  C25  1  0.93684400  0.60494500  0.79361900  1
  C  C26  1  0.82506300  0.61914300  0.32233700  1
  C  C27  1  0.17918800  0.65552500  0.94775300  1
  C  C28  1  0.03265800  0.69903200  0.49080400  1
  C  C29  1  0.84507600  0.75485000  0.99705700  1
  C  C30  1  0.33935900  0.75257700  0.49754900  1
  C  C31  1  0.53988700  0.80429400  0.00830700  1
  C  C32  1  0.67082200  0.83796500  0.55495900  1
  C  C33  1  0.32632100  0.87449800  0.17266800  1
  C  C34  1  0.43362000  0.89416600  0.70788800  1
  C  C35  1  0.69587400  0.93754100  0.19415000  1
  C  C36  1  0.15409700  0.97259000  0.62473700  1
  C  C37  1  0.19587400  0.06245900  0.80585000  1
  C  C38  1  0.65409700  0.02741000  0.37526300  1
  C  C39  1  0.82632100  0.12550200  0.82733200  1
  C  C40  1  0.93362000  0.10583400  0.29211200  1
  C  C41  1  0.17082200  0.16203500  0.44504100  1
  C  C42  1  0.03988700  0.19570600  0.99169300  1
  C  C43  1  0.34507600  0.24515000  0.00294300  1
