# generated using pymatgen
data_Cu8Ni2C5
_symmetry_space_group_name_H-M   'P 1'
_cell_length_a   4.82797200
_cell_length_b   8.00856219
_cell_length_c   10.17306597
_cell_angle_alpha   70.64696582
_cell_angle_beta   87.93445107
_cell_angle_gamma   88.54978706
_symmetry_Int_Tables_number   1
_chemical_formula_structural   Cu8Ni2C5
_chemical_formula_sum   'Cu16 Ni4 C10'
_cell_volume   370.83838255
_cell_formula_units_Z   2
loop_
 _symmetry_equiv_pos_site_id
 _symmetry_equiv_pos_as_xyz
  1  'x, y, z'
loop_
 _atom_site_type_symbol
 _atom_site_label
 _atom_site_symmetry_multiplicity
 _atom_site_fract_x
 _atom_site_fract_y
 _atom_site_fract_z
 _atom_site_occupancy
  C  C0  1  0.51722100  0.70316000  0.88882500  1
  C  C1  1  0.44632100  0.90459500  0.29086900  1
  C  C2  1  0.51239100  0.10522600  0.70324900  1
  C  C3  1  0.49512300  0.29968100  0.10334100  1
  C  C4  1  0.48499000  0.49397000  0.51120900  1
  C  C5  1  0.02458500  0.38749200  0.79486100  1
  C  C6  1  0.96715800  0.80738700  0.61029000  1
  C  C7  1  0.02168700  0.19617900  0.38619000  1
  C  C8  1  0.00702400  0.61443400  0.19902400  1
  C  C9  1  0.01740200  0.99204000  0.01320100  1
  Ni  Ni10  1  0.20341900  0.84026600  0.18510300  1
  Ni  Ni11  1  0.32173600  0.32009700  0.67770900  1
  Ni  Ni12  1  0.30798900  0.13520500  0.28686100  1
  Ni  Ni13  1  0.69210700  0.87938000  0.71175400  1
  Cu  Cu14  1  0.20046300  0.23836900  0.98004300  1
  Cu  Cu15  1  0.18721800  0.03744400  0.57417900  1
  Cu  Cu16  1  0.18257600  0.43146200  0.37779700  1
  Cu  Cu17  1  0.18289900  0.64806600  0.76775100  1
  Cu  Cu18  1  0.29747200  0.95026300  0.86809000  1
  Cu  Cu19  1  0.30420000  0.54833100  0.06430300  1
  Cu  Cu20  1  0.28633800  0.75406800  0.48535700  1
  Cu  Cu21  1  0.72086300  0.24549000  0.51614200  1
  Cu  Cu22  1  0.67561000  0.66620300  0.33479800  1
  Cu  Cu23  1  0.69818300  0.05057500  0.13348600  1
  Cu  Cu24  1  0.70660800  0.45006000  0.91772700  1
  Cu  Cu25  1  0.81455000  0.57549800  0.61684500  1
  Cu  Cu26  1  0.81119000  0.96069400  0.42212800  1
  Cu  Cu27  1  0.80031100  0.15136100  0.82612600  1
  Cu  Cu28  1  0.80065600  0.75430400  0.02426400  1
  Cu  Cu29  1  0.81170600  0.35869700  0.22848100  1
