# generated using pymatgen
data_Cu3Ni13C32
_symmetry_space_group_name_H-M   'P 1'
_cell_length_a   8.27743037
_cell_length_b   8.27743037
_cell_length_c   10.12303018
_cell_angle_alpha   65.89637427
_cell_angle_beta   65.89637427
_cell_angle_gamma   89.94613066
_symmetry_Int_Tables_number   1
_chemical_formula_structural   Cu3Ni13C32
_chemical_formula_sum   'Cu3 Ni13 C32'
_cell_volume   566.34802684
_cell_formula_units_Z   1
loop_
 _symmetry_equiv_pos_site_id
 _symmetry_equiv_pos_as_xyz
  1  'x, y, z'
loop_
 _atom_site_type_symbol
 _atom_site_label
 _atom_site_symmetry_multiplicity
 _atom_site_fract_x
 _atom_site_fract_y
 _atom_site_fract_z
 _atom_site_occupancy
  Ni  Ni0  1  0.50000000  0.00000000  0.00000000  1
  Ni  Ni1  1  0.00000000  0.50000000  0.00000000  1
  Ni  Ni2  1  0.87447200  0.62543800  0.25018000  1
  Ni  Ni3  1  0.62543800  0.87447200  0.25018000  1
  Ni  Ni4  1  0.37522000  0.12494300  0.24999000  1
  Ni  Ni5  1  0.12494300  0.37522000  0.24999000  1
  Ni  Ni6  1  0.50000000  0.50000000  0.50000000  1
  Ni  Ni7  1  0.74944800  0.74944800  0.49991300  1
  Ni  Ni8  1  0.25055200  0.25055200  0.50008700  1
  Ni  Ni9  1  0.62478000  0.87505700  0.75001000  1
  Ni  Ni10  1  0.12552800  0.37456200  0.74982000  1
  Ni  Ni11  1  0.37456200  0.12552800  0.74982000  1
  Ni  Ni12  1  0.87505700  0.62478000  0.75001000  1
  Cu  Cu13  1  0.25010500  0.74989500  0.00000000  1
  Cu  Cu14  1  0.74989500  0.25010500  0.00000000  1
  Cu  Cu15  1  0.00000000  0.00000000  0.50000000  1
  C  C16  1  0.72641400  0.00712700  0.01557700  1
  C  C17  1  0.00712700  0.72641400  0.01557700  1
  C  C18  1  0.50719800  0.22636000  0.01549900  1
  C  C19  1  0.22636000  0.50719800  0.01549900  1
  C  C20  1  0.11653200  0.61671500  0.23510000  1
  C  C21  1  0.61671500  0.11653200  0.23510000  1
  C  C22  1  0.39803300  0.89782400  0.23495600  1
  C  C23  1  0.89782400  0.39803300  0.23495600  1
  C  C24  1  0.13294300  0.13294300  0.26555100  1
  C  C25  1  0.63254000  0.63254000  0.26488900  1
  C  C26  1  0.85252600  0.85252600  0.26477900  1
  C  C27  1  0.35220200  0.35220200  0.26494200  1
  C  C28  1  0.24316000  0.02419200  0.48447900  1
  C  C29  1  0.02419200  0.24316000  0.48447900  1
  C  C30  1  0.74202100  0.52233500  0.48512800  1
  C  C31  1  0.52233500  0.74202100  0.48512800  1
  C  C32  1  0.75684000  0.97580800  0.51552100  1
  C  C33  1  0.97580800  0.75684000  0.51552100  1
  C  C34  1  0.25797900  0.47766500  0.51487200  1
  C  C35  1  0.47766500  0.25797900  0.51487200  1
  C  C36  1  0.86705700  0.86705700  0.73444900  1
  C  C37  1  0.64779800  0.64779800  0.73505800  1
  C  C38  1  0.14747400  0.14747400  0.73522100  1
  C  C39  1  0.36746000  0.36746000  0.73511100  1
  C  C40  1  0.10217600  0.60196700  0.76504400  1
  C  C41  1  0.38328500  0.88346800  0.76490000  1
  C  C42  1  0.88346800  0.38328500  0.76490000  1
  C  C43  1  0.60196700  0.10217600  0.76504400  1
  C  C44  1  0.77364000  0.49280200  0.98450100  1
  C  C45  1  0.27358600  0.99287300  0.98442300  1
  C  C46  1  0.49280200  0.77364000  0.98450100  1
  C  C47  1  0.99287300  0.27358600  0.98442300  1
