# generated using pymatgen
data_Cu4Ni4C13
_symmetry_space_group_name_H-M   'P 1'
_cell_length_a   13.58142767
_cell_length_b   13.58142767
_cell_length_c   13.58142767
_cell_angle_alpha   99.62202408
_cell_angle_beta   99.62202408
_cell_angle_gamma   131.73639634
_symmetry_Int_Tables_number   1
_chemical_formula_structural   Cu4Ni4C13
_chemical_formula_sum   'Cu16 Ni16 C52'
_cell_volume   1706.02148817
_cell_formula_units_Z   4
loop_
 _symmetry_equiv_pos_site_id
 _symmetry_equiv_pos_as_xyz
  1  'x, y, z'
loop_
 _atom_site_type_symbol
 _atom_site_label
 _atom_site_symmetry_multiplicity
 _atom_site_fract_x
 _atom_site_fract_y
 _atom_site_fract_z
 _atom_site_occupancy
  C  C0  1  0.70086600  0.70042300  0.46307400  1
  C  C1  1  0.23734900  0.23779200  0.53692600  1
  C  C2  1  0.76220800  0.29913400  0.99955700  1
  C  C3  1  0.29957700  0.76265100  0.00044300  1
  C  C4  1  0.26137500  0.26137500  0.00000000  1
  C  C5  1  0.73862500  0.73862500  0.00000000  1
  C  C6  1  0.49604500  0.99604500  0.50000000  1
  C  C7  1  0.00395500  0.50395500  0.50000000  1
  Ni  Ni8  1  0.56699900  0.47504400  0.16427400  1
  Ni  Ni9  1  0.31077000  0.40272500  0.83572600  1
  Ni  Ni10  1  0.59727500  0.43300100  0.90804500  1
  Ni  Ni11  1  0.52495600  0.68923000  0.09195500  1
  Ni  Ni12  1  0.31742700  0.70391900  0.65407400  1
  Ni  Ni13  1  0.04984500  0.66335300  0.34592600  1
  Ni  Ni14  1  0.33664700  0.68257300  0.38649200  1
  Ni  Ni15  1  0.29608100  0.95015500  0.61350800  1
  Ni  Ni16  1  0.81326000  0.90787500  0.84461600  1
  Ni  Ni17  1  0.06325900  0.96864400  0.15538400  1
  Ni  Ni18  1  0.03135600  0.18674000  0.09461500  1
  Ni  Ni19  1  0.09212500  0.93674100  0.90538500  1
  Ni  Ni20  1  0.82130700  0.17093000  0.61054100  1
  Ni  Ni21  1  0.56038900  0.21076600  0.38945900  1
  Ni  Ni22  1  0.78923400  0.17869300  0.34962300  1
  Ni  Ni23  1  0.82907000  0.43961100  0.65037700  1
  Cu  Cu24  1  0.50261300  0.26547800  0.87374700  1
  Cu  Cu25  1  0.39173100  0.62886600  0.12625300  1
  Cu  Cu26  1  0.37113400  0.49738700  0.76286500  1
  Cu  Cu27  1  0.73452200  0.60826900  0.23713500  1
  Cu  Cu28  1  0.27032300  0.47266900  0.35249000  1
  Cu  Cu29  1  0.12017900  0.91783300  0.64751000  1
  Cu  Cu30  1  0.08216700  0.72967700  0.20234600  1
  Cu  Cu31  1  0.52733100  0.87982100  0.79765400  1
  Cu  Cu32  1  0.02810100  0.77621800  0.89840600  1
  Cu  Cu33  1  0.87781200  0.12969500  0.10159400  1
  Cu  Cu34  1  0.87030500  0.97189900  0.74811700  1
  Cu  Cu35  1  0.22378200  0.12218800  0.25188300  1
  Cu  Cu36  1  0.60639400  0.33868000  0.34024900  1
  Cu  Cu37  1  0.99843100  0.26614500  0.65975100  1
  Cu  Cu38  1  0.73385500  0.39360600  0.73228600  1
  Cu  Cu39  1  0.66132000  0.00156900  0.26771400  1
  C  C40  1  0.44408900  0.37473100  0.11050600  1
  C  C41  1  0.26422400  0.33358300  0.88949400  1
  C  C42  1  0.66641700  0.55591100  0.93064200  1
  C  C43  1  0.62526900  0.73577600  0.06935800  1
  C  C44  1  0.02026600  0.60140100  0.40371300  1
  C  C45  1  0.19768900  0.61655400  0.59628700  1
  C  C46  1  0.38344600  0.97973400  0.58113500  1
  C  C47  1  0.39859900  0.80231100  0.41886500  1
  C  C48  1  0.94384600  0.87009000  0.09720700  1
  C  C49  1  0.77288400  0.84663900  0.90279300  1
  C  C50  1  0.15336100  0.05615400  0.92624400  1
  C  C51  1  0.12991000  0.22711600  0.07375600  1
  C  C52  1  0.70174700  0.11128400  0.58177900  1
  C  C53  1  0.52950500  0.11996900  0.41822100  1
  C  C54  1  0.88003100  0.29825300  0.40953600  1
  C  C55  1  0.88871600  0.47049500  0.59046400  1
  C  C56  1  0.38303600  0.19879100  0.51800200  1
  C  C57  1  0.68078900  0.86503400  0.48199800  1
  C  C58  1  0.13496600  0.61696400  0.81575500  1
  C  C59  1  0.80120900  0.31921100  0.18424500  1
  C  C60  1  0.16813400  0.04935000  0.63889000  1
  C  C61  1  0.41046000  0.52924400  0.36111000  1
  C  C62  1  0.47075600  0.83186600  0.88121600  1
  C  C63  1  0.95065000  0.58954000  0.11878400  1
  C  C64  1  0.57780600  0.54337000  0.66485100  1
  C  C65  1  0.87851900  0.91295500  0.33514900  1
  C  C66  1  0.08704500  0.42219400  0.96556400  1
  C  C67  1  0.45663000  0.12148100  0.03443600  1
  C  C68  1  0.01236200  0.17714700  0.59243500  1
  C  C69  1  0.58471200  0.41992700  0.40756500  1
  C  C70  1  0.58007300  0.98763800  0.16478500  1
  C  C71  1  0.82285300  0.41528800  0.83521500  1
  C  C72  1  0.86142300  0.86088700  0.68249700  1
  C  C73  1  0.17839000  0.17892600  0.31750300  1
  C  C74  1  0.82107400  0.13857700  0.99946400  1
  C  C75  1  0.13911300  0.82161000  0.00053600  1
  C  C76  1  0.99234200  0.78778400  0.55457100  1
  C  C77  1  0.23321400  0.43777200  0.44542900  1
  C  C78  1  0.56222800  0.00765800  0.79544200  1
  C  C79  1  0.21221600  0.76678600  0.20455800  1
  C  C80  1  0.97063600  0.94012700  0.40968900  1
  C  C81  1  0.53043900  0.56094800  0.59031100  1
  C  C82  1  0.43905200  0.02936400  0.96949100  1
  C  C83  1  0.05987300  0.46956100  0.03050900  1
