# generated using pymatgen
data_Cu(NiC4)2
_symmetry_space_group_name_H-M   'P 1'
_cell_length_a   5.14512407
_cell_length_b   5.14512407
_cell_length_c   10.31986600
_cell_angle_alpha   90.00000000
_cell_angle_beta   90.00000000
_cell_angle_gamma   120.91859172
_symmetry_Int_Tables_number   1
_chemical_formula_structural   Cu(NiC4)2
_chemical_formula_sum   'Cu2 Ni4 C16'
_cell_volume   234.36973550
_cell_formula_units_Z   2
loop_
 _symmetry_equiv_pos_site_id
 _symmetry_equiv_pos_as_xyz
  1  'x, y, z'
loop_
 _atom_site_type_symbol
 _atom_site_label
 _atom_site_symmetry_multiplicity
 _atom_site_fract_x
 _atom_site_fract_y
 _atom_site_fract_z
 _atom_site_occupancy
  C  C0  1  0.16308100  0.66308100  0.25000000  1
  C  C1  1  0.33691900  0.83691900  0.75000000  1
  C  C2  1  0.66308100  0.16308100  0.25000000  1
  C  C3  1  0.83691900  0.33691900  0.75000000  1
  Ni  Ni4  1  0.33712400  0.66287600  0.00000000  1
  Ni  Ni5  1  0.16287600  0.83712400  0.50000000  1
  Ni  Ni6  1  0.83712400  0.16287600  0.50000000  1
  Ni  Ni7  1  0.66287600  0.33712400  0.00000000  1
  Cu  Cu8  1  0.50000000  0.50000000  0.50000000  1
  Cu  Cu9  1  0.00000000  0.00000000  0.00000000  1
  C  C10  1  0.14322500  0.51031200  0.60718600  1
  C  C11  1  0.85677500  0.48968800  0.39281400  1
  C  C12  1  0.01031200  0.64322500  0.89281400  1
  C  C13  1  0.35677500  0.98968800  0.10718600  1
  C  C14  1  0.66191800  0.66191800  0.09453700  1
  C  C15  1  0.83808200  0.83808200  0.59453700  1
  C  C16  1  0.16191800  0.16191800  0.40546300  1
  C  C17  1  0.48968800  0.85677500  0.39281400  1
  C  C18  1  0.33808200  0.33808200  0.90546300  1
  C  C19  1  0.64322500  0.01031200  0.89281400  1
  C  C20  1  0.98968800  0.35677500  0.10718600  1
  C  C21  1  0.51031200  0.14322500  0.60718600  1
