# generated using pymatgen
data_CuNiC5
_symmetry_space_group_name_H-M   'P 1'
_cell_length_a   10.18506536
_cell_length_b   10.18506536
_cell_length_c   16.39797141
_cell_angle_alpha   82.35490050
_cell_angle_beta   82.35490050
_cell_angle_gamma   58.63094956
_symmetry_Int_Tables_number   1
_chemical_formula_structural   CuNiC5
_chemical_formula_sum   'Cu16 Ni16 C80'
_cell_volume   1435.40819424
_cell_formula_units_Z   16
loop_
 _symmetry_equiv_pos_site_id
 _symmetry_equiv_pos_as_xyz
  1  'x, y, z'
loop_
 _atom_site_type_symbol
 _atom_site_label
 _atom_site_symmetry_multiplicity
 _atom_site_fract_x
 _atom_site_fract_y
 _atom_site_fract_z
 _atom_site_occupancy
  C  C0  1  0.20476500  0.80695800  0.00300900  1
  C  C1  1  0.80695800  0.20476500  0.50300900  1
  C  C2  1  0.70255000  0.57666900  0.25303500  1
  C  C3  1  0.26380700  0.07590800  0.25112400  1
  C  C4  1  0.13985500  0.30719200  0.00121100  1
  C  C5  1  0.57666900  0.70255000  0.75303500  1
  C  C6  1  0.70628300  0.80563400  0.00387300  1
  C  C7  1  0.07590800  0.26380700  0.75112400  1
  C  C8  1  0.30719200  0.13985500  0.50121100  1
  C  C9  1  0.80563400  0.70628300  0.50387300  1
  C  C10  1  0.20425200  0.56732500  0.25215400  1
  C  C11  1  0.76472900  0.08354100  0.25419500  1
  C  C12  1  0.63986600  0.30681400  0.00211500  1
  C  C13  1  0.56732500  0.20425200  0.75215400  1
  C  C14  1  0.08354100  0.76472900  0.75419500  1
  C  C15  1  0.30681400  0.63986600  0.50211500  1
  Ni  Ni16  1  0.87875500  0.27172000  0.12824700  1
  Ni  Ni17  1  0.44627600  0.77319000  0.12822600  1
  Ni  Ni18  1  0.27172000  0.87875500  0.62824700  1
  Ni  Ni19  1  0.77319000  0.44627600  0.62822600  1
  Ni  Ni20  1  0.00429100  0.32103100  0.37791800  1
  Ni  Ni21  1  0.50842600  0.88138400  0.37929600  1
  Ni  Ni22  1  0.32103100  0.00429100  0.87791800  1
  Ni  Ni23  1  0.88138400  0.50842600  0.87929600  1
  Ni  Ni24  1  0.37663600  0.27516400  0.12725000  1
  Ni  Ni25  1  0.94727400  0.77082200  0.12974100  1
  Ni  Ni26  1  0.27516400  0.37663600  0.62725000  1
  Ni  Ni27  1  0.77082200  0.94727400  0.62974100  1
  Ni  Ni28  1  0.00843200  0.82090900  0.37889100  1
  Ni  Ni29  1  0.50370600  0.38269300  0.37932700  1
  Ni  Ni30  1  0.82090900  0.00843200  0.87889100  1
  Ni  Ni31  1  0.38269300  0.50370600  0.87932700  1
  Cu  Cu32  1  0.10205700  0.91665800  0.19072300  1
  Cu  Cu33  1  0.91665800  0.10205700  0.69072300  1
  Cu  Cu34  1  0.16651600  0.98072900  0.43992300  1
  Cu  Cu35  1  0.66451800  0.53823500  0.44152100  1
  Cu  Cu36  1  0.98072900  0.16651600  0.93992300  1
  Cu  Cu37  1  0.53823500  0.66451800  0.94152100  1
  Cu  Cu38  1  0.04077400  0.41927800  0.18855700  1
  Cu  Cu39  1  0.60320700  0.92101100  0.19035200  1
  Cu  Cu40  1  0.41927800  0.04077400  0.68855700  1
  Cu  Cu41  1  0.92101100  0.60320700  0.69035200  1
  Cu  Cu42  1  0.16408800  0.47980400  0.43999700  1
  Cu  Cu43  1  0.66576100  0.03980800  0.44210200  1
  Cu  Cu44  1  0.47980400  0.16408800  0.93999700  1
  Cu  Cu45  1  0.03980800  0.66576100  0.94210200  1
  Cu  Cu46  1  0.54245100  0.42177700  0.18866400  1
  Cu  Cu47  1  0.42177700  0.54245100  0.68866400  1
  C  C48  1  0.67156200  0.33522800  0.11241500  1
  C  C49  1  0.95071800  0.09005800  0.20143400  1
  C  C50  1  0.52254900  0.58953900  0.19886600  1
  C  C51  1  0.41855000  0.74253300  0.02216300  1
  C  C52  1  0.33522800  0.67156200  0.61241500  1
  C  C53  1  0.50544600  0.54624500  0.42321500  1
  C  C54  1  0.98561800  0.23796500  0.02324200  1
  C  C55  1  0.25842100  0.92810100  0.17863900  1
  C  C56  1  0.09005800  0.95071800  0.70143400  1
  C  C57  1  0.00143200  0.14110500  0.42448200  1
  C  C58  1  0.58953900  0.52254900  0.69886600  1
  C  C59  1  0.74253300  0.41855000  0.52216300  1
  C  C60  1  0.54624500  0.50544600  0.92321500  1
  C  C61  1  0.79336600  0.47101300  0.36219900  1
  C  C62  1  0.29526100  0.96777500  0.36385700  1
  C  C63  1  0.87630900  0.43779600  0.17186600  1
  C  C64  1  0.23796500  0.98561800  0.52324200  1
  C  C65  1  0.92810100  0.25842100  0.67863900  1
  C  C66  1  0.14110500  0.00143200  0.92448200  1
  C  C67  1  0.62570800  0.71190100  0.45549800  1
  C  C68  1  0.59283100  0.83915400  0.11274000  1
  C  C69  1  0.10816900  0.29924000  0.27096600  1
  C  C70  1  0.60525400  0.81054500  0.27399200  1
  C  C71  1  0.47101300  0.79336600  0.86219900  1
  C  C72  1  0.96777500  0.29526100  0.86385700  1
  C  C73  1  0.43779600  0.87630900  0.67186600  1
  C  C74  1  0.16964600  0.33919600  0.11089200  1
  C  C75  1  0.44881100  0.09288000  0.19947500  1
  C  C76  1  0.13118200  0.33697800  0.44870200  1
  C  C77  1  0.71190100  0.62570800  0.95549800  1
  C  C78  1  0.83915400  0.59283100  0.61274000  1
  C  C79  1  0.29924000  0.10816900  0.77096600  1
  C  C80  1  0.81054500  0.60525400  0.77399200  1
  C  C81  1  0.02163300  0.58596100  0.20102800  1
  C  C82  1  0.92036900  0.74002700  0.02346100  1
  C  C83  1  0.33919600  0.16964600  0.61089200  1
  C  C84  1  0.50864400  0.04583000  0.42225800  1
  C  C85  1  0.48275400  0.24020700  0.02194500  1
  C  C86  1  0.75953900  0.93234600  0.17715400  1
  C  C87  1  0.09288000  0.44881100  0.69947500  1
  C  C88  1  0.33697800  0.13118200  0.94870200  1
  C  C89  1  0.00105500  0.64302200  0.42532000  1
  C  C90  1  0.58596100  0.02163300  0.70102800  1
  C  C91  1  0.74002700  0.92036900  0.52346100  1
  C  C92  1  0.04583000  0.50864400  0.92225800  1
  C  C93  1  0.29133500  0.46421300  0.36226600  1
  C  C94  1  0.79914200  0.97398700  0.36474800  1
  C  C95  1  0.24020700  0.48275400  0.52194500  1
  C  C96  1  0.37916100  0.43734100  0.17221100  1
  C  C97  1  0.93234600  0.75953900  0.67715400  1
  C  C98  1  0.64302200  0.00105500  0.92532000  1
  C  C99  1  0.62374200  0.21462500  0.45580400  1
  C  C100  1  0.09043100  0.84108200  0.11062400  1
  C  C101  1  0.10368900  0.79805900  0.27015200  1
  C  C102  1  0.60851200  0.31282200  0.27457500  1
  C  C103  1  0.46421300  0.29133500  0.86226600  1
  C  C104  1  0.97398700  0.79914200  0.86474800  1
  C  C105  1  0.43734100  0.37916100  0.67221100  1
  C  C106  1  0.21462500  0.62374200  0.95580400  1
  C  C107  1  0.13772300  0.83517900  0.44798700  1
  C  C108  1  0.84108200  0.09043100  0.61062400  1
  C  C109  1  0.79805900  0.10368900  0.77015200  1
  C  C110  1  0.31282200  0.60851200  0.77457500  1
  C  C111  1  0.83517900  0.13772300  0.94798700  1
