# generated using pymatgen
data_Cu2Ni4C23
_symmetry_space_group_name_H-M   'P 1'
_cell_length_a   10.26459800
_cell_length_b   9.55571900
_cell_length_c   9.84575269
_cell_angle_alpha   61.67382565
_cell_angle_beta   90.00000000
_cell_angle_gamma   90.00000000
_symmetry_Int_Tables_number   1
_chemical_formula_structural   Cu2Ni4C23
_chemical_formula_sum   'Cu4 Ni8 C46'
_cell_volume   850.09124508
_cell_formula_units_Z   2
loop_
 _symmetry_equiv_pos_site_id
 _symmetry_equiv_pos_as_xyz
  1  'x, y, z'
loop_
 _atom_site_type_symbol
 _atom_site_label
 _atom_site_symmetry_multiplicity
 _atom_site_fract_x
 _atom_site_fract_y
 _atom_site_fract_z
 _atom_site_occupancy
  C  C0  1  0.49396300  0.76412000  0.17525400  1
  C  C1  1  0.99396300  0.23588000  0.32474600  1
  C  C2  1  0.50603700  0.23588000  0.82474600  1
  C  C3  1  0.00603700  0.76412000  0.67525400  1
  C  C4  1  0.37651600  0.90722700  0.66255100  1
  C  C5  1  0.87651600  0.09277300  0.83744900  1
  C  C6  1  0.62348400  0.09277300  0.33744900  1
  C  C7  1  0.12348400  0.90722700  0.16255100  1
  C  C8  1  0.50000000  0.50000000  0.00000000  1
  C  C9  1  0.00000000  0.50000000  0.50000000  1
  C  C10  1  0.15435500  0.38470200  0.87915300  1
  C  C11  1  0.65435500  0.61529800  0.62084700  1
  C  C12  1  0.84564500  0.61529800  0.12084700  1
  C  C13  1  0.34564500  0.38470200  0.37915300  1
  Ni  Ni14  1  0.66931200  0.81090600  0.81137500  1
  Ni  Ni15  1  0.16931200  0.18909400  0.68862500  1
  Ni  Ni16  1  0.33068800  0.18909400  0.18862500  1
  Ni  Ni17  1  0.83068800  0.81090600  0.31137500  1
  Ni  Ni18  1  0.70442800  0.39692000  0.45349600  1
  Ni  Ni19  1  0.20442800  0.60308000  0.04650400  1
  Ni  Ni20  1  0.29557200  0.60308000  0.54650400  1
  Ni  Ni21  1  0.79557200  0.39692000  0.95349600  1
  Cu  Cu22  1  0.69319100  0.11535300  0.62477200  1
  Cu  Cu23  1  0.19319100  0.88464700  0.87522800  1
  Cu  Cu24  1  0.30680900  0.88464700  0.37522800  1
  Cu  Cu25  1  0.80680900  0.11535300  0.12477200  1
  C  C26  1  0.82308500  0.74996100  0.88926700  1
  C  C27  1  0.32308500  0.25003900  0.61073300  1
  C  C28  1  0.17691500  0.25003900  0.11073300  1
  C  C29  1  0.67691500  0.74996100  0.38926700  1
  C  C30  1  0.54054300  0.71428600  0.93482000  1
  C  C31  1  0.04054300  0.28571400  0.56518000  1
  C  C32  1  0.45945700  0.28571400  0.06518000  1
  C  C33  1  0.95945700  0.71428600  0.43482000  1
  C  C34  1  0.65445200  0.81309700  0.63430400  1
  C  C35  1  0.15445200  0.18690300  0.86569600  1
  C  C36  1  0.34554800  0.18690300  0.36569600  1
  C  C37  1  0.84554800  0.81309700  0.13430400  1
  C  C38  1  0.63893900  0.00514400  0.76932200  1
  C  C39  1  0.13893900  0.99485600  0.73067800  1
  C  C40  1  0.36106100  0.99485600  0.23067800  1
  C  C41  1  0.86106100  0.00514400  0.26932200  1
  C  C42  1  0.57556300  0.44356400  0.33452000  1
  C  C43  1  0.07556300  0.55643600  0.16548000  1
  C  C44  1  0.42443700  0.55643600  0.66548000  1
  C  C45  1  0.92443700  0.44356400  0.83452000  1
  C  C46  1  0.68982400  0.41352600  0.61998600  1
  C  C47  1  0.18982400  0.58647400  0.88001400  1
  C  C48  1  0.31017600  0.58647400  0.38001400  1
  C  C49  1  0.81017600  0.41352600  0.11998600  1
  C  C50  1  0.85044500  0.49260700  0.35895400  1
  C  C51  1  0.35044500  0.50739300  0.14104600  1
  C  C52  1  0.14955500  0.50739300  0.64104600  1
  C  C53  1  0.64955500  0.49260700  0.85895400  1
  C  C54  1  0.74406600  0.19329800  0.52137900  1
  C  C55  1  0.24406600  0.80670200  0.97862100  1
  C  C56  1  0.25593400  0.80670200  0.47862100  1
  C  C57  1  0.75593400  0.19329800  0.02137900  1
