# generated using pymatgen
data_CuNiC5
_symmetry_space_group_name_H-M   'P 1'
_cell_length_a   5.53597000
_cell_length_b   5.53596137
_cell_length_c   22.96052300
_cell_angle_alpha   90.00000000
_cell_angle_beta   90.00000000
_cell_angle_gamma   60.00003764
_symmetry_Int_Tables_number   1
_chemical_formula_structural   CuNiC5
_chemical_formula_sum   'Cu6 Ni6 C30'
_cell_volume   609.39565266
_cell_formula_units_Z   6
loop_
 _symmetry_equiv_pos_site_id
 _symmetry_equiv_pos_as_xyz
  1  'x, y, z'
loop_
 _atom_site_type_symbol
 _atom_site_label
 _atom_site_symmetry_multiplicity
 _atom_site_fract_x
 _atom_site_fract_y
 _atom_site_fract_z
 _atom_site_occupancy
  C  C0  1  0.00000000  0.00000000  0.00000000  1
  C  C1  1  0.00000000  0.00000000  0.50000000  1
  C  C2  1  0.00000000  0.00000000  0.16666600  1
  C  C3  1  0.00000000  0.00000000  0.66666600  1
  C  C4  1  0.00000000  0.00000000  0.33333300  1
  C  C5  1  0.00000000  0.00000000  0.83333300  1
  Ni  Ni6  1  0.50000000  0.50000000  0.66667000  1
  Ni  Ni7  1  0.00000000  0.50000000  0.33333100  1
  Ni  Ni8  1  0.50000000  0.00000000  0.99999900  1
  Ni  Ni9  1  0.50000000  0.50000000  0.16667000  1
  Ni  Ni10  1  0.00000000  0.50000000  0.83333100  1
  Ni  Ni11  1  0.50000000  0.00000000  0.49999900  1
  Cu  Cu12  1  0.50000000  0.50000000  0.41666600  1
  Cu  Cu13  1  0.50000000  0.50000000  0.91666600  1
  Cu  Cu14  1  0.00000000  0.50000000  0.08333400  1
  Cu  Cu15  1  0.00000000  0.50000000  0.58333400  1
  Cu  Cu16  1  0.50000000  0.00000000  0.25000000  1
  Cu  Cu17  1  0.50000000  0.00000000  0.75000000  1
  C  C18  1  0.39617700  0.82686000  0.20850700  1
  C  C19  1  0.39617700  0.82686000  0.70850700  1
  C  C20  1  0.39617600  0.77696600  0.45816000  1
  C  C21  1  0.39617600  0.77696600  0.95816000  1
  C  C22  1  0.82685900  0.39617600  0.12482500  1
  C  C23  1  0.82685900  0.39617600  0.62482500  1
  C  C24  1  0.77696400  0.39617500  0.37517500  1
  C  C25  1  0.77696400  0.39617500  0.87517500  1
  C  C26  1  0.82686000  0.77696500  0.04184000  1
  C  C27  1  0.82686000  0.77696500  0.54184000  1
  C  C28  1  0.77696500  0.82686000  0.29149300  1
  C  C29  1  0.77696500  0.82686000  0.79149300  1
  C  C30  1  0.22303500  0.17314000  0.29149300  1
  C  C31  1  0.22303500  0.17314000  0.79149300  1
  C  C32  1  0.17314000  0.22303500  0.04184000  1
  C  C33  1  0.17314000  0.22303500  0.54184000  1
  C  C34  1  0.22303600  0.60382500  0.37517500  1
  C  C35  1  0.22303600  0.60382500  0.87517500  1
  C  C36  1  0.17314100  0.60382400  0.12482500  1
  C  C37  1  0.17314100  0.60382400  0.62482500  1
  C  C38  1  0.60382400  0.22303400  0.45816000  1
  C  C39  1  0.60382400  0.22303400  0.95816000  1
  C  C40  1  0.60382300  0.17314000  0.20850700  1
  C  C41  1  0.60382300  0.17314000  0.70850700  1
