# generated using pymatgen
data_Cu8Ni2C
_symmetry_space_group_name_H-M   'P 1'
_cell_length_a   8.93065321
_cell_length_b   8.93065326
_cell_length_c   8.93065283
_cell_angle_alpha   55.42523815
_cell_angle_beta   55.42524465
_cell_angle_gamma   55.42524506
_symmetry_Int_Tables_number   1
_chemical_formula_structural   Cu8Ni2C
_chemical_formula_sum   'Cu24 Ni6 C3'
_cell_volume   450.14236727
_cell_formula_units_Z   3
loop_
 _symmetry_equiv_pos_site_id
 _symmetry_equiv_pos_as_xyz
  1  'x, y, z'
loop_
 _atom_site_type_symbol
 _atom_site_label
 _atom_site_symmetry_multiplicity
 _atom_site_fract_x
 _atom_site_fract_y
 _atom_site_fract_z
 _atom_site_occupancy
  C  C0  1  0.15110000  0.15110000  0.15110000  1
  C  C1  1  0.64403200  0.64403200  0.64403200  1
  C  C2  1  0.84874400  0.84874400  0.84874400  1
  Ni  Ni3  1  0.04143400  0.75681500  0.45618500  1
  Ni  Ni4  1  0.45618500  0.04143400  0.75681500  1
  Ni  Ni5  1  0.75681500  0.45618500  0.04143400  1
  Ni  Ni6  1  0.24810400  0.54151100  0.95588300  1
  Ni  Ni7  1  0.54151100  0.95588300  0.24810400  1
  Ni  Ni8  1  0.95588300  0.24810400  0.54151100  1
  Cu  Cu9  1  0.10904200  0.29638700  0.50731000  1
  Cu  Cu10  1  0.29638700  0.50731000  0.10904200  1
  Cu  Cu11  1  0.99799000  0.96686400  0.33217700  1
  Cu  Cu12  1  0.50731000  0.10904200  0.29638700  1
  Cu  Cu13  1  0.02561900  0.71761300  0.65038500  1
  Cu  Cu14  1  0.24301200  0.63942600  0.36614000  1
  Cu  Cu15  1  0.36614000  0.24301200  0.63942600  1
  Cu  Cu16  1  0.33217700  0.99799000  0.96686400  1
  Cu  Cu17  1  0.63942600  0.36614000  0.24301200  1
  Cu  Cu18  1  0.04006500  0.67092600  0.99243800  1
  Cu  Cu19  1  0.28317500  0.35015700  0.96985400  1
  Cu  Cu20  1  0.35015700  0.96985400  0.28317500  1
  Cu  Cu21  1  0.65038500  0.02561900  0.71761300  1
  Cu  Cu22  1  0.71761300  0.65038500  0.02561900  1
  Cu  Cu23  1  0.96686400  0.33217700  0.99799000  1
  Cu  Cu24  1  0.37390400  0.63047600  0.75892900  1
  Cu  Cu25  1  0.67092600  0.99243800  0.04006500  1
  Cu  Cu26  1  0.63047600  0.75892900  0.37390400  1
  Cu  Cu27  1  0.75892900  0.37390400  0.63047600  1
  Cu  Cu28  1  0.96985400  0.28317500  0.35015700  1
  Cu  Cu29  1  0.47954100  0.90194200  0.69778200  1
  Cu  Cu30  1  0.99243800  0.04006500  0.67092600  1
  Cu  Cu31  1  0.69778200  0.47954100  0.90194200  1
  Cu  Cu32  1  0.90194200  0.69778200  0.47954100  1
