# generated using pymatgen
data_CuNiC10
_symmetry_space_group_name_H-M   'P 1'
_cell_length_a   5.05965300
_cell_length_b   10.15763928
_cell_length_c   11.01609136
_cell_angle_alpha   74.28196777
_cell_angle_beta   88.02668751
_cell_angle_gamma   83.05717240
_symmetry_Int_Tables_number   1
_chemical_formula_structural   CuNiC10
_chemical_formula_sum   'Cu4 Ni4 C40'
_cell_volume   540.99453394
_cell_formula_units_Z   4
loop_
 _symmetry_equiv_pos_site_id
 _symmetry_equiv_pos_as_xyz
  1  'x, y, z'
loop_
 _atom_site_type_symbol
 _atom_site_label
 _atom_site_symmetry_multiplicity
 _atom_site_fract_x
 _atom_site_fract_y
 _atom_site_fract_z
 _atom_site_occupancy
  C  C0  1  0.26316100  0.91166500  0.84417600  1
  C  C1  1  0.22312400  0.55234800  0.86665000  1
  C  C2  1  0.28611200  0.39933500  0.34980800  1
  C  C3  1  0.36940300  0.11867400  0.60184400  1
  C  C4  1  0.63059700  0.88132600  0.39815600  1
  C  C5  1  0.73683900  0.08833500  0.15582400  1
  C  C6  1  0.77687600  0.44765200  0.13335000  1
  C  C7  1  0.71388800  0.60066500  0.65019200  1
  C  C8  1  0.18830400  0.20743900  0.95421800  1
  C  C9  1  0.18664700  0.70488300  0.44952500  1
  C  C10  1  0.81169600  0.79256100  0.04578200  1
  C  C11  1  0.81335300  0.29511700  0.55047500  1
  Ni  Ni12  1  0.27416400  0.91053400  0.16674600  1
  Ni  Ni13  1  0.27319700  0.41177100  0.66898400  1
  Ni  Ni14  1  0.72583600  0.08946600  0.83325400  1
  Ni  Ni15  1  0.72680300  0.58822900  0.33101600  1
  Cu  Cu16  1  0.25396600  0.84913900  0.59558300  1
  Cu  Cu17  1  0.32817200  0.33097400  0.10936200  1
  Cu  Cu18  1  0.74603400  0.15086100  0.40441700  1
  Cu  Cu19  1  0.67182800  0.66902600  0.89063800  1
  C  C20  1  0.02176900  0.83602400  0.55703200  1
  C  C21  1  0.15032400  0.80318200  0.11818800  1
  C  C22  1  0.11595600  0.05460500  0.11287000  1
  C  C23  1  0.07981800  0.34653300  0.07117500  1
  C  C24  1  0.27283000  0.87118300  0.31291700  1
  C  C25  1  0.16959200  0.29621800  0.62169600  1
  C  C26  1  0.24422000  0.38229700  0.81393000  1
  C  C27  1  0.10595100  0.55237100  0.60973400  1
  C  C28  1  0.42655900  0.08281000  0.87426900  1
  C  C29  1  0.29833300  0.92691600  0.66303200  1
  C  C30  1  0.41058700  0.39765100  0.17993600  1
  C  C31  1  0.57344100  0.91719000  0.12573100  1
  C  C32  1  0.48821000  0.24587400  0.06303100  1
  C  C33  1  0.54570700  0.22861700  0.44503100  1
  C  C34  1  0.43127400  0.57676000  0.37242300  1
  C  C35  1  0.70166700  0.07308400  0.33696800  1
  C  C36  1  0.51179000  0.75412600  0.93696900  1
  C  C37  1  0.58941300  0.60234900  0.82006400  1
  C  C38  1  0.56872600  0.42324000  0.62757700  1
  C  C39  1  0.45429300  0.77138300  0.55496900  1
  C  C40  1  0.88404400  0.94539500  0.88713000  1
  C  C41  1  0.72717000  0.12881700  0.68708300  1
  C  C42  1  0.84967600  0.19681800  0.88181200  1
  C  C43  1  0.75578000  0.61770300  0.18607000  1
  C  C44  1  0.97823100  0.16397600  0.44296800  1
  C  C45  1  0.89404900  0.44762900  0.39026600  1
  C  C46  1  0.83040800  0.70378200  0.37830400  1
  C  C47  1  0.92018200  0.65346700  0.92882500  1
