# generated using pymatgen
data_CuNiC5
_symmetry_space_group_name_H-M   'P 1'
_cell_length_a   18.47427305
_cell_length_b   18.47427305
_cell_length_c   18.47427392
_cell_angle_alpha   25.96881313
_cell_angle_beta   25.96881313
_cell_angle_gamma   25.96881304
_symmetry_Int_Tables_number   1
_chemical_formula_structural   CuNiC5
_chemical_formula_sum   'Cu12 Ni12 C60'
_cell_volume   1064.90899482
_cell_formula_units_Z   12
loop_
 _symmetry_equiv_pos_site_id
 _symmetry_equiv_pos_as_xyz
  1  'x, y, z'
loop_
 _atom_site_type_symbol
 _atom_site_label
 _atom_site_symmetry_multiplicity
 _atom_site_fract_x
 _atom_site_fract_y
 _atom_site_fract_z
 _atom_site_occupancy
  C  C0  1  0.75000000  0.75000000  0.75000000  1
  C  C1  1  0.25000000  0.25000000  0.25000000  1
  C  C2  1  0.83286100  0.83286100  0.83286100  1
  C  C3  1  0.33286100  0.33286100  0.33286100  1
  C  C4  1  0.16713900  0.16713900  0.16713900  1
  C  C5  1  0.66713900  0.66713900  0.66713900  1
  C  C6  1  0.41382500  0.41382500  0.41382500  1
  C  C7  1  0.91382500  0.91382500  0.91382500  1
  C  C8  1  0.58617500  0.58617500  0.58617500  1
  C  C9  1  0.08617500  0.08617500  0.08617500  1
  C  C10  1  0.50000000  0.50000000  0.50000000  1
  C  C11  1  0.00000000  0.00000000  0.00000000  1
  Ni  Ni12  1  0.20091100  0.75951600  0.40136100  1
  Ni  Ni13  1  0.40136100  0.20091100  0.75951600  1
  Ni  Ni14  1  0.75951600  0.40136100  0.20091100  1
  Ni  Ni15  1  0.90136100  0.25951600  0.70091100  1
  Ni  Ni16  1  0.70091100  0.90136100  0.25951600  1
  Ni  Ni17  1  0.25951600  0.70091100  0.90136100  1
  Ni  Ni18  1  0.79908900  0.24048400  0.59863900  1
  Ni  Ni19  1  0.59863900  0.79908900  0.24048400  1
  Ni  Ni20  1  0.24048400  0.59863900  0.79908900  1
  Ni  Ni21  1  0.09863900  0.74048400  0.29908900  1
  Ni  Ni22  1  0.29908900  0.09863900  0.74048400  1
  Ni  Ni23  1  0.74048400  0.29908900  0.09863900  1
  Cu  Cu24  1  0.01416300  0.41996600  0.92638400  1
  Cu  Cu25  1  0.92638400  0.01416300  0.41996600  1
  Cu  Cu26  1  0.41996600  0.92638400  0.01416300  1
  Cu  Cu27  1  0.42638400  0.91996600  0.51416300  1
  Cu  Cu28  1  0.51416300  0.42638400  0.91996600  1
  Cu  Cu29  1  0.91996600  0.51416300  0.42638400  1
  Cu  Cu30  1  0.98583700  0.58003400  0.07361600  1
  Cu  Cu31  1  0.07361600  0.98583700  0.58003400  1
  Cu  Cu32  1  0.58003400  0.07361600  0.98583700  1
  Cu  Cu33  1  0.57361600  0.08003400  0.48583700  1
  Cu  Cu34  1  0.48583700  0.57361600  0.08003400  1
  Cu  Cu35  1  0.08003400  0.48583700  0.57361600  1
  C  C36  1  0.31868200  0.70724800  0.41114100  1
  C  C37  1  0.41114100  0.31868200  0.70724800  1
  C  C38  1  0.70724800  0.41114100  0.31868200  1
  C  C39  1  0.91114100  0.20724800  0.81868200  1
  C  C40  1  0.81868200  0.91114100  0.20724800  1
  C  C41  1  0.20724800  0.81868200  0.91114100  1
  C  C42  1  0.68131800  0.29275200  0.58885900  1
  C  C43  1  0.58885900  0.68131800  0.29275200  1
  C  C44  1  0.29275200  0.58885900  0.68131800  1
  C  C45  1  0.08885900  0.79275200  0.18131800  1
  C  C46  1  0.18131800  0.08885900  0.79275200  1
  C  C47  1  0.79275200  0.18131800  0.08885900  1
  C  C48  1  0.20807100  0.59177200  0.50398300  1
  C  C49  1  0.50398300  0.20807100  0.59177200  1
  C  C50  1  0.59177200  0.50398300  0.20807100  1
  C  C51  1  0.00398300  0.09177200  0.70807100  1
  C  C52  1  0.70807100  0.00398300  0.09177200  1
  C  C53  1  0.09177200  0.70807100  0.00398300  1
  C  C54  1  0.79192900  0.40822800  0.49601700  1
  C  C55  1  0.49601700  0.79192900  0.40822800  1
  C  C56  1  0.40822800  0.49601700  0.79192900  1
  C  C57  1  0.99601700  0.90822800  0.29192900  1
  C  C58  1  0.29192900  0.99601700  0.90822800  1
  C  C59  1  0.90822800  0.29192900  0.99601700  1
  C  C60  1  0.98521100  0.88505700  0.50744300  1
  C  C61  1  0.50744300  0.98521100  0.88505700  1
  C  C62  1  0.88505700  0.50744300  0.98521100  1
  C  C63  1  0.00744300  0.38505700  0.48521100  1
  C  C64  1  0.48521100  0.00744300  0.38505700  1
  C  C65  1  0.38505700  0.48521100  0.00744300  1
  C  C66  1  0.01478900  0.11494300  0.49255700  1
  C  C67  1  0.49255700  0.01478900  0.11494300  1
  C  C68  1  0.11494300  0.49255700  0.01478900  1
  C  C69  1  0.99255700  0.61494300  0.51478900  1
  C  C70  1  0.51478900  0.99255700  0.61494300  1
  C  C71  1  0.61494300  0.51478900  0.99255700  1
  C  C72  1  0.25425700  0.30411500  0.60999500  1
  C  C73  1  0.60999500  0.25425700  0.30411500  1
  C  C74  1  0.30411500  0.60999500  0.25425700  1
  C  C75  1  0.10999500  0.80411500  0.75425700  1
  C  C76  1  0.75425700  0.10999500  0.80411500  1
  C  C77  1  0.80411500  0.75425700  0.10999500  1
  C  C78  1  0.74574300  0.69588500  0.39000500  1
  C  C79  1  0.39000500  0.74574300  0.69588500  1
  C  C80  1  0.69588500  0.39000500  0.74574300  1
  C  C81  1  0.89000500  0.19588500  0.24574300  1
  C  C82  1  0.24574300  0.89000500  0.19588500  1
  C  C83  1  0.19588500  0.24574300  0.89000500  1
