# generated using pymatgen
data_Cu3NiC13
_symmetry_space_group_name_H-M   'P 1'
_cell_length_a   5.99921697
_cell_length_b   5.99921697
_cell_length_c   9.92874900
_cell_angle_alpha   90.00000000
_cell_angle_beta   90.00000000
_cell_angle_gamma   119.99998863
_symmetry_Int_Tables_number   1
_chemical_formula_structural   Cu3NiC13
_chemical_formula_sum   'Cu6 Ni2 C26'
_cell_volume   309.46700457
_cell_formula_units_Z   2
loop_
 _symmetry_equiv_pos_site_id
 _symmetry_equiv_pos_as_xyz
  1  'x, y, z'
loop_
 _atom_site_type_symbol
 _atom_site_label
 _atom_site_symmetry_multiplicity
 _atom_site_fract_x
 _atom_site_fract_y
 _atom_site_fract_z
 _atom_site_occupancy
  C  C0  1  0.19532700  0.80467300  0.04729500  1
  C  C1  1  0.60934600  0.80467300  0.04729500  1
  C  C2  1  0.33333300  0.66666700  0.26139400  1
  C  C3  1  0.19532700  0.39065400  0.04729500  1
  C  C4  1  0.80467300  0.60934600  0.54729500  1
  C  C5  1  0.00000000  0.00000000  0.47110000  1
  C  C6  1  0.66666700  0.33333300  0.76139400  1
  C  C7  1  0.39065400  0.19532700  0.54729500  1
  C  C8  1  0.00000000  0.00000000  0.97110000  1
  C  C9  1  0.80467300  0.19532700  0.54729500  1
  Ni  Ni10  1  0.33333300  0.66666700  0.51146500  1
  Ni  Ni11  1  0.66666700  0.33333300  0.01146500  1
  Cu  Cu12  1  0.16815500  0.83184500  0.77283800  1
  Cu  Cu13  1  0.66369000  0.83184500  0.77283800  1
  Cu  Cu14  1  0.16815500  0.33631000  0.77283800  1
  Cu  Cu15  1  0.83184500  0.66369000  0.27283800  1
  Cu  Cu16  1  0.33631000  0.16815500  0.27283800  1
  Cu  Cu17  1  0.83184500  0.16815500  0.27283800  1
  C  C18  1  0.15978900  0.84021100  0.38825800  1
  C  C19  1  0.49209300  0.98418500  0.65570900  1
  C  C20  1  0.33333300  0.66666700  0.88783900  1
  C  C21  1  0.68042300  0.84021100  0.38825800  1
  C  C22  1  0.01581500  0.50790700  0.65570900  1
  C  C23  1  0.49209300  0.50790700  0.65570900  1
  C  C24  1  0.15978900  0.31957700  0.38825800  1
  C  C25  1  0.84021100  0.68042300  0.88825800  1
  C  C26  1  0.50790700  0.49209300  0.15570900  1
  C  C27  1  0.66666700  0.33333300  0.38783900  1
  C  C28  1  0.98418500  0.49209300  0.15570900  1
  C  C29  1  0.00000000  0.00000000  0.16097700  1
  C  C30  1  0.31957700  0.15978900  0.88825800  1
  C  C31  1  0.00000000  0.00000000  0.66097700  1
  C  C32  1  0.50790700  0.01581500  0.15570900  1
  C  C33  1  0.84021100  0.15978900  0.88825800  1
