# generated using pymatgen
data_CuNiC
_symmetry_space_group_name_H-M   'P 1'
_cell_length_a   5.67747100
_cell_length_b   11.62875000
_cell_length_c   11.80126800
_cell_angle_alpha   90.00000000
_cell_angle_beta   90.00000000
_cell_angle_gamma   90.00000000
_symmetry_Int_Tables_number   1
_chemical_formula_structural   CuNiC
_chemical_formula_sum   'Cu16 Ni16 C16'
_cell_volume   779.14202827
_cell_formula_units_Z   16
loop_
 _symmetry_equiv_pos_site_id
 _symmetry_equiv_pos_as_xyz
  1  'x, y, z'
loop_
 _atom_site_type_symbol
 _atom_site_label
 _atom_site_symmetry_multiplicity
 _atom_site_fract_x
 _atom_site_fract_y
 _atom_site_fract_z
 _atom_site_occupancy
  C  C0  1  0.72991300  0.86154600  0.96888100  1
  C  C1  1  0.77008700  0.86154600  0.46888100  1
  C  C2  1  0.25451300  0.88379800  0.75197400  1
  C  C3  1  0.24548700  0.88379800  0.25197400  1
  C  C4  1  0.74548700  0.61620200  0.25197400  1
  C  C5  1  0.75451300  0.61620200  0.75197400  1
  C  C6  1  0.27008700  0.63845400  0.46888100  1
  C  C7  1  0.22991300  0.63845400  0.96888100  1
  C  C8  1  0.72991300  0.36154600  0.53111900  1
  C  C9  1  0.77008700  0.36154600  0.03111900  1
  C  C10  1  0.24548700  0.38379800  0.24802600  1
  C  C11  1  0.25451300  0.38379800  0.74802600  1
  C  C12  1  0.75451300  0.11620200  0.74802600  1
  C  C13  1  0.74548700  0.11620200  0.24802600  1
  C  C14  1  0.27008700  0.13845400  0.03111900  1
  C  C15  1  0.22991300  0.13845400  0.53111900  1
  Ni  Ni16  1  0.45906100  0.02116200  0.15215100  1
  Ni  Ni17  1  0.04093900  0.02116200  0.65215100  1
  Ni  Ni18  1  0.49369000  0.76619900  0.36865100  1
  Ni  Ni19  1  0.00631000  0.76619900  0.86865100  1
  Ni  Ni20  1  0.50631000  0.73380100  0.86865100  1
  Ni  Ni21  1  0.99369000  0.73380100  0.36865100  1
  Ni  Ni22  1  0.95906100  0.47883800  0.15215100  1
  Ni  Ni23  1  0.54093900  0.47883800  0.65215100  1
  Ni  Ni24  1  0.45906100  0.52116200  0.34784900  1
  Ni  Ni25  1  0.04093900  0.52116200  0.84784900  1
  Ni  Ni26  1  0.00631000  0.26619900  0.63134900  1
  Ni  Ni27  1  0.49369000  0.26619900  0.13134900  1
  Ni  Ni28  1  0.50631000  0.23380100  0.63134900  1
  Ni  Ni29  1  0.99369000  0.23380100  0.13134900  1
  Ni  Ni30  1  0.95906100  0.97883800  0.34784900  1
  Ni  Ni31  1  0.54093900  0.97883800  0.84784900  1
  Cu  Cu32  1  0.96526400  0.00401000  0.11694200  1
  Cu  Cu33  1  0.53473600  0.00401000  0.61694200  1
  Cu  Cu34  1  0.97968900  0.74358800  0.11054300  1
  Cu  Cu35  1  0.52031100  0.74358800  0.61054300  1
  Cu  Cu36  1  0.47968900  0.75641200  0.11054300  1
  Cu  Cu37  1  0.02031100  0.75641200  0.61054300  1
  Cu  Cu38  1  0.03473600  0.49599000  0.61694200  1
  Cu  Cu39  1  0.46526400  0.49599000  0.11694200  1
  Cu  Cu40  1  0.96526400  0.50401000  0.38305800  1
  Cu  Cu41  1  0.53473600  0.50401000  0.88305800  1
  Cu  Cu42  1  0.97968900  0.24358800  0.38945700  1
  Cu  Cu43  1  0.52031100  0.24358800  0.88945700  1
  Cu  Cu44  1  0.02031100  0.25641200  0.88945700  1
  Cu  Cu45  1  0.47968900  0.25641200  0.38945700  1
  Cu  Cu46  1  0.03473600  0.99599000  0.88305800  1
  Cu  Cu47  1  0.46526400  0.99599000  0.38305800  1
