# generated using pymatgen
data_Cu3Ni22C73
_symmetry_space_group_name_H-M   'P 1'
_cell_length_a   5.92424760
_cell_length_b   5.92424760
_cell_length_c   33.85505282
_cell_angle_alpha   84.71854820
_cell_angle_beta   84.71854820
_cell_angle_gamma   59.96462876
_symmetry_Int_Tables_number   1
_chemical_formula_structural   Cu3Ni22C73
_chemical_formula_sum   'Cu3 Ni22 C73'
_cell_volume   1022.82044078
_cell_formula_units_Z   1
loop_
 _symmetry_equiv_pos_site_id
 _symmetry_equiv_pos_as_xyz
  1  'x, y, z'
loop_
 _atom_site_type_symbol
 _atom_site_label
 _atom_site_symmetry_multiplicity
 _atom_site_fract_x
 _atom_site_fract_y
 _atom_site_fract_z
 _atom_site_occupancy
  C  C0  1  0.15965400  0.15965400  0.01900300  1
  C  C1  1  0.44496600  0.44496600  0.16224900  1
  C  C2  1  0.73191600  0.73191600  0.30503600  1
  C  C3  1  0.12598000  0.12598000  0.12339900  1
  C  C4  1  0.01200700  0.01200700  0.44718400  1
  C  C5  1  0.41171300  0.41171300  0.26635200  1
  C  C6  1  0.29990800  0.29990800  0.58810300  1
  C  C7  1  0.69614100  0.69614100  0.41117400  1
  C  C8  1  0.58533700  0.58533700  0.73133600  1
  C  C9  1  0.87029000  0.87029000  0.87480900  1
  C  C10  1  0.98933800  0.98933800  0.55423000  1
  C  C11  1  0.27186500  0.27186500  0.69726400  1
  C  C12  1  0.55813300  0.55813300  0.83923900  1
  C  C13  1  0.84395300  0.84395300  0.98096200  1
  Ni  Ni14  1  0.64054000  0.14517100  0.07161200  1
  Ni  Ni15  1  0.14517100  0.64054000  0.07161200  1
  Ni  Ni16  1  0.64147100  0.64147100  0.07168200  1
  Ni  Ni17  1  0.92946200  0.42590100  0.21400500  1
  Ni  Ni18  1  0.78567000  0.78567000  0.14282800  1
  Ni  Ni19  1  0.92922200  0.92922200  0.21419000  1
  Ni  Ni20  1  0.21280000  0.71635200  0.35755000  1
  Ni  Ni21  1  0.42590100  0.92946200  0.21400500  1
  Ni  Ni22  1  0.21245100  0.21245100  0.35742200  1
  Ni  Ni23  1  0.50010900  0.99958200  0.50002300  1
  Ni  Ni24  1  0.99958200  0.50010900  0.50002300  1
  Ni  Ni25  1  0.35390000  0.35390000  0.42884400  1
  Ni  Ni26  1  0.71635200  0.21280000  0.35755000  1
  Ni  Ni27  1  0.78652800  0.28621700  0.64275100  1
  Ni  Ni28  1  0.64357000  0.64357000  0.57109600  1
  Ni  Ni29  1  0.07103900  0.57145800  0.78572300  1
  Ni  Ni30  1  0.28621700  0.78652800  0.64275100  1
  Ni  Ni31  1  0.92866000  0.92866000  0.71424200  1
  Ni  Ni32  1  0.85511300  0.35808700  0.92832900  1
  Ni  Ni33  1  0.21514300  0.21514300  0.85716500  1
  Ni  Ni34  1  0.57145800  0.07103900  0.78572300  1
  Ni  Ni35  1  0.35808700  0.85511300  0.92832900  1
  Cu  Cu36  1  0.78605900  0.78605900  0.64283800  1
  Cu  Cu37  1  0.07132100  0.07132100  0.78574000  1
  Cu  Cu38  1  0.35830500  0.35830500  0.92845100  1
  C  C39  1  0.50087800  0.50087800  0.99990900  1
  C  C40  1  0.07139100  0.07139100  0.28578600  1
  C  C41  1  0.49974100  0.49974100  0.49976200  1
  C  C42  1  0.33341500  0.33341500  0.04120600  1
  C  C43  1  0.47168600  0.47168600  0.10367500  1
  C  C44  1  0.78995400  0.33759800  0.04084100  1
  C  C45  1  0.33759800  0.78995400  0.04084100  1
  C  C46  1  0.94330100  0.50226200  0.10510600  1
  C  C47  1  0.62597700  0.62597700  0.18013700  1
  C  C48  1  0.81373400  0.81373400  0.04074900  1
  C  C49  1  0.73760000  0.73760000  0.24504100  1
  C  C50  1  0.06845600  0.62265400  0.18055300  1
  C  C51  1  0.50226200  0.94330100  0.10510600  1
  C  C52  1  0.62265400  0.06845600  0.18055300  1
  C  C53  1  0.94489100  0.94489100  0.10548000  1
  C  C54  1  0.90682500  0.90682500  0.32680400  1
  C  C55  1  0.24070300  0.78068300  0.24461700  1
  C  C56  1  0.11967800  0.11967800  0.18209700  1
  C  C57  1  0.78068300  0.24070300  0.24461700  1
  C  C58  1  0.36277800  0.90877100  0.32674800  1
  C  C59  1  0.04384500  0.04384500  0.38917200  1
  C  C60  1  0.90877100  0.36277800  0.32674800  1
  C  C61  1  0.23629200  0.23629200  0.24484000  1
  C  C62  1  0.51264000  0.07372600  0.39147900  1
  C  C63  1  0.19238800  0.19238800  0.46645300  1
  C  C64  1  0.07372600  0.51264000  0.39147900  1
  C  C65  1  0.38423200  0.38423200  0.32638900  1
  C  C66  1  0.63658400  0.18138900  0.46377600  1
  C  C67  1  0.31807700  0.31807700  0.52908400  1
  C  C68  1  0.51473600  0.51473600  0.39170500  1
  C  C69  1  0.18138900  0.63658400  0.46377600  1
  C  C70  1  0.81795100  0.36267500  0.53570100  1
  C  C71  1  0.48166500  0.48166500  0.60611300  1
  C  C72  1  0.68195600  0.68195600  0.47057300  1
  C  C73  1  0.36267500  0.81795100  0.53570100  1
  C  C74  1  0.60433900  0.60433900  0.67232700  1
  C  C75  1  0.92601700  0.48119700  0.60811100  1
  C  C76  1  0.80726700  0.80726700  0.53387700  1
  C  C77  1  0.48119700  0.92601700  0.60811100  1
  C  C78  1  0.09233100  0.64699900  0.67760900  1
  C  C79  1  0.76576200  0.76576200  0.74916800  1
  C  C80  1  0.96759800  0.96759800  0.61320700  1
  C  C81  1  0.64699900  0.09233100  0.67760900  1
  C  C82  1  0.88975300  0.88975300  0.81540800  1
  C  C83  1  0.21027500  0.76538800  0.75097200  1
  C  C84  1  0.09154700  0.09154700  0.67918400  1
  C  C85  1  0.76538800  0.21027500  0.75097200  1
  C  C86  1  0.37680900  0.93225800  0.82049500  1
  C  C87  1  0.05311300  0.05311300  0.89421500  1
  C  C88  1  0.93225800  0.37680900  0.82049500  1
  C  C89  1  0.25291100  0.25291100  0.75621700  1
  C  C90  1  0.49477000  0.04947700  0.89370400  1
  C  C91  1  0.17558400  0.17558400  0.95822800  1
  C  C92  1  0.37720400  0.37720400  0.82226300  1
  C  C93  1  0.04947700  0.49477000  0.89370400  1
  C  C94  1  0.67388800  0.21119600  0.96007100  1
  C  C95  1  0.53875500  0.53875500  0.89812000  1
  C  C96  1  0.21119600  0.67388800  0.96007100  1
  C  C97  1  0.66909400  0.66909400  0.95842300  1
