# generated using pymatgen
data_CuNiC11
_symmetry_space_group_name_H-M   'P 1'
_cell_length_a   6.66319400
_cell_length_b   10.59316499
_cell_length_c   8.96916424
_cell_angle_alpha   87.51667343
_cell_angle_beta   89.99981362
_cell_angle_gamma   90.00032690
_symmetry_Int_Tables_number   1
_chemical_formula_structural   CuNiC11
_chemical_formula_sum   'Cu4 Ni4 C44'
_cell_volume   632.48775488
_cell_formula_units_Z   4
loop_
 _symmetry_equiv_pos_site_id
 _symmetry_equiv_pos_as_xyz
  1  'x, y, z'
loop_
 _atom_site_type_symbol
 _atom_site_label
 _atom_site_symmetry_multiplicity
 _atom_site_fract_x
 _atom_site_fract_y
 _atom_site_fract_z
 _atom_site_occupancy
  C  C0  1  0.24999300  0.38641700  0.08753400  1
  C  C1  1  0.24999200  0.88670700  0.08746900  1
  C  C2  1  0.74999400  0.11324700  0.91267700  1
  C  C3  1  0.74999400  0.61338200  0.91267800  1
  C  C4  1  0.01345900  0.12980600  0.27642000  1
  C  C5  1  0.01347600  0.63003400  0.27619900  1
  C  C6  1  0.48653200  0.12980200  0.27641400  1
  C  C7  1  0.48650400  0.63008200  0.27620100  1
  C  C8  1  0.51340800  0.36996100  0.72402400  1
  C  C9  1  0.51336400  0.87019400  0.72365600  1
  C  C10  1  0.98658600  0.36998400  0.72401300  1
  C  C11  1  0.98661500  0.87017800  0.72365200  1
  C  C12  1  0.75001500  0.89107300  0.34459100  1
  C  C13  1  0.24999300  0.60826700  0.65507200  1
  C  C14  1  0.74996200  0.39138400  0.34502900  1
  C  C15  1  0.24996600  0.10876400  0.65508200  1
  Ni  Ni16  1  0.25000600  0.35837000  0.41922800  1
  Ni  Ni17  1  0.24999400  0.85830500  0.41926200  1
  Ni  Ni18  1  0.74999500  0.14171500  0.58065300  1
  Ni  Ni19  1  0.74999900  0.64181600  0.58067200  1
  Cu  Cu20  1  0.75002500  0.35601000  0.05923100  1
  Cu  Cu21  1  0.74999000  0.85587400  0.05894900  1
  Cu  Cu22  1  0.25000000  0.14397600  0.94097100  1
  Cu  Cu23  1  0.24999900  0.64383300  0.94083200  1
  C  C24  1  0.25000300  0.15597200  0.08274700  1
  C  C25  1  0.24999500  0.65631600  0.08250900  1
  C  C26  1  0.74998400  0.34385700  0.91747300  1
  C  C27  1  0.74998800  0.84406600  0.91714200  1
  C  C28  1  0.75004600  0.46778400  0.11641800  1
  C  C29  1  0.74998400  0.96754700  0.11647900  1
  C  C30  1  0.25001700  0.03225900  0.88361800  1
  C  C31  1  0.25000500  0.53194000  0.88396400  1
  C  C32  1  0.75004900  0.25806800  0.15304600  1
  C  C33  1  0.74999800  0.75779600  0.15249800  1
  C  C34  1  0.24998100  0.24200700  0.84728500  1
  C  C35  1  0.24999900  0.74163400  0.84673000  1
  C  C36  1  0.25002100  0.20324000  0.46037700  1
  C  C37  1  0.24998400  0.70314700  0.45985000  1
  C  C38  1  0.75007500  0.29701100  0.54001600  1
  C  C39  1  0.74999500  0.79697900  0.53922800  1
  C  C40  1  0.74998800  0.06674100  0.42597600  1
  C  C41  1  0.74998900  0.56653500  0.42613700  1
  C  C42  1  0.25003300  0.43364700  0.57391500  1
  C  C43  1  0.24998900  0.93337800  0.57401800  1
  C  C44  1  0.05268600  0.39215200  0.31334000  1
  C  C45  1  0.05270600  0.89225500  0.31319700  1
  C  C46  1  0.44735900  0.39211200  0.31336100  1
  C  C47  1  0.44728900  0.89224200  0.31319200  1
  C  C48  1  0.55270100  0.10798500  0.68675800  1
  C  C49  1  0.55273000  0.60810300  0.68672900  1
  C  C50  1  0.94727800  0.10794100  0.68676000  1
  C  C51  1  0.94726800  0.60810600  0.68672600  1
