# generated using pymatgen
data_Cu(NiC6)4
_symmetry_space_group_name_H-M   'P 1'
_cell_length_a   9.52052247
_cell_length_b   9.52052247
_cell_length_c   9.52052247
_cell_angle_alpha   60.00000000
_cell_angle_beta   60.00000000
_cell_angle_gamma   60.00000000
_symmetry_Int_Tables_number   1
_chemical_formula_structural   Cu(NiC6)4
_chemical_formula_sum   'Cu2 Ni8 C48'
_cell_volume   610.19318026
_cell_formula_units_Z   2
loop_
 _symmetry_equiv_pos_site_id
 _symmetry_equiv_pos_as_xyz
  1  'x, y, z'
loop_
 _atom_site_type_symbol
 _atom_site_label
 _atom_site_symmetry_multiplicity
 _atom_site_fract_x
 _atom_site_fract_y
 _atom_site_fract_z
 _atom_site_occupancy
  C  C0  1  0.71681100  0.71681100  0.28318900  1
  C  C1  1  0.96681100  0.96681100  0.53318900  1
  C  C2  1  0.28318900  0.71681100  0.71681100  1
  C  C3  1  0.71681100  0.28318900  0.28318900  1
  C  C4  1  0.96681100  0.53318900  0.96681100  1
  C  C5  1  0.53318900  0.96681100  0.53318900  1
  C  C6  1  0.28318900  0.71681100  0.28318900  1
  C  C7  1  0.71681100  0.28318900  0.71681100  1
  C  C8  1  0.53318900  0.96681100  0.96681100  1
  C  C9  1  0.53318900  0.53318900  0.96681100  1
  C  C10  1  0.96681100  0.53318900  0.53318900  1
  C  C11  1  0.28318900  0.28318900  0.71681100  1
  C  C12  1  0.62500000  0.12500000  0.12500000  1
  C  C13  1  0.12500000  0.12500000  0.12500000  1
  C  C14  1  0.12500000  0.62500000  0.12500000  1
  C  C15  1  0.12500000  0.12500000  0.62500000  1
  Ni  Ni16  1  0.35130600  0.94608200  0.35130600  1
  Ni  Ni17  1  0.89869400  0.89869400  0.89869400  1
  Ni  Ni18  1  0.30391800  0.89869400  0.89869400  1
  Ni  Ni19  1  0.35130600  0.35130600  0.94608200  1
  Ni  Ni20  1  0.89869400  0.89869400  0.30391800  1
  Ni  Ni21  1  0.94608200  0.35130600  0.35130600  1
  Ni  Ni22  1  0.35130600  0.35130600  0.35130600  1
  Ni  Ni23  1  0.89869400  0.30391800  0.89869400  1
  Cu  Cu24  1  0.75000000  0.75000000  0.75000000  1
  Cu  Cu25  1  0.50000000  0.50000000  0.50000000  1
  C  C26  1  0.68582700  0.68582700  0.68582700  1
  C  C27  1  0.94251800  0.68582700  0.68582700  1
  C  C28  1  0.68582700  0.68582700  0.94251800  1
  C  C29  1  0.68582700  0.94251800  0.68582700  1
  C  C30  1  0.90519700  0.03191300  0.30403000  1
  C  C31  1  0.75886000  0.30403000  0.03191300  1
  C  C32  1  0.90519700  0.75886000  0.03191300  1
  C  C33  1  0.21808700  0.94597000  0.34480300  1
  C  C34  1  0.03191300  0.90519700  0.75886000  1
  C  C35  1  0.30403000  0.75886000  0.90519700  1
  C  C36  1  0.75886000  0.03191300  0.90519700  1
  C  C37  1  0.34480300  0.94597000  0.49114000  1
  C  C38  1  0.94597000  0.34480300  0.21808700  1
  C  C39  1  0.03191300  0.75886000  0.30403000  1
  C  C40  1  0.94597000  0.21808700  0.49114000  1
  C  C41  1  0.75886000  0.90519700  0.30403000  1
  C  C42  1  0.30403000  0.03191300  0.75886000  1
  C  C43  1  0.49114000  0.34480300  0.94597000  1
  C  C44  1  0.21808700  0.49114000  0.94597000  1
  C  C45  1  0.30403000  0.90519700  0.03191300  1
  C  C46  1  0.90519700  0.30403000  0.75886000  1
  C  C47  1  0.49114000  0.21808700  0.34480300  1
  C  C48  1  0.94597000  0.49114000  0.34480300  1
  C  C49  1  0.21808700  0.34480300  0.49114000  1
  C  C50  1  0.34480300  0.49114000  0.21808700  1
  C  C51  1  0.03191300  0.30403000  0.90519700  1
  C  C52  1  0.49114000  0.94597000  0.21808700  1
  C  C53  1  0.34480300  0.21808700  0.94597000  1
  C  C54  1  0.56417300  0.30748200  0.56417300  1
  C  C55  1  0.56417300  0.56417300  0.30748200  1
  C  C56  1  0.30748200  0.56417300  0.56417300  1
  C  C57  1  0.56417300  0.56417300  0.56417300  1
