# generated using pymatgen
data_Cu3NiC20
_symmetry_space_group_name_H-M   'P 1'
_cell_length_a   9.93721400
_cell_length_b   7.72642500
_cell_length_c   7.73878048
_cell_angle_alpha   78.72339068
_cell_angle_beta   90.00000000
_cell_angle_gamma   90.00000000
_symmetry_Int_Tables_number   1
_chemical_formula_structural   Cu3NiC20
_chemical_formula_sum   'Cu6 Ni2 C40'
_cell_volume   582.70605951
_cell_formula_units_Z   2
loop_
 _symmetry_equiv_pos_site_id
 _symmetry_equiv_pos_as_xyz
  1  'x, y, z'
loop_
 _atom_site_type_symbol
 _atom_site_label
 _atom_site_symmetry_multiplicity
 _atom_site_fract_x
 _atom_site_fract_y
 _atom_site_fract_z
 _atom_site_occupancy
  Ni  Ni0  1  0.46483100  0.84023000  0.40452600  1
  Ni  Ni1  1  0.53516900  0.34023000  0.40452600  1
  Cu  Cu2  1  0.47575800  0.36282200  0.89485400  1
  Cu  Cu3  1  0.52424200  0.86282200  0.89485400  1
  Cu  Cu4  1  0.97698300  0.64071400  0.60959200  1
  Cu  Cu5  1  0.97622200  0.13937300  0.10984200  1
  Cu  Cu6  1  0.02301700  0.14071400  0.60959200  1
  Cu  Cu7  1  0.02377800  0.63937300  0.10984200  1
  C  C8  1  0.34857300  0.58361100  0.16376400  1
  C  C9  1  0.34968200  0.08775500  0.66507000  1
  C  C10  1  0.65031800  0.58775500  0.66507000  1
  C  C11  1  0.65142700  0.08361100  0.16376400  1
  C  C12  1  0.84834100  0.91521400  0.83405400  1
  C  C13  1  0.84716500  0.41479500  0.33529700  1
  C  C14  1  0.15165900  0.41521400  0.83405400  1
  C  C15  1  0.15283500  0.91479500  0.33529700  1
  C  C16  1  0.30399100  0.94940300  0.30147400  1
  C  C17  1  0.30160600  0.44875200  0.79748000  1
  C  C18  1  0.36953200  0.74058300  0.01114600  1
  C  C19  1  0.37162600  0.24083600  0.50817500  1
  C  C20  1  0.42320500  0.91422200  0.63973700  1
  C  C21  1  0.42223300  0.61128200  0.33638700  1
  C  C22  1  0.42268800  0.11628300  0.83740700  1
  C  C23  1  0.41958400  0.41261100  0.13065400  1
  C  C24  1  0.57731200  0.61628300  0.83740700  1
  C  C25  1  0.58041600  0.91261100  0.13065400  1
  C  C26  1  0.57776700  0.11128200  0.33638700  1
  C  C27  1  0.57679500  0.41422200  0.63973700  1
  C  C28  1  0.62837400  0.74083600  0.50817500  1
  C  C29  1  0.63046800  0.24058300  0.01114600  1
  C  C30  1  0.69839400  0.94875200  0.79748000  1
  C  C31  1  0.69600900  0.44940300  0.30147400  1
  C  C32  1  0.80090200  0.55698200  0.69492000  1
  C  C33  1  0.80265700  0.05232800  0.19784400  1
  C  C34  1  0.86822500  0.26034600  0.48915700  1
  C  C35  1  0.87061600  0.76148600  0.98834400  1
  C  C36  1  0.92421500  0.88732100  0.66190400  1
  C  C37  1  0.92076300  0.58789200  0.36331500  1
  C  C38  1  0.92287800  0.08799600  0.86234000  1
  C  C39  1  0.92102300  0.38716200  0.16271800  1
  C  C40  1  0.07578500  0.38732100  0.66190400  1
  C  C41  1  0.07923700  0.08789200  0.36331500  1
  C  C42  1  0.07712200  0.58799600  0.86234000  1
  C  C43  1  0.07897700  0.88716200  0.16271800  1
  C  C44  1  0.12938400  0.26148600  0.98834400  1
  C  C45  1  0.13177500  0.76034600  0.48915700  1
  C  C46  1  0.19909800  0.05698200  0.69492000  1
  C  C47  1  0.19734300  0.55232800  0.19784400  1
