# generated using pymatgen
data_CuNiC6
_symmetry_space_group_name_H-M   'P 1'
_cell_length_a   7.36967360
_cell_length_b   7.96250021
_cell_length_c   7.36449518
_cell_angle_alpha   65.71677012
_cell_angle_beta   95.96372933
_cell_angle_gamma   65.71026780
_symmetry_Int_Tables_number   1
_chemical_formula_structural   CuNiC6
_chemical_formula_sum   'Cu4 Ni4 C24'
_cell_volume   339.10305754
_cell_formula_units_Z   4
loop_
 _symmetry_equiv_pos_site_id
 _symmetry_equiv_pos_as_xyz
  1  'x, y, z'
loop_
 _atom_site_type_symbol
 _atom_site_label
 _atom_site_symmetry_multiplicity
 _atom_site_fract_x
 _atom_site_fract_y
 _atom_site_fract_z
 _atom_site_occupancy
  C  C0  1  0.96282800  0.24999400  0.28412800  1
  C  C1  1  0.46275000  0.24994300  0.78392300  1
  C  C2  1  0.78602700  0.75014600  0.46028900  1
  C  C3  1  0.28618900  0.75011100  0.96016600  1
  C  C4  1  0.17470400  0.49667300  0.32496900  1
  C  C5  1  0.67465700  0.49675200  0.82498700  1
  C  C6  1  0.32728700  0.99644700  0.17251700  1
  C  C7  1  0.82740900  0.99635900  0.67251000  1
  Ni  Ni8  1  0.42152800  0.99754800  0.58774600  1
  Ni  Ni9  1  0.92142600  0.99745300  0.08791800  1
  Ni  Ni10  1  0.59013100  0.49737600  0.41867400  1
  Ni  Ni11  1  0.09014300  0.49737500  0.91865900  1
  Cu  Cu12  1  0.54500900  0.24182300  0.20642800  1
  Cu  Cu13  1  0.20941800  0.74113500  0.54288500  1
  Cu  Cu14  1  0.04489400  0.24172100  0.70640400  1
  Cu  Cu15  1  0.70953300  0.74097900  0.04296900  1
  C  C16  1  0.51200600  0.00044500  0.39118600  1
  C  C17  1  0.01211300  0.99992800  0.89155900  1
  C  C18  1  0.89369800  0.50009600  0.00912200  1
  C  C19  1  0.39360600  0.50010800  0.50902300  1
  C  C20  1  0.18918100  0.21451600  0.49722600  1
  C  C21  1  0.68910600  0.21453600  0.99717000  1
  C  C22  1  0.49955500  0.71413400  0.18596100  1
  C  C23  1  0.99949300  0.71411500  0.68592300  1
  C  C24  1  0.71586800  0.28030700  0.40054700  1
  C  C25  1  0.21574000  0.28031500  0.90040000  1
  C  C26  1  0.90320400  0.78052400  0.21331700  1
  C  C27  1  0.40338800  0.78059700  0.71278900  1
  C  C28  1  0.76258500  0.49521000  0.58335700  1
  C  C29  1  0.26281000  0.49516500  0.08323200  1
  C  C30  1  0.58610400  0.99464100  0.76122300  1
  C  C31  1  0.08555300  0.99516700  0.26098800  1
