# generated using pymatgen
data_Cu4NiC
_symmetry_space_group_name_H-M   'P 1'
_cell_length_a   4.93690700
_cell_length_b   7.60920000
_cell_length_c   7.89113800
_cell_angle_alpha   90.00000000
_cell_angle_beta   90.00000000
_cell_angle_gamma   90.00000000
_symmetry_Int_Tables_number   1
_chemical_formula_structural   Cu4NiC
_chemical_formula_sum   'Cu16 Ni4 C4'
_cell_volume   296.43780156
_cell_formula_units_Z   4
loop_
 _symmetry_equiv_pos_site_id
 _symmetry_equiv_pos_as_xyz
  1  'x, y, z'
loop_
 _atom_site_type_symbol
 _atom_site_label
 _atom_site_symmetry_multiplicity
 _atom_site_fract_x
 _atom_site_fract_y
 _atom_site_fract_z
 _atom_site_occupancy
  C  C0  1  0.25000000  0.55386400  0.82849600  1
  C  C1  1  0.25000000  0.05386400  0.67150400  1
  C  C2  1  0.75000000  0.44613600  0.17150400  1
  C  C3  1  0.75000000  0.94613600  0.32849600  1
  Ni  Ni4  1  0.25000000  0.62544900  0.25116900  1
  Ni  Ni5  1  0.25000000  0.12544900  0.24883100  1
  Ni  Ni6  1  0.75000000  0.37455100  0.74883100  1
  Ni  Ni7  1  0.75000000  0.87455100  0.75116900  1
  Cu  Cu8  1  0.25000000  0.40143400  0.91972400  1
  Cu  Cu9  1  0.25000000  0.90143400  0.58027600  1
  Cu  Cu10  1  0.75000000  0.59856600  0.08027600  1
  Cu  Cu11  1  0.75000000  0.09856600  0.41972400  1
  Cu  Cu12  1  0.25000000  0.70701500  0.92093400  1
  Cu  Cu13  1  0.25000000  0.20701500  0.57906600  1
  Cu  Cu14  1  0.75000000  0.29298500  0.07906600  1
  Cu  Cu15  1  0.75000000  0.79298500  0.42093400  1
  Cu  Cu16  1  0.01520600  0.55734800  0.71048000  1
  Cu  Cu17  1  0.48479400  0.05734800  0.78952000  1
  Cu  Cu18  1  0.51520600  0.44265200  0.28952000  1
  Cu  Cu19  1  0.98479400  0.94265200  0.21048000  1
  Cu  Cu20  1  0.98479400  0.44265200  0.28952000  1
  Cu  Cu21  1  0.51520600  0.94265200  0.21048000  1
  Cu  Cu22  1  0.48479400  0.55734800  0.71048000  1
  Cu  Cu23  1  0.01520600  0.05734800  0.78952000  1
