# generated using pymatgen
data_CuNi5C12
_symmetry_space_group_name_H-M   'P 1'
_cell_length_a   16.31032000
_cell_length_b   6.95551200
_cell_length_c   7.10775267
_cell_angle_alpha   84.41304939
_cell_angle_beta   90.00000000
_cell_angle_gamma   90.00000000
_symmetry_Int_Tables_number   1
_chemical_formula_structural   CuNi5C12
_chemical_formula_sum   'Cu4 Ni20 C48'
_cell_volume   802.52007439
_cell_formula_units_Z   4
loop_
 _symmetry_equiv_pos_site_id
 _symmetry_equiv_pos_as_xyz
  1  'x, y, z'
loop_
 _atom_site_type_symbol
 _atom_site_label
 _atom_site_symmetry_multiplicity
 _atom_site_fract_x
 _atom_site_fract_y
 _atom_site_fract_z
 _atom_site_occupancy
  C  C0  1  0.84305700  0.96804900  0.10594200  1
  C  C1  1  0.65694300  0.46804900  0.10594200  1
  C  C2  1  0.09124000  0.41565800  0.32365200  1
  C  C3  1  0.40876000  0.91565800  0.32365200  1
  C  C4  1  0.59124000  0.08434200  0.67634800  1
  C  C5  1  0.90876000  0.58434200  0.67634800  1
  C  C6  1  0.34305700  0.53195100  0.89405800  1
  C  C7  1  0.15694300  0.03195100  0.89405800  1
  Ni  Ni8  1  0.97492000  0.10362400  0.19770300  1
  Ni  Ni9  1  0.52508000  0.60362400  0.19770300  1
  Ni  Ni10  1  0.23603700  0.52323500  0.22510100  1
  Ni  Ni11  1  0.26396300  0.02323500  0.22510100  1
  Ni  Ni12  1  0.48328100  0.26381400  0.25992600  1
  Ni  Ni13  1  0.01671900  0.76381400  0.25992600  1
  Ni  Ni14  1  0.38446700  0.52498800  0.31721100  1
  Ni  Ni15  1  0.11553300  0.02498800  0.31721100  1
  Ni  Ni16  1  0.72701800  0.42479400  0.45287000  1
  Ni  Ni17  1  0.77298200  0.92479400  0.45287000  1
  Ni  Ni18  1  0.22701800  0.07520600  0.54713000  1
  Ni  Ni19  1  0.27298200  0.57520600  0.54713000  1
  Ni  Ni20  1  0.88446700  0.97501200  0.68278900  1
  Ni  Ni21  1  0.61553300  0.47501200  0.68278900  1
  Ni  Ni22  1  0.98328100  0.23618600  0.74007400  1
  Ni  Ni23  1  0.51671900  0.73618600  0.74007400  1
  Ni  Ni24  1  0.73603700  0.97676500  0.77489900  1
  Ni  Ni25  1  0.76396300  0.47676500  0.77489900  1
  Ni  Ni26  1  0.47492000  0.39637600  0.80229700  1
  Ni  Ni27  1  0.02508000  0.89637600  0.80229700  1
  Cu  Cu28  1  0.86698600  0.49066800  0.16835200  1
  Cu  Cu29  1  0.63301400  0.99066800  0.16835200  1
  Cu  Cu30  1  0.36698600  0.00933200  0.83164800  1
  Cu  Cu31  1  0.13301400  0.50933200  0.83164800  1
  C  C32  1  0.17032700  0.51192300  0.10809000  1
  C  C33  1  0.32967300  0.01192300  0.10809000  1
  C  C34  1  0.90596000  0.21618700  0.15613800  1
  C  C35  1  0.59404000  0.71618700  0.15613800  1
  C  C36  1  0.18369000  0.03849300  0.16838900  1
  C  C37  1  0.53863200  0.40729500  0.17569000  1
  C  C38  1  0.31631000  0.53849300  0.16838900  1
  C  C39  1  0.96136800  0.90729500  0.17569000  1
  C  C40  1  0.50029700  0.07418500  0.25499600  1
  C  C41  1  0.99970300  0.57418500  0.25499600  1
  C  C42  1  0.75032200  0.38207100  0.27539600  1
  C  C43  1  0.04957700  0.16557400  0.25146500  1
  C  C44  1  0.74967800  0.88207100  0.27539600  1
  C  C45  1  0.45042300  0.66557400  0.25146500  1
  C  C46  1  0.41454600  0.32853200  0.34513700  1
  C  C47  1  0.08545400  0.82853200  0.34513700  1
  C  C48  1  0.21479100  0.51462700  0.41871100  1
  C  C49  1  0.28520900  0.01462700  0.41871100  1
  C  C50  1  0.64723000  0.40710900  0.50764000  1
  C  C51  1  0.14723000  0.09289100  0.49236000  1
  C  C52  1  0.85277000  0.90710900  0.50764000  1
  C  C53  1  0.35277000  0.59289100  0.49236000  1
  C  C54  1  0.71479100  0.98537300  0.58128900  1
  C  C55  1  0.78520900  0.48537300  0.58128900  1
  C  C56  1  0.91454600  0.17146800  0.65486300  1
  C  C57  1  0.58545400  0.67146800  0.65486300  1
  C  C58  1  0.54957700  0.33442600  0.74853500  1
  C  C59  1  0.25032200  0.11792900  0.72460400  1
  C  C60  1  0.95042300  0.83442600  0.74853500  1
  C  C61  1  0.24967800  0.61792900  0.72460400  1
  C  C62  1  0.00029700  0.42581500  0.74500400  1
  C  C63  1  0.49970300  0.92581500  0.74500400  1
  C  C64  1  0.03863200  0.09270500  0.82431000  1
  C  C65  1  0.68369000  0.46150700  0.83161100  1
  C  C66  1  0.46136800  0.59270500  0.82431000  1
  C  C67  1  0.81631000  0.96150700  0.83161100  1
  C  C68  1  0.40596000  0.28381300  0.84386200  1
  C  C69  1  0.09404000  0.78381300  0.84386200  1
  C  C70  1  0.67032700  0.98807700  0.89191000  1
  C  C71  1  0.82967300  0.48807700  0.89191000  1
