# generated using pymatgen
data_Cu4NiC23
_symmetry_space_group_name_H-M   'P 1'
_cell_length_a   4.78720490
_cell_length_b   10.44421000
_cell_length_c   6.16439100
_cell_angle_alpha   90.00000000
_cell_angle_beta   90.00000000
_cell_angle_gamma   91.08149770
_symmetry_Int_Tables_number   1
_chemical_formula_structural   Cu4NiC23
_chemical_formula_sum   'Cu4 Ni1 C23'
_cell_volume   308.15585027
_cell_formula_units_Z   1
loop_
 _symmetry_equiv_pos_site_id
 _symmetry_equiv_pos_as_xyz
  1  'x, y, z'
loop_
 _atom_site_type_symbol
 _atom_site_label
 _atom_site_symmetry_multiplicity
 _atom_site_fract_x
 _atom_site_fract_y
 _atom_site_fract_z
 _atom_site_occupancy
  C  C0  1  0.99759100  0.99433800  0.99903200  1
  C  C1  1  0.99759100  0.99433800  0.50096800  1
  C  C2  1  0.50101000  0.50289300  0.49988200  1
  C  C3  1  0.50101000  0.50289300  0.00011800  1
  C  C4  1  0.47882400  0.21793900  0.75000000  1
  C  C5  1  0.51981200  0.78057600  0.25000000  1
  C  C6  1  0.97406500  0.28046700  0.25000000  1
  Ni  Ni7  1  0.04834300  0.71347200  0.75000000  1
  Cu  Cu8  1  0.08111500  0.59371700  0.25000000  1
  Cu  Cu9  1  0.41037100  0.09328400  0.25000000  1
  Cu  Cu10  1  0.58508000  0.90102500  0.75000000  1
  Cu  Cu11  1  0.92102800  0.41178600  0.75000000  1
  C  C12  1  0.20727200  0.45761400  0.25000000  1
  C  C13  1  0.21617800  0.66618100  0.05043900  1
  C  C14  1  0.21617800  0.66618100  0.44956100  1
  C  C15  1  0.24133000  0.40674200  0.75000000  1
  C  C16  1  0.25999900  0.89381600  0.75000000  1
  C  C17  1  0.28028300  0.16315000  0.04945100  1
  C  C18  1  0.28028300  0.16315000  0.45054900  1
  C  C19  1  0.28428900  0.95526500  0.25000000  1
  C  C20  1  0.70262600  0.04152600  0.75000000  1
  C  C21  1  0.71457400  0.83635600  0.54618600  1
  C  C22  1  0.71457400  0.83635600  0.95381400  1
  C  C23  1  0.73161700  0.09773500  0.25000000  1
  C  C24  1  0.76114600  0.59303900  0.25000000  1
  C  C25  1  0.78299600  0.34233400  0.55000800  1
  C  C26  1  0.78299600  0.34233400  0.94999200  1
  C  C27  1  0.80782100  0.55150000  0.75000000  1
