# generated using pymatgen
data_Cu4Ni2C9
_symmetry_space_group_name_H-M   'P 1'
_cell_length_a   7.07449300
_cell_length_b   7.43402532
_cell_length_c   8.27784841
_cell_angle_alpha   100.86658614
_cell_angle_beta   100.23256576
_cell_angle_gamma   104.51535462
_symmetry_Int_Tables_number   1
_chemical_formula_structural   Cu4Ni2C9
_chemical_formula_sum   'Cu8 Ni4 C18'
_cell_volume   402.14819320
_cell_formula_units_Z   2
loop_
 _symmetry_equiv_pos_site_id
 _symmetry_equiv_pos_as_xyz
  1  'x, y, z'
loop_
 _atom_site_type_symbol
 _atom_site_label
 _atom_site_symmetry_multiplicity
 _atom_site_fract_x
 _atom_site_fract_y
 _atom_site_fract_z
 _atom_site_occupancy
  C  C0  1  0.72658700  0.75749400  0.87166600  1
  C  C1  1  0.27341300  0.24250600  0.12833400  1
  Ni  Ni2  1  0.73122300  0.24142600  0.88647700  1
  Ni  Ni3  1  0.26877700  0.75857400  0.11352300  1
  Ni  Ni4  1  0.76817900  0.68331000  0.41321500  1
  Ni  Ni5  1  0.23182100  0.31669000  0.58678500  1
  Cu  Cu6  1  0.94041600  0.37764800  0.67837200  1
  Cu  Cu7  1  0.05958400  0.62235200  0.32162800  1
  Cu  Cu8  1  0.40920400  0.12779600  0.75124600  1
  Cu  Cu9  1  0.59079600  0.87220400  0.24875400  1
  Cu  Cu10  1  0.50000000  0.50000000  0.50000000  1
  Cu  Cu11  1  0.00000000  0.50000000  0.50000000  1
  Cu  Cu12  1  0.74306000  0.46642200  0.11359700  1
  Cu  Cu13  1  0.25694000  0.53357800  0.88640300  1
  C  C14  1  0.64408600  0.35713200  0.02952700  1
  C  C15  1  0.35591400  0.64286800  0.97047300  1
  C  C16  1  0.87836900  0.14845700  0.96549400  1
  C  C17  1  0.12163100  0.85154300  0.03450600  1
  C  C18  1  0.81201500  0.38720700  0.78919900  1
  C  C19  1  0.18798500  0.61279300  0.21080100  1
  C  C20  1  0.53367300  0.07747700  0.78567500  1
  C  C21  1  0.46632700  0.92252300  0.21432500  1
  C  C22  1  0.74799600  0.76911500  0.25925600  1
  C  C23  1  0.25200400  0.23088500  0.74074400  1
  C  C24  1  0.58583300  0.50082800  0.38597600  1
  C  C25  1  0.41416700  0.49917200  0.61402400  1
  C  C26  1  0.95540800  0.58871400  0.39884500  1
  C  C27  1  0.04459200  0.41128600  0.60115500  1
  C  C28  1  0.18514400  0.18958500  0.41169500  1
  C  C29  1  0.81485600  0.81041500  0.58830500  1
