# generated using pymatgen
data_CuNi11C17
_symmetry_space_group_name_H-M   'P 1'
_cell_length_a   5.65614676
_cell_length_b   5.65614676
_cell_length_c   23.06173300
_cell_angle_alpha   90.00000000
_cell_angle_beta   90.00000000
_cell_angle_gamma   120.00000888
_symmetry_Int_Tables_number   1
_chemical_formula_structural   CuNi11C17
_chemical_formula_sum   'Cu2 Ni22 C34'
_cell_volume   638.94558204
_cell_formula_units_Z   2
loop_
 _symmetry_equiv_pos_site_id
 _symmetry_equiv_pos_as_xyz
  1  'x, y, z'
loop_
 _atom_site_type_symbol
 _atom_site_label
 _atom_site_symmetry_multiplicity
 _atom_site_fract_x
 _atom_site_fract_y
 _atom_site_fract_z
 _atom_site_occupancy
  Ni  Ni0  1  0.16732800  0.83267200  0.89435100  1
  Ni  Ni1  1  0.16732800  0.83267200  0.60564900  1
  Ni  Ni2  1  0.33333300  0.66666700  0.17543600  1
  Ni  Ni3  1  0.33333300  0.66666700  0.02463600  1
  Ni  Ni4  1  0.00000000  0.00000000  0.00000000  1
  Ni  Ni5  1  0.00000000  0.00000000  0.50000000  1
  Ni  Ni6  1  0.33333300  0.66666700  0.32456400  1
  Ni  Ni7  1  0.33333300  0.66666700  0.47536400  1
  Ni  Ni8  1  0.16732800  0.33465600  0.60564900  1
  Ni  Ni9  1  0.16732800  0.33465600  0.89435100  1
  Ni  Ni10  1  0.66534400  0.83267200  0.89435100  1
  Ni  Ni11  1  0.66534400  0.83267200  0.60564900  1
  Ni  Ni12  1  0.33465600  0.16732800  0.39435100  1
  Ni  Ni13  1  0.33465600  0.16732800  0.10564900  1
  Ni  Ni14  1  0.83267200  0.66534400  0.39435100  1
  Ni  Ni15  1  0.66666700  0.33333300  0.67543600  1
  Ni  Ni16  1  0.66666700  0.33333300  0.82456400  1
  Ni  Ni17  1  0.66666700  0.33333300  0.97536400  1
  Ni  Ni18  1  0.66666700  0.33333300  0.52463600  1
  Ni  Ni19  1  0.83267200  0.66534400  0.10564900  1
  Ni  Ni20  1  0.83267200  0.16732800  0.10564900  1
  Ni  Ni21  1  0.83267200  0.16732800  0.39435100  1
  Cu  Cu22  1  0.33333300  0.66666700  0.75000000  1
  Cu  Cu23  1  0.66666700  0.33333300  0.25000000  1
  C  C24  1  0.15717300  0.84282700  0.04917400  1
  C  C25  1  0.15717300  0.84282700  0.45082600  1
  C  C26  1  0.00314200  0.50157100  0.85593500  1
  C  C27  1  0.00314200  0.50157100  0.64406500  1
  C  C28  1  0.15717300  0.31434500  0.45082600  1
  C  C29  1  0.33333300  0.66666700  0.25000000  1
  C  C30  1  0.00000000  0.00000000  0.13973100  1
  C  C31  1  0.33333300  0.66666700  0.94491600  1
  C  C32  1  0.00000000  0.00000000  0.36026900  1
  C  C33  1  0.00000000  0.00000000  0.63973100  1
  C  C34  1  0.00000000  0.00000000  0.86026900  1
  C  C35  1  0.33333300  0.66666700  0.55508400  1
  C  C36  1  0.15717300  0.31434500  0.04917400  1
  C  C37  1  0.49842900  0.99685800  0.64406500  1
  C  C38  1  0.49842900  0.99685800  0.85593500  1
  C  C39  1  0.31434500  0.15717300  0.54917400  1
  C  C40  1  0.31434500  0.15717300  0.95082600  1
  C  C41  1  0.49842900  0.50157100  0.85593500  1
  C  C42  1  0.49842900  0.50157100  0.64406500  1
  C  C43  1  0.50157100  0.49842900  0.14406500  1
  C  C44  1  0.50157100  0.49842900  0.35593500  1
  C  C45  1  0.68565500  0.84282700  0.45082600  1
  C  C46  1  0.68565500  0.84282700  0.04917400  1
  C  C47  1  0.50157100  0.00314200  0.35593500  1
  C  C48  1  0.66666700  0.33333300  0.44491600  1
  C  C49  1  0.66666700  0.33333300  0.75000000  1
  C  C50  1  0.66666700  0.33333300  0.05508400  1
  C  C51  1  0.84282700  0.68565500  0.95082600  1
  C  C52  1  0.84282700  0.68565500  0.54917400  1
  C  C53  1  0.50157100  0.00314200  0.14406500  1
  C  C54  1  0.99685800  0.49842900  0.14406500  1
  C  C55  1  0.99685800  0.49842900  0.35593500  1
  C  C56  1  0.84282700  0.15717300  0.54917400  1
  C  C57  1  0.84282700  0.15717300  0.95082600  1
