# generated using pymatgen
data_Cu2Ni3C14
_symmetry_space_group_name_H-M   'P 1'
_cell_length_a   9.09328400
_cell_length_b   9.10285500
_cell_length_c   12.57156100
_cell_angle_alpha   90.00000000
_cell_angle_beta   90.00000000
_cell_angle_gamma   90.00000000
_symmetry_Int_Tables_number   1
_chemical_formula_structural   Cu2Ni3C14
_chemical_formula_sum   'Cu8 Ni12 C56'
_cell_volume   1040.60902231
_cell_formula_units_Z   4
loop_
 _symmetry_equiv_pos_site_id
 _symmetry_equiv_pos_as_xyz
  1  'x, y, z'
loop_
 _atom_site_type_symbol
 _atom_site_label
 _atom_site_symmetry_multiplicity
 _atom_site_fract_x
 _atom_site_fract_y
 _atom_site_fract_z
 _atom_site_occupancy
  C  C0  1  0.27164500  0.22029600  0.18712700  1
  C  C1  1  0.77164500  0.77970400  0.18712700  1
  C  C2  1  0.77164500  0.27970400  0.31287300  1
  C  C3  1  0.27164500  0.72029600  0.31287300  1
  C  C4  1  0.72835500  0.27970400  0.68712700  1
  C  C5  1  0.22835500  0.72029600  0.68712700  1
  C  C6  1  0.22835500  0.22029600  0.81287300  1
  C  C7  1  0.72835500  0.77970400  0.81287300  1
  Ni  Ni8  1  0.25000000  0.46229200  0.00000000  1
  Ni  Ni9  1  0.75000000  0.53770800  0.00000000  1
  Ni  Ni10  1  0.60561800  0.10069500  0.14350800  1
  Ni  Ni11  1  0.10561800  0.89930500  0.14350800  1
  Ni  Ni12  1  0.10561800  0.39930500  0.35649200  1
  Ni  Ni13  1  0.60561800  0.60069500  0.35649200  1
  Ni  Ni14  1  0.75000000  0.03770800  0.50000000  1
  Ni  Ni15  1  0.25000000  0.96229200  0.50000000  1
  Ni  Ni16  1  0.39438200  0.39930500  0.64350800  1
  Ni  Ni17  1  0.89438200  0.60069500  0.64350800  1
  Ni  Ni18  1  0.89438200  0.10069500  0.85649200  1
  Ni  Ni19  1  0.39438200  0.89930500  0.85649200  1
  Cu  Cu20  1  0.96754400  0.25283000  0.11903200  1
  Cu  Cu21  1  0.46754400  0.74717000  0.11903200  1
  Cu  Cu22  1  0.46754400  0.24717000  0.38096800  1
  Cu  Cu23  1  0.96754400  0.75283000  0.38096800  1
  Cu  Cu24  1  0.03245600  0.24717000  0.61903200  1
  Cu  Cu25  1  0.53245600  0.75283000  0.61903200  1
  Cu  Cu26  1  0.53245600  0.25283000  0.88096800  1
  Cu  Cu27  1  0.03245600  0.74717000  0.88096800  1
  C  C28  1  0.56722200  0.14365000  0.02036500  1
  C  C29  1  0.06722200  0.85635000  0.02036500  1
  C  C30  1  0.36834700  0.56432500  0.06488000  1
  C  C31  1  0.86834700  0.43567500  0.06488000  1
  C  C32  1  0.16448100  0.35338500  0.08874900  1
  C  C33  1  0.66448100  0.64661500  0.08874900  1
  C  C34  1  0.10675900  0.08219300  0.16032400  1
  C  C35  1  0.60675900  0.91780700  0.16032400  1
  C  C36  1  0.77050400  0.16682900  0.17566000  1
  C  C37  1  0.27050400  0.83317100  0.17566000  1
  C  C38  1  0.47644600  0.17266500  0.22283900  1
  C  C39  1  0.97644600  0.82733500  0.22283900  1
  C  C40  1  0.97644600  0.32733500  0.27716100  1
  C  C41  1  0.47644600  0.67266500  0.27716100  1
  C  C42  1  0.77050400  0.66682900  0.32434000  1
  C  C43  1  0.27050400  0.33317100  0.32434000  1
  C  C44  1  0.60675900  0.41780700  0.33967600  1
  C  C45  1  0.10675900  0.58219300  0.33967600  1
  C  C46  1  0.66448100  0.14661500  0.41125100  1
  C  C47  1  0.16448100  0.85338500  0.41125100  1
  C  C48  1  0.36834700  0.06432500  0.43512000  1
  C  C49  1  0.86834700  0.93567500  0.43512000  1
  C  C50  1  0.56722200  0.64365000  0.47963500  1
  C  C51  1  0.06722200  0.35635000  0.47963500  1
  C  C52  1  0.43277800  0.35635000  0.52036500  1
  C  C53  1  0.93277800  0.64365000  0.52036500  1
  C  C54  1  0.13165300  0.06432500  0.56488000  1
  C  C55  1  0.63165300  0.93567500  0.56488000  1
  C  C56  1  0.83551900  0.14661500  0.58874900  1
  C  C57  1  0.33551900  0.85338500  0.58874900  1
  C  C58  1  0.89324100  0.41780700  0.66032400  1
  C  C59  1  0.39324100  0.58219300  0.66032400  1
  C  C60  1  0.22949600  0.33317100  0.67566000  1
  C  C61  1  0.72949600  0.66682900  0.67566000  1
  C  C62  1  0.52355400  0.32733500  0.72283900  1
  C  C63  1  0.02355400  0.67266500  0.72283900  1
  C  C64  1  0.02355400  0.17266500  0.77716100  1
  C  C65  1  0.52355400  0.82733500  0.77716100  1
  C  C66  1  0.72949600  0.16682900  0.82434000  1
  C  C67  1  0.22949600  0.83317100  0.82434000  1
  C  C68  1  0.39324100  0.08219300  0.83967600  1
  C  C69  1  0.89324100  0.91780700  0.83967600  1
  C  C70  1  0.33551900  0.35338500  0.91125100  1
  C  C71  1  0.83551900  0.64661500  0.91125100  1
  C  C72  1  0.63165300  0.43567500  0.93512000  1
  C  C73  1  0.13165300  0.56432500  0.93512000  1
  C  C74  1  0.93277800  0.14365000  0.97963500  1
  C  C75  1  0.43277800  0.85635000  0.97963500  1
