# generated using pymatgen
data_Cu5NiC6
_symmetry_space_group_name_H-M   'P 1'
_cell_length_a   6.72120800
_cell_length_b   9.14581500
_cell_length_c   19.97831400
_cell_angle_alpha   90.00000000
_cell_angle_beta   90.00000000
_cell_angle_gamma   90.00000000
_symmetry_Int_Tables_number   1
_chemical_formula_structural   Cu5NiC6
_chemical_formula_sum   'Cu40 Ni8 C48'
_cell_volume   1228.08544041
_cell_formula_units_Z   8
loop_
 _symmetry_equiv_pos_site_id
 _symmetry_equiv_pos_as_xyz
  1  'x, y, z'
loop_
 _atom_site_type_symbol
 _atom_site_label
 _atom_site_symmetry_multiplicity
 _atom_site_fract_x
 _atom_site_fract_y
 _atom_site_fract_z
 _atom_site_occupancy
  C  C0  1  0.54745000  0.94585200  0.34424700  1
  C  C1  1  0.95255000  0.44585200  0.65575300  1
  C  C2  1  0.04745000  0.05414800  0.15575300  1
  C  C3  1  0.45255000  0.55414800  0.84424700  1
  C  C4  1  0.45255000  0.05414800  0.65575300  1
  C  C5  1  0.04745000  0.55414800  0.34424700  1
  C  C6  1  0.95255000  0.94585200  0.84424700  1
  C  C7  1  0.54745000  0.44585200  0.15575300  1
  C  C8  1  0.74106700  0.21137500  0.40190100  1
  C  C9  1  0.75893300  0.71137500  0.59809900  1
  C  C10  1  0.24106700  0.78862500  0.09809900  1
  C  C11  1  0.25893300  0.28862500  0.90190100  1
  C  C12  1  0.25893300  0.78862500  0.59809900  1
  C  C13  1  0.24106700  0.28862500  0.40190100  1
  C  C14  1  0.75893300  0.21137500  0.90190100  1
  C  C15  1  0.74106700  0.71137500  0.09809900  1
  C  C16  1  0.89543100  0.08294900  0.41165200  1
  C  C17  1  0.60456900  0.58294900  0.58834800  1
  C  C18  1  0.39543100  0.91705100  0.08834800  1
  C  C19  1  0.10456900  0.41705100  0.91165200  1
  C  C20  1  0.10456900  0.91705100  0.58834800  1
  C  C21  1  0.39543100  0.41705100  0.41165200  1
  C  C22  1  0.60456900  0.08294900  0.91165200  1
  C  C23  1  0.89543100  0.58294900  0.08834800  1
  C  C24  1  0.65151500  0.70397800  0.44519600  1
  C  C25  1  0.84848500  0.20397800  0.55480400  1
  C  C26  1  0.15151500  0.29602200  0.05480400  1
  C  C27  1  0.34848500  0.79602200  0.94519600  1
  C  C28  1  0.34848500  0.29602200  0.55480400  1
  C  C29  1  0.15151500  0.79602200  0.44519600  1
  C  C30  1  0.84848500  0.70397800  0.94519600  1
  C  C31  1  0.65151500  0.20397800  0.05480400  1
  C  C32  1  0.63205800  0.85471100  0.48365800  1
  C  C33  1  0.86794200  0.35471100  0.51634200  1
  C  C34  1  0.13205800  0.14528900  0.01634200  1
  C  C35  1  0.36794200  0.64528900  0.98365800  1
  C  C36  1  0.36794200  0.14528900  0.51634200  1
  C  C37  1  0.13205800  0.64528900  0.48365800  1
  C  C38  1  0.86794200  0.85471100  0.98365800  1
  C  C39  1  0.63205800  0.35471100  0.01634200  1
  Ni  Ni40  1  0.90198800  0.84757800  0.26341600  1
  Ni  Ni41  1  0.59801200  0.34757800  0.73658400  1
  Ni  Ni42  1  0.40198800  0.15242200  0.23658400  1
  Ni  Ni43  1  0.09801200  0.65242200  0.76341600  1
  Ni  Ni44  1  0.09801200  0.15242200  0.73658400  1
  Ni  Ni45  1  0.40198800  0.65242200  0.26341600  1
  Ni  Ni46  1  0.59801200  0.84757800  0.76341600  1
  Ni  Ni47  1  0.90198800  0.34757800  0.23658400  1
  C  C48  1  0.22629000  0.04579100  0.41850500  1
  C  C49  1  0.27371000  0.54579100  0.58149500  1
  C  C50  1  0.72629000  0.95420900  0.08149500  1
  C  C51  1  0.77371000  0.45420900  0.91850500  1
  C  C52  1  0.77371000  0.95420900  0.58149500  1
  C  C53  1  0.72629000  0.45420900  0.41850500  1
  C  C54  1  0.27371000  0.04579100  0.91850500  1
  C  C55  1  0.22629000  0.54579100  0.08149500  1
  Cu  Cu56  1  0.81978000  0.97124500  0.25283900  1
  Cu  Cu57  1  0.68022000  0.47124500  0.74716100  1
  Cu  Cu58  1  0.31978000  0.02875500  0.24716100  1
  Cu  Cu59  1  0.18022000  0.52875500  0.75283900  1
  Cu  Cu60  1  0.18022000  0.02875500  0.74716100  1
  Cu  Cu61  1  0.31978000  0.52875500  0.25283900  1
  Cu  Cu62  1  0.68022000  0.97124500  0.75283900  1
  Cu  Cu63  1  0.81978000  0.47124500  0.24716100  1
  Cu  Cu64  1  0.02615200  0.79799500  0.22286800  1
  Cu  Cu65  1  0.47384800  0.29799500  0.77713200  1
  Cu  Cu66  1  0.52615200  0.20200500  0.27713200  1
  Cu  Cu67  1  0.97384800  0.70200500  0.72286800  1
  Cu  Cu68  1  0.97384800  0.20200500  0.77713200  1
  Cu  Cu69  1  0.52615200  0.70200500  0.22286800  1
  Cu  Cu70  1  0.47384800  0.79799500  0.72286800  1
  Cu  Cu71  1  0.02615200  0.29799500  0.27713200  1
  Cu  Cu72  1  0.85285800  0.77825200  0.31630400  1
  Cu  Cu73  1  0.64714200  0.27825200  0.68369600  1
  Cu  Cu74  1  0.35285800  0.22174800  0.18369600  1
  Cu  Cu75  1  0.14714200  0.72174800  0.81630400  1
  Cu  Cu76  1  0.14714200  0.22174800  0.68369600  1
  Cu  Cu77  1  0.35285800  0.72174800  0.31630400  1
  Cu  Cu78  1  0.64714200  0.77825200  0.81630400  1
  Cu  Cu79  1  0.85285800  0.27825200  0.18369600  1
  Cu  Cu80  1  0.75462000  0.10433700  0.40277600  1
  Cu  Cu81  1  0.74538000  0.60433700  0.59722400  1
  Cu  Cu82  1  0.25462000  0.89566300  0.09722400  1
  Cu  Cu83  1  0.24538000  0.39566300  0.90277600  1
  Cu  Cu84  1  0.24538000  0.89566300  0.59722400  1
  Cu  Cu85  1  0.25462000  0.39566300  0.40277600  1
  Cu  Cu86  1  0.74538000  0.10433700  0.90277600  1
  Cu  Cu87  1  0.75462000  0.60433700  0.09722400  1
  Cu  Cu88  1  0.59676800  0.80383800  0.44182200  1
  Cu  Cu89  1  0.90323200  0.30383800  0.55817800  1
  Cu  Cu90  1  0.09676800  0.19616200  0.05817800  1
  Cu  Cu91  1  0.40323200  0.69616200  0.94182200  1
  Cu  Cu92  1  0.40323200  0.19616200  0.55817800  1
  Cu  Cu93  1  0.09676800  0.69616200  0.44182200  1
  Cu  Cu94  1  0.90323200  0.80383800  0.94182200  1
  Cu  Cu95  1  0.59676800  0.30383800  0.05817800  1
