# generated using pymatgen
data_CuNi5C6
_symmetry_space_group_name_H-M   'P 1'
_cell_length_a   8.74854724
_cell_length_b   6.52927178
_cell_length_c   5.80422955
_cell_angle_alpha   118.85637514
_cell_angle_beta   110.64940914
_cell_angle_gamma   94.26336681
_symmetry_Int_Tables_number   1
_chemical_formula_structural   CuNi5C6
_chemical_formula_sum   'Cu2 Ni10 C12'
_cell_volume   259.34733977
_cell_formula_units_Z   2
loop_
 _symmetry_equiv_pos_site_id
 _symmetry_equiv_pos_as_xyz
  1  'x, y, z'
loop_
 _atom_site_type_symbol
 _atom_site_label
 _atom_site_symmetry_multiplicity
 _atom_site_fract_x
 _atom_site_fract_y
 _atom_site_fract_z
 _atom_site_occupancy
  C  C0  1  0.85775600  0.68102900  0.65517700  1
  C  C1  1  0.14224400  0.31897100  0.34482300  1
  C  C2  1  0.84963200  0.20116400  0.63917000  1
  C  C3  1  0.15036800  0.79883600  0.36083000  1
  C  C4  1  0.63717700  0.96141300  0.86010100  1
  C  C5  1  0.36282300  0.03858700  0.13989900  1
  C  C6  1  0.49020100  0.74607200  0.55090300  1
  C  C7  1  0.50979900  0.25392800  0.44909700  1
  C  C8  1  0.46779900  0.65978800  0.92635300  1
  C  C9  1  0.53220100  0.34021200  0.07364700  1
  C  C10  1  0.31602100  0.61506100  0.00734400  1
  C  C11  1  0.68397900  0.38493900  0.99265600  1
  Ni  Ni12  1  0.93407300  0.12230400  0.84987500  1
  Ni  Ni13  1  0.06592700  0.87769600  0.15012500  1
  Ni  Ni14  1  0.72545800  0.34787800  0.70730800  1
  Ni  Ni15  1  0.27454200  0.65212200  0.29269200  1
  Ni  Ni16  1  0.96858800  0.32295500  0.57372100  1
  Ni  Ni17  1  0.03141200  0.67704500  0.42627900  1
  Ni  Ni18  1  0.60703300  0.78928300  0.70506400  1
  Ni  Ni19  1  0.39296700  0.21071700  0.29493600  1
  Ni  Ni20  1  0.34397600  0.61074800  0.85230400  1
  Ni  Ni21  1  0.65602400  0.38925200  0.14769600  1
  Cu  Cu22  1  0.26887700  0.05733900  0.66584700  1
  Cu  Cu23  1  0.73112300  0.94266100  0.33415300  1
