# generated using pymatgen
data_Cu3NiC38
_symmetry_space_group_name_H-M   'P 1'
_cell_length_a   8.54238768
_cell_length_b   8.54238768
_cell_length_c   8.54238789
_cell_angle_alpha   61.95681242
_cell_angle_beta   61.95681242
_cell_angle_gamma   61.95681302
_symmetry_Int_Tables_number   1
_chemical_formula_structural   Cu3NiC38
_chemical_formula_sum   'Cu3 Ni1 C38'
_cell_volume   460.07961486
_cell_formula_units_Z   1
loop_
 _symmetry_equiv_pos_site_id
 _symmetry_equiv_pos_as_xyz
  1  'x, y, z'
loop_
 _atom_site_type_symbol
 _atom_site_label
 _atom_site_symmetry_multiplicity
 _atom_site_fract_x
 _atom_site_fract_y
 _atom_site_fract_z
 _atom_site_occupancy
  C  C0  1  0.29124700  0.84356500  0.64349600  1
  C  C1  1  0.84356500  0.64349600  0.29124700  1
  C  C2  1  0.64349600  0.29124700  0.84356500  1
  C  C3  1  0.49954100  0.49954100  0.49954100  1
  C  C4  1  0.98206400  0.98206400  0.98206400  1
  C  C5  1  0.35614300  0.69774800  0.15870200  1
  C  C6  1  0.15870200  0.35614300  0.69774800  1
  C  C7  1  0.69774800  0.15870200  0.35614300  1
  Ni  Ni8  1  0.14402900  0.14402900  0.14402900  1
  Cu  Cu9  1  0.64740100  0.64740100  0.64740100  1
  Cu  Cu10  1  0.85349000  0.85349000  0.85349000  1
  Cu  Cu11  1  0.35407700  0.35407700  0.35407700  1
  C  C12  1  0.54637600  0.95523900  0.25178600  1
  C  C13  1  0.25178600  0.54637600  0.95523900  1
  C  C14  1  0.95523900  0.25178600  0.54637600  1
  C  C15  1  0.04712600  0.75387300  0.45282100  1
  C  C16  1  0.75387300  0.45282100  0.04712600  1
  C  C17  1  0.45282100  0.04712600  0.75387300  1
  C  C18  1  0.29260400  0.53173300  0.11837500  1
  C  C19  1  0.11837500  0.29260400  0.53173300  1
  C  C20  1  0.53173300  0.11837500  0.29260400  1
  C  C21  1  0.17501900  0.38602400  0.01666200  1
  C  C22  1  0.01666200  0.17501900  0.38602400  1
  C  C23  1  0.74560000  0.89706300  0.11465700  1
  C  C24  1  0.38602400  0.01666200  0.17501900  1
  C  C25  1  0.52249700  0.77949900  0.42795600  1
  C  C26  1  0.11465700  0.74560000  0.89706300  1
  C  C27  1  0.42795600  0.52249700  0.77949900  1
  C  C28  1  0.00357900  0.82917700  0.60131200  1
  C  C29  1  0.10647100  0.89524900  0.24712200  1
  C  C30  1  0.77949900  0.42795600  0.52249700  1
  C  C31  1  0.82917700  0.60131200  0.00357900  1
  C  C32  1  0.89706300  0.11465700  0.74560000  1
  C  C33  1  0.22603300  0.57780400  0.46064100  1
  C  C34  1  0.57780400  0.46064100  0.22603300  1
  C  C35  1  0.89524900  0.24712200  0.10647100  1
  C  C36  1  0.46064100  0.22603300  0.57780400  1
  C  C37  1  0.60131200  0.00357900  0.82917700  1
  C  C38  1  0.24712200  0.10647100  0.89524900  1
  C  C39  1  0.46235300  0.88146800  0.71850600  1
  C  C40  1  0.88146800  0.71850600  0.46235300  1
  C  C41  1  0.71850600  0.46235300  0.88146800  1
