# generated using pymatgen
data_Cu(NiC)5
_symmetry_space_group_name_H-M   'P 1'
_cell_length_a   7.34614900
_cell_length_b   9.84369900
_cell_length_c   14.19591900
_cell_angle_alpha   90.00000000
_cell_angle_beta   90.00000000
_cell_angle_gamma   90.00000000
_symmetry_Int_Tables_number   1
_chemical_formula_structural   Cu(NiC)5
_chemical_formula_sum   'Cu4 Ni20 C20'
_cell_volume   1026.55345933
_cell_formula_units_Z   4
loop_
 _symmetry_equiv_pos_site_id
 _symmetry_equiv_pos_as_xyz
  1  'x, y, z'
loop_
 _atom_site_type_symbol
 _atom_site_label
 _atom_site_symmetry_multiplicity
 _atom_site_fract_x
 _atom_site_fract_y
 _atom_site_fract_z
 _atom_site_occupancy
  C  C0  1  0.34693800  0.99896200  0.64514000  1
  C  C1  1  0.15306200  0.50103800  0.14514000  1
  C  C2  1  0.65306200  0.49896200  0.35486000  1
  C  C3  1  0.84693800  0.00103800  0.85486000  1
  C  C4  1  0.65306200  0.00103800  0.35486000  1
  C  C5  1  0.84693800  0.49896200  0.85486000  1
  C  C6  1  0.34693800  0.50103800  0.64514000  1
  C  C7  1  0.15306200  0.99896200  0.14514000  1
  C  C8  1  0.80890400  0.25000000  0.61125800  1
  C  C9  1  0.69109600  0.25000000  0.11125800  1
  C  C10  1  0.19109600  0.75000000  0.38874200  1
  C  C11  1  0.30890400  0.75000000  0.88874200  1
  C  C12  1  0.04133000  0.16846900  0.47097900  1
  C  C13  1  0.45867000  0.33153100  0.97097900  1
  C  C14  1  0.95867000  0.66846900  0.52902100  1
  C  C15  1  0.54133000  0.83153100  0.02902100  1
  C  C16  1  0.95867000  0.83153100  0.52902100  1
  C  C17  1  0.54133000  0.66846900  0.02902100  1
  C  C18  1  0.04133000  0.33153100  0.47097900  1
  C  C19  1  0.45867000  0.16846900  0.97097900  1
  Ni  Ni20  1  0.06349700  0.25000000  0.71527000  1
  Ni  Ni21  1  0.43650300  0.25000000  0.21527000  1
  Ni  Ni22  1  0.93650300  0.75000000  0.28473000  1
  Ni  Ni23  1  0.56349700  0.75000000  0.78473000  1
  Ni  Ni24  1  0.54815800  0.25000000  0.50884500  1
  Ni  Ni25  1  0.95184200  0.25000000  0.00884500  1
  Ni  Ni26  1  0.45184200  0.75000000  0.49115500  1
  Ni  Ni27  1  0.04815800  0.75000000  0.99115500  1
  Ni  Ni28  1  0.60982500  0.25000000  0.74239000  1
  Ni  Ni29  1  0.89017500  0.25000000  0.24239000  1
  Ni  Ni30  1  0.39017500  0.75000000  0.25761000  1
  Ni  Ni31  1  0.10982500  0.75000000  0.75761000  1
  Ni  Ni32  1  0.81924100  0.00710100  0.60366700  1
  Ni  Ni33  1  0.68075900  0.49289900  0.10366700  1
  Ni  Ni34  1  0.18075900  0.50710100  0.39633300  1
  Ni  Ni35  1  0.31924100  0.99289900  0.89633300  1
  Ni  Ni36  1  0.18075900  0.99289900  0.39633300  1
  Ni  Ni37  1  0.31924100  0.50710100  0.89633300  1
  Ni  Ni38  1  0.81924100  0.49289900  0.60366700  1
  Ni  Ni39  1  0.68075900  0.00710100  0.10366700  1
  Cu  Cu40  1  0.97823200  0.25000000  0.49368400  1
  Cu  Cu41  1  0.52176800  0.25000000  0.99368400  1
  Cu  Cu42  1  0.02176800  0.75000000  0.50631600  1
  Cu  Cu43  1  0.47823200  0.75000000  0.00631600  1
