# generated using pymatgen
data_CuNiC18
_symmetry_space_group_name_H-M   'P 1'
_cell_length_a   8.52107000
_cell_length_b   8.72504799
_cell_length_c   12.23578886
_cell_angle_alpha   89.68326875
_cell_angle_beta   88.28009881
_cell_angle_gamma   89.84485880
_symmetry_Int_Tables_number   1
_chemical_formula_structural   CuNiC18
_chemical_formula_sum   'Cu4 Ni4 C72'
_cell_volume   909.26441654
_cell_formula_units_Z   4
loop_
 _symmetry_equiv_pos_site_id
 _symmetry_equiv_pos_as_xyz
  1  'x, y, z'
loop_
 _atom_site_type_symbol
 _atom_site_label
 _atom_site_symmetry_multiplicity
 _atom_site_fract_x
 _atom_site_fract_y
 _atom_site_fract_z
 _atom_site_occupancy
  C  C0  1  0.93604900  0.51497200  0.34384200  1
  C  C1  1  0.91941800  0.08473700  0.69073400  1
  C  C2  1  0.82155400  0.78346800  0.17664100  1
  C  C3  1  0.68158900  0.28067800  0.32253900  1
  C  C4  1  0.58079700  0.58602500  0.80913000  1
  C  C5  1  0.56365200  0.01602100  0.15613500  1
  C  C6  1  0.43661500  0.98591500  0.84426100  1
  C  C7  1  0.41986100  0.41566100  0.19189100  1
  C  C8  1  0.31891100  0.71772700  0.67700400  1
  C  C9  1  0.18008200  0.21716500  0.82421300  1
  C  C10  1  0.08172200  0.91517700  0.30843600  1
  C  C11  1  0.06228100  0.48289400  0.65432300  1
  Ni  Ni12  1  0.75409000  0.03030700  0.89621500  1
  Ni  Ni13  1  0.25456800  0.46931100  0.39664000  1
  Ni  Ni14  1  0.24563600  0.53749500  0.89044800  1
  Ni  Ni15  1  0.24552200  0.97053800  0.10327900  1
  Cu  Cu16  1  0.75625100  0.46487900  0.10779400  1
  Cu  Cu17  1  0.74231100  0.52658800  0.60390400  1
  Cu  Cu18  1  0.74551100  0.96427000  0.39112100  1
  Cu  Cu19  1  0.25531900  0.03445300  0.61005600  1
  C  C20  1  0.95974500  0.24773500  0.49113700  1
  C  C21  1  0.88269700  0.37944600  0.84720400  1
  C  C22  1  0.88567200  0.10948800  0.14864600  1
  C  C23  1  0.61384700  0.88287900  0.64994800  1
  C  C24  1  0.61391700  0.60898800  0.35253700  1
  C  C25  1  0.54660200  0.75129500  0.00971100  1
  C  C26  1  0.45491800  0.25258100  0.99152600  1
  C  C27  1  0.38181400  0.39021200  0.65220600  1
  C  C28  1  0.38572500  0.11934200  0.35185400  1
  C  C29  1  0.11437600  0.88850400  0.85204500  1
  C  C30  1  0.11623800  0.61946000  0.14522600  1
  C  C31  1  0.04360500  0.74881200  0.50911100  1
  C  C32  1  0.94611400  0.88746200  0.89854500  1
  C  C33  1  0.95138200  0.86775100  0.44336700  1
  C  C34  1  0.94570300  0.66234300  0.59753700  1
  C  C35  1  0.94313900  0.58104300  0.18484300  1
  C  C36  1  0.89892200  0.35843300  0.58164600  1
  C  C37  1  0.87462400  0.19953100  0.83403900  1
  C  C38  1  0.85669200  0.41882900  0.96804100  1
  C  C39  1  0.87613700  0.99482900  0.24913800  1
  C  C40  1  0.82926400  0.27048400  0.18784500  1
  C  C41  1  0.81570600  0.17704800  0.43446900  1
  C  C42  1  0.76699500  0.46704100  0.77526800  1
  C  C43  1  0.76348300  0.04703900  0.06885300  1
  C  C44  1  0.73332000  0.54714900  0.43682900  1
  C  C45  1  0.72814900  0.97316500  0.71880100  1
  C  C46  1  0.69024300  0.67951000  0.06688200  1
  C  C47  1  0.67262600  0.76906100  0.31298400  1
  C  C48  1  0.63691900  0.91824200  0.52782300  1
  C  C49  1  0.62901400  0.49410100  0.25385300  1
  C  C50  1  0.62465800  0.70513400  0.66900400  1
  C  C51  1  0.60720300  0.86476200  0.91818400  1
  C  C52  1  0.55152300  0.16782400  0.90128600  1
  C  C53  1  0.55945500  0.08202500  0.31259200  1
  C  C54  1  0.55016100  0.39228700  0.60647500  1
  C  C55  1  0.54751300  0.36945700  0.05713400  1
  C  C56  1  0.45813900  0.63266900  0.94473100  1
  C  C57  1  0.44400500  0.61014600  0.39680900  1
  C  C58  1  0.43973500  0.91977900  0.68799200  1
  C  C59  1  0.44756900  0.83608700  0.09932900  1
  C  C60  1  0.39387700  0.13869800  0.08289500  1
  C  C61  1  0.37877800  0.29909900  0.33449700  1
  C  C62  1  0.37362500  0.50557000  0.75243500  1
  C  C63  1  0.36361800  0.08332100  0.47333600  1
  C  C64  1  0.32739200  0.22884700  0.69119300  1
  C  C65  1  0.30975300  0.32633400  0.93745000  1
  C  C66  1  0.27081400  0.03131000  0.28221000  1
  C  C67  1  0.26159800  0.45477700  0.57126400  1
  C  C68  1  0.23756100  0.95227400  0.93073500  1
  C  C69  1  0.23197500  0.53143600  0.21529800  1
  C  C70  1  0.18665200  0.82149400  0.56447000  1
  C  C71  1  0.17212300  0.72729500  0.81190900  1
  C  C72  1  0.12345200  0.00190100  0.75082000  1
  C  C73  1  0.13483000  0.58703500  0.02288900  1
  C  C74  1  0.12265300  0.79896800  0.16366900  1
  C  C75  1  0.10466200  0.63736500  0.41654700  1
  C  C76  1  0.05488200  0.41338200  0.80780600  1
  C  C77  1  0.05720900  0.33402900  0.40038300  1
  C  C78  1  0.05068400  0.12580900  0.55386900  1
  C  C79  1  0.05458100  0.11080700  0.10226700  1
