# generated using pymatgen
data_Cu(NiC4)3
_symmetry_space_group_name_H-M   'P 1'
_cell_length_a   5.12241300
_cell_length_b   5.91160526
_cell_length_c   10.64917425
_cell_angle_alpha   73.94161920
_cell_angle_beta   76.18773004
_cell_angle_gamma   73.21516433
_symmetry_Int_Tables_number   1
_chemical_formula_structural   Cu(NiC4)3
_chemical_formula_sum   'Cu2 Ni6 C24'
_cell_volume   292.23320153
_cell_formula_units_Z   2
loop_
 _symmetry_equiv_pos_site_id
 _symmetry_equiv_pos_as_xyz
  1  'x, y, z'
loop_
 _atom_site_type_symbol
 _atom_site_label
 _atom_site_symmetry_multiplicity
 _atom_site_fract_x
 _atom_site_fract_y
 _atom_site_fract_z
 _atom_site_occupancy
  C  C0  1  0.49570800  0.31670700  0.62522300  1
  C  C1  1  0.50358200  0.93298400  0.87560500  1
  C  C2  1  0.50429200  0.68329300  0.37477700  1
  C  C3  1  0.49641800  0.06701600  0.12439500  1
  C  C4  1  0.49850000  0.80908600  0.62629100  1
  C  C5  1  0.50098600  0.44098000  0.87452200  1
  C  C6  1  0.50150000  0.19091400  0.37370900  1
  C  C7  1  0.49901400  0.55902000  0.12547800  1
  Ni  Ni8  1  0.00142600  0.12469400  0.74999700  1
  Ni  Ni9  1  0.00000000  0.50000000  0.50000000  1
  Ni  Ni10  1  0.99857400  0.87530600  0.25000300  1
  Ni  Ni11  1  0.99969000  0.25189200  0.00056200  1
  Ni  Ni12  1  0.00000000  0.00000000  0.50000000  1
  Ni  Ni13  1  0.00031000  0.74810800  0.99943800  1
  Cu  Cu14  1  0.99955500  0.62477800  0.75044700  1
  Cu  Cu15  1  0.00044500  0.37522200  0.24955300  1
  C  C16  1  0.77303300  0.72090500  0.18441400  1
  C  C17  1  0.22700100  0.54078400  0.31624600  1
  C  C18  1  0.77299900  0.45921600  0.68375400  1
  C  C19  1  0.22696700  0.27909500  0.81558600  1
  C  C20  1  0.22467000  0.91160300  0.06570200  1
  C  C21  1  0.77533000  0.08839700  0.93429800  1
  C  C22  1  0.77224300  0.83863500  0.43650200  1
  C  C23  1  0.22563500  0.66261300  0.56259100  1
  C  C24  1  0.77221400  0.20933000  0.18465900  1
  C  C25  1  0.22558800  0.02941600  0.31659300  1
  C  C26  1  0.77441200  0.97058400  0.68340700  1
  C  C27  1  0.22778600  0.79067000  0.81534100  1
  C  C28  1  0.77084600  0.58858500  0.93807400  1
  C  C29  1  0.77436500  0.33738700  0.43740900  1
  C  C30  1  0.22915400  0.41141500  0.06192600  1
  C  C31  1  0.22775700  0.16136500  0.56349800  1
