# generated using pymatgen
data_Cu7NiC4
_symmetry_space_group_name_H-M   'P 1'
_cell_length_a   7.61096292
_cell_length_b   7.61096292
_cell_length_c   6.68309800
_cell_angle_alpha   90.00000000
_cell_angle_beta   90.00000000
_cell_angle_gamma   129.13287822
_symmetry_Int_Tables_number   1
_chemical_formula_structural   Cu7NiC4
_chemical_formula_sum   'Cu14 Ni2 C8'
_cell_volume   300.29084082
_cell_formula_units_Z   2
loop_
 _symmetry_equiv_pos_site_id
 _symmetry_equiv_pos_as_xyz
  1  'x, y, z'
loop_
 _atom_site_type_symbol
 _atom_site_label
 _atom_site_symmetry_multiplicity
 _atom_site_fract_x
 _atom_site_fract_y
 _atom_site_fract_z
 _atom_site_occupancy
  C  C0  1  0.12591800  0.87408200  0.00683000  1
  C  C1  1  0.62484500  0.37515500  0.97466200  1
  C  C2  1  0.38370200  0.13374900  0.50844000  1
  C  C3  1  0.86625100  0.61629800  0.50844000  1
  C  C4  1  0.61629800  0.86625100  0.00844000  1
  C  C5  1  0.13374900  0.38370200  0.00844000  1
  C  C6  1  0.87408200  0.12591800  0.50683000  1
  C  C7  1  0.37515500  0.62484500  0.47466200  1
  Ni  Ni8  1  0.62543000  0.37457000  0.70117800  1
  Ni  Ni9  1  0.37457000  0.62543000  0.20117800  1
  Cu  Cu10  1  0.76913000  0.71193600  0.00148100  1
  Cu  Cu11  1  0.28806400  0.23087000  0.00148100  1
  Cu  Cu12  1  0.12535600  0.87464400  0.70613200  1
  Cu  Cu13  1  0.12456300  0.87543700  0.30751200  1
  Cu  Cu14  1  0.87543700  0.12456300  0.80751200  1
  Cu  Cu15  1  0.37448100  0.62551900  0.77972900  1
  Cu  Cu16  1  0.62551900  0.37448100  0.27972900  1
  Cu  Cu17  1  0.48450700  0.04076800  0.00205800  1
  Cu  Cu18  1  0.95923200  0.51549300  0.00205800  1
  Cu  Cu19  1  0.71193600  0.76913000  0.50148100  1
  Cu  Cu20  1  0.23087000  0.28806400  0.50148100  1
  Cu  Cu21  1  0.04076800  0.48450700  0.50205800  1
  Cu  Cu22  1  0.51549300  0.95923200  0.50205800  1
  Cu  Cu23  1  0.87464400  0.12535600  0.20613200  1
