# generated using pymatgen
data_Cu15NiC37
_symmetry_space_group_name_H-M   'P 1'
_cell_length_a   8.76855500
_cell_length_b   8.77426075
_cell_length_c   10.64053965
_cell_angle_alpha   107.90056261
_cell_angle_beta   107.81415595
_cell_angle_gamma   93.90115263
_symmetry_Int_Tables_number   1
_chemical_formula_structural   Cu15NiC37
_chemical_formula_sum   'Cu15 Ni1 C37'
_cell_volume   729.71213690
_cell_formula_units_Z   1
loop_
 _symmetry_equiv_pos_site_id
 _symmetry_equiv_pos_as_xyz
  1  'x, y, z'
loop_
 _atom_site_type_symbol
 _atom_site_label
 _atom_site_symmetry_multiplicity
 _atom_site_fract_x
 _atom_site_fract_y
 _atom_site_fract_z
 _atom_site_occupancy
  Ni  Ni0  1  0.88700100  0.60725800  0.12211400  1
  C  C1  1  0.00084300  0.99780500  0.24926100  1
  Cu  Cu2  1  0.38686900  0.11836100  0.87694700  1
  Cu  Cu3  1  0.12052800  0.38978000  0.37724500  1
  Cu  Cu4  1  0.11779200  0.38448700  0.87624800  1
  Cu  Cu5  1  0.38997800  0.11951500  0.37685300  1
  Cu  Cu6  1  0.13444400  0.86401900  0.99469900  1
  Cu  Cu7  1  0.63879700  0.36132700  0.24944300  1
  Cu  Cu8  1  0.63461200  0.36782700  0.75386000  1
  Cu  Cu9  1  0.13649800  0.86301600  0.50270000  1
  Cu  Cu10  1  0.86255800  0.13767800  0.50436900  1
  Cu  Cu11  1  0.36111700  0.63977200  0.25195300  1
  Cu  Cu12  1  0.36532000  0.63404700  0.75014000  1
  Cu  Cu13  1  0.86370500  0.13487500  0.99354800  1
  Cu  Cu14  1  0.88201100  0.61035100  0.62388700  1
  Cu  Cu15  1  0.61146700  0.88175600  0.62386700  1
  Cu  Cu16  1  0.61376400  0.87918200  0.12168900  1
  C  C17  1  0.25078100  0.25098100  0.12499100  1
  C  C18  1  0.24911600  0.24953800  0.62535300  1
  C  C19  1  0.75051100  0.74915700  0.37469700  1
  C  C20  1  0.74922300  0.75060500  0.87416500  1
  C  C21  1  0.13150500  0.13056800  0.94077200  1
  C  C22  1  0.12967300  0.12930500  0.18770900  1
  C  C23  1  0.12835800  0.12949600  0.44092200  1
  C  C24  1  0.12997900  0.13034700  0.68884400  1
  C  C25  1  0.41069800  0.08880600  0.62667200  1
  C  C26  1  0.09457400  0.40742700  0.12418300  1
  C  C27  1  0.08942400  0.41043200  0.62689600  1
  C  C28  1  0.41410900  0.08764600  0.12364100  1
  C  C29  1  0.37218400  0.37130600  0.30772100  1
  C  C30  1  0.36981600  0.36986000  0.06214000  1
  C  C31  1  0.37043200  0.37042500  0.56389800  1
  C  C32  1  0.36793500  0.36913400  0.80851600  1
  C  C33  1  0.31603600  0.68982700  0.49983200  1
  C  C34  1  0.81144900  0.18858900  0.74972600  1
  C  C35  1  0.31208400  0.68735900  0.00118900  1
  C  C36  1  0.81693900  0.18031700  0.24962400  1
  C  C37  1  0.67622100  0.30015900  0.99505900  1
  C  C38  1  0.18831500  0.82541900  0.25468600  1
  C  C39  1  0.18671800  0.81043500  0.74850200  1
  C  C40  1  0.69047100  0.31724300  0.50070600  1
  C  C41  1  0.63043700  0.63048200  0.43929300  1
  C  C42  1  0.62999000  0.63077400  0.69148700  1
  C  C43  1  0.62861300  0.63419400  0.19815300  1
  C  C44  1  0.62678700  0.63283500  0.93662400  1
  C  C45  1  0.92750200  0.57277800  0.38203800  1
  C  C46  1  0.91131100  0.58808600  0.86984100  1
  C  C47  1  0.58723200  0.91042000  0.87265000  1
  C  C48  1  0.57326900  0.92826300  0.37768900  1
  C  C49  1  0.86534800  0.86673500  0.55401100  1
  C  C50  1  0.86875600  0.87548400  0.31311600  1
  C  C51  1  0.86765600  0.86862800  0.80832900  1
  C  C52  1  0.86924600  0.87588700  0.05750300  1
