# generated using pymatgen
data_CuNiC6
_symmetry_space_group_name_H-M   'P 1'
_cell_length_a   4.82420900
_cell_length_b   6.85174800
_cell_length_c   10.33408200
_cell_angle_alpha   90.00000000
_cell_angle_beta   90.00000000
_cell_angle_gamma   90.00000000
_symmetry_Int_Tables_number   1
_chemical_formula_structural   CuNiC6
_chemical_formula_sum   'Cu4 Ni4 C24'
_cell_volume   341.58547842
_cell_formula_units_Z   4
loop_
 _symmetry_equiv_pos_site_id
 _symmetry_equiv_pos_as_xyz
  1  'x, y, z'
loop_
 _atom_site_type_symbol
 _atom_site_label
 _atom_site_symmetry_multiplicity
 _atom_site_fract_x
 _atom_site_fract_y
 _atom_site_fract_z
 _atom_site_occupancy
  C  C0  1  0.21538900  0.99539200  0.66031200  1
  C  C1  1  0.28461100  0.99539200  0.16031200  1
  C  C2  1  0.21538900  0.50460800  0.66031200  1
  C  C3  1  0.28461100  0.50460800  0.16031200  1
  C  C4  1  0.71538900  0.49539200  0.83968800  1
  C  C5  1  0.78461100  0.49539200  0.33968800  1
  C  C6  1  0.78461100  0.00460800  0.33968800  1
  C  C7  1  0.71538900  0.00460800  0.83968800  1
  Ni  Ni8  1  0.73257900  0.25000000  0.60168100  1
  Ni  Ni9  1  0.76742100  0.25000000  0.10168100  1
  Ni  Ni10  1  0.23257900  0.75000000  0.89831900  1
  Ni  Ni11  1  0.26742100  0.75000000  0.39831900  1
  Cu  Cu12  1  0.22645200  0.25000000  0.90160100  1
  Cu  Cu13  1  0.27354800  0.25000000  0.40160100  1
  Cu  Cu14  1  0.72645200  0.75000000  0.59839900  1
  Cu  Cu15  1  0.77354800  0.75000000  0.09839900  1
  C  C16  1  0.32649600  0.07404400  0.83683500  1
  C  C17  1  0.17350400  0.07404400  0.33683500  1
  C  C18  1  0.90346500  0.25000000  0.90041200  1
  C  C19  1  0.19479600  0.25000000  0.54766500  1
  C  C20  1  0.30520400  0.25000000  0.04766500  1
  C  C21  1  0.59653500  0.25000000  0.40041200  1
  C  C22  1  0.32649600  0.42595600  0.83683500  1
  C  C23  1  0.17350400  0.42595600  0.33683500  1
  C  C24  1  0.67350400  0.57404400  0.16316500  1
  C  C25  1  0.82649600  0.57404400  0.66316500  1
  C  C26  1  0.69479600  0.75000000  0.95233500  1
  C  C27  1  0.40346500  0.75000000  0.59958800  1
  C  C28  1  0.80520400  0.75000000  0.45233500  1
  C  C29  1  0.09653500  0.75000000  0.09958800  1
  C  C30  1  0.82649600  0.92595600  0.66316500  1
  C  C31  1  0.67350400  0.92595600  0.16316500  1
