# generated using pymatgen
data_CuNiC
_symmetry_space_group_name_H-M   'P 1'
_cell_length_a   6.20982200
_cell_length_b   9.47776016
_cell_length_c   9.47954459
_cell_angle_alpha   89.62635154
_cell_angle_beta   89.69574820
_cell_angle_gamma   89.88783567
_symmetry_Int_Tables_number   1
_chemical_formula_structural   CuNiC
_chemical_formula_sum   'Cu16 Ni16 C16'
_cell_volume   557.89976509
_cell_formula_units_Z   16
loop_
 _symmetry_equiv_pos_site_id
 _symmetry_equiv_pos_as_xyz
  1  'x, y, z'
loop_
 _atom_site_type_symbol
 _atom_site_label
 _atom_site_symmetry_multiplicity
 _atom_site_fract_x
 _atom_site_fract_y
 _atom_site_fract_z
 _atom_site_occupancy
  C  C0  1  0.98183700  0.73935400  0.75927100  1
  C  C1  1  0.51608300  0.75974300  0.74048700  1
  C  C2  1  0.00074100  0.74862300  0.24848400  1
  C  C3  1  0.50143700  0.75047100  0.25026100  1
  C  C4  1  0.73102600  0.01633600  0.51970900  1
  C  C5  1  0.26897400  0.98366400  0.48029100  1
  C  C6  1  0.77415600  0.98930900  0.98949900  1
  C  C7  1  0.22584400  0.01069100  0.01050100  1
  C  C8  1  0.01816300  0.26064600  0.24072900  1
  C  C9  1  0.48391700  0.24025700  0.25951300  1
  C  C10  1  0.99925900  0.25137700  0.75151600  1
  C  C11  1  0.49856300  0.24952900  0.74973900  1
  C  C12  1  0.77389200  0.50962500  0.50950700  1
  C  C13  1  0.22610800  0.49037500  0.49049300  1
  C  C14  1  0.76669800  0.51840800  0.01577300  1
  C  C15  1  0.23330200  0.48159200  0.98422700  1
  Ni  Ni16  1  0.25605700  0.83926500  0.33792900  1
  Ni  Ni17  1  0.74736300  0.84660200  0.84597600  1
  Ni  Ni18  1  0.49482700  0.90345100  0.59644600  1
  Ni  Ni19  1  0.99998700  0.89916900  0.09902400  1
  Ni  Ni20  1  0.50517300  0.09654900  0.40355400  1
  Ni  Ni21  1  0.00001300  0.10083100  0.90097600  1
  Ni  Ni22  1  0.25263700  0.15339800  0.15402400  1
  Ni  Ni23  1  0.74394300  0.16073500  0.66207100  1
  Ni  Ni24  1  0.25171900  0.34673300  0.34720300  1
  Ni  Ni25  1  0.25957000  0.33964300  0.84003300  1
  Ni  Ni26  1  0.99926000  0.40071100  0.60083100  1
  Ni  Ni27  1  0.99587000  0.40376000  0.09639400  1
  Ni  Ni28  1  0.00074000  0.59928900  0.39916900  1
  Ni  Ni29  1  0.00413000  0.59624000  0.90360600  1
  Ni  Ni30  1  0.74828100  0.65326700  0.65279700  1
  Ni  Ni31  1  0.74043000  0.66035700  0.15996700  1
  Cu  Cu32  1  0.74944600  0.85261200  0.35377800  1
  Cu  Cu33  1  0.25236900  0.84703100  0.84721000  1
  Cu  Cu34  1  0.00458500  0.90453500  0.59584500  1
  Cu  Cu35  1  0.50041800  0.90529100  0.09507400  1
  Cu  Cu36  1  0.99541500  0.09546500  0.40415500  1
  Cu  Cu37  1  0.49958200  0.09470900  0.90492600  1
  Cu  Cu38  1  0.25055400  0.14738800  0.64622200  1
  Cu  Cu39  1  0.74763100  0.15296900  0.15279000  1
  Cu  Cu40  1  0.74734900  0.34670500  0.34653600  1
  Cu  Cu41  1  0.73717600  0.35513100  0.85443500  1
  Cu  Cu42  1  0.49939200  0.40521400  0.59499500  1
  Cu  Cu43  1  0.50411700  0.40312200  0.09664100  1
  Cu  Cu44  1  0.50060800  0.59478600  0.40500500  1
  Cu  Cu45  1  0.49588300  0.59687800  0.90335900  1
  Cu  Cu46  1  0.25265100  0.65329500  0.65346400  1
  Cu  Cu47  1  0.26282400  0.64486900  0.14556500  1
