# generated using pymatgen
data_CuNiC
_symmetry_space_group_name_H-M   'P 1'
_cell_length_a   3.10144600
_cell_length_b   4.75446400
_cell_length_c   14.20651076
_cell_angle_alpha   88.25387240
_cell_angle_beta   90.00000000
_cell_angle_gamma   90.00000000
_symmetry_Int_Tables_number   1
_chemical_formula_structural   CuNiC
_chemical_formula_sum   'Cu6 Ni6 C6'
_cell_volume   209.38786151
_cell_formula_units_Z   6
loop_
 _symmetry_equiv_pos_site_id
 _symmetry_equiv_pos_as_xyz
  1  'x, y, z'
loop_
 _atom_site_type_symbol
 _atom_site_label
 _atom_site_symmetry_multiplicity
 _atom_site_fract_x
 _atom_site_fract_y
 _atom_site_fract_z
 _atom_site_occupancy
  C  C0  1  0.00000000  0.00000000  0.00000000  1
  C  C1  1  0.00000000  0.97515700  0.33307600  1
  C  C2  1  0.00000000  0.02484300  0.66692400  1
  C  C3  1  0.50000000  0.43025700  0.16682400  1
  C  C4  1  0.50000000  0.50000000  0.50000000  1
  C  C5  1  0.50000000  0.56974300  0.83317600  1
  Ni  Ni6  1  0.50000000  0.81479100  0.93534000  1
  Ni  Ni7  1  0.00000000  0.73463600  0.76507700  1
  Ni  Ni8  1  0.00000000  0.68875900  0.43271400  1
  Ni  Ni9  1  0.00000000  0.26536400  0.23492300  1
  Ni  Ni10  1  0.00000000  0.31124100  0.56728600  1
  Ni  Ni11  1  0.50000000  0.18520900  0.06466000  1
  Cu  Cu12  1  0.50000000  0.77372100  0.26566500  1
  Cu  Cu13  1  0.50000000  0.82104600  0.60107900  1
  Cu  Cu14  1  0.00000000  0.67915900  0.10516700  1
  Cu  Cu15  1  0.00000000  0.32084100  0.89483300  1
  Cu  Cu16  1  0.50000000  0.17895400  0.39892100  1
  Cu  Cu17  1  0.50000000  0.22627900  0.73433500  1
