# generated using pymatgen
data_Cu2NiC6
_symmetry_space_group_name_H-M   'P 1'
_cell_length_a   8.27735700
_cell_length_b   6.37488900
_cell_length_c   12.76716201
_cell_angle_alpha   81.15281369
_cell_angle_beta   90.00000000
_cell_angle_gamma   90.00000000
_symmetry_Int_Tables_number   1
_chemical_formula_structural   Cu2NiC6
_chemical_formula_sum   'Cu16 Ni8 C48'
_cell_volume   665.67229951
_cell_formula_units_Z   8
loop_
 _symmetry_equiv_pos_site_id
 _symmetry_equiv_pos_as_xyz
  1  'x, y, z'
loop_
 _atom_site_type_symbol
 _atom_site_label
 _atom_site_symmetry_multiplicity
 _atom_site_fract_x
 _atom_site_fract_y
 _atom_site_fract_z
 _atom_site_occupancy
  C  C0  1  0.06648600  0.79279100  0.36433000  1
  C  C1  1  0.56648600  0.20720900  0.13567000  1
  C  C2  1  0.93351400  0.20720900  0.63567000  1
  C  C3  1  0.43351400  0.79279100  0.86433000  1
  C  C4  1  0.06328700  0.24483600  0.56244600  1
  C  C5  1  0.56328700  0.75516400  0.93755400  1
  C  C6  1  0.93671300  0.75516400  0.43755400  1
  C  C7  1  0.43671300  0.24483600  0.06244600  1
  C  C8  1  0.79361200  0.32624000  0.80751800  1
  C  C9  1  0.29361200  0.67376000  0.69248200  1
  C  C10  1  0.20638800  0.67376000  0.19248200  1
  C  C11  1  0.70638800  0.32624000  0.30751800  1
  C  C12  1  0.70767100  0.30890100  0.93269900  1
  C  C13  1  0.20767100  0.69109900  0.56730100  1
  C  C14  1  0.29232900  0.69109900  0.06730100  1
  C  C15  1  0.79232900  0.30890100  0.43269900  1
  C  C16  1  0.61503000  0.19005600  0.83841300  1
  C  C17  1  0.11503000  0.80994400  0.66158700  1
  C  C18  1  0.38497000  0.80994400  0.16158700  1
  C  C19  1  0.88497000  0.19005600  0.33841300  1
  C  C20  1  0.61618100  0.45462700  0.82510500  1
  C  C21  1  0.11618100  0.54537300  0.67489500  1
  C  C22  1  0.38381900  0.54537300  0.17489500  1
  C  C23  1  0.88381900  0.45462700  0.32510500  1
  C  C24  1  0.78275200  0.81607900  0.62088800  1
  C  C25  1  0.28275200  0.18392100  0.87911200  1
  C  C26  1  0.21724800  0.18392100  0.37911200  1
  C  C27  1  0.71724800  0.81607900  0.12088800  1
  C  C28  1  0.59998800  0.71649000  0.65870100  1
  C  C29  1  0.09998800  0.28351000  0.84129900  1
  C  C30  1  0.40001200  0.28351000  0.34129900  1
  C  C31  1  0.90001200  0.71649000  0.15870100  1
  C  C32  1  0.72842400  0.56517800  0.59770400  1
  C  C33  1  0.22842400  0.43482200  0.90229600  1
  C  C34  1  0.27157600  0.43482200  0.40229600  1
  C  C35  1  0.77157600  0.56517800  0.09770400  1
  C  C36  1  0.64174100  0.77954800  0.52540300  1
  C  C37  1  0.14174100  0.22045200  0.97459700  1
  C  C38  1  0.35825900  0.22045200  0.47459700  1
  C  C39  1  0.85825900  0.77954800  0.02540300  1
  C  C40  1  0.06798400  0.78889300  0.90696800  1
  C  C41  1  0.56798400  0.21110700  0.59303200  1
  C  C42  1  0.93201600  0.21110700  0.09303200  1
  C  C43  1  0.43201600  0.78889300  0.40696800  1
  C  C44  1  0.93497300  0.87708600  0.82281000  1
  C  C45  1  0.43497300  0.12291400  0.67719000  1
  C  C46  1  0.06502700  0.12291400  0.17719000  1
  C  C47  1  0.56502700  0.87708600  0.32281000  1
  Ni  Ni48  1  0.31403100  0.68053100  0.14883400  1
  Ni  Ni49  1  0.81403100  0.31946900  0.35116600  1
  Ni  Ni50  1  0.68596900  0.31946900  0.85116600  1
  Ni  Ni51  1  0.18596900  0.68053100  0.64883400  1
  Ni  Ni52  1  0.81174700  0.71993900  0.09999900  1
  Ni  Ni53  1  0.31174700  0.28006100  0.40000100  1
  Ni  Ni54  1  0.18825300  0.28006100  0.90000100  1
  Ni  Ni55  1  0.68825300  0.71993900  0.59999900  1
  Cu  Cu56  1  0.21928900  0.70960000  0.42635900  1
  Cu  Cu57  1  0.71928900  0.29040000  0.07364100  1
  Cu  Cu58  1  0.78071100  0.29040000  0.57364100  1
  Cu  Cu59  1  0.28071100  0.70960000  0.92635900  1
  Cu  Cu60  1  0.06827000  0.03443000  0.32573000  1
  Cu  Cu61  1  0.56827000  0.96557000  0.17427000  1
  Cu  Cu62  1  0.93173000  0.96557000  0.67427000  1
  Cu  Cu63  1  0.43173000  0.03443000  0.82573000  1
  Cu  Cu64  1  0.02713500  0.66272800  0.27505200  1
  Cu  Cu65  1  0.52713500  0.33727200  0.22494800  1
  Cu  Cu66  1  0.97286500  0.33727200  0.72494800  1
  Cu  Cu67  1  0.47286500  0.66272800  0.77505200  1
  Cu  Cu68  1  0.95143900  0.82408900  0.89880100  1
  Cu  Cu69  1  0.45143900  0.17591100  0.60119900  1
  Cu  Cu70  1  0.04856100  0.17591100  0.10119900  1
  Cu  Cu71  1  0.54856100  0.82408900  0.39880100  1
