# generated using pymatgen
data_CuNi3C10
_symmetry_space_group_name_H-M   'P 1'
_cell_length_a   8.30449100
_cell_length_b   8.31602532
_cell_length_c   8.36145920
_cell_angle_alpha   89.96920894
_cell_angle_beta   89.74922316
_cell_angle_gamma   89.71577377
_symmetry_Int_Tables_number   1
_chemical_formula_structural   CuNi3C10
_chemical_formula_sum   'Cu4 Ni12 C40'
_cell_volume   577.43264846
_cell_formula_units_Z   4
loop_
 _symmetry_equiv_pos_site_id
 _symmetry_equiv_pos_as_xyz
  1  'x, y, z'
loop_
 _atom_site_type_symbol
 _atom_site_label
 _atom_site_symmetry_multiplicity
 _atom_site_fract_x
 _atom_site_fract_y
 _atom_site_fract_z
 _atom_site_occupancy
  C  C0  1  0.99678300  0.00431700  0.99843200  1
  C  C1  1  0.75349400  0.24797000  0.75290800  1
  C  C2  1  0.24673700  0.74815100  0.74758800  1
  C  C3  1  0.00169600  0.50169700  0.50438600  1
  C  C4  1  0.50238400  0.99783800  0.49838800  1
  C  C5  1  0.74703100  0.75164600  0.25303500  1
  C  C6  1  0.25255400  0.25254800  0.24585400  1
  C  C7  1  0.49519200  0.49767900  0.00244600  1
  Ni  Ni8  1  0.88224900  0.62240700  0.86978500  1
  Ni  Ni9  1  0.63015400  0.88050700  0.87433100  1
  Ni  Ni10  1  0.37582600  0.12829300  0.87893200  1
  Ni  Ni11  1  0.62886500  0.62572200  0.62404800  1
  Ni  Ni12  1  0.36916400  0.38531000  0.62339000  1
  Ni  Ni13  1  0.12082500  0.12744000  0.63271300  1
  Ni  Ni14  1  0.62200200  0.37783400  0.36705600  1
  Ni  Ni15  1  0.87166800  0.12198800  0.37230000  1
  Ni  Ni16  1  0.12519800  0.86460100  0.38115100  1
  Ni  Ni17  1  0.87690800  0.37389400  0.12262300  1
  Ni  Ni18  1  0.12574400  0.62052000  0.12112700  1
  Ni  Ni19  1  0.37843100  0.87325700  0.13043300  1
  Cu  Cu20  1  0.12301000  0.37546800  0.87311500  1
  Cu  Cu21  1  0.87559100  0.87530400  0.62665800  1
  Cu  Cu22  1  0.37408000  0.62502500  0.37601500  1
  Cu  Cu23  1  0.62454200  0.12245000  0.12735700  1
  C  C24  1  0.88729700  0.38696700  0.88509700  1
  C  C25  1  0.10901400  0.61180000  0.87682800  1
  C  C26  1  0.39681600  0.88160800  0.88423600  1
  C  C27  1  0.85919400  0.86513400  0.86237600  1
  C  C28  1  0.62147400  0.11268200  0.89600700  1
  C  C29  1  0.64338800  0.63406400  0.86477000  1
  C  C30  1  0.35804200  0.36676300  0.85797500  1
  C  C31  1  0.12939500  0.14223700  0.86063700  1
  C  C32  1  0.87254600  0.64469800  0.63789800  1
  C  C33  1  0.64052600  0.86411300  0.63736400  1
  C  C34  1  0.35514000  0.14180200  0.62978700  1
  C  C35  1  0.37739200  0.60747600  0.61104100  1
  C  C36  1  0.13257400  0.36248100  0.64032800  1
  C  C37  1  0.61167000  0.38019700  0.60414000  1
  C  C38  1  0.89102700  0.11171400  0.61169400  1
  C  C39  1  0.11068100  0.88836400  0.61381800  1
  C  C40  1  0.60556900  0.61119100  0.38493900  1
  C  C41  1  0.38500500  0.38995000  0.38562300  1
  C  C42  1  0.10774600  0.10664500  0.38369300  1
  C  C43  1  0.64270100  0.13312100  0.36431600  1
  C  C44  1  0.88764600  0.88382600  0.39491500  1
  C  C45  1  0.86389600  0.36184000  0.36581600  1
  C  C46  1  0.13735800  0.64331200  0.37051700  1
  C  C47  1  0.36522900  0.86087800  0.36428100  1
  C  C48  1  0.62762900  0.35703600  0.14439400  1
  C  C49  1  0.85949700  0.13424300  0.13919200  1
  C  C50  1  0.14704800  0.86944500  0.13626700  1
  C  C51  1  0.12109300  0.38703200  0.10384000  1
  C  C52  1  0.36705700  0.63928600  0.14578700  1
  C  C53  1  0.88484400  0.61720500  0.11009100  1
  C  C54  1  0.61013800  0.88931000  0.11399000  1
  C  C55  1  0.39110200  0.11185400  0.11427100  1
