# generated using pymatgen
data_Cu8NiC6
_symmetry_space_group_name_H-M   'P 1'
_cell_length_a   6.85559600
_cell_length_b   7.81453820
_cell_length_c   8.39273401
_cell_angle_alpha   69.43063996
_cell_angle_beta   66.96116533
_cell_angle_gamma   80.03986075
_symmetry_Int_Tables_number   1
_chemical_formula_structural   Cu8NiC6
_chemical_formula_sum   'Cu16 Ni2 C12'
_cell_volume   387.05749550
_cell_formula_units_Z   2
loop_
 _symmetry_equiv_pos_site_id
 _symmetry_equiv_pos_as_xyz
  1  'x, y, z'
loop_
 _atom_site_type_symbol
 _atom_site_label
 _atom_site_symmetry_multiplicity
 _atom_site_fract_x
 _atom_site_fract_y
 _atom_site_fract_z
 _atom_site_occupancy
  C  C0  1  0.23674800  0.23593200  0.62937900  1
  C  C1  1  0.38715500  0.73675100  0.08767900  1
  C  C2  1  0.61284500  0.26324900  0.91232100  1
  C  C3  1  0.76325200  0.76406800  0.37062100  1
  C  C4  1  0.67698100  0.40735200  0.24957500  1
  C  C5  1  0.21337400  0.90023500  0.45795300  1
  C  C6  1  0.94638900  0.87372000  0.91527100  1
  C  C7  1  0.86096200  0.60520500  0.76703900  1
  C  C8  1  0.13903800  0.39479500  0.23296100  1
  C  C9  1  0.05361100  0.12628000  0.08472900  1
  C  C10  1  0.78662600  0.09976500  0.54204700  1
  C  C11  1  0.32301900  0.59264800  0.75042500  1
  Ni  Ni12  1  0.08396600  0.77523700  0.71658900  1
  Ni  Ni13  1  0.91603400  0.22476300  0.28341100  1
  Cu  Cu14  1  0.82808600  0.94777900  0.14221600  1
  Cu  Cu15  1  0.47173800  0.75490600  0.47950800  1
  Cu  Cu16  1  0.78218300  0.35571700  0.00207300  1
  Cu  Cu17  1  0.37806400  0.49494800  0.25810500  1
  Cu  Cu18  1  0.14103400  0.44946800  0.69370000  1
  Cu  Cu19  1  0.23430100  0.90556400  0.21613400  1
  Cu  Cu20  1  0.18086000  0.16144700  0.45703000  1
  Cu  Cu21  1  0.30648800  0.28818800  0.01290900  1
  Cu  Cu22  1  0.69351200  0.71181200  0.98709100  1
  Cu  Cu23  1  0.81914000  0.83855300  0.54297000  1
  Cu  Cu24  1  0.76569900  0.09443600  0.78386600  1
  Cu  Cu25  1  0.85896600  0.55053200  0.30630000  1
  Cu  Cu26  1  0.62193600  0.50505200  0.74189500  1
  Cu  Cu27  1  0.21781700  0.64428300  0.99792700  1
  Cu  Cu28  1  0.52826200  0.24509400  0.52049200  1
  Cu  Cu29  1  0.17191400  0.05222100  0.85778400  1
