# generated using pymatgen
data_CuNi3C10
_symmetry_space_group_name_H-M   'P 1'
_cell_length_a   5.96301347
_cell_length_b   5.96301347
_cell_length_c   9.63673500
_cell_angle_alpha   90.00000000
_cell_angle_beta   90.00000000
_cell_angle_gamma   119.99999417
_symmetry_Int_Tables_number   1
_chemical_formula_structural   CuNi3C10
_chemical_formula_sum   'Cu2 Ni6 C20'
_cell_volume   296.75097540
_cell_formula_units_Z   2
loop_
 _symmetry_equiv_pos_site_id
 _symmetry_equiv_pos_as_xyz
  1  'x, y, z'
loop_
 _atom_site_type_symbol
 _atom_site_label
 _atom_site_symmetry_multiplicity
 _atom_site_fract_x
 _atom_site_fract_y
 _atom_site_fract_z
 _atom_site_occupancy
  C  C0  1  0.33333300  0.66666700  0.90195800  1
  C  C1  1  0.00000000  0.00000000  0.99231100  1
  C  C2  1  0.00000000  0.00000000  0.49231100  1
  C  C3  1  0.66666700  0.33333300  0.40195800  1
  Ni  Ni4  1  0.16936800  0.83063200  0.21244100  1
  Ni  Ni5  1  0.16936800  0.33873600  0.21244100  1
  Ni  Ni6  1  0.66126400  0.83063200  0.21244100  1
  Ni  Ni7  1  0.33873600  0.16936800  0.71244100  1
  Ni  Ni8  1  0.83063200  0.66126400  0.71244100  1
  Ni  Ni9  1  0.83063200  0.16936800  0.71244100  1
  Cu  Cu10  1  0.33333300  0.66666700  0.48732500  1
  Cu  Cu11  1  0.66666700  0.33333300  0.98732500  1
  C  C12  1  0.16582100  0.83417900  0.59582600  1
  C  C13  1  0.03894400  0.51947200  0.34301700  1
  C  C14  1  0.33333300  0.66666700  0.10779800  1
  C  C15  1  0.00000000  0.00000000  0.30725300  1
  C  C16  1  0.00000000  0.00000000  0.80725300  1
  C  C17  1  0.16582100  0.33164200  0.59582600  1
  C  C18  1  0.48052800  0.96105600  0.34301700  1
  C  C19  1  0.48052800  0.51947200  0.34301700  1
  C  C20  1  0.33164200  0.16582100  0.09582600  1
  C  C21  1  0.66835800  0.83417900  0.59582600  1
  C  C22  1  0.51947200  0.48052800  0.84301700  1
  C  C23  1  0.51947200  0.03894400  0.84301700  1
  C  C24  1  0.66666700  0.33333300  0.60779800  1
  C  C25  1  0.83417900  0.66835800  0.09582600  1
  C  C26  1  0.96105600  0.48052800  0.84301700  1
  C  C27  1  0.83417900  0.16582100  0.09582600  1
