# generated using pymatgen
data_Cu4NiC3
_symmetry_space_group_name_H-M   'P 1'
_cell_length_a   10.88635000
_cell_length_b   11.05329400
_cell_length_c   11.93213700
_cell_angle_alpha   90.00000000
_cell_angle_beta   90.00000000
_cell_angle_gamma   90.00000000
_symmetry_Int_Tables_number   1
_chemical_formula_structural   Cu4NiC3
_chemical_formula_sum   'Cu32 Ni8 C24'
_cell_volume   1435.79436901
_cell_formula_units_Z   8
loop_
 _symmetry_equiv_pos_site_id
 _symmetry_equiv_pos_as_xyz
  1  'x, y, z'
loop_
 _atom_site_type_symbol
 _atom_site_label
 _atom_site_symmetry_multiplicity
 _atom_site_fract_x
 _atom_site_fract_y
 _atom_site_fract_z
 _atom_site_occupancy
  C  C0  1  0.04919500  0.12094300  0.89183400  1
  C  C1  1  0.04919500  0.62094300  0.60816600  1
  C  C2  1  0.11664400  0.54027800  0.14961700  1
  C  C3  1  0.11664400  0.04027800  0.35038300  1
  C  C4  1  0.19169400  0.24117400  0.61281500  1
  C  C5  1  0.19169400  0.74117400  0.88718500  1
  C  C6  1  0.30830600  0.24117400  0.11281500  1
  C  C7  1  0.30830600  0.74117400  0.38718500  1
  C  C8  1  0.38335600  0.04027800  0.85038300  1
  C  C9  1  0.38335600  0.54027800  0.64961700  1
  C  C10  1  0.45080500  0.62094300  0.10816600  1
  C  C11  1  0.45080500  0.12094300  0.39183400  1
  C  C12  1  0.54919500  0.87905700  0.60816600  1
  C  C13  1  0.54919500  0.37905700  0.89183400  1
  C  C14  1  0.61664400  0.45972200  0.35038300  1
  C  C15  1  0.61664400  0.95972200  0.14961700  1
  C  C16  1  0.69169400  0.25882600  0.61281500  1
  C  C17  1  0.69169400  0.75882600  0.88718500  1
  C  C18  1  0.80830600  0.25882600  0.11281500  1
  C  C19  1  0.80830600  0.75882600  0.38718500  1
  C  C20  1  0.88335600  0.95972200  0.64961700  1
  C  C21  1  0.88335600  0.45972200  0.85038300  1
  C  C22  1  0.95080500  0.87905700  0.10816600  1
  C  C23  1  0.95080500  0.37905700  0.39183400  1
  Ni  Ni24  1  0.21170300  0.90183100  0.61901300  1
  Ni  Ni25  1  0.21170300  0.40183100  0.88098700  1
  Ni  Ni26  1  0.28829700  0.90183100  0.11901300  1
  Ni  Ni27  1  0.28829700  0.40183100  0.38098700  1
  Ni  Ni28  1  0.71170300  0.59816900  0.61901300  1
  Ni  Ni29  1  0.71170300  0.09816900  0.88098700  1
  Ni  Ni30  1  0.78829700  0.59816900  0.11901300  1
  Ni  Ni31  1  0.78829700  0.09816900  0.38098700  1
  Cu  Cu32  1  0.12391900  0.36523100  0.95976800  1
  Cu  Cu33  1  0.12391900  0.86523100  0.54023200  1
  Cu  Cu34  1  0.15263500  0.95281000  0.71216900  1
  Cu  Cu35  1  0.15263500  0.45281000  0.78783100  1
  Cu  Cu36  1  0.20841800  0.98671800  0.06979900  1
  Cu  Cu37  1  0.20841800  0.48671800  0.43020100  1
  Cu  Cu38  1  0.21876700  0.80002600  0.15358200  1
  Cu  Cu39  1  0.21876700  0.30002600  0.34641800  1
  Cu  Cu40  1  0.28123300  0.30002600  0.84641800  1
  Cu  Cu41  1  0.28123300  0.80002600  0.65358200  1
  Cu  Cu42  1  0.29158200  0.98671800  0.56979900  1
  Cu  Cu43  1  0.29158200  0.48671800  0.93020100  1
  Cu  Cu44  1  0.34736500  0.95281000  0.21216900  1
  Cu  Cu45  1  0.34736500  0.45281000  0.28783100  1
  Cu  Cu46  1  0.37608100  0.36523100  0.45976800  1
  Cu  Cu47  1  0.37608100  0.86523100  0.04023200  1
  Cu  Cu48  1  0.62391900  0.63476900  0.54023200  1
  Cu  Cu49  1  0.62391900  0.13476900  0.95976800  1
  Cu  Cu50  1  0.65263500  0.54719000  0.71216900  1
  Cu  Cu51  1  0.65263500  0.04719000  0.78783100  1
  Cu  Cu52  1  0.70841800  0.51328200  0.06979900  1
  Cu  Cu53  1  0.70841800  0.01328200  0.43020100  1
  Cu  Cu54  1  0.71876700  0.19997400  0.34641800  1
  Cu  Cu55  1  0.71876700  0.69997400  0.15358200  1
  Cu  Cu56  1  0.78123300  0.19997400  0.84641800  1
  Cu  Cu57  1  0.78123300  0.69997400  0.65358200  1
  Cu  Cu58  1  0.79158200  0.51328200  0.56979900  1
  Cu  Cu59  1  0.79158200  0.01328200  0.93020100  1
  Cu  Cu60  1  0.84736500  0.54719000  0.21216900  1
  Cu  Cu61  1  0.84736500  0.04719000  0.28783100  1
  Cu  Cu62  1  0.87608100  0.63476900  0.04023200  1
  Cu  Cu63  1  0.87608100  0.13476900  0.45976800  1
