# generated using pymatgen
data_Cu4NiC5
_symmetry_space_group_name_H-M   'P 1'
_cell_length_a   16.62000400
_cell_length_b   16.62000400
_cell_length_c   5.93908200
_cell_angle_alpha   90.00000000
_cell_angle_beta   90.00000000
_cell_angle_gamma   90.00000000
_symmetry_Int_Tables_number   1
_chemical_formula_structural   Cu4NiC5
_chemical_formula_sum   'Cu32 Ni8 C40'
_cell_volume   1640.52015166
_cell_formula_units_Z   8
loop_
 _symmetry_equiv_pos_site_id
 _symmetry_equiv_pos_as_xyz
  1  'x, y, z'
loop_
 _atom_site_type_symbol
 _atom_site_label
 _atom_site_symmetry_multiplicity
 _atom_site_fract_x
 _atom_site_fract_y
 _atom_site_fract_z
 _atom_site_occupancy
  C  C0  1  0.98962100  0.01037900  0.25000000  1
  C  C1  1  0.01037900  0.98962100  0.75000000  1
  C  C2  1  0.98962100  0.48962100  0.25000000  1
  C  C3  1  0.01037900  0.51037900  0.75000000  1
  C  C4  1  0.11164300  0.36312100  0.81307300  1
  C  C5  1  0.11164300  0.13687900  0.81307300  1
  C  C6  1  0.12223300  0.62223300  0.25000000  1
  C  C7  1  0.12223300  0.87776700  0.25000000  1
  C  C8  1  0.13687900  0.11164300  0.31307300  1
  C  C9  1  0.13687900  0.38835700  0.31307300  1
  C  C10  1  0.25000000  0.25000000  0.33640700  1
  C  C11  1  0.25000000  0.75000000  0.75000000  1
  C  C12  1  0.25000000  0.75000000  0.25000000  1
  C  C13  1  0.25000000  0.25000000  0.83640700  1
  C  C14  1  0.36312100  0.11164300  0.31307300  1
  C  C15  1  0.36312100  0.38835700  0.31307300  1
  C  C16  1  0.37776700  0.62223300  0.25000000  1
  C  C17  1  0.37776700  0.87776700  0.25000000  1
  C  C18  1  0.38835700  0.13687900  0.81307300  1
  C  C19  1  0.38835700  0.36312100  0.81307300  1
  C  C20  1  0.51037900  0.48962100  0.25000000  1
  C  C21  1  0.48962100  0.51037900  0.75000000  1
  C  C22  1  0.51037900  0.01037900  0.25000000  1
  C  C23  1  0.48962100  0.98962100  0.75000000  1
  C  C24  1  0.61164300  0.63687900  0.18692700  1
  C  C25  1  0.61164300  0.86312100  0.18692700  1
  C  C26  1  0.62223300  0.12223300  0.75000000  1
  C  C27  1  0.62223300  0.37776700  0.75000000  1
  C  C28  1  0.63687900  0.61164300  0.68692700  1
  C  C29  1  0.63687900  0.88835700  0.68692700  1
  C  C30  1  0.75000000  0.25000000  0.75000000  1
  C  C31  1  0.75000000  0.25000000  0.25000000  1
  C  C32  1  0.75000000  0.75000000  0.16359300  1
  C  C33  1  0.75000000  0.75000000  0.66359300  1
  C  C34  1  0.86312100  0.61164300  0.68692700  1
  C  C35  1  0.86312100  0.88835700  0.68692700  1
  C  C36  1  0.87776700  0.12223300  0.75000000  1
  C  C37  1  0.87776700  0.37776700  0.75000000  1
  C  C38  1  0.88835700  0.63687900  0.18692700  1
  C  C39  1  0.88835700  0.86312100  0.18692700  1
  Ni  Ni40  1  0.01759700  0.75000000  0.71421900  1
  Ni  Ni41  1  0.25000000  0.51759700  0.78578100  1
  Ni  Ni42  1  0.25000000  0.98240300  0.78578100  1
  Ni  Ni43  1  0.48240300  0.75000000  0.71421900  1
  Ni  Ni44  1  0.51759700  0.25000000  0.28578100  1
  Ni  Ni45  1  0.75000000  0.01759700  0.21421900  1
  Ni  Ni46  1  0.75000000  0.48240300  0.21421900  1
  Ni  Ni47  1  0.98240300  0.25000000  0.28578100  1
  Cu  Cu48  1  0.00908100  0.11486000  0.52901600  1
  Cu  Cu49  1  0.00908100  0.38514000  0.52901600  1
  Cu  Cu50  1  0.11486000  0.00908100  0.02901600  1
  Cu  Cu51  1  0.11486000  0.49091900  0.02901600  1
  Cu  Cu52  1  0.13201200  0.25000000  0.08711700  1
  Cu  Cu53  1  0.13183100  0.75000000  0.02429300  1
  Cu  Cu54  1  0.25000000  0.13201200  0.58711700  1
  Cu  Cu55  1  0.25000000  0.63183100  0.47570700  1
  Cu  Cu56  1  0.25000000  0.36798800  0.58711700  1
  Cu  Cu57  1  0.25000000  0.86816900  0.47570700  1
  Cu  Cu58  1  0.36816900  0.75000000  0.02429300  1
  Cu  Cu59  1  0.36798800  0.25000000  0.08711700  1
  Cu  Cu60  1  0.38514000  0.49091900  0.02901600  1
  Cu  Cu61  1  0.38514000  0.00908100  0.02901600  1
  Cu  Cu62  1  0.49091900  0.11486000  0.52901600  1
  Cu  Cu63  1  0.49091900  0.38514000  0.52901600  1
  Cu  Cu64  1  0.50908100  0.61486000  0.47098400  1
  Cu  Cu65  1  0.50908100  0.88514000  0.47098400  1
  Cu  Cu66  1  0.61486000  0.50908100  0.97098400  1
  Cu  Cu67  1  0.61486000  0.99091900  0.97098400  1
  Cu  Cu68  1  0.63201200  0.75000000  0.91288300  1
  Cu  Cu69  1  0.63183100  0.25000000  0.97570700  1
  Cu  Cu70  1  0.75000000  0.13183100  0.52429300  1
  Cu  Cu71  1  0.75000000  0.36816900  0.52429300  1
  Cu  Cu72  1  0.75000000  0.63201200  0.41288300  1
  Cu  Cu73  1  0.75000000  0.86798800  0.41288300  1
  Cu  Cu74  1  0.86816900  0.25000000  0.97570700  1
  Cu  Cu75  1  0.86798800  0.75000000  0.91288300  1
  Cu  Cu76  1  0.88514000  0.50908100  0.97098400  1
  Cu  Cu77  1  0.88514000  0.99091900  0.97098400  1
  Cu  Cu78  1  0.99091900  0.61486000  0.47098400  1
  Cu  Cu79  1  0.99091900  0.88514000  0.47098400  1
