# generated using pymatgen
data_Cu(NiC8)3
_symmetry_space_group_name_H-M   'P 1'
_cell_length_a   6.11880000
_cell_length_b   4.77475900
_cell_length_c   10.52859778
_cell_angle_alpha   89.80057502
_cell_angle_beta   90.00000000
_cell_angle_gamma   90.00000000
_symmetry_Int_Tables_number   1
_chemical_formula_structural   Cu(NiC8)3
_chemical_formula_sum   'Cu1 Ni3 C24'
_cell_volume   307.59949488
_cell_formula_units_Z   1
loop_
 _symmetry_equiv_pos_site_id
 _symmetry_equiv_pos_as_xyz
  1  'x, y, z'
loop_
 _atom_site_type_symbol
 _atom_site_label
 _atom_site_symmetry_multiplicity
 _atom_site_fract_x
 _atom_site_fract_y
 _atom_site_fract_z
 _atom_site_occupancy
  C  C0  1  0.25045500  0.99928500  0.00085000  1
  C  C1  1  0.74954500  0.99928500  0.00085000  1
  C  C2  1  0.74896100  0.49980200  0.49930400  1
  C  C3  1  0.25103900  0.49980200  0.49930400  1
  Ni  Ni4  1  0.50000000  0.52136900  0.78061700  1
  Ni  Ni5  1  0.00000000  0.47767600  0.21971900  1
  Ni  Ni6  1  0.00000000  0.02279300  0.71776700  1
  Cu  Cu7  1  0.50000000  0.97499900  0.27864900  1
  C  C8  1  0.00000000  0.91932500  0.40601800  1
  C  C9  1  0.00000000  0.58548100  0.90726800  1
  C  C10  1  0.50000000  0.41195100  0.09589100  1
  C  C11  1  0.50000000  0.08464900  0.59071600  1
  C  C12  1  0.00000000  0.78945800  0.54195900  1
  C  C13  1  0.20381600  0.79071100  0.33554000  1
  C  C14  1  0.79618400  0.79071100  0.33554000  1
  C  C15  1  0.50000000  0.76254500  0.59591400  1
  C  C16  1  0.50000000  0.73430400  0.09912600  1
  C  C17  1  0.20180300  0.71838800  0.83733700  1
  C  C18  1  0.79819700  0.71838800  0.83733700  1
  C  C19  1  0.00000000  0.70858300  0.04371000  1
  C  C20  1  0.50000000  0.29184300  0.95855900  1
  C  C21  1  0.70054100  0.27596600  0.16599300  1
  C  C22  1  0.29945900  0.27596600  0.16599300  1
  C  C23  1  0.00000000  0.26347800  0.90451100  1
  C  C24  1  0.00000000  0.24082600  0.40483900  1
  C  C25  1  0.70116700  0.21788600  0.66144200  1
  C  C26  1  0.29883300  0.21788600  0.66144200  1
  C  C27  1  0.50000000  0.20664500  0.45380700  1
