# generated using pymatgen
data_Cu2Ni2C
_symmetry_space_group_name_H-M   'P 1'
_cell_length_a   8.28412900
_cell_length_b   8.93927206
_cell_length_c   14.21484933
_cell_angle_alpha   76.61074416
_cell_angle_beta   80.94769221
_cell_angle_gamma   63.80989268
_symmetry_Int_Tables_number   1
_chemical_formula_structural   Cu2Ni2C
_chemical_formula_sum   'Cu24 Ni24 C12'
_cell_volume   917.08567953
_cell_formula_units_Z   12
loop_
 _symmetry_equiv_pos_site_id
 _symmetry_equiv_pos_as_xyz
  1  'x, y, z'
loop_
 _atom_site_type_symbol
 _atom_site_label
 _atom_site_symmetry_multiplicity
 _atom_site_fract_x
 _atom_site_fract_y
 _atom_site_fract_z
 _atom_site_occupancy
  C  C0  1  0.97481000  0.89371400  0.29112600  1
  C  C1  1  0.02519000  0.10628600  0.70887400  1
  C  C2  1  0.18984300  0.50086000  0.28241800  1
  C  C3  1  0.81015700  0.49914000  0.71758200  1
  C  C4  1  0.31566900  0.76105600  0.15326300  1
  C  C5  1  0.68433100  0.23894400  0.84673700  1
  C  C6  1  0.05445600  0.68187500  0.32359000  1
  C  C7  1  0.94554400  0.31812500  0.67641000  1
  C  C8  1  0.33981700  0.55381000  0.19865500  1
  C  C9  1  0.66018300  0.44619000  0.80134500  1
  C  C10  1  0.12762900  0.91747100  0.20048300  1
  C  C11  1  0.87237100  0.08252900  0.79951700  1
  Ni  Ni12  1  0.11994200  0.87974400  0.38373500  1
  Ni  Ni13  1  0.88005800  0.12025600  0.61626500  1
  Ni  Ni14  1  0.88203500  0.12441100  0.26918000  1
  Ni  Ni15  1  0.11796500  0.87558900  0.73082000  1
  Ni  Ni16  1  0.83658600  0.90582200  0.19631800  1
  Ni  Ni17  1  0.16341400  0.09417800  0.80368200  1
  Ni  Ni18  1  0.79740900  0.89034500  0.38527700  1
  Ni  Ni19  1  0.20259100  0.10965500  0.61472300  1
  Ni  Ni20  1  0.33595700  0.46762100  0.37962000  1
  Ni  Ni21  1  0.66404300  0.53237900  0.62038000  1
  Ni  Ni22  1  0.04684200  0.42406400  0.37148900  1
  Ni  Ni23  1  0.95315800  0.57593600  0.62851100  1
  Ni  Ni24  1  0.05117100  0.52815100  0.18268600  1
  Ni  Ni25  1  0.94882900  0.47184900  0.81731400  1
  Ni  Ni26  1  0.33834800  0.28763900  0.26227500  1
  Ni  Ni27  1  0.66165200  0.71236100  0.73772500  1
  Ni  Ni28  1  0.46527300  0.72712800  0.24915300  1
  Ni  Ni29  1  0.53472700  0.27287200  0.75084700  1
  Ni  Ni30  1  0.51263200  0.63994400  0.08041400  1
  Ni  Ni31  1  0.48736800  0.36005600  0.91958600  1
  Ni  Ni32  1  0.17366300  0.78645500  0.05618000  1
  Ni  Ni33  1  0.82633700  0.21354500  0.94382000  1
  Ni  Ni34  1  0.32422900  0.96413500  0.09918800  1
  Ni  Ni35  1  0.67577100  0.03586500  0.90081200  1
  Cu  Cu36  1  0.20218000  0.87738300  0.44319700  1
  Cu  Cu37  1  0.79782000  0.12261700  0.55680300  1
  Cu  Cu38  1  0.81969800  0.27150900  0.25610400  1
  Cu  Cu39  1  0.18030200  0.72849100  0.74389600  1
  Cu  Cu40  1  0.74527400  0.92131600  0.13760100  1
  Cu  Cu41  1  0.25472600  0.07868400  0.86239900  1
  Cu  Cu42  1  0.68530200  0.89015200  0.44517600  1
  Cu  Cu43  1  0.31469800  0.10984800  0.55482400  1
  Cu  Cu44  1  0.42754900  0.43611800  0.44145600  1
  Cu  Cu45  1  0.57245100  0.56388200  0.55854400  1
  Cu  Cu46  1  0.95872600  0.37295900  0.42912700  1
  Cu  Cu47  1  0.04127400  0.62704100  0.57087300  1
  Cu  Cu48  1  0.96875800  0.53275200  0.12268500  1
  Cu  Cu49  1  0.03124200  0.46724800  0.87731500  1
  Cu  Cu50  1  0.43230500  0.14873400  0.25379000  1
  Cu  Cu51  1  0.56769500  0.85126600  0.74621000  1
  Cu  Cu52  1  0.56748900  0.70412600  0.30364700  1
  Cu  Cu53  1  0.43251100  0.29587400  0.69635300  1
  Cu  Cu54  1  0.63396700  0.56454800  0.03186200  1
  Cu  Cu55  1  0.36603300  0.43545200  0.96813800  1
  Cu  Cu56  1  0.09284600  0.80563000  0.99161300  1
  Cu  Cu57  1  0.90715400  0.19437000  0.00838700  1
  Cu  Cu58  1  0.32441900  0.09545500  0.06711700  1
  Cu  Cu59  1  0.67558100  0.90454500  0.93288300  1
