# generated using pymatgen
data_Cu4Ni5C19
_symmetry_space_group_name_H-M   'P 1'
_cell_length_a   5.22651600
_cell_length_b   7.01390998
_cell_length_c   8.18933540
_cell_angle_alpha   88.74489463
_cell_angle_beta   101.97291718
_cell_angle_gamma   97.69316608
_symmetry_Int_Tables_number   1
_chemical_formula_structural   Cu4Ni5C19
_chemical_formula_sum   'Cu4 Ni5 C19'
_cell_volume   291.02778100
_cell_formula_units_Z   1
loop_
 _symmetry_equiv_pos_site_id
 _symmetry_equiv_pos_as_xyz
  1  'x, y, z'
loop_
 _atom_site_type_symbol
 _atom_site_label
 _atom_site_symmetry_multiplicity
 _atom_site_fract_x
 _atom_site_fract_y
 _atom_site_fract_z
 _atom_site_occupancy
  Ni  Ni0  1  0.51195100  0.99995800  0.49786900  1
  Ni  Ni1  1  0.91655900  0.85686400  0.35969300  1
  Ni  Ni2  1  0.64700600  0.29499300  0.79514200  1
  Ni  Ni3  1  0.07229800  0.13477500  0.64264000  1
  Ni  Ni4  1  0.35789600  0.72337100  0.21571400  1
  Cu  Cu5  1  0.21697800  0.43309300  0.93452000  1
  Cu  Cu6  1  0.86132600  0.70832900  0.71677300  1
  Cu  Cu7  1  0.77803900  0.57486500  0.06395100  1
  Cu  Cu8  1  0.56839400  0.15019500  0.13922400  1
  C  C9  1  0.00222200  0.99283100  0.99620800  1
  C  C10  1  0.43119400  0.84952900  0.85957000  1
  C  C11  1  0.28528900  0.57259800  0.58203800  1
  C  C12  1  0.71106600  0.42813800  0.42233600  1
  C  C13  1  0.13881300  0.28546500  0.26998300  1
  C  C14  1  0.11161300  0.74425800  0.95604600  1
  C  C15  1  0.74311900  0.98177700  0.78205700  1
  C  C16  1  0.20742600  0.83075400  0.62770400  1
  C  C17  1  0.49655000  0.58351400  0.81815700  1
  C  C18  1  0.96980400  0.44513300  0.64915000  1
  C  C19  1  0.30805600  0.10195300  0.90661600  1
  C  C20  1  0.59544700  0.67536400  0.48121700  1
  C  C21  1  0.03034500  0.54740200  0.33738700  1
  C  C22  1  0.68849100  0.86282100  0.07814300  1
  C  C23  1  0.39831300  0.31346000  0.51357100  1
  C  C24  1  0.83292800  0.18204900  0.37555700  1
  C  C25  1  0.46512600  0.41763000  0.19939100  1
  C  C26  1  0.93367100  0.27771800  0.04806600  1
  C  C27  1  0.22027900  0.03086100  0.23167600  1
