# generated using pymatgen
data_Cu3NiC2
_symmetry_space_group_name_H-M   'P 1'
_cell_length_a   5.81309784
_cell_length_b   5.81309784
_cell_length_c   4.85173525
_cell_angle_alpha   86.97630579
_cell_angle_beta   86.97630579
_cell_angle_gamma   66.64752210
_symmetry_Int_Tables_number   1
_chemical_formula_structural   Cu3NiC2
_chemical_formula_sum   'Cu6 Ni2 C4'
_cell_volume   150.21992303
_cell_formula_units_Z   2
loop_
 _symmetry_equiv_pos_site_id
 _symmetry_equiv_pos_as_xyz
  1  'x, y, z'
loop_
 _atom_site_type_symbol
 _atom_site_label
 _atom_site_symmetry_multiplicity
 _atom_site_fract_x
 _atom_site_fract_y
 _atom_site_fract_z
 _atom_site_occupancy
  C  C0  1  0.00000000  0.50000000  0.50000000  1
  C  C1  1  0.50000000  0.00000000  0.50000000  1
  C  C2  1  0.50000000  0.50000000  0.00000000  1
  C  C3  1  0.00000000  0.00000000  0.00000000  1
  Ni  Ni4  1  0.65691100  0.65691100  0.69179100  1
  Ni  Ni5  1  0.34308900  0.34308900  0.30820900  1
  Cu  Cu6  1  0.64936500  0.15341100  0.80206100  1
  Cu  Cu7  1  0.15341100  0.64936500  0.80206100  1
  Cu  Cu8  1  0.15080800  0.15080800  0.69305800  1
  Cu  Cu9  1  0.84919200  0.84919200  0.30694200  1
  Cu  Cu10  1  0.35063500  0.84658900  0.19793900  1
  Cu  Cu11  1  0.84658900  0.35063500  0.19793900  1
