# generated using pymatgen
data_Cu6NiC22
_symmetry_space_group_name_H-M   'P 1'
_cell_length_a   7.41576803
_cell_length_b   7.41576803
_cell_length_c   14.49811633
_cell_angle_alpha   86.68332565
_cell_angle_beta   86.68332565
_cell_angle_gamma   66.23079869
_symmetry_Int_Tables_number   1
_chemical_formula_structural   Cu6NiC22
_chemical_formula_sum   'Cu12 Ni2 C44'
_cell_volume   727.93089385
_cell_formula_units_Z   2
loop_
 _symmetry_equiv_pos_site_id
 _symmetry_equiv_pos_as_xyz
  1  'x, y, z'
loop_
 _atom_site_type_symbol
 _atom_site_label
 _atom_site_symmetry_multiplicity
 _atom_site_fract_x
 _atom_site_fract_y
 _atom_site_fract_z
 _atom_site_occupancy
  C  C0  1  0.96734200  0.67918400  0.93064300  1
  C  C1  1  0.67918400  0.96734200  0.43064300  1
  C  C2  1  0.76695800  0.57117200  0.55123700  1
  C  C3  1  0.57117200  0.76695800  0.05123700  1
  C  C4  1  0.42882800  0.23304200  0.94876300  1
  C  C5  1  0.23304200  0.42882800  0.44876300  1
  C  C6  1  0.32081600  0.03265800  0.56935700  1
  C  C7  1  0.03265800  0.32081600  0.06935700  1
  Ni  Ni8  1  0.37120400  0.62879600  0.75000000  1
  Ni  Ni9  1  0.62879600  0.37120400  0.25000000  1
  Cu  Cu10  1  0.95848800  0.85631900  0.60832800  1
  Cu  Cu11  1  0.85631900  0.95848800  0.10832800  1
  Cu  Cu12  1  0.63413400  0.93079400  0.74300900  1
  Cu  Cu13  1  0.93079400  0.63413400  0.24300900  1
  Cu  Cu14  1  0.76998100  0.38335500  0.89785700  1
  Cu  Cu15  1  0.38335500  0.76998100  0.39785700  1
  Cu  Cu16  1  0.61664500  0.23001900  0.60214300  1
  Cu  Cu17  1  0.23001900  0.61664500  0.10214300  1
  Cu  Cu18  1  0.06920600  0.36586600  0.75699100  1
  Cu  Cu19  1  0.36586600  0.06920600  0.25699100  1
  Cu  Cu20  1  0.14368100  0.04151200  0.89167200  1
  Cu  Cu21  1  0.04151200  0.14368100  0.39167200  1
  C  C22  1  0.86726300  0.83324300  0.71044100  1
  C  C23  1  0.89933900  0.75169100  0.53822400  1
  C  C24  1  0.83324300  0.86726300  0.21044100  1
  C  C25  1  0.75169100  0.89933900  0.03822400  1
  C  C26  1  0.62278600  0.91454000  0.84524400  1
  C  C27  1  0.91454000  0.62278600  0.34524400  1
  C  C28  1  0.82121100  0.50323200  0.96415400  1
  C  C29  1  0.52351900  0.84925900  0.68408300  1
  C  C30  1  0.83847600  0.42519000  0.79241100  1
  C  C31  1  0.50323200  0.82121100  0.46415400  1
  C  C32  1  0.84925900  0.52351900  0.18408300  1
  C  C33  1  0.42519000  0.83847600  0.29241100  1
  C  C34  1  0.90823600  0.15124600  0.91309900  1
  C  C35  1  0.18258200  0.82802100  0.87935700  1
  C  C36  1  0.56276900  0.39922900  0.89552800  1
  C  C37  1  0.15124600  0.90823600  0.41309900  1
  C  C38  1  0.60077100  0.43723100  0.60447200  1
  C  C39  1  0.82802100  0.18258200  0.37935700  1
  C  C40  1  0.17197900  0.81741800  0.62064300  1
  C  C41  1  0.39922900  0.56276900  0.39552800  1
  C  C42  1  0.84875400  0.09176400  0.58690100  1
  C  C43  1  0.43723100  0.60077100  0.10447200  1
  C  C44  1  0.81741800  0.17197900  0.12064300  1
  C  C45  1  0.09176400  0.84875400  0.08690100  1
  C  C46  1  0.57481000  0.16152400  0.70758900  1
  C  C47  1  0.15074100  0.47648100  0.81591700  1
  C  C48  1  0.49676800  0.17878900  0.53584600  1
  C  C49  1  0.16152400  0.57481000  0.20758900  1
  C  C50  1  0.47648100  0.15074100  0.31591700  1
  C  C51  1  0.17878900  0.49676800  0.03584600  1
  C  C52  1  0.08546000  0.37721400  0.65475600  1
  C  C53  1  0.37721400  0.08546000  0.15475600  1
  C  C54  1  0.24830900  0.10066100  0.96177600  1
  C  C55  1  0.16675700  0.13273700  0.78955900  1
  C  C56  1  0.10066100  0.24830900  0.46177600  1
  C  C57  1  0.13273700  0.16675700  0.28955900  1
