# generated using pymatgen
data_Cu2Ni3C31
_symmetry_space_group_name_H-M   'P 1'
_cell_length_a   8.65275191
_cell_length_b   8.65275191
_cell_length_c   8.65275134
_cell_angle_alpha   61.00494134
_cell_angle_beta   61.00494134
_cell_angle_gamma   61.00494096
_symmetry_Int_Tables_number   1
_chemical_formula_structural   Cu2Ni3C31
_chemical_formula_sum   'Cu2 Ni3 C31'
_cell_volume   468.45573365
_cell_formula_units_Z   1
loop_
 _symmetry_equiv_pos_site_id
 _symmetry_equiv_pos_as_xyz
  1  'x, y, z'
loop_
 _atom_site_type_symbol
 _atom_site_label
 _atom_site_symmetry_multiplicity
 _atom_site_fract_x
 _atom_site_fract_y
 _atom_site_fract_z
 _atom_site_occupancy
  Ni  Ni0  1  0.64410000  0.64410000  0.64410000  1
  Ni  Ni1  1  0.85642000  0.85642000  0.85642000  1
  Ni  Ni2  1  0.35570700  0.35570700  0.35570700  1
  Cu  Cu3  1  0.99940000  0.99940000  0.99940000  1
  Cu  Cu4  1  0.50083900  0.50083900  0.50083900  1
  C  C5  1  0.14539500  0.14539500  0.14539500  1
  C  C6  1  0.94922100  0.24824400  0.55720600  1
  C  C7  1  0.55720600  0.94922100  0.24824400  1
  C  C8  1  0.24824400  0.55720600  0.94922100  1
  C  C9  1  0.73791800  0.46595800  0.04250900  1
  C  C10  1  0.46595800  0.04250900  0.73791800  1
  C  C11  1  0.04250900  0.73791800  0.46595800  1
  C  C12  1  0.49457500  0.12232700  0.30467300  1
  C  C13  1  0.30467300  0.49457500  0.12232700  1
  C  C14  1  0.12232700  0.30467300  0.49457500  1
  C  C15  1  0.94101500  0.08662400  0.74788400  1
  C  C16  1  0.96189300  0.18752200  0.41275600  1
  C  C17  1  0.76005800  0.41047300  0.58382300  1
  C  C18  1  0.74788400  0.94101500  0.08662400  1
  C  C19  1  0.58382300  0.76005800  0.41047300  1
  C  C20  1  0.80870400  0.62301100  0.99878600  1
  C  C21  1  0.41047300  0.58382300  0.76005800  1
  C  C22  1  0.89266600  0.27510300  0.04292000  1
  C  C23  1  0.62301100  0.99878600  0.80870400  1
  C  C24  1  0.41275600  0.96189300  0.18752200  1
  C  C25  1  0.08662400  0.74788400  0.94101500  1
  C  C26  1  0.58086800  0.44824000  0.23674800  1
  C  C27  1  0.18752200  0.41275600  0.96189300  1
  C  C28  1  0.44824000  0.23674800  0.58086800  1
  C  C29  1  0.27510300  0.04292000  0.89266600  1
  C  C30  1  0.23674800  0.58086800  0.44824000  1
  C  C31  1  0.99878600  0.80870400  0.62301100  1
  C  C32  1  0.04292000  0.89266600  0.27510300  1
  C  C33  1  0.88891200  0.65883600  0.52867600  1
  C  C34  1  0.65883600  0.52867600  0.88891200  1
  C  C35  1  0.52867600  0.88891200  0.65883600  1
