# generated using pymatgen
data_Cu7(NiC)2
_symmetry_space_group_name_H-M   'P 1'
_cell_length_a   8.53001505
_cell_length_b   8.53001505
_cell_length_c   8.38375100
_cell_angle_alpha   89.41450438
_cell_angle_beta   89.41450438
_cell_angle_gamma   60.23027946
_symmetry_Int_Tables_number   1
_chemical_formula_structural   Cu7(NiC)2
_chemical_formula_sum   'Cu21 Ni6 C6'
_cell_volume   529.47002832
_cell_formula_units_Z   3
loop_
 _symmetry_equiv_pos_site_id
 _symmetry_equiv_pos_as_xyz
  1  'x, y, z'
loop_
 _atom_site_type_symbol
 _atom_site_label
 _atom_site_symmetry_multiplicity
 _atom_site_fract_x
 _atom_site_fract_y
 _atom_site_fract_z
 _atom_site_occupancy
  C  C0  1  0.66820800  0.66625200  0.82195200  1
  C  C1  1  0.33374800  0.33179200  0.17804800  1
  C  C2  1  0.66627400  0.66645100  0.25598000  1
  C  C3  1  0.33354900  0.33372600  0.74402000  1
  C  C4  1  0.99955600  0.00226500  0.28493500  1
  C  C5  1  0.99773500  0.00044400  0.71506500  1
  Ni  Ni6  1  0.00175500  0.33914400  0.27386300  1
  Ni  Ni7  1  0.66085600  0.99824500  0.72613700  1
  Ni  Ni8  1  0.66353500  0.00006700  0.26801400  1
  Ni  Ni9  1  0.99993300  0.33646500  0.73198600  1
  Ni  Ni10  1  0.33291500  0.66434700  0.26573600  1
  Ni  Ni11  1  0.33565300  0.66708500  0.73426400  1
  Cu  Cu12  1  0.99969700  0.00030300  0.50000000  1
  Cu  Cu13  1  0.93210900  0.24063500  0.78724800  1
  Cu  Cu14  1  0.75936500  0.06789100  0.21275200  1
  Cu  Cu15  1  0.83736000  0.42496100  0.32887300  1
  Cu  Cu16  1  0.57503900  0.16264000  0.67112700  1
  Cu  Cu17  1  0.90529700  0.51049100  0.73211900  1
  Cu  Cu18  1  0.48950900  0.09470300  0.26788100  1
  Cu  Cu19  1  0.66946200  0.66973700  0.03831500  1
  Cu  Cu20  1  0.33026300  0.33053800  0.96168500  1
  Cu  Cu21  1  0.16387400  0.25928100  0.67621100  1
  Cu  Cu22  1  0.74071900  0.83612600  0.32378900  1
  Cu  Cu23  1  0.50995600  0.58628900  0.73603600  1
  Cu  Cu24  1  0.41371100  0.49004400  0.26396400  1
  Cu  Cu25  1  0.82180700  0.93222000  0.78345100  1
  Cu  Cu26  1  0.06778000  0.17819300  0.21654900  1
  Cu  Cu27  1  0.58324900  0.90132300  0.72390800  1
  Cu  Cu28  1  0.09867700  0.41675100  0.27609200  1
  Cu  Cu29  1  0.41906200  0.74325400  0.31804100  1
  Cu  Cu30  1  0.25674600  0.58093800  0.68195900  1
  Cu  Cu31  1  0.24107500  0.83100600  0.78438400  1
  Cu  Cu32  1  0.16899400  0.75892500  0.21561600  1
