# generated using pymatgen
data_CuNiC14
_symmetry_space_group_name_H-M   'P 1'
_cell_length_a   7.84414625
_cell_length_b   7.84414625
_cell_length_c   14.74552900
_cell_angle_alpha   90.00000000
_cell_angle_beta   90.00000000
_cell_angle_gamma   120.00000214
_symmetry_Int_Tables_number   1
_chemical_formula_structural   CuNiC14
_chemical_formula_sum   'Cu3 Ni3 C42'
_cell_volume   785.74630042
_cell_formula_units_Z   3
loop_
 _symmetry_equiv_pos_site_id
 _symmetry_equiv_pos_as_xyz
  1  'x, y, z'
loop_
 _atom_site_type_symbol
 _atom_site_label
 _atom_site_symmetry_multiplicity
 _atom_site_fract_x
 _atom_site_fract_y
 _atom_site_fract_z
 _atom_site_occupancy
  C  C0  1  0.02070100  0.56674800  0.67996000  1
  C  C1  1  0.54604700  0.97929900  0.01329300  1
  C  C2  1  0.43325200  0.45395300  0.34662600  1
  C  C3  1  0.39653000  0.39078300  0.85224800  1
  C  C4  1  0.99425200  0.60347000  0.18558100  1
  C  C5  1  0.60921700  0.00574800  0.51891500  1
  C  C6  1  0.57987600  0.99736500  0.76382800  1
  C  C7  1  0.41748800  0.42012400  0.09716200  1
  C  C8  1  0.00263500  0.58251200  0.43049500  1
  C  C9  1  0.99485400  0.57133000  0.94042800  1
  C  C10  1  0.57647600  0.00514600  0.27376100  1
  C  C11  1  0.42867000  0.42352400  0.60709500  1
  Ni  Ni12  1  0.89601100  0.87552800  0.83553700  1
  Ni  Ni13  1  0.97951800  0.10398900  0.16887000  1
  Ni  Ni14  1  0.12447200  0.02048200  0.50220300  1
  Cu  Cu15  1  0.96332500  0.96562600  0.64389300  1
  Cu  Cu16  1  0.00230100  0.03667500  0.97722600  1
  Cu  Cu17  1  0.03437400  0.99769900  0.31055900  1
  C  C18  1  0.41411200  0.85679500  0.68998100  1
  C  C19  1  0.44268400  0.58588800  0.02331400  1
  C  C20  1  0.14320500  0.55731600  0.35664800  1
  C  C21  1  0.49030000  0.09084900  0.83507500  1
  C  C22  1  0.60054900  0.50970000  0.16840900  1
  C  C23  1  0.90915100  0.39945100  0.50174200  1
  C  C24  1  0.76746000  0.16881100  0.71027500  1
  C  C25  1  0.40135200  0.23254000  0.04360800  1
  C  C26  1  0.83118900  0.59864800  0.37694100  1
  C  C27  1  0.66038000  0.84976700  0.83139700  1
  C  C28  1  0.18938700  0.33962000  0.16473000  1
  C  C29  1  0.15023300  0.81061300  0.49806400  1
  C  C30  1  0.00897300  0.91377700  0.73579800  1
  C  C31  1  0.90480400  0.99102700  0.06913100  1
  C  C32  1  0.08622300  0.09519600  0.40246400  1
  C  C33  1  0.04657900  0.06345600  0.90967200  1
  C  C34  1  0.01687700  0.95342100  0.24300500  1
  C  C35  1  0.93654400  0.98312300  0.57633900  1
  C  C36  1  0.83270200  0.64491200  0.88141500  1
  C  C37  1  0.81221000  0.16729800  0.21474800  1
  C  C38  1  0.35508800  0.18779000  0.54808200  1
  C  C39  1  0.85587700  0.37433600  0.99915900  1
  C  C40  1  0.51845900  0.14412300  0.33249200  1
  C  C41  1  0.62566400  0.48154100  0.66582600  1
  C  C42  1  0.12304700  0.53207900  0.86496600  1
  C  C43  1  0.40903200  0.87695300  0.19829900  1
  C  C44  1  0.46792100  0.59096800  0.53163300  1
  C  C45  1  0.13958000  0.74793200  0.00849800  1
  C  C46  1  0.60835300  0.86042000  0.34183100  1
  C  C47  1  0.25206800  0.39164700  0.67516500  1
