# generated using pymatgen
data_Cu3Ni13C80
_symmetry_space_group_name_H-M   'P 1'
_cell_length_a   5.00961100
_cell_length_b   8.67749499
_cell_length_c   19.50782200
_cell_angle_alpha   98.36092243
_cell_angle_beta   94.84640412
_cell_angle_gamma   89.90475454
_symmetry_Int_Tables_number   1
_chemical_formula_structural   Cu3Ni13C80
_chemical_formula_sum   'Cu3 Ni13 C80'
_cell_volume   835.96088628
_cell_formula_units_Z   1
loop_
 _symmetry_equiv_pos_site_id
 _symmetry_equiv_pos_as_xyz
  1  'x, y, z'
loop_
 _atom_site_type_symbol
 _atom_site_label
 _atom_site_symmetry_multiplicity
 _atom_site_fract_x
 _atom_site_fract_y
 _atom_site_fract_z
 _atom_site_occupancy
  C  C0  1  0.99361300  0.16841600  0.24988800  1
  C  C1  1  0.87524400  0.37510500  0.37493900  1
  C  C2  1  0.75020700  0.25012200  0.00005300  1
  C  C3  1  0.74264800  0.91940100  0.00051700  1
  C  C4  1  0.99111000  0.16837400  0.75017100  1
  C  C5  1  0.75794100  0.57960400  0.50016300  1
  C  C6  1  0.87557900  0.37557400  0.87524000  1
  C  C7  1  0.74952500  0.25029700  0.49980400  1
  C  C8  1  0.74631800  0.92032500  0.50052800  1
  C  C9  1  0.62487700  0.12506900  0.12501700  1
  C  C10  1  0.75600300  0.58066000  0.99957100  1
  C  C11  1  0.50772000  0.33209600  0.25025500  1
  C  C12  1  0.62757500  0.12416000  0.62485100  1
  C  C13  1  0.50014900  0.99996200  0.24993900  1
  C  C14  1  0.49423000  0.66786700  0.24947400  1
  C  C15  1  0.50886600  0.33427000  0.75050800  1
  C  C16  1  0.37520100  0.87625800  0.37500500  1
  C  C17  1  0.50071900  0.99876700  0.75037500  1
  C  C18  1  0.25157100  0.74894300  0.99994100  1
  C  C19  1  0.49246300  0.66714500  0.74952600  1
  C  C20  1  0.24373200  0.42020000  0.00009200  1
  C  C21  1  0.37775000  0.87496600  0.87476900  1
  C  C22  1  0.25424500  0.07931700  0.49939900  1
  C  C23  1  0.24851500  0.74984200  0.50018400  1
  C  C24  1  0.12483800  0.62505700  0.12495200  1
  C  C25  1  0.24229700  0.42066700  0.49992800  1
  C  C26  1  0.00647500  0.83190500  0.25015300  1
  C  C27  1  0.25544700  0.08074600  0.99989500  1
  C  C28  1  0.12539300  0.62486200  0.62523300  1
  C  C29  1  0.99773400  0.49952800  0.24993900  1
  C  C30  1  0.00618000  0.83227400  0.75019400  1
  C  C31  1  0.00002000  0.49959400  0.74973700  1
  Ni  Ni32  1  0.87387700  0.70880700  0.37487200  1
  Ni  Ni33  1  0.87524300  0.04147300  0.37496300  1
  Ni  Ni34  1  0.87378300  0.04224300  0.87435800  1
  Ni  Ni35  1  0.62585300  0.79140700  0.12499700  1
  Ni  Ni36  1  0.62458600  0.45846700  0.12503600  1
  Ni  Ni37  1  0.62493600  0.79162200  0.62503700  1
  Ni  Ni38  1  0.62645300  0.46021600  0.62569800  1
  Ni  Ni39  1  0.37409000  0.20812400  0.37494900  1
  Ni  Ni40  1  0.37726100  0.54051000  0.87574400  1
  Ni  Ni41  1  0.37364100  0.20850500  0.87510000  1
  Ni  Ni42  1  0.12459900  0.95848900  0.12502700  1
  Ni  Ni43  1  0.12580600  0.29146300  0.12505900  1
  Ni  Ni44  1  0.12273900  0.95699000  0.62426500  1
  Cu  Cu45  1  0.87981300  0.70940900  0.87493900  1
  Cu  Cu46  1  0.37543800  0.54446400  0.37503300  1
  Cu  Cu47  1  0.13234300  0.29000900  0.62485900  1
  C  C48  1  0.96396800  0.10648100  0.06904700  1
  C  C49  1  0.92786300  0.78524800  0.06904300  1
  C  C50  1  0.92731900  0.42734600  0.06825600  1
  C  C51  1  0.96199800  0.10248800  0.56822200  1
  C  C52  1  0.82237700  0.96477100  0.18089700  1
  C  C53  1  0.82292500  0.32246100  0.18179700  1
  C  C54  1  0.92758800  0.78409600  0.56909200  1
  C  C55  1  0.92594000  0.42594900  0.56821000  1
  C  C56  1  0.78644500  0.64353800  0.18083700  1
  C  C57  1  0.71286400  0.85692400  0.31907900  1
  C  C58  1  0.82168600  0.96500400  0.68080700  1
  C  C59  1  0.82180800  0.32344000  0.68193500  1
  C  C60  1  0.68358400  0.53619900  0.31842300  1
  C  C61  1  0.67730800  0.17726900  0.31817400  1
  C  C62  1  0.78791200  0.64436200  0.68104600  1
  C  C63  1  0.71215200  0.85974100  0.81834000  1
  C  C64  1  0.46416200  0.60652400  0.06918900  1
  C  C65  1  0.57181400  0.71283900  0.43068100  1
  C  C66  1  0.57257400  0.07193900  0.43177100  1
  C  C67  1  0.67676300  0.53698500  0.81927200  1
  C  C68  1  0.67694700  0.17824400  0.81813700  1
  C  C69  1  0.42718700  0.92734300  0.06811200  1
  C  C70  1  0.42792000  0.28528700  0.06915100  1
  C  C71  1  0.53321000  0.39258000  0.43095400  1
  C  C72  1  0.46379200  0.60712400  0.56904400  1
  C  C73  1  0.56998900  0.71428000  0.93102400  1
  C  C74  1  0.57201900  0.07243000  0.93183400  1
  C  C75  1  0.32291100  0.82257000  0.18187100  1
  C  C76  1  0.32231200  0.46484500  0.18099500  1
  C  C77  1  0.42732000  0.92754800  0.56816600  1
  C  C78  1  0.42555000  0.28728700  0.56924900  1
  C  C79  1  0.53733100  0.39274700  0.93101900  1
  C  C80  1  0.28624500  0.14320200  0.18086200  1
  C  C81  1  0.21616000  0.35600400  0.31902100  1
  C  C82  1  0.32286600  0.82246100  0.68176600  1
  C  C83  1  0.32679400  0.46758100  0.68158600  1
  C  C84  1  0.17684500  0.67539200  0.31811000  1
  C  C85  1  0.17741600  0.03432300  0.31899100  1
  C  C86  1  0.28039700  0.14376700  0.68077900  1
  C  C87  1  0.21355800  0.35625700  0.81909800  1
  C  C88  1  0.06756700  0.57430800  0.43261900  1
  C  C89  1  0.07192700  0.21457500  0.43084000  1
  C  C90  1  0.17560400  0.67592400  0.81834000  1
  C  C91  1  0.17764400  0.03492100  0.81912200  1
  C  C92  1  0.03749200  0.89357200  0.43080200  1
  C  C93  1  0.07653100  0.57085700  0.93250800  1
  C  C94  1  0.07226600  0.21476600  0.93088400  1
  C  C95  1  0.03050400  0.89263000  0.93082300  1
