# generated using pymatgen
data_Cu2NiC8
_symmetry_space_group_name_H-M   'P 1'
_cell_length_a   4.27151866
_cell_length_b   6.30157991
_cell_length_c   6.30157991
_cell_angle_alpha   112.93238544
_cell_angle_beta   94.94211033
_cell_angle_gamma   94.94211033
_symmetry_Int_Tables_number   1
_chemical_formula_structural   Cu2NiC8
_chemical_formula_sum   'Cu2 Ni1 C8'
_cell_volume   154.30441597
_cell_formula_units_Z   1
loop_
 _symmetry_equiv_pos_site_id
 _symmetry_equiv_pos_as_xyz
  1  'x, y, z'
loop_
 _atom_site_type_symbol
 _atom_site_label
 _atom_site_symmetry_multiplicity
 _atom_site_fract_x
 _atom_site_fract_y
 _atom_site_fract_z
 _atom_site_occupancy
  Ni  Ni0  1  0.00000000  0.00000000  0.00000000  1
  Cu  Cu1  1  0.50000000  0.67552400  0.32447600  1
  Cu  Cu2  1  0.50000000  0.32447600  0.67552400  1
  C  C3  1  0.00000000  0.26345000  0.73655000  1
  C  C4  1  0.00000000  0.73655000  0.26345000  1
  C  C5  1  0.76998800  0.60495600  0.60495600  1
  C  C6  1  0.56040600  0.32929700  0.04535400  1
  C  C7  1  0.43959400  0.95464600  0.67070300  1
  C  C8  1  0.43959400  0.67070300  0.95464600  1
  C  C9  1  0.56040600  0.04535400  0.32929700  1
  C  C10  1  0.23001200  0.39504400  0.39504400  1
