# generated using pymatgen
data_CuNi28C29
_symmetry_space_group_name_H-M   'P 1'
_cell_length_a   8.95293900
_cell_length_b   8.96907300
_cell_length_c   16.00938600
_cell_angle_alpha   90.00000000
_cell_angle_beta   90.00000000
_cell_angle_gamma   90.00000000
_symmetry_Int_Tables_number   1
_chemical_formula_structural   CuNi28C29
_chemical_formula_sum   'Cu2 Ni56 C58'
_cell_volume   1285.54670699
_cell_formula_units_Z   2
loop_
 _symmetry_equiv_pos_site_id
 _symmetry_equiv_pos_as_xyz
  1  'x, y, z'
loop_
 _atom_site_type_symbol
 _atom_site_label
 _atom_site_symmetry_multiplicity
 _atom_site_fract_x
 _atom_site_fract_y
 _atom_site_fract_z
 _atom_site_occupancy
  C  C0  1  0.50000000  0.50000000  0.00000000  1
  C  C1  1  0.00000000  0.00000000  0.50000000  1
  C  C2  1  0.61462900  0.25418900  0.50000000  1
  C  C3  1  0.38537100  0.74581100  0.50000000  1
  C  C4  1  0.11462900  0.24581100  0.00000000  1
  C  C5  1  0.88537100  0.75418900  0.00000000  1
  C  C6  1  0.24828900  0.38220700  0.50000000  1
  C  C7  1  0.75171100  0.61779300  0.50000000  1
  C  C8  1  0.74828900  0.11779300  0.00000000  1
  C  C9  1  0.25171100  0.88220700  0.00000000  1
  C  C10  1  0.73092500  0.41647600  0.68871700  1
  C  C11  1  0.26907500  0.58352400  0.68871700  1
  C  C12  1  0.23092500  0.08352400  0.81128300  1
  C  C13  1  0.76907500  0.91647600  0.81128300  1
  C  C14  1  0.26907500  0.58352400  0.31128300  1
  C  C15  1  0.73092500  0.41647600  0.31128300  1
  C  C16  1  0.76907500  0.91647600  0.18871700  1
  C  C17  1  0.23092500  0.08352400  0.18871700  1
  C  C18  1  0.91562700  0.22911600  0.81140500  1
  C  C19  1  0.08437300  0.77088400  0.81140500  1
  C  C20  1  0.41562700  0.27088400  0.68859500  1
  C  C21  1  0.58437300  0.72911600  0.68859500  1
  C  C22  1  0.08437300  0.77088400  0.18859500  1
  C  C23  1  0.91562700  0.22911600  0.18859500  1
  C  C24  1  0.58437300  0.72911600  0.31140500  1
  C  C25  1  0.41562700  0.27088400  0.31140500  1
  C  C26  1  0.94488100  0.31316800  0.58782700  1
  C  C27  1  0.05511900  0.68683200  0.58782700  1
  C  C28  1  0.44488100  0.18683200  0.91217300  1
  C  C29  1  0.55511900  0.81316800  0.91217300  1
  C  C30  1  0.05511900  0.68683200  0.41217300  1
  C  C31  1  0.94488100  0.31316800  0.41217300  1
  C  C32  1  0.55511900  0.81316800  0.08782700  1
  C  C33  1  0.44488100  0.18683200  0.08782700  1
  C  C34  1  0.67451300  0.94657900  0.58667200  1
  C  C35  1  0.32548700  0.05342100  0.58667200  1
  C  C36  1  0.17451300  0.55342100  0.91332800  1
  C  C37  1  0.82548700  0.44657900  0.91332800  1
  C  C38  1  0.32548700  0.05342100  0.41332800  1
  C  C39  1  0.67451300  0.94657900  0.41332800  1
  C  C40  1  0.82548700  0.44657900  0.08667200  1
  C  C41  1  0.17451300  0.55342100  0.08667200  1
  C  C42  1  0.72962600  0.07207900  0.64695800  1
  C  C43  1  0.27037400  0.92792100  0.64695800  1
  C  C44  1  0.22962600  0.42792100  0.85304200  1
  C  C45  1  0.77037400  0.57207900  0.85304200  1
  C  C46  1  0.27037400  0.92792100  0.35304200  1
  C  C47  1  0.72962600  0.07207900  0.35304200  1
  C  C48  1  0.77037400  0.57207900  0.14695800  1
  C  C49  1  0.22962600  0.42792100  0.14695800  1
  C  C50  1  0.06917900  0.24762900  0.64609200  1
  C  C51  1  0.93082100  0.75237100  0.64609200  1
  C  C52  1  0.56917900  0.25237100  0.85390800  1
  C  C53  1  0.43082100  0.74762900  0.85390800  1
  C  C54  1  0.93082100  0.75237100  0.35390800  1
  C  C55  1  0.06917900  0.24762900  0.35390800  1
  C  C56  1  0.43082100  0.74762900  0.14609200  1
  C  C57  1  0.56917900  0.25237100  0.14609200  1
  Ni  Ni58  1  0.86844300  0.36768900  0.75032100  1
  Ni  Ni59  1  0.13155700  0.63231100  0.75032100  1
  Ni  Ni60  1  0.36844300  0.13231100  0.74967900  1
  Ni  Ni61  1  0.63155700  0.86768900  0.74967900  1
  Ni  Ni62  1  0.13155700  0.63231100  0.24967900  1
  Ni  Ni63  1  0.86844300  0.36768900  0.24967900  1
  Ni  Ni64  1  0.63155700  0.86768900  0.25032100  1
  Ni  Ni65  1  0.36844300  0.13231100  0.25032100  1
  Ni  Ni66  1  0.58846500  0.30993000  0.71557000  1
  Ni  Ni67  1  0.41153500  0.69007000  0.71557000  1
  Ni  Ni68  1  0.08846500  0.19007000  0.78443000  1
  Ni  Ni69  1  0.91153500  0.80993000  0.78443000  1
  Ni  Ni70  1  0.41153500  0.69007000  0.28443000  1
  Ni  Ni71  1  0.58846500  0.30993000  0.28443000  1
  Ni  Ni72  1  0.91153500  0.80993000  0.21557000  1
  Ni  Ni73  1  0.08846500  0.19007000  0.21557000  1
  Ni  Ni74  1  0.80920800  0.08791900  0.78305400  1
  Ni  Ni75  1  0.19079200  0.91208100  0.78305400  1
  Ni  Ni76  1  0.30920800  0.41208100  0.71694600  1
  Ni  Ni77  1  0.69079200  0.58791900  0.71694600  1
  Ni  Ni78  1  0.19079200  0.91208100  0.21694600  1
  Ni  Ni79  1  0.80920800  0.08791900  0.21694600  1
  Ni  Ni80  1  0.69079200  0.58791900  0.28305400  1
  Ni  Ni81  1  0.30920800  0.41208100  0.28305400  1
  Ni  Ni82  1  0.77308400  0.40189200  0.59120500  1
  Ni  Ni83  1  0.22691600  0.59810800  0.59120500  1
  Ni  Ni84  1  0.27308400  0.09810800  0.90879500  1
  Ni  Ni85  1  0.72691600  0.90189200  0.90879500  1
  Ni  Ni86  1  0.22691600  0.59810800  0.40879500  1
  Ni  Ni87  1  0.77308400  0.40189200  0.40879500  1
  Ni  Ni88  1  0.72691600  0.90189200  0.09120500  1
  Ni  Ni89  1  0.27308400  0.09810800  0.09120500  1
  Ni  Ni90  1  0.89888600  0.26906600  0.90902900  1
  Ni  Ni91  1  0.10111400  0.73093400  0.90902900  1
  Ni  Ni92  1  0.39888600  0.23093400  0.59097100  1
  Ni  Ni93  1  0.60111400  0.76906600  0.59097100  1
  Ni  Ni94  1  0.10111400  0.73093400  0.09097100  1
  Ni  Ni95  1  0.89888600  0.26906600  0.09097100  1
  Ni  Ni96  1  0.60111400  0.76906600  0.40902900  1
  Ni  Ni97  1  0.39888600  0.23093400  0.40902900  1
  Ni  Ni98  1  0.72157700  0.04871800  0.58741800  1
  Ni  Ni99  1  0.27842300  0.95128200  0.58741800  1
  Ni  Ni100  1  0.22157700  0.45128200  0.91258200  1
  Ni  Ni101  1  0.77842300  0.54871800  0.91258200  1
  Ni  Ni102  1  0.27842300  0.95128200  0.41258200  1
  Ni  Ni103  1  0.72157700  0.04871800  0.41258200  1
  Ni  Ni104  1  0.77842300  0.54871800  0.08741800  1
  Ni  Ni105  1  0.22157700  0.45128200  0.08741800  1
  Ni  Ni106  1  0.04413000  0.26004300  0.58696000  1
  Ni  Ni107  1  0.95587000  0.73995700  0.58696000  1
  Ni  Ni108  1  0.54413000  0.23995700  0.91304000  1
  Ni  Ni109  1  0.45587000  0.76004300  0.91304000  1
  Ni  Ni110  1  0.95587000  0.73995700  0.41304000  1
  Ni  Ni111  1  0.04413000  0.26004300  0.41304000  1
  Ni  Ni112  1  0.45587000  0.76004300  0.08696000  1
  Ni  Ni113  1  0.54413000  0.23995700  0.08696000  1
  Cu  Cu114  1  0.50000000  0.50000000  0.50000000  1
  Cu  Cu115  1  0.00000000  0.00000000  0.00000000  1
