# generated using pymatgen
data_Cu4NiC24
_symmetry_space_group_name_H-M   'P 1'
_cell_length_a   10.37262574
_cell_length_b   10.37262574
_cell_length_c   10.37262574
_cell_angle_alpha   60.00000000
_cell_angle_beta   60.00000000
_cell_angle_gamma   60.00000000
_symmetry_Int_Tables_number   1
_chemical_formula_structural   Cu4NiC24
_chemical_formula_sum   'Cu8 Ni2 C48'
_cell_volume   789.13467475
_cell_formula_units_Z   2
loop_
 _symmetry_equiv_pos_site_id
 _symmetry_equiv_pos_as_xyz
  1  'x, y, z'
loop_
 _atom_site_type_symbol
 _atom_site_label
 _atom_site_symmetry_multiplicity
 _atom_site_fract_x
 _atom_site_fract_y
 _atom_site_fract_z
 _atom_site_occupancy
  C  C0  1  0.30074200  0.30074200  0.69925800  1
  C  C1  1  0.94925800  0.55074200  0.55074200  1
  C  C2  1  0.69925800  0.30074200  0.69925800  1
  C  C3  1  0.30074200  0.69925800  0.30074200  1
  C  C4  1  0.55074200  0.94925800  0.94925800  1
  C  C5  1  0.55074200  0.55074200  0.94925800  1
  C  C6  1  0.69925800  0.30074200  0.30074200  1
  C  C7  1  0.69925800  0.69925800  0.30074200  1
  C  C8  1  0.55074200  0.94925800  0.55074200  1
  C  C9  1  0.94925800  0.55074200  0.94925800  1
  C  C10  1  0.30074200  0.69925800  0.69925800  1
  C  C11  1  0.94925800  0.94925800  0.55074200  1
  C  C12  1  0.62500000  0.12500000  0.12500000  1
  C  C13  1  0.12500000  0.12500000  0.12500000  1
  C  C14  1  0.12500000  0.12500000  0.62500000  1
  C  C15  1  0.12500000  0.62500000  0.12500000  1
  Ni  Ni16  1  0.50000000  0.50000000  0.50000000  1
  Ni  Ni17  1  0.75000000  0.75000000  0.75000000  1
  Cu  Cu18  1  0.30552600  0.89815800  0.89815800  1
  Cu  Cu19  1  0.89815800  0.30552600  0.89815800  1
  Cu  Cu20  1  0.89815800  0.89815800  0.89815800  1
  Cu  Cu21  1  0.89815800  0.89815800  0.30552600  1
  Cu  Cu22  1  0.35184200  0.35184200  0.94447400  1
  Cu  Cu23  1  0.35184200  0.35184200  0.35184200  1
  Cu  Cu24  1  0.35184200  0.94447400  0.35184200  1
  Cu  Cu25  1  0.94447400  0.35184200  0.35184200  1
  C  C26  1  0.22968600  0.48065300  0.34391700  1
  C  C27  1  0.94574400  0.34391700  0.48065300  1
  C  C28  1  0.30425600  0.02031400  0.90608300  1
  C  C29  1  0.02031400  0.30425600  0.76934700  1
  C  C30  1  0.30425600  0.76934700  0.02031400  1
  C  C31  1  0.56794600  0.56794600  0.29616100  1
  C  C32  1  0.90608300  0.02031400  0.76934700  1
  C  C33  1  0.56794600  0.29616100  0.56794600  1
  C  C34  1  0.56794600  0.56794600  0.56794600  1
  C  C35  1  0.90608300  0.30425600  0.02031400  1
  C  C36  1  0.76934700  0.30425600  0.90608300  1
  C  C37  1  0.29616100  0.56794600  0.56794600  1
  C  C38  1  0.02031400  0.90608300  0.30425600  1
  C  C39  1  0.76934700  0.90608300  0.02031400  1
  C  C40  1  0.90608300  0.76934700  0.30425600  1
  C  C41  1  0.48065300  0.22968600  0.94574400  1
  C  C42  1  0.76934700  0.02031400  0.30425600  1
  C  C43  1  0.34391700  0.48065300  0.94574400  1
  C  C44  1  0.48065300  0.34391700  0.22968600  1
  C  C45  1  0.22968600  0.34391700  0.94574400  1
  C  C46  1  0.95383900  0.68205400  0.68205400  1
  C  C47  1  0.48065300  0.94574400  0.34391700  1
  C  C48  1  0.34391700  0.94574400  0.22968600  1
  C  C49  1  0.68205400  0.95383900  0.68205400  1
  C  C50  1  0.68205400  0.68205400  0.68205400  1
  C  C51  1  0.34391700  0.22968600  0.48065300  1
  C  C52  1  0.68205400  0.68205400  0.95383900  1
  C  C53  1  0.94574400  0.48065300  0.22968600  1
  C  C54  1  0.22968600  0.94574400  0.48065300  1
  C  C55  1  0.94574400  0.22968600  0.34391700  1
  C  C56  1  0.30425600  0.90608300  0.76934700  1
  C  C57  1  0.02031400  0.76934700  0.90608300  1
