# generated using pymatgen
data_Cu2NiC6
_symmetry_space_group_name_H-M   'P 1'
_cell_length_a   4.42455300
_cell_length_b   11.56721200
_cell_length_c   13.51692300
_cell_angle_alpha   90.00000000
_cell_angle_beta   90.00000000
_cell_angle_gamma   90.00000000
_symmetry_Int_Tables_number   1
_chemical_formula_structural   Cu2NiC6
_chemical_formula_sum   'Cu16 Ni8 C48'
_cell_volume   691.79263929
_cell_formula_units_Z   8
loop_
 _symmetry_equiv_pos_site_id
 _symmetry_equiv_pos_as_xyz
  1  'x, y, z'
loop_
 _atom_site_type_symbol
 _atom_site_label
 _atom_site_symmetry_multiplicity
 _atom_site_fract_x
 _atom_site_fract_y
 _atom_site_fract_z
 _atom_site_occupancy
  C  C0  1  0.70922800  0.90578700  0.09389300  1
  C  C1  1  0.27151200  0.73781700  0.15506200  1
  C  C2  1  0.77151200  0.23781700  0.34493800  1
  C  C3  1  0.20922800  0.40578700  0.40610700  1
  C  C4  1  0.79077200  0.90578700  0.59389300  1
  C  C5  1  0.22848800  0.73781700  0.65506200  1
  C  C6  1  0.72848800  0.23781700  0.84493800  1
  C  C7  1  0.29077200  0.40578700  0.90610700  1
  Ni  Ni8  1  0.83144500  0.64014100  0.02597000  1
  Ni  Ni9  1  0.20324900  0.00419100  0.22082000  1
  Ni  Ni10  1  0.70324900  0.50419100  0.27918000  1
  Ni  Ni11  1  0.33144500  0.14014100  0.47403000  1
  Ni  Ni12  1  0.66855500  0.64014100  0.52597000  1
  Ni  Ni13  1  0.29675100  0.00419100  0.72082000  1
  Ni  Ni14  1  0.79675100  0.50419100  0.77918000  1
  Ni  Ni15  1  0.16855500  0.14014100  0.97403000  1
  Cu  Cu16  1  0.80605400  0.37361300  0.01796900  1
  Cu  Cu17  1  0.29771000  0.45375300  0.10739000  1
  Cu  Cu18  1  0.72020200  0.19497600  0.13968000  1
  Cu  Cu19  1  0.21714700  0.27393000  0.23157600  1
  Cu  Cu20  1  0.71714700  0.77393000  0.26842400  1
  Cu  Cu21  1  0.22020200  0.69497600  0.36032000  1
  Cu  Cu22  1  0.79771000  0.95375300  0.39261000  1
  Cu  Cu23  1  0.30605400  0.87361300  0.48203100  1
  Cu  Cu24  1  0.69394600  0.37361300  0.51796900  1
  Cu  Cu25  1  0.20229000  0.45375300  0.60739000  1
  Cu  Cu26  1  0.77979800  0.19497600  0.63968000  1
  Cu  Cu27  1  0.28285300  0.27393000  0.73157600  1
  Cu  Cu28  1  0.78285300  0.77393000  0.76842400  1
  Cu  Cu29  1  0.27979800  0.69497600  0.86032000  1
  Cu  Cu30  1  0.70229000  0.95375300  0.89261000  1
  Cu  Cu31  1  0.19394600  0.87361300  0.98203100  1
  C  C32  1  0.13213400  0.38949700  0.03374100  1
  C  C33  1  0.27218300  0.89603900  0.08929400  1
  C  C34  1  0.73740400  0.24908000  0.03597300  1
  C  C35  1  0.63283100  0.45459500  0.08135100  1
  C  C36  1  0.20845000  0.57447400  0.11858200  1
  C  C37  1  0.82722000  0.07384400  0.12623400  1
  C  C38  1  0.39140400  0.19232100  0.16701400  1
  C  C39  1  0.28660400  0.39911900  0.21145100  1
  C  C40  1  0.77654500  0.75268500  0.16151200  1
  C  C41  1  0.88997400  0.25878600  0.21330300  1
  C  C42  1  0.38997400  0.75878600  0.28669700  1
  C  C43  1  0.27654500  0.25268500  0.33848800  1
  C  C44  1  0.78660400  0.89911900  0.28854900  1
  C  C45  1  0.89140400  0.69232100  0.33298600  1
  C  C46  1  0.32722000  0.57384400  0.37376600  1
  C  C47  1  0.70845000  0.07447400  0.38141800  1
  C  C48  1  0.13283100  0.95459500  0.41864900  1
  C  C49  1  0.23740400  0.74908000  0.46402700  1
  C  C50  1  0.77218300  0.39603900  0.41070600  1
  C  C51  1  0.63213400  0.88949700  0.46625900  1
  C  C52  1  0.36786600  0.38949700  0.53374100  1
  C  C53  1  0.22781700  0.89603900  0.58929400  1
  C  C54  1  0.76259600  0.24908000  0.53597300  1
  C  C55  1  0.86716900  0.45459500  0.58135100  1
  C  C56  1  0.29155000  0.57447400  0.61858200  1
  C  C57  1  0.67278000  0.07384400  0.62623400  1
  C  C58  1  0.10859600  0.19232100  0.66701400  1
  C  C59  1  0.21339600  0.39911900  0.71145100  1
  C  C60  1  0.72345500  0.75268500  0.66151200  1
  C  C61  1  0.61002600  0.25878600  0.71330300  1
  C  C62  1  0.11002600  0.75878600  0.78669700  1
  C  C63  1  0.22345500  0.25268500  0.83848800  1
  C  C64  1  0.71339600  0.89911900  0.78854900  1
  C  C65  1  0.60859600  0.69232100  0.83298600  1
  C  C66  1  0.17278000  0.57384400  0.87376600  1
  C  C67  1  0.79155000  0.07447400  0.88141800  1
  C  C68  1  0.36716900  0.95459500  0.91864900  1
  C  C69  1  0.26259600  0.74908000  0.96402700  1
  C  C70  1  0.72781700  0.39603900  0.91070600  1
  C  C71  1  0.86786600  0.88949700  0.96625900  1
