# generated using pymatgen
data_Cu2Ni2C31
_symmetry_space_group_name_H-M   'P 1'
_cell_length_a   10.04073720
_cell_length_b   10.04073720
_cell_length_c   6.67204523
_cell_angle_alpha   77.05793676
_cell_angle_beta   77.05793676
_cell_angle_gamma   41.12093712
_symmetry_Int_Tables_number   1
_chemical_formula_structural   Cu2Ni2C31
_chemical_formula_sum   'Cu2 Ni2 C31'
_cell_volume   429.52760204
_cell_formula_units_Z   1
loop_
 _symmetry_equiv_pos_site_id
 _symmetry_equiv_pos_as_xyz
  1  'x, y, z'
loop_
 _atom_site_type_symbol
 _atom_site_label
 _atom_site_symmetry_multiplicity
 _atom_site_fract_x
 _atom_site_fract_y
 _atom_site_fract_z
 _atom_site_occupancy
  C  C0  1  0.00000000  0.00000000  0.00000000  1
  C  C1  1  0.81978300  0.04626200  0.68969900  1
  C  C2  1  0.04626200  0.81978300  0.68969900  1
  C  C3  1  0.18021700  0.95373800  0.31030100  1
  C  C4  1  0.95373800  0.18021700  0.31030100  1
  C  C5  1  0.82259600  0.34181800  0.71056100  1
  C  C6  1  0.34181800  0.82259600  0.71056100  1
  C  C7  1  0.17740400  0.65818200  0.28943900  1
  C  C8  1  0.65818200  0.17740400  0.28943900  1
  C  C9  1  0.77655400  0.40271800  0.93790500  1
  C  C10  1  0.40271800  0.77655400  0.93790500  1
  C  C11  1  0.22344600  0.59728200  0.06209500  1
  C  C12  1  0.59728200  0.22344600  0.06209500  1
  Ni  Ni13  1  0.27507500  0.27507500  0.70875100  1
  Ni  Ni14  1  0.72492500  0.72492500  0.29124900  1
  Cu  Cu15  1  0.37674600  0.37674600  0.68507200  1
  Cu  Cu16  1  0.62325400  0.62325400  0.31492800  1
  C  C17  1  0.38391000  0.38391000  0.89968000  1
  C  C18  1  0.61609000  0.61609000  0.10032000  1
  C  C19  1  0.22824400  0.57710900  0.57156400  1
  C  C20  1  0.57710900  0.22824400  0.57156400  1
  C  C21  1  0.77175600  0.42289100  0.42843600  1
  C  C22  1  0.42289100  0.77175600  0.42843600  1
  C  C23  1  0.95157700  0.95157700  0.74658300  1
  C  C24  1  0.04842300  0.04842300  0.25341700  1
  C  C25  1  0.85988900  0.28869900  0.85356300  1
  C  C26  1  0.28869900  0.85988900  0.85356300  1
  C  C27  1  0.14011100  0.71130100  0.14643700  1
  C  C28  1  0.71130100  0.14011100  0.14643700  1
  C  C29  1  0.26240900  0.26240900  0.51707000  1
  C  C30  1  0.73759100  0.73759100  0.48293000  1
  C  C31  1  0.08829600  0.40014600  0.81076900  1
  C  C32  1  0.40014600  0.08829600  0.81076900  1
  C  C33  1  0.91170400  0.59985400  0.18923100  1
  C  C34  1  0.59985400  0.91170400  0.18923100  1
