# generated using pymatgen
data_Cu11NiC5
_symmetry_space_group_name_H-M   'P 1'
_cell_length_a   5.20462300
_cell_length_b   5.50782364
_cell_length_c   17.26767000
_cell_angle_alpha   83.39282066
_cell_angle_beta   81.43936169
_cell_angle_gamma   61.93499928
_symmetry_Int_Tables_number   1
_chemical_formula_structural   Cu11NiC5
_chemical_formula_sum   'Cu22 Ni2 C10'
_cell_volume   431.35111463
_cell_formula_units_Z   2
loop_
 _symmetry_equiv_pos_site_id
 _symmetry_equiv_pos_as_xyz
  1  'x, y, z'
loop_
 _atom_site_type_symbol
 _atom_site_label
 _atom_site_symmetry_multiplicity
 _atom_site_fract_x
 _atom_site_fract_y
 _atom_site_fract_z
 _atom_site_occupancy
  C  C0  1  0.45412600  0.41144400  0.68574400  1
  C  C1  1  0.58999900  0.49769300  0.31370400  1
  C  C2  1  0.37793400  0.37203300  0.87883000  1
  C  C3  1  0.22450300  0.25975300  0.24369500  1
  C  C4  1  0.86966900  0.87073700  0.37517900  1
  C  C5  1  0.00876300  0.99660100  0.00344800  1
  C  C6  1  0.74981100  0.75252700  0.75065000  1
  C  C7  1  0.14203800  0.13732300  0.61892700  1
  C  C8  1  0.48526500  0.49115700  0.50489300  1
  C  C9  1  0.63991300  0.61511400  0.12959900  1
  Ni  Ni10  1  0.84220000  0.47072800  0.21925300  1
  Ni  Ni11  1  0.34093400  0.34522900  0.59397900  1
  Cu  Cu12  1  0.16726700  0.15803300  0.90806500  1
  Cu  Cu13  1  0.56095700  0.19735300  0.43279100  1
  Cu  Cu14  1  0.08254500  0.69188400  0.93374100  1
  Cu  Cu15  1  0.67563000  0.06974600  0.80932800  1
  Cu  Cu16  1  0.65070600  0.64741900  0.40346000  1
  Cu  Cu17  1  0.61186100  0.20847500  0.96583200  1
  Cu  Cu18  1  0.34951600  0.97087600  0.71744500  1
  Cu  Cu19  1  0.07190900  0.09722700  0.34263800  1
  Cu  Cu20  1  0.90167700  0.27208300  0.53250400  1
  Cu  Cu21  1  0.60120200  0.58399100  0.84052300  1
  Cu  Cu22  1  0.80103500  0.44804100  0.68813300  1
  Cu  Cu23  1  0.19348500  0.56181100  0.31341000  1
  Cu  Cu24  1  0.41739400  0.39617800  0.15645700  1
  Cu  Cu25  1  0.08759700  0.71787000  0.46610600  1
  Cu  Cu26  1  0.90822100  0.91958700  0.66281200  1
  Cu  Cu27  1  0.63679100  0.04226200  0.28692500  1
  Cu  Cu28  1  0.40033100  0.78606500  0.03495300  1
  Cu  Cu29  1  0.16835600  0.52335900  0.77784800  1
  Cu  Cu30  1  0.31806400  0.92388400  0.19011500  1
  Cu  Cu31  1  0.93244700  0.31941900  0.05838100  1
  Cu  Cu32  1  0.44402500  0.80109900  0.56338800  1
  Cu  Cu33  1  0.84540600  0.84579900  0.09163900  1
