# generated using pymatgen
data_CuNi2C11
_symmetry_space_group_name_H-M   'P 1'
_cell_length_a   5.45221200
_cell_length_b   5.46354200
_cell_length_c   23.70554438
_cell_angle_alpha   89.96938414
_cell_angle_beta   90.00000000
_cell_angle_gamma   90.00000000
_symmetry_Int_Tables_number   1
_chemical_formula_structural   CuNi2C11
_chemical_formula_sum   'Cu4 Ni8 C44'
_cell_volume   706.14988281
_cell_formula_units_Z   4
loop_
 _symmetry_equiv_pos_site_id
 _symmetry_equiv_pos_as_xyz
  1  'x, y, z'
loop_
 _atom_site_type_symbol
 _atom_site_label
 _atom_site_symmetry_multiplicity
 _atom_site_fract_x
 _atom_site_fract_y
 _atom_site_fract_z
 _atom_site_occupancy
  C  C0  1  0.99021400  0.24262300  0.33326800  1
  C  C1  1  0.49021400  0.75737700  0.66673200  1
  C  C2  1  0.50299900  0.75053300  0.16390800  1
  C  C3  1  0.50899100  0.75011500  0.49856200  1
  C  C4  1  0.50433800  0.75426900  0.83613200  1
  C  C5  1  0.00433800  0.24573100  0.16386800  1
  C  C6  1  0.00299900  0.24946700  0.83609200  1
  C  C7  1  0.00899100  0.24988500  0.50143800  1
  Ni  Ni8  1  0.50185600  0.24907300  0.92373300  1
  Ni  Ni9  1  0.50228600  0.24870300  0.07601700  1
  Ni  Ni10  1  0.49884400  0.25071300  0.41233000  1
  Ni  Ni11  1  0.49894500  0.25060000  0.74718900  1
  Ni  Ni12  1  0.00228600  0.75129700  0.92398300  1
  Ni  Ni13  1  0.99884400  0.74928700  0.58767000  1
  Ni  Ni14  1  0.99894500  0.74940000  0.25281100  1
  Ni  Ni15  1  0.00185600  0.75092700  0.07626700  1
  Cu  Cu16  1  0.49746300  0.25036900  0.25278300  1
  Cu  Cu17  1  0.49974700  0.24959700  0.58490600  1
  Cu  Cu18  1  0.99974700  0.75040300  0.41509400  1
  Cu  Cu19  1  0.99746300  0.74963100  0.74721700  1
  C  C20  1  0.50176800  0.27444700  0.00002300  1
  C  C21  1  0.50314400  0.29142100  0.33530200  1
  C  C22  1  0.50458300  0.29586300  0.66177800  1
  C  C23  1  0.24986600  0.00118500  0.91004000  1
  C  C24  1  0.25111600  0.99945800  0.09011800  1
  C  C25  1  0.22409700  0.03189000  0.25856600  1
  C  C26  1  0.22164900  0.03332900  0.41312900  1
  C  C27  1  0.24431900  0.00479700  0.58616800  1
  C  C28  1  0.24376900  0.00155300  0.73994400  1
  C  C29  1  0.75111600  0.00054200  0.90988200  1
  C  C30  1  0.74986600  0.99881500  0.08996000  1
  C  C31  1  0.74376900  0.99844700  0.26005600  1
  C  C32  1  0.74431900  0.99520300  0.41383200  1
  C  C33  1  0.72164900  0.96667100  0.58687100  1
  C  C34  1  0.72409700  0.96811000  0.74143400  1
  C  C35  1  0.00176800  0.72555300  0.99997700  1
  C  C36  1  0.00458300  0.70413700  0.33822200  1
  C  C37  1  0.00314400  0.70857900  0.66469800  1
  C  C38  1  0.99767700  0.78701000  0.17284600  1
  C  C39  1  0.99792100  0.79200400  0.82630100  1
  C  C40  1  0.99708400  0.79834600  0.49840600  1
  C  C41  1  0.25235400  0.50063300  0.09825400  1
  C  C42  1  0.27078800  0.52255700  0.75493900  1
  C  C43  1  0.25575100  0.51379000  0.43040800  1
  C  C44  1  0.26723200  0.51689100  0.57093100  1
  C  C45  1  0.26265200  0.51020300  0.24377400  1
  C  C46  1  0.25142300  0.50119800  0.90172000  1
  C  C47  1  0.75142300  0.49880200  0.09828000  1
  C  C48  1  0.76265200  0.48979700  0.75622600  1
  C  C49  1  0.76723200  0.48310900  0.42906900  1
  C  C50  1  0.77078800  0.47744300  0.24506100  1
  C  C51  1  0.75575100  0.48621000  0.56959200  1
  C  C52  1  0.75235400  0.49936700  0.90174600  1
  C  C53  1  0.49792100  0.20799600  0.17369900  1
  C  C54  1  0.49708400  0.20165400  0.50159400  1
  C  C55  1  0.49767700  0.21299000  0.82715400  1
