# generated using pymatgen
data_Cu(NiC6)5
_symmetry_space_group_name_H-M   'P 1'
_cell_length_a   8.58513904
_cell_length_b   8.58513904
_cell_length_c   8.58513926
_cell_angle_alpha   59.83477390
_cell_angle_beta   59.83477390
_cell_angle_gamma   59.83477647
_symmetry_Int_Tables_number   1
_chemical_formula_structural   Cu(NiC6)5
_chemical_formula_sum   'Cu1 Ni5 C30'
_cell_volume   445.75412550
_cell_formula_units_Z   1
loop_
 _symmetry_equiv_pos_site_id
 _symmetry_equiv_pos_as_xyz
  1  'x, y, z'
loop_
 _atom_site_type_symbol
 _atom_site_label
 _atom_site_symmetry_multiplicity
 _atom_site_fract_x
 _atom_site_fract_y
 _atom_site_fract_z
 _atom_site_occupancy
  Ni  Ni0  1  0.00350700  0.00350700  0.00350700  1
  Ni  Ni1  1  0.64313400  0.64313400  0.64313400  1
  Ni  Ni2  1  0.50075500  0.50075500  0.50075500  1
  Ni  Ni3  1  0.85688900  0.85688900  0.85688900  1
  Ni  Ni4  1  0.35629100  0.35629100  0.35629100  1
  Cu  Cu5  1  0.14286700  0.14286700  0.14286700  1
  C  C6  1  0.96015000  0.24905000  0.54053700  1
  C  C7  1  0.54053700  0.96015000  0.24905000  1
  C  C8  1  0.24905000  0.54053700  0.96015000  1
  C  C9  1  0.74850700  0.46048900  0.03709700  1
  C  C10  1  0.46048900  0.03709700  0.74850700  1
  C  C11  1  0.03709700  0.74850700  0.46048900  1
  C  C12  1  0.51128100  0.12213400  0.30259300  1
  C  C13  1  0.30259300  0.51128100  0.12213400  1
  C  C14  1  0.12213400  0.30259300  0.51128100  1
  C  C15  1  0.94269600  0.08400500  0.74137600  1
  C  C16  1  0.98360600  0.19628600  0.38696700  1
  C  C17  1  0.76243100  0.41924600  0.56242000  1
  C  C18  1  0.74137600  0.94269600  0.08400500  1
  C  C19  1  0.56242000  0.76243100  0.41924600  1
  C  C20  1  0.80269300  0.62108500  0.00890900  1
  C  C21  1  0.41924600  0.56242000  0.76243100  1
  C  C22  1  0.90802300  0.26554900  0.05477000  1
  C  C23  1  0.62108500  0.00890900  0.80269300  1
  C  C24  1  0.38696700  0.98360600  0.19628600  1
  C  C25  1  0.08400500  0.74137600  0.94269600  1
  C  C26  1  0.57714300  0.44950200  0.23382600  1
  C  C27  1  0.19628600  0.38696700  0.98360600  1
  C  C28  1  0.44950200  0.23382600  0.57714300  1
  C  C29  1  0.26554900  0.05477000  0.90802300  1
  C  C30  1  0.23382600  0.57714300  0.44950200  1
  C  C31  1  0.00890900  0.80269300  0.62108500  1
  C  C32  1  0.05477000  0.90802300  0.26554900  1
  C  C33  1  0.87562200  0.68971600  0.49884600  1
  C  C34  1  0.68971600  0.49884600  0.87562200  1
  C  C35  1  0.49884600  0.87562200  0.68971600  1
