# generated using pymatgen
data_Cu38NiC36
_symmetry_space_group_name_H-M   'P 1'
_cell_length_a   9.95476382
_cell_length_b   9.95476382
_cell_length_c   9.95476382
_cell_angle_alpha   60.00000000
_cell_angle_beta   60.00000000
_cell_angle_gamma   60.00000000
_symmetry_Int_Tables_number   1
_chemical_formula_structural   Cu38NiC36
_chemical_formula_sum   'Cu38 Ni1 C36'
_cell_volume   697.55408101
_cell_formula_units_Z   1
loop_
 _symmetry_equiv_pos_site_id
 _symmetry_equiv_pos_as_xyz
  1  'x, y, z'
loop_
 _atom_site_type_symbol
 _atom_site_label
 _atom_site_symmetry_multiplicity
 _atom_site_fract_x
 _atom_site_fract_y
 _atom_site_fract_z
 _atom_site_occupancy
  C  C0  1  0.76570000  0.40641800  0.06218200  1
  C  C1  1  0.40641800  0.76570000  0.06218200  1
  C  C2  1  0.76570000  0.76570000  0.06218200  1
  C  C3  1  0.76570000  0.76570000  0.40641800  1
  C  C4  1  0.76570000  0.40641800  0.76570000  1
  C  C5  1  0.76570000  0.06218200  0.40641800  1
  C  C6  1  0.75000000  0.75000000  0.75000000  1
  C  C7  1  0.40641800  0.76570000  0.76570000  1
  C  C8  1  0.40641800  0.06218200  0.76570000  1
  C  C9  1  0.76570000  0.06218200  0.76570000  1
  C  C10  1  0.06218200  0.76570000  0.40641800  1
  C  C11  1  0.06218200  0.40641800  0.76570000  1
  C  C12  1  0.06218200  0.76570000  0.76570000  1
  C  C13  1  0.11329500  0.11329500  0.11329500  1
  C  C14  1  0.66011600  0.11329500  0.11329500  1
  C  C15  1  0.25000000  0.25000000  0.25000000  1
  C  C16  1  0.11329500  0.11329500  0.66011600  1
  C  C17  1  0.11329500  0.66011600  0.11329500  1
  C  C18  1  0.48018400  0.48018400  0.13024600  1
  C  C19  1  0.90938600  0.48018400  0.13024600  1
  C  C20  1  0.65186900  0.34813100  0.34813100  1
  C  C21  1  0.48018400  0.90938600  0.13024600  1
  C  C22  1  0.65186900  0.34813100  0.65186900  1
  C  C23  1  0.34813100  0.65186900  0.34813100  1
  C  C24  1  0.65186900  0.65186900  0.34813100  1
  C  C25  1  0.90938600  0.48018400  0.48018400  1
  C  C26  1  0.34813100  0.65186900  0.65186900  1
  C  C27  1  0.48018400  0.48018400  0.90938600  1
  C  C28  1  0.48018400  0.90938600  0.48018400  1
  C  C29  1  0.48018400  0.13024600  0.48018400  1
  C  C30  1  0.90938600  0.13024600  0.48018400  1
  C  C31  1  0.48018400  0.13024600  0.90938600  1
  C  C32  1  0.34813100  0.34813100  0.65186900  1
  C  C33  1  0.13024600  0.48018400  0.48018400  1
  C  C34  1  0.13024600  0.90938600  0.48018400  1
  C  C35  1  0.13024600  0.48018400  0.90938600  1
  Ni  Ni36  1  0.50000000  0.50000000  0.50000000  1
  Cu  Cu37  1  0.72222100  0.27777900  0.27777900  1
  Cu  Cu38  1  0.54477300  0.54477300  0.09953800  1
  Cu  Cu39  1  0.81091500  0.54477300  0.09953800  1
  Cu  Cu40  1  0.54477300  0.81091500  0.09953800  1
  Cu  Cu41  1  0.27777900  0.72222100  0.27777900  1
  Cu  Cu42  1  0.72222100  0.72222100  0.27777900  1
  Cu  Cu43  1  0.72222100  0.27777900  0.72222100  1
  Cu  Cu44  1  0.27529600  0.00199300  0.00199300  1
  Cu  Cu45  1  0.72071800  0.00199300  0.00199300  1
  Cu  Cu46  1  0.81091500  0.54477300  0.54477300  1
  Cu  Cu47  1  0.00199300  0.00199300  0.27529600  1
  Cu  Cu48  1  0.00199300  0.27529600  0.00199300  1
  Cu  Cu49  1  0.72071800  0.00199300  0.27529600  1
  Cu  Cu50  1  0.72071800  0.27529600  0.00199300  1
  Cu  Cu51  1  0.82473200  0.82473200  0.52580500  1
  Cu  Cu52  1  0.82473200  0.52580500  0.82473200  1
  Cu  Cu53  1  0.54477300  0.54477300  0.81091500  1
  Cu  Cu54  1  0.54477300  0.81091500  0.54477300  1
  Cu  Cu55  1  0.18268100  0.18268100  0.18268100  1
  Cu  Cu56  1  0.45195800  0.18268100  0.18268100  1
  Cu  Cu57  1  0.27777900  0.72222100  0.72222100  1
  Cu  Cu58  1  0.18268100  0.45195800  0.18268100  1
  Cu  Cu59  1  0.18268100  0.18268100  0.45195800  1
  Cu  Cu60  1  0.54477300  0.09953800  0.54477300  1
  Cu  Cu61  1  0.81091500  0.09953800  0.54477300  1
  Cu  Cu62  1  0.52580500  0.82473200  0.82473200  1
  Cu  Cu63  1  0.82473200  0.82473200  0.82473200  1
  Cu  Cu64  1  0.27529600  0.72071800  0.00199300  1
  Cu  Cu65  1  0.00199300  0.00199300  0.72071800  1
  Cu  Cu66  1  0.27529600  0.00199300  0.72071800  1
  Cu  Cu67  1  0.00199300  0.72071800  0.00199300  1
  Cu  Cu68  1  0.54477300  0.09953800  0.81091500  1
  Cu  Cu69  1  0.00199300  0.27529600  0.72071800  1
  Cu  Cu70  1  0.00199300  0.72071800  0.27529600  1
  Cu  Cu71  1  0.27777900  0.27777900  0.72222100  1
  Cu  Cu72  1  0.09953800  0.54477300  0.54477300  1
  Cu  Cu73  1  0.09953800  0.81091500  0.54477300  1
  Cu  Cu74  1  0.09953800  0.54477300  0.81091500  1
