# generated using pymatgen
data_CuNi7C40
_symmetry_space_group_name_H-M   'P 1'
_cell_length_a   5.24025500
_cell_length_b   6.07597432
_cell_length_c   16.32310456
_cell_angle_alpha   82.34717431
_cell_angle_beta   88.85182109
_cell_angle_gamma   89.23658996
_symmetry_Int_Tables_number   1
_chemical_formula_structural   CuNi7C40
_chemical_formula_sum   'Cu1 Ni7 C40'
_cell_volume   514.95974808
_cell_formula_units_Z   1
loop_
 _symmetry_equiv_pos_site_id
 _symmetry_equiv_pos_as_xyz
  1  'x, y, z'
loop_
 _atom_site_type_symbol
 _atom_site_label
 _atom_site_symmetry_multiplicity
 _atom_site_fract_x
 _atom_site_fract_y
 _atom_site_fract_z
 _atom_site_occupancy
  C  C0  1  0.84666000  0.06372800  0.38937500  1
  C  C1  1  0.15161900  0.43545200  0.10957600  1
  C  C2  1  0.65159500  0.18683000  0.85948100  1
  C  C3  1  0.34842200  0.31316800  0.64085700  1
  C  C4  1  0.65154000  0.68866200  0.35799900  1
  C  C5  1  0.34824600  0.81233900  0.14122700  1
  C  C6  1  0.84777300  0.56376500  0.89141600  1
  C  C7  1  0.15141700  0.93645300  0.60920300  1
  Ni  Ni8  1  0.66841100  0.27167500  0.04148800  1
  Ni  Ni9  1  0.16784900  0.02401700  0.79028200  1
  Ni  Ni10  1  0.33208700  0.22693300  0.45996500  1
  Ni  Ni11  1  0.16642700  0.52225700  0.29026600  1
  Ni  Ni12  1  0.83196000  0.47550700  0.70975700  1
  Ni  Ni13  1  0.66789200  0.77410000  0.54009500  1
  Ni  Ni14  1  0.33197400  0.72511800  0.95986800  1
  Cu  Cu15  1  0.83961300  0.97627600  0.20865400  1
  C  C16  1  0.32904700  0.03775800  0.29658800  1
  C  C17  1  0.82956900  0.28538400  0.54775000  1
  C  C18  1  0.67071400  0.46273400  0.20270600  1
  C  C19  1  0.17044100  0.21467200  0.95239400  1
  C  C20  1  0.83077500  0.78495200  0.04920300  1
  C  C21  1  0.32987600  0.53529200  0.79794800  1
  C  C22  1  0.16932900  0.71559700  0.45170000  1
  C  C23  1  0.67006200  0.96466500  0.70209500  1
  C  C24  1  0.58942300  0.01215700  0.30782700  1
  C  C25  1  0.18412900  0.16920100  0.34459900  1
  C  C26  1  0.71306100  0.16961600  0.49106000  1
  C  C27  1  0.28872300  0.33023400  0.00861700  1
  C  C28  1  0.78725700  0.08100900  0.75838900  1
  C  C29  1  0.81872900  0.32722400  0.15642900  1
  C  C30  1  0.31791100  0.07974100  0.90577100  1
  C  C31  1  0.08983400  0.26283600  0.56139300  1
  C  C32  1  0.41021100  0.48676300  0.18898600  1
  C  C33  1  0.90993700  0.23762300  0.93938600  1
  C  C34  1  0.68120700  0.41987000  0.59405200  1
  C  C35  1  0.21285800  0.41931200  0.74152200  1
  C  C36  1  0.78753000  0.57841400  0.25917300  1
  C  C37  1  0.31800500  0.58102500  0.40523300  1
  C  C38  1  0.09138400  0.76283000  0.06156500  1
  C  C39  1  0.58979000  0.51323000  0.81143100  1
  C  C40  1  0.90961900  0.73806100  0.43833000  1
  C  C41  1  0.68345500  0.91866400  0.09720200  1
  C  C42  1  0.18099300  0.67018600  0.84422100  1
  C  C43  1  0.20514200  0.92583900  0.23975200  1
  C  C44  1  0.71191300  0.67200200  0.99219200  1
  C  C45  1  0.28702400  0.83040200  0.50845100  1
  C  C46  1  0.81847200  0.82950600  0.65583600  1
  C  C47  1  0.41009400  0.98692300  0.68869300  1
