# generated using pymatgen
data_Cu(NiC)2
_symmetry_space_group_name_H-M   'P 1'
_cell_length_a   9.61810066
_cell_length_b   9.61810066
_cell_length_c   5.88464355
_cell_angle_alpha   74.17728958
_cell_angle_beta   74.17728958
_cell_angle_gamma   119.90248273
_symmetry_Int_Tables_number   1
_chemical_formula_structural   Cu(NiC)2
_chemical_formula_sum   'Cu6 Ni12 C12'
_cell_volume   395.80975646
_cell_formula_units_Z   6
loop_
 _symmetry_equiv_pos_site_id
 _symmetry_equiv_pos_as_xyz
  1  'x, y, z'
loop_
 _atom_site_type_symbol
 _atom_site_label
 _atom_site_symmetry_multiplicity
 _atom_site_fract_x
 _atom_site_fract_y
 _atom_site_fract_z
 _atom_site_occupancy
  C  C0  1  0.52293300  0.68639300  0.93922200  1
  C  C1  1  0.31360700  0.47706700  0.56077800  1
  C  C2  1  0.02941800  0.19247300  0.41321200  1
  C  C3  1  0.80752700  0.97058200  0.08678800  1
  C  C4  1  0.35854200  0.85914100  0.42599900  1
  C  C5  1  0.64145800  0.14085900  0.57400100  1
  C  C6  1  0.19247300  0.02941800  0.91321200  1
  C  C7  1  0.47706700  0.31360700  0.06077800  1
  C  C8  1  0.14085900  0.64145800  0.07400100  1
  C  C9  1  0.85914100  0.35854200  0.92599900  1
  C  C10  1  0.97058200  0.80752700  0.58678800  1
  C  C11  1  0.68639300  0.52293300  0.43922200  1
  Ni  Ni12  1  0.31666600  0.68333400  0.25000000  1
  Ni  Ni13  1  0.95059600  0.35096300  0.24836200  1
  Ni  Ni14  1  0.64903700  0.04940400  0.25163800  1
  Ni  Ni15  1  0.35096300  0.95059600  0.74836200  1
  Ni  Ni16  1  0.68333400  0.31666600  0.75000000  1
  Ni  Ni17  1  0.31854100  0.38602900  0.24451000  1
  Ni  Ni18  1  0.68145900  0.61397100  0.75549000  1
  Ni  Ni19  1  0.38602900  0.31854100  0.74451000  1
  Ni  Ni20  1  0.04940400  0.64903700  0.75163800  1
  Ni  Ni21  1  0.98619800  0.01380200  0.25000000  1
  Ni  Ni22  1  0.61397100  0.68145900  0.25549000  1
  Ni  Ni23  1  0.01380200  0.98619800  0.75000000  1
  Cu  Cu24  1  0.71633700  0.98448000  0.75301200  1
  Cu  Cu25  1  0.35154200  0.64845800  0.75000000  1
  Cu  Cu26  1  0.28366300  0.01552000  0.24698800  1
  Cu  Cu27  1  0.01552000  0.28366300  0.74698800  1
  Cu  Cu28  1  0.64845800  0.35154200  0.25000000  1
  Cu  Cu29  1  0.98448000  0.71633700  0.25301200  1
