# generated using pymatgen
data_Cu12NiC5
_symmetry_space_group_name_H-M   'P 1'
_cell_length_a   7.12645400
_cell_length_b   10.86858900
_cell_length_c   15.96590100
_cell_angle_alpha   90.00000000
_cell_angle_beta   90.00000000
_cell_angle_gamma   90.00000000
_symmetry_Int_Tables_number   1
_chemical_formula_structural   Cu12NiC5
_chemical_formula_sum   'Cu48 Ni4 C20'
_cell_volume   1236.63087187
_cell_formula_units_Z   4
loop_
 _symmetry_equiv_pos_site_id
 _symmetry_equiv_pos_as_xyz
  1  'x, y, z'
loop_
 _atom_site_type_symbol
 _atom_site_label
 _atom_site_symmetry_multiplicity
 _atom_site_fract_x
 _atom_site_fract_y
 _atom_site_fract_z
 _atom_site_occupancy
  C  C0  1  0.83751200  0.53351600  0.90365700  1
  C  C1  1  0.66248800  0.46648400  0.40365700  1
  C  C2  1  0.33751200  0.96648400  0.09634300  1
  C  C3  1  0.16248800  0.03351600  0.59634300  1
  C  C4  1  0.85930700  0.62587600  0.16896100  1
  C  C5  1  0.64069300  0.37412400  0.66896100  1
  C  C6  1  0.35930700  0.87412400  0.83103900  1
  C  C7  1  0.14069300  0.12587600  0.33103900  1
  C  C8  1  0.99241600  0.77130000  0.42895200  1
  C  C9  1  0.50758400  0.22870000  0.92895200  1
  C  C10  1  0.49241600  0.72870000  0.57104800  1
  C  C11  1  0.00758400  0.27130000  0.07104800  1
  C  C12  1  0.84309000  0.86999300  0.96548300  1
  C  C13  1  0.65691000  0.13000700  0.46548300  1
  C  C14  1  0.34309000  0.63000700  0.03451700  1
  C  C15  1  0.15691000  0.36999300  0.53451700  1
  C  C16  1  0.48034000  0.82436900  0.32173100  1
  C  C17  1  0.01966000  0.17563100  0.82173100  1
  C  C18  1  0.98034000  0.67563100  0.67826900  1
  C  C19  1  0.51966000  0.32436900  0.17826900  1
  Ni  Ni20  1  0.82754600  0.96362800  0.17308200  1
  Ni  Ni21  1  0.67245400  0.03637200  0.67308200  1
  Ni  Ni22  1  0.32754600  0.53637200  0.82691800  1
  Ni  Ni23  1  0.17245400  0.46362800  0.32691800  1
  Cu  Cu24  1  0.46773800  0.56583600  0.54811200  1
  Cu  Cu25  1  0.03226200  0.43416400  0.04811200  1
  Cu  Cu26  1  0.96773800  0.93416400  0.45188800  1
  Cu  Cu27  1  0.53226200  0.06583600  0.95188800  1
  Cu  Cu28  1  0.74449500  0.72185500  0.41325600  1
  Cu  Cu29  1  0.75550500  0.27814500  0.91325600  1
  Cu  Cu30  1  0.24449500  0.77814500  0.58674400  1
  Cu  Cu31  1  0.25550500  0.22185500  0.08674400  1
  Cu  Cu32  1  0.01228900  0.77475800  0.31201300  1
  Cu  Cu33  1  0.48771100  0.22524200  0.81201300  1
  Cu  Cu34  1  0.51228900  0.72524200  0.68798700  1
  Cu  Cu35  1  0.98771100  0.27475800  0.18798700  1
  Cu  Cu36  1  0.95988800  0.73578200  0.01093000  1
  Cu  Cu37  1  0.54011200  0.26421800  0.51093000  1
  Cu  Cu38  1  0.45988800  0.76421800  0.98907000  1
  Cu  Cu39  1  0.04011200  0.23578200  0.48907000  1
  Cu  Cu40  1  0.75958500  0.80483300  0.86532000  1
  Cu  Cu41  1  0.74041500  0.19516700  0.36532000  1
  Cu  Cu42  1  0.25958500  0.69516700  0.13468000  1
  Cu  Cu43  1  0.24041500  0.30483300  0.63468000  1
  Cu  Cu44  1  0.46099200  0.03486100  0.43083500  1
  Cu  Cu45  1  0.03900800  0.96513900  0.93083500  1
  Cu  Cu46  1  0.96099200  0.46513900  0.56916500  1
  Cu  Cu47  1  0.53900800  0.53486100  0.06916500  1
  Cu  Cu48  1  0.78812100  0.59479100  0.73201000  1
  Cu  Cu49  1  0.71187900  0.40520900  0.23201000  1
  Cu  Cu50  1  0.28812100  0.90520900  0.26799000  1
  Cu  Cu51  1  0.21187900  0.09479100  0.76799000  1
  Cu  Cu52  1  0.00450900  0.81627500  0.74065900  1
  Cu  Cu53  1  0.49549100  0.18372500  0.24065900  1
  Cu  Cu54  1  0.50450900  0.68372500  0.25934100  1
  Cu  Cu55  1  0.99549100  0.31627500  0.75934100  1
  Cu  Cu56  1  0.84786800  0.73583700  0.58748700  1
  Cu  Cu57  1  0.65213200  0.26416300  0.08748700  1
  Cu  Cu58  1  0.34786800  0.76416300  0.41251300  1
  Cu  Cu59  1  0.15213200  0.23583700  0.91251300  1
  Cu  Cu60  1  0.69144100  0.89060400  0.16022400  1
  Cu  Cu61  1  0.80855900  0.10939600  0.66022400  1
  Cu  Cu62  1  0.19144100  0.60939600  0.83977600  1
  Cu  Cu63  1  0.30855900  0.39060400  0.33977600  1
  Cu  Cu64  1  0.93438400  0.99114700  0.11030000  1
  Cu  Cu65  1  0.56561600  0.00885300  0.61030000  1
  Cu  Cu66  1  0.43438400  0.50885300  0.88970000  1
  Cu  Cu67  1  0.06561600  0.49114700  0.38970000  1
  Cu  Cu68  1  0.85953900  0.00735700  0.24289900  1
  Cu  Cu69  1  0.64046100  0.99264300  0.74289900  1
  Cu  Cu70  1  0.35953900  0.49264300  0.75710100  1
  Cu  Cu71  1  0.14046100  0.50735700  0.25710100  1
