# generated using pymatgen
data_CuNiC5
_symmetry_space_group_name_H-M   'P 1'
_cell_length_a   9.28484700
_cell_length_b   10.79013763
_cell_length_c   13.45005268
_cell_angle_alpha   78.29644391
_cell_angle_beta   76.87353772
_cell_angle_gamma   71.21904356
_symmetry_Int_Tables_number   1
_chemical_formula_structural   CuNiC5
_chemical_formula_sum   'Cu6 Ni6 C30'
_cell_volume   1230.05141667
_cell_formula_units_Z   6
loop_
 _symmetry_equiv_pos_site_id
 _symmetry_equiv_pos_as_xyz
  1  'x, y, z'
loop_
 _atom_site_type_symbol
 _atom_site_label
 _atom_site_symmetry_multiplicity
 _atom_site_fract_x
 _atom_site_fract_y
 _atom_site_fract_z
 _atom_site_occupancy
  Ni  Ni0  1  0.22710800  0.19309200  0.55768200  1
  Ni  Ni1  1  0.27654500  0.49876000  0.23064900  1
  Ni  Ni2  1  0.74716000  0.15311300  0.06279300  1
  Ni  Ni3  1  0.25284000  0.84688700  0.93720700  1
  Ni  Ni4  1  0.72345500  0.50124000  0.76935100  1
  Ni  Ni5  1  0.77289200  0.80690800  0.44231800  1
  Cu  Cu6  1  0.21640600  0.34985800  0.92196200  1
  Cu  Cu7  1  0.25332300  0.66576300  0.57304100  1
  Cu  Cu8  1  0.28038700  0.97683500  0.25508000  1
  Cu  Cu9  1  0.71961300  0.02316500  0.74492000  1
  Cu  Cu10  1  0.74667700  0.33423700  0.42695900  1
  Cu  Cu11  1  0.78359400  0.65014200  0.07803800  1
  C  C12  1  0.01067400  0.10947600  0.39303900  1
  C  C13  1  0.01713700  0.39350900  0.11685600  1
  C  C14  1  0.34734500  0.11949700  0.05664500  1
  C  C15  1  0.34168800  0.19618800  0.29696000  1
  C  C16  1  0.97845600  0.28215100  0.87699100  1
  C  C17  1  0.99790000  0.56285100  0.60342200  1
  C  C18  1  0.03537700  0.00362100  0.15417500  1
  C  C19  1  0.14710100  0.75024300  0.36954700  1
  C  C20  1  0.36120900  0.09829500  0.78953100  1
  C  C21  1  0.38460400  0.42811600  0.45615700  1
  C  C22  1  0.40566500  0.75076800  0.13380000  1
  C  C23  1  0.33187400  0.43348800  0.71499100  1
  C  C24  1  0.66826800  0.47442800  0.01853900  1
  C  C25  1  0.68120000  0.24069800  0.27366000  1
  C  C26  1  0.61123800  0.10901600  0.54257900  1
  C  C27  1  0.38876200  0.89098400  0.45742100  1
  C  C28  1  0.31880000  0.75930200  0.72634000  1
  C  C29  1  0.33173200  0.52557200  0.98146100  1
  C  C30  1  0.66812600  0.56651200  0.28500900  1
  C  C31  1  0.59433500  0.24923200  0.86620000  1
  C  C32  1  0.61539600  0.57188400  0.54384300  1
  C  C33  1  0.63879100  0.90170500  0.21046900  1
  C  C34  1  0.85289900  0.24975700  0.63045300  1
  C  C35  1  0.96462300  0.99637900  0.84582500  1
  C  C36  1  0.00210000  0.43714900  0.39657800  1
  C  C37  1  0.02154400  0.71784900  0.12300900  1
  C  C38  1  0.65831200  0.80381200  0.70304000  1
  C  C39  1  0.65265500  0.88050300  0.94335500  1
  C  C40  1  0.98286300  0.60649100  0.88314400  1
  C  C41  1  0.98932600  0.89052400  0.60696100  1
