# generated using pymatgen
data_Cu4NiC12
_symmetry_space_group_name_H-M   'P 1'
_cell_length_a   12.90625200
_cell_length_b   12.75455500
_cell_length_c   16.81156713
_cell_angle_alpha   49.48878725
_cell_angle_beta   90.00000000
_cell_angle_gamma   90.00000000
_symmetry_Int_Tables_number   1
_chemical_formula_structural   Cu4NiC12
_chemical_formula_sum   'Cu32 Ni8 C96'
_cell_volume   2104.00400586
_cell_formula_units_Z   8
loop_
 _symmetry_equiv_pos_site_id
 _symmetry_equiv_pos_as_xyz
  1  'x, y, z'
loop_
 _atom_site_type_symbol
 _atom_site_label
 _atom_site_symmetry_multiplicity
 _atom_site_fract_x
 _atom_site_fract_y
 _atom_site_fract_z
 _atom_site_occupancy
  C  C0  1  0.76372400  0.04318200  0.62332000  1
  C  C1  1  0.73627600  0.04318200  0.12332000  1
  C  C2  1  0.23627600  0.95681800  0.37668000  1
  C  C3  1  0.26372400  0.95681800  0.87668000  1
  C  C4  1  0.61956500  0.67381200  0.06727200  1
  C  C5  1  0.88043500  0.67381200  0.56727200  1
  C  C6  1  0.38043500  0.32618800  0.93272800  1
  C  C7  1  0.11956500  0.32618800  0.43272800  1
  C  C8  1  0.97702300  0.69424300  0.09680000  1
  C  C9  1  0.52297700  0.69424300  0.59680000  1
  C  C10  1  0.02297700  0.30575700  0.90320000  1
  C  C11  1  0.47702300  0.30575700  0.40320000  1
  Ni  Ni12  1  0.74685400  0.53565200  0.36302900  1
  Ni  Ni13  1  0.75314600  0.53565200  0.86302900  1
  Ni  Ni14  1  0.25314600  0.46434800  0.63697100  1
  Ni  Ni15  1  0.24685400  0.46434800  0.13697100  1
  Ni  Ni16  1  0.75848800  0.03761800  0.87436300  1
  Ni  Ni17  1  0.74151200  0.03761800  0.37436300  1
  Ni  Ni18  1  0.24151200  0.96238200  0.12563700  1
  Ni  Ni19  1  0.25848800  0.96238200  0.62563700  1
  C  C20  1  0.50755500  0.91434900  0.68065300  1
  C  C21  1  0.99244500  0.91434900  0.18065300  1
  C  C22  1  0.49244500  0.08565100  0.31934700  1
  C  C23  1  0.00755500  0.08565100  0.81934700  1
  C  C24  1  0.59307000  0.80804800  0.75510900  1
  C  C25  1  0.90693000  0.80804800  0.25510900  1
  C  C26  1  0.40693000  0.19195200  0.24489100  1
  C  C27  1  0.09307000  0.19195200  0.74489100  1
  C  C28  1  0.00431300  0.90940900  0.67215500  1
  C  C29  1  0.49568700  0.90940900  0.17215500  1
  C  C30  1  0.99568700  0.09059100  0.32784500  1
  C  C31  1  0.50431300  0.09059100  0.82784500  1
  C  C32  1  0.93298400  0.79398100  0.76962100  1
  C  C33  1  0.56701600  0.79398100  0.26962100  1
  C  C34  1  0.06701600  0.20601900  0.23037900  1
  C  C35  1  0.43298400  0.20601900  0.73037900  1
  C  C36  1  0.41899400  0.71184900  0.93996100  1
  C  C37  1  0.08100600  0.71184900  0.43996100  1
  C  C38  1  0.58100600  0.28815100  0.06003900  1
  C  C39  1  0.91899400  0.28815100  0.56003900  1
  C  C40  1  0.48665600  0.84023900  0.85337800  1
  C  C41  1  0.01334400  0.84023900  0.35337800  1
  C  C42  1  0.51334400  0.15976100  0.14662200  1
  C  C43  1  0.98665600  0.15976100  0.64662200  1
  C  C44  1  0.09936900  0.73381100  0.91314300  1
  C  C45  1  0.40063100  0.73381100  0.41314300  1
  C  C46  1  0.90063100  0.26618900  0.08685700  1
  C  C47  1  0.59936900  0.26618900  0.58685700  1
  C  C48  1  0.02760400  0.85995000  0.83990300  1
  C  C49  1  0.47239600  0.85995000  0.33990300  1
  C  C50  1  0.97239600  0.14005000  0.16009700  1
  C  C51  1  0.52760400  0.14005000  0.66009700  1
  C  C52  1  0.49475900  0.40098900  0.16439400  1
  C  C53  1  0.00524100  0.40098900  0.66439400  1
  C  C54  1  0.50524100  0.59901100  0.83560600  1
  C  C55  1  0.99475900  0.59901100  0.33560600  1
  C  C56  1  0.60368500  0.32693200  0.21746600  1
  C  C57  1  0.89631500  0.32693200  0.71746600  1
  C  C58  1  0.39631500  0.67306800  0.78253400  1
  C  C59  1  0.10368500  0.67306800  0.28253400  1
  C  C60  1  0.99204300  0.36348100  0.24247100  1
  C  C61  1  0.50795700  0.36348100  0.74247100  1
  C  C62  1  0.00795700  0.63651900  0.75752900  1
  C  C63  1  0.49204300  0.63651900  0.25752900  1
  C  C64  1  0.90170400  0.35441500  0.31253700  1
  C  C65  1  0.59829600  0.35441500  0.81253700  1
  C  C66  1  0.09829600  0.64558500  0.68746300  1
  C  C67  1  0.40170400  0.64558500  0.18746300  1
  C  C68  1  0.82635700  0.54712900  0.04118200  1
  C  C69  1  0.67364300  0.54712900  0.54118200  1
  C  C70  1  0.17364300  0.45287100  0.95881800  1
  C  C71  1  0.32635700  0.45287100  0.45881800  1
  C  C72  1  0.79834900  0.43750700  0.15901800  1
  C  C73  1  0.70165100  0.43750700  0.65901800  1
  C  C74  1  0.20165100  0.56249300  0.84098200  1
  C  C75  1  0.29834900  0.56249300  0.34098200  1
  Cu  Cu76  1  0.74009500  0.35408000  0.37537000  1
  Cu  Cu77  1  0.75990500  0.35408000  0.87537000  1
  Cu  Cu78  1  0.25990500  0.64592000  0.62463000  1
  Cu  Cu79  1  0.24009500  0.64592000  0.12463000  1
  Cu  Cu80  1  0.77088000  0.72402100  0.19912200  1
  Cu  Cu81  1  0.72912000  0.72402100  0.69912200  1
  Cu  Cu82  1  0.22912000  0.27597900  0.80087800  1
  Cu  Cu83  1  0.27088000  0.27597900  0.30087800  1
  Cu  Cu84  1  0.59636100  0.55261100  0.41494400  1
  Cu  Cu85  1  0.90363900  0.55261100  0.91494400  1
  Cu  Cu86  1  0.40363900  0.44738900  0.58505600  1
  Cu  Cu87  1  0.09636100  0.44738900  0.08505600  1
  Cu  Cu88  1  0.87593400  0.52251500  0.45417800  1
  Cu  Cu89  1  0.62406600  0.52251500  0.95417800  1
  Cu  Cu90  1  0.12406600  0.47748500  0.54582200  1
  Cu  Cu91  1  0.37593400  0.47748500  0.04582200  1
  Cu  Cu92  1  0.78139900  0.86170600  0.88164900  1
  Cu  Cu93  1  0.71860100  0.86170600  0.38164900  1
  Cu  Cu94  1  0.21860100  0.13829400  0.11835100  1
  Cu  Cu95  1  0.28139900  0.13829400  0.61835100  1
  Cu  Cu96  1  0.75910000  0.22745300  0.71051900  1
  Cu  Cu97  1  0.74090000  0.22745300  0.21051900  1
  Cu  Cu98  1  0.24090000  0.77254700  0.28948100  1
  Cu  Cu99  1  0.25910000  0.77254700  0.78948100  1
  Cu  Cu100  1  0.61692300  0.01163200  0.95733100  1
  Cu  Cu101  1  0.88307700  0.01163200  0.45733100  1
  Cu  Cu102  1  0.38307700  0.98836800  0.04266900  1
  Cu  Cu103  1  0.11692300  0.98836800  0.54266900  1
  Cu  Cu104  1  0.89256100  0.03237000  0.95856800  1
  Cu  Cu105  1  0.60743900  0.03237000  0.45856800  1
  Cu  Cu106  1  0.10743900  0.96763000  0.04143200  1
  Cu  Cu107  1  0.39256100  0.96763000  0.54143200  1
  C  C108  1  0.55737900  0.89099300  0.73463300  1
  C  C109  1  0.94262100  0.89099300  0.23463300  1
  C  C110  1  0.44262100  0.10900700  0.26536700  1
  C  C111  1  0.05737900  0.10900700  0.76536700  1
  C  C112  1  0.95307800  0.89221300  0.72402200  1
  C  C113  1  0.54692200  0.89221300  0.22402200  1
  C  C114  1  0.04692200  0.10778700  0.27597800  1
  C  C115  1  0.45307800  0.10778700  0.77597800  1
  C  C116  1  0.45297700  0.79452600  0.92222500  1
  C  C117  1  0.04702300  0.79452600  0.42222500  1
  C  C118  1  0.54702300  0.20547400  0.07777500  1
  C  C119  1  0.95297700  0.20547400  0.57777500  1
  C  C120  1  0.06944300  0.81127400  0.90463400  1
  C  C121  1  0.43055700  0.81127400  0.40463400  1
  C  C122  1  0.93055700  0.18872600  0.09536600  1
  C  C123  1  0.56944300  0.18872600  0.59536600  1
  C  C124  1  0.54969900  0.38672200  0.21273400  1
  C  C125  1  0.95030100  0.38672200  0.71273400  1
  C  C126  1  0.45030100  0.61327800  0.78726600  1
  C  C127  1  0.04969900  0.61327800  0.28726600  1
  C  C128  1  0.97314500  0.38833200  0.28503000  1
  C  C129  1  0.52685500  0.38833200  0.78503000  1
  C  C130  1  0.02685500  0.61166800  0.71497000  1
  C  C131  1  0.47314500  0.61166800  0.21497000  1
  C  C132  1  0.81001400  0.53819200  0.10311100  1
  C  C133  1  0.68998600  0.53819200  0.60311100  1
  C  C134  1  0.18998600  0.46180800  0.89688900  1
  C  C135  1  0.31001400  0.46180800  0.39688900  1
