# generated using pymatgen
data_Cu9Ni3C20
_symmetry_space_group_name_H-M   'P 1'
_cell_length_a   10.80624818
_cell_length_b   10.80624818
_cell_length_c   5.26478587
_cell_angle_alpha   82.72896174
_cell_angle_beta   82.72896174
_cell_angle_gamma   138.94368209
_symmetry_Int_Tables_number   1
_chemical_formula_structural   Cu9Ni3C20
_chemical_formula_sum   'Cu9 Ni3 C20'
_cell_volume   376.58054639
_cell_formula_units_Z   1
loop_
 _symmetry_equiv_pos_site_id
 _symmetry_equiv_pos_as_xyz
  1  'x, y, z'
loop_
 _atom_site_type_symbol
 _atom_site_label
 _atom_site_symmetry_multiplicity
 _atom_site_fract_x
 _atom_site_fract_y
 _atom_site_fract_z
 _atom_site_occupancy
  Ni  Ni0  1  0.22234000  0.72362900  0.61002900  1
  Ni  Ni1  1  0.72362900  0.22234000  0.61002900  1
  Ni  Ni2  1  0.27943900  0.27943900  0.38818400  1
  Cu  Cu3  1  0.96376600  0.64522400  0.27738800  1
  Cu  Cu4  1  0.53226500  0.34656300  0.73403100  1
  Cu  Cu5  1  0.34656300  0.53226500  0.73403100  1
  Cu  Cu6  1  0.85265600  0.04058700  0.72849300  1
  Cu  Cu7  1  0.46605700  0.15120800  0.26686600  1
  Cu  Cu8  1  0.64522400  0.96376600  0.27738800  1
  Cu  Cu9  1  0.15120800  0.46605700  0.26686600  1
  Cu  Cu10  1  0.77919600  0.77919600  0.38748900  1
  Cu  Cu11  1  0.04058700  0.85265600  0.72849300  1
  C  C12  1  0.37447500  0.68919900  0.37412900  1
  C  C13  1  0.01359000  0.51557500  0.44157000  1
  C  C14  1  0.50093100  0.50093100  0.54293700  1
  C  C15  1  0.30792800  0.12911100  0.62751900  1
  C  C16  1  0.12911100  0.30792800  0.62751900  1
  C  C17  1  0.81072600  0.62911000  0.62168700  1
  C  C18  1  0.57752300  0.21436400  0.90804800  1
  C  C19  1  0.71885500  0.07937000  0.91071800  1
  C  C20  1  0.21436400  0.57752300  0.90804800  1
  C  C21  1  0.07937000  0.71885500  0.91071800  1
  C  C22  1  0.28694800  0.42418700  0.08979100  1
  C  C23  1  0.78846800  0.91900500  0.09804400  1
  C  C24  1  0.91900500  0.78846800  0.09804400  1
  C  C25  1  0.42418700  0.28694800  0.08979100  1
  C  C26  1  0.68919800  0.37447500  0.37412900  1
  C  C27  1  0.18712400  0.87476900  0.38063000  1
  C  C28  1  0.87476900  0.18712400  0.38063000  1
  C  C29  1  0.51557500  0.01359000  0.44157000  1
  C  C30  1  0.97885000  0.97885000  0.54786500  1
  C  C31  1  0.62911000  0.81072600  0.62168700  1
