# generated using pymatgen
data_Cu5NiC3
_symmetry_space_group_name_H-M   'P 1'
_cell_length_a   4.64627693
_cell_length_b   4.64627693
_cell_length_c   18.92967835
_cell_angle_alpha   88.30652535
_cell_angle_beta   88.30652535
_cell_angle_gamma   89.84719558
_symmetry_Int_Tables_number   1
_chemical_formula_structural   Cu5NiC3
_chemical_formula_sum   'Cu20 Ni4 C12'
_cell_volume   408.29424822
_cell_formula_units_Z   4
loop_
 _symmetry_equiv_pos_site_id
 _symmetry_equiv_pos_as_xyz
  1  'x, y, z'
loop_
 _atom_site_type_symbol
 _atom_site_label
 _atom_site_symmetry_multiplicity
 _atom_site_fract_x
 _atom_site_fract_y
 _atom_site_fract_z
 _atom_site_occupancy
  C  C0  1  0.99351900  0.00806100  0.99728800  1
  C  C1  1  0.00806100  0.99351900  0.49728800  1
  C  C2  1  0.49785400  0.48778900  0.24746700  1
  C  C3  1  0.48778900  0.49785400  0.74746700  1
  C  C4  1  0.01675800  0.97504900  0.16485800  1
  C  C5  1  0.98666500  0.98002200  0.33584600  1
  C  C6  1  0.97504900  0.01675800  0.66485800  1
  C  C7  1  0.98002200  0.98666500  0.83584600  1
  C  C8  1  0.48375700  0.52009900  0.08611600  1
  C  C9  1  0.52251500  0.51339800  0.41556400  1
  C  C10  1  0.51339800  0.52251500  0.91556400  1
  C  C11  1  0.52009900  0.48375700  0.58611600  1
  Ni  Ni12  1  0.80270300  0.79656700  0.41221900  1
  Ni  Ni13  1  0.79656700  0.80270300  0.91221900  1
  Ni  Ni14  1  0.69041900  0.29748300  0.66189500  1
  Ni  Ni15  1  0.29748300  0.69041900  0.16189500  1
  Cu  Cu16  1  0.79557600  0.80017900  0.08221400  1
  Cu  Cu17  1  0.80017900  0.79557600  0.58221400  1
  Cu  Cu18  1  0.81130900  0.78497300  0.24717400  1
  Cu  Cu19  1  0.78497300  0.81130900  0.74717400  1
  Cu  Cu20  1  0.68620600  0.32475500  0.00825800  1
  Cu  Cu21  1  0.71098000  0.30208300  0.49684600  1
  Cu  Cu22  1  0.71857100  0.27252400  0.16577800  1
  Cu  Cu23  1  0.70029900  0.30564600  0.83597300  1
  Cu  Cu24  1  0.70725300  0.29290500  0.33263900  1
  Cu  Cu25  1  0.29290500  0.70725300  0.83263900  1
  Cu  Cu26  1  0.30564600  0.70029900  0.33597300  1
  Cu  Cu27  1  0.27252400  0.71857100  0.66577800  1
  Cu  Cu28  1  0.30208300  0.71098000  0.99684600  1
  Cu  Cu29  1  0.32475500  0.68620600  0.50825800  1
  Cu  Cu30  1  0.19211400  0.17684500  0.25718800  1
  Cu  Cu31  1  0.17684500  0.19211400  0.75718800  1
  Cu  Cu32  1  0.22589300  0.21630400  0.41679300  1
  Cu  Cu33  1  0.21630400  0.22589300  0.91679300  1
  Cu  Cu34  1  0.19981000  0.20312200  0.58588300  1
  Cu  Cu35  1  0.20312200  0.19981000  0.08588300  1
