# generated using pymatgen
data_Cu24Ni6C7
_symmetry_space_group_name_H-M   'P 1'
_cell_length_a   8.78295400
_cell_length_b   8.99651155
_cell_length_c   15.23411692
_cell_angle_alpha   106.35238444
_cell_angle_beta   89.98568933
_cell_angle_gamma   119.19734395
_symmetry_Int_Tables_number   1
_chemical_formula_structural   Cu24Ni6C7
_chemical_formula_sum   'Cu48 Ni12 C14'
_cell_volume   994.69415789
_cell_formula_units_Z   2
loop_
 _symmetry_equiv_pos_site_id
 _symmetry_equiv_pos_as_xyz
  1  'x, y, z'
loop_
 _atom_site_type_symbol
 _atom_site_label
 _atom_site_symmetry_multiplicity
 _atom_site_fract_x
 _atom_site_fract_y
 _atom_site_fract_z
 _atom_site_occupancy
  C  C0  1  0.00051400  0.99757900  0.00084900  1
  C  C1  1  0.51242600  0.02396200  0.49208600  1
  C  C2  1  0.73396300  0.02016600  0.23749100  1
  C  C3  1  0.03646400  0.83593300  0.44177900  1
  C  C4  1  0.23095100  0.96950200  0.76139100  1
  C  C5  1  0.49495400  0.47249000  0.62049500  1
  C  C6  1  0.53002600  0.69969000  0.18045600  1
  C  C7  1  0.72013500  0.28718700  0.57415400  1
  C  C8  1  0.03254600  0.70936500  0.67541200  1
  C  C9  1  0.97339300  0.30554900  0.32439000  1
  C  C10  1  0.27544700  0.70410800  0.41885100  1
  C  C11  1  0.47163300  0.29316800  0.82557900  1
  C  C12  1  0.22346000  0.29407000  0.07545100  1
  C  C13  1  0.77606800  0.69968300  0.92602500  1
  Ni  Ni14  1  0.27375200  0.79391700  0.22610900  1
  Ni  Ni15  1  0.83061700  0.50741200  0.37482600  1
  Ni  Ni16  1  0.76985000  0.19688300  0.02461600  1
  Ni  Ni17  1  0.72831200  0.79582500  0.47800800  1
  Ni  Ni18  1  0.67544400  0.49911300  0.12780400  1
  Ni  Ni19  1  0.76882200  0.79276000  0.72278800  1
  Ni  Ni20  1  0.22526700  0.20115800  0.27608100  1
  Ni  Ni21  1  0.32459900  0.50029600  0.87307900  1
  Ni  Ni22  1  0.27439600  0.20073700  0.52435600  1
  Ni  Ni23  1  0.23102700  0.79916300  0.97704600  1
  Ni  Ni24  1  0.16952600  0.49598300  0.62635200  1
  Ni  Ni25  1  0.73013200  0.20864900  0.77140100  1
  Cu  Cu26  1  0.16882100  0.18579800  0.19846500  1
  Cu  Cu27  1  0.19266500  0.60595800  0.98525100  1
  Cu  Cu28  1  0.50535200  0.36899000  0.10450900  1
  Cu  Cu29  1  0.36309900  0.39833800  0.25601100  1
  Cu  Cu30  1  0.35037100  0.79069400  0.05724700  1
  Cu  Cu31  1  0.19806500  0.97205200  0.13628500  1
  Cu  Cu32  1  0.64714400  0.61047200  0.14816000  1
  Cu  Cu33  1  0.43872200  0.81619400  0.21281600  1
  Cu  Cu34  1  0.73702100  0.34886900  0.45604300  1
  Cu  Cu35  1  0.68335900  0.19929600  0.69379000  1
  Cu  Cu36  1  0.72676900  0.65899500  0.29475200  1
  Cu  Cu37  1  0.69890400  0.01223600  0.11150200  1
  Cu  Cu38  1  0.71417500  0.60068300  0.49569100  1
  Cu  Cu39  1  0.55111200  0.79837400  0.46882300  1
  Cu  Cu40  1  0.99346600  0.37709200  0.60471200  1
  Cu  Cu41  1  0.86720600  0.40523300  0.75431300  1
  Cu  Cu42  1  0.94036300  0.18495200  0.03036800  1
  Cu  Cu43  1  0.80292700  0.98073200  0.39058400  1
  Cu  Cu44  1  0.84297400  0.80274800  0.55659600  1
  Cu  Cu45  1  0.78136800  0.35084800  0.20640800  1
  Cu  Cu46  1  0.70172300  0.97510700  0.63735200  1
  Cu  Cu47  1  0.76970000  0.66399200  0.04520300  1
  Cu  Cu48  1  0.15813900  0.62226400  0.64511000  1
  Cu  Cu49  1  0.93521400  0.80884600  0.71351400  1
  Cu  Cu50  1  0.06165400  0.17914700  0.29146600  1
  Cu  Cu51  1  0.85326700  0.39258200  0.35362700  1
  Cu  Cu52  1  0.22891400  0.33429100  0.95494700  1
  Cu  Cu53  1  0.29186600  0.01599200  0.36323400  1
  Cu  Cu54  1  0.22064300  0.65051700  0.79483500  1
  Cu  Cu55  1  0.15163100  0.18998100  0.44738100  1
  Cu  Cu56  1  0.20310800  0.02134400  0.61270400  1
  Cu  Cu57  1  0.05961400  0.81356700  0.96943600  1
  Cu  Cu58  1  0.13923900  0.59483600  0.24513000  1
  Cu  Cu59  1  0.00565300  0.63404800  0.39682000  1
  Cu  Cu60  1  0.44654400  0.19012800  0.53326400  1
  Cu  Cu61  1  0.30114200  0.40217300  0.50647100  1
  Cu  Cu62  1  0.30186600  0.98365800  0.88944700  1
  Cu  Cu63  1  0.27673900  0.34503600  0.70494800  1
  Cu  Cu64  1  0.31728100  0.81408900  0.29990800  1
  Cu  Cu65  1  0.26527000  0.65178100  0.54404200  1
  Cu  Cu66  1  0.56305800  0.19453500  0.78137800  1
  Cu  Cu67  1  0.35165200  0.39035200  0.85138100  1
  Cu  Cu68  1  0.79798900  0.02601200  0.86072100  1
  Cu  Cu69  1  0.65037500  0.20736200  0.94377600  1
  Cu  Cu70  1  0.63086200  0.59441900  0.74009100  1
  Cu  Cu71  1  0.49514400  0.62603900  0.89813300  1
  Cu  Cu72  1  0.80773400  0.38941100  0.01686800  1
  Cu  Cu73  1  0.81587200  0.80058900  0.80211100  1
