# generated using pymatgen
data_CuNi2C13
_symmetry_space_group_name_H-M   'P 1'
_cell_length_a   7.30641700
_cell_length_b   10.01401100
_cell_length_c   23.53053800
_cell_angle_alpha   90.00000000
_cell_angle_beta   90.00000000
_cell_angle_gamma   90.00000000
_symmetry_Int_Tables_number   1
_chemical_formula_structural   CuNi2C13
_chemical_formula_sum   'Cu8 Ni16 C104'
_cell_volume   1721.64805471
_cell_formula_units_Z   8
loop_
 _symmetry_equiv_pos_site_id
 _symmetry_equiv_pos_as_xyz
  1  'x, y, z'
loop_
 _atom_site_type_symbol
 _atom_site_label
 _atom_site_symmetry_multiplicity
 _atom_site_fract_x
 _atom_site_fract_y
 _atom_site_fract_z
 _atom_site_occupancy
  C  C0  1  0.63980500  0.99071700  0.42812300  1
  C  C1  1  0.86019500  0.99071700  0.92812300  1
  C  C2  1  0.17365900  0.86597500  0.33717800  1
  C  C3  1  0.32634100  0.86597500  0.83717800  1
  C  C4  1  0.59326200  0.76690100  0.68271100  1
  C  C5  1  0.90673800  0.76690100  0.18271100  1
  C  C6  1  0.09326200  0.73309900  0.68271100  1
  C  C7  1  0.40673800  0.73309900  0.18271100  1
  C  C8  1  0.67365900  0.63402500  0.33717800  1
  C  C9  1  0.82634100  0.63402500  0.83717800  1
  C  C10  1  0.36019500  0.50928300  0.92812300  1
  C  C11  1  0.13980500  0.50928300  0.42812300  1
  C  C12  1  0.63980500  0.49071700  0.07187700  1
  C  C13  1  0.86019500  0.49071700  0.57187700  1
  C  C14  1  0.17365900  0.36597500  0.16282200  1
  C  C15  1  0.32634100  0.36597500  0.66282200  1
  C  C16  1  0.59326200  0.26690100  0.81728900  1
  C  C17  1  0.90673800  0.26690100  0.31728900  1
  C  C18  1  0.09326200  0.23309900  0.81728900  1
  C  C19  1  0.40673800  0.23309900  0.31728900  1
  C  C20  1  0.67365900  0.13402500  0.16282200  1
  C  C21  1  0.82634100  0.13402500  0.66282200  1
  C  C22  1  0.36019500  0.00928300  0.57187700  1
  C  C23  1  0.13980500  0.00928300  0.07187700  1
  Ni  Ni24  1  0.68342300  0.93871600  0.27933000  1
  Ni  Ni25  1  0.81657700  0.93871600  0.77933000  1
  Ni  Ni26  1  0.64484100  0.87510900  0.07849700  1
  Ni  Ni27  1  0.85515900  0.87510900  0.57849700  1
  Ni  Ni28  1  0.14484100  0.62489100  0.07849700  1
  Ni  Ni29  1  0.35515900  0.62489100  0.57849700  1
  Ni  Ni30  1  0.18342300  0.56128400  0.27933000  1
  Ni  Ni31  1  0.31657700  0.56128400  0.77933000  1
  Ni  Ni32  1  0.68342300  0.43871600  0.22067000  1
  Ni  Ni33  1  0.81657700  0.43871600  0.72067000  1
  Ni  Ni34  1  0.85515900  0.37510900  0.92150300  1
  Ni  Ni35  1  0.64484100  0.37510900  0.42150300  1
  Ni  Ni36  1  0.14484100  0.12489100  0.42150300  1
  Ni  Ni37  1  0.35515900  0.12489100  0.92150300  1
  Ni  Ni38  1  0.18342300  0.06128400  0.22067000  1
  Ni  Ni39  1  0.31657700  0.06128400  0.72067000  1
  Cu  Cu40  1  0.15477200  0.75593400  0.97234400  1
  Cu  Cu41  1  0.34522800  0.75593400  0.47234400  1
  Cu  Cu42  1  0.84522800  0.74406600  0.47234400  1
  Cu  Cu43  1  0.65477200  0.74406600  0.97234400  1
  Cu  Cu44  1  0.34522800  0.25593400  0.02765600  1
  Cu  Cu45  1  0.15477200  0.25593400  0.52765600  1
  Cu  Cu46  1  0.84522800  0.24406600  0.02765600  1
  Cu  Cu47  1  0.65477200  0.24406600  0.52765600  1
  C  C48  1  0.46631400  0.95978200  0.09926500  1
  C  C49  1  0.03368600  0.95978200  0.59926500  1
  C  C50  1  0.82475700  0.95050200  0.10541800  1
  C  C51  1  0.67524300  0.95050200  0.60541800  1
  C  C52  1  0.63135800  0.90221800  0.21250700  1
  C  C53  1  0.86864200  0.90221800  0.71250700  1
  C  C54  1  0.20264300  0.89703100  0.22125700  1
  C  C55  1  0.29735700  0.89703100  0.72125700  1
  C  C56  1  0.53434000  0.89207700  0.32725200  1
  C  C57  1  0.96566000  0.89207700  0.82725200  1
  C  C58  1  0.42241200  0.87063500  0.49129500  1
  C  C59  1  0.07758800  0.87063500  0.99129500  1
  C  C60  1  0.66352400  0.85938200  0.00824400  1
  C  C61  1  0.83647600  0.85938200  0.50824400  1
  C  C62  1  0.86837800  0.84791500  0.29007700  1
  C  C63  1  0.63162200  0.84791500  0.79007700  1
  C  C64  1  0.14737100  0.77318400  0.10965400  1
  C  C65  1  0.35262900  0.77318400  0.60965400  1
  C  C66  1  0.77129100  0.76165700  0.41922600  1
  C  C67  1  0.72870900  0.76165700  0.91922600  1
  C  C68  1  0.27129100  0.73834300  0.41922600  1
  C  C69  1  0.22870900  0.73834300  0.91922600  1
  C  C70  1  0.64737100  0.72681600  0.10965400  1
  C  C71  1  0.85262900  0.72681600  0.60965400  1
  C  C72  1  0.36837800  0.65208500  0.29007700  1
  C  C73  1  0.13162200  0.65208500  0.79007700  1
  C  C74  1  0.16352400  0.64061800  0.00824400  1
  C  C75  1  0.33647600  0.64061800  0.50824400  1
  C  C76  1  0.92241200  0.62936500  0.49129500  1
  C  C77  1  0.57758800  0.62936500  0.99129500  1
  C  C78  1  0.03434000  0.60792300  0.32725200  1
  C  C79  1  0.46566000  0.60792300  0.82725200  1
  C  C80  1  0.70264300  0.60296900  0.22125700  1
  C  C81  1  0.79735700  0.60296900  0.72125700  1
  C  C82  1  0.13135800  0.59778200  0.21250700  1
  C  C83  1  0.36864200  0.59778200  0.71250700  1
  C  C84  1  0.32475700  0.54949800  0.10541800  1
  C  C85  1  0.17524300  0.54949800  0.60541800  1
  C  C86  1  0.96631400  0.54021800  0.09926500  1
  C  C87  1  0.53368600  0.54021800  0.59926500  1
  C  C88  1  0.46631400  0.45978200  0.40073500  1
  C  C89  1  0.03368600  0.45978200  0.90073500  1
  C  C90  1  0.82475700  0.45050200  0.39458200  1
  C  C91  1  0.67524300  0.45050200  0.89458200  1
  C  C92  1  0.63135800  0.40221800  0.28749300  1
  C  C93  1  0.86864200  0.40221800  0.78749300  1
  C  C94  1  0.20264300  0.39703100  0.27874300  1
  C  C95  1  0.29735700  0.39703100  0.77874300  1
  C  C96  1  0.53434000  0.39207700  0.17274800  1
  C  C97  1  0.96566000  0.39207700  0.67274800  1
  C  C98  1  0.42241200  0.37063500  0.00870500  1
  C  C99  1  0.07758800  0.37063500  0.50870500  1
  C  C100  1  0.66352400  0.35938200  0.49175600  1
  C  C101  1  0.83647600  0.35938200  0.99175600  1
  C  C102  1  0.86837800  0.34791500  0.20992300  1
  C  C103  1  0.63162200  0.34791500  0.70992300  1
  C  C104  1  0.35262900  0.27318400  0.89034600  1
  C  C105  1  0.14737100  0.27318400  0.39034600  1
  C  C106  1  0.77129100  0.26165700  0.08077400  1
  C  C107  1  0.72870900  0.26165700  0.58077400  1
  C  C108  1  0.27129100  0.23834300  0.08077400  1
  C  C109  1  0.22870900  0.23834300  0.58077400  1
  C  C110  1  0.85262900  0.22681600  0.89034600  1
  C  C111  1  0.64737100  0.22681600  0.39034600  1
  C  C112  1  0.36837800  0.15208500  0.20992300  1
  C  C113  1  0.13162200  0.15208500  0.70992300  1
  C  C114  1  0.16352400  0.14061800  0.49175600  1
  C  C115  1  0.33647600  0.14061800  0.99175600  1
  C  C116  1  0.92241200  0.12936500  0.00870500  1
  C  C117  1  0.57758800  0.12936500  0.50870500  1
  C  C118  1  0.03434000  0.10792300  0.17274800  1
  C  C119  1  0.46566000  0.10792300  0.67274800  1
  C  C120  1  0.70264300  0.10296900  0.27874300  1
  C  C121  1  0.79735700  0.10296900  0.77874300  1
  C  C122  1  0.13135800  0.09778200  0.28749300  1
  C  C123  1  0.36864200  0.09778200  0.78749300  1
  C  C124  1  0.32475700  0.04949800  0.39458200  1
  C  C125  1  0.17524300  0.04949800  0.89458200  1
  C  C126  1  0.96631400  0.04021800  0.40073500  1
  C  C127  1  0.53368600  0.04021800  0.90073500  1
