# generated using pymatgen
data_Cu3Ni13C8
_symmetry_space_group_name_H-M   'P 1'
_cell_length_a   4.50943900
_cell_length_b   7.45384968
_cell_length_c   7.46820417
_cell_angle_alpha   83.95348568
_cell_angle_beta   88.18204604
_cell_angle_gamma   88.61498421
_symmetry_Int_Tables_number   1
_chemical_formula_structural   Cu3Ni13C8
_chemical_formula_sum   'Cu3 Ni13 C8'
_cell_volume   249.44938875
_cell_formula_units_Z   1
loop_
 _symmetry_equiv_pos_site_id
 _symmetry_equiv_pos_as_xyz
  1  'x, y, z'
loop_
 _atom_site_type_symbol
 _atom_site_label
 _atom_site_symmetry_multiplicity
 _atom_site_fract_x
 _atom_site_fract_y
 _atom_site_fract_z
 _atom_site_occupancy
  C  C0  1  0.50114600  0.70174900  0.95205900  1
  C  C1  1  0.51724800  0.29423200  0.06180500  1
  C  C2  1  0.48632500  0.18818900  0.44839900  1
  C  C3  1  0.50020700  0.80072200  0.55589800  1
  C  C4  1  0.01403800  0.95397700  0.21006200  1
  C  C5  1  0.00753500  0.55873200  0.29391900  1
  C  C6  1  0.99199900  0.45627200  0.69874900  1
  C  C7  1  0.01627400  0.06262200  0.79565000  1
  Ni  Ni8  1  0.24185600  0.09445100  0.01827200  1
  Ni  Ni9  1  0.22855900  0.73414800  0.15322300  1
  Ni  Ni10  1  0.22876300  0.23666100  0.64878000  1
  Ni  Ni11  1  0.22583700  0.59699900  0.51148000  1
  Ni  Ni12  1  0.26406400  0.34069700  0.26648600  1
  Ni  Ni13  1  0.27320400  0.98154700  0.41278800  1
  Ni  Ni14  1  0.25958800  0.84537600  0.76727600  1
  Ni  Ni15  1  0.73378600  0.15346300  0.23788300  1
  Ni  Ni16  1  0.71966300  0.65249600  0.73216200  1
  Ni  Ni17  1  0.73557500  0.51495700  0.09559200  1
  Ni  Ni18  1  0.72813400  0.01551000  0.59425200  1
  Ni  Ni19  1  0.76589500  0.26678800  0.84562500  1
  Ni  Ni20  1  0.76400100  0.76884500  0.34129500  1
  Cu  Cu21  1  0.26890200  0.46467500  0.91455300  1
  Cu  Cu22  1  0.74900800  0.40146000  0.46719000  1
  Cu  Cu23  1  0.77839400  0.91543100  0.97660500  1
