# generated using pymatgen
data_Cu4Ni6C31
_symmetry_space_group_name_H-M   'P 1'
_cell_length_a   6.64333600
_cell_length_b   8.14696536
_cell_length_c   9.96718895
_cell_angle_alpha   104.44937178
_cell_angle_beta   108.97092159
_cell_angle_gamma   101.33285270
_symmetry_Int_Tables_number   1
_chemical_formula_structural   Cu4Ni6C31
_chemical_formula_sum   'Cu4 Ni6 C31'
_cell_volume   470.76762968
_cell_formula_units_Z   1
loop_
 _symmetry_equiv_pos_site_id
 _symmetry_equiv_pos_as_xyz
  1  'x, y, z'
loop_
 _atom_site_type_symbol
 _atom_site_label
 _atom_site_symmetry_multiplicity
 _atom_site_fract_x
 _atom_site_fract_y
 _atom_site_fract_z
 _atom_site_occupancy
  C  C0  1  0.00000000  0.00000000  0.00000000  1
  C  C1  1  0.03977700  0.71778500  0.51176700  1
  C  C2  1  0.96022300  0.28221500  0.48823300  1
  C  C3  1  0.28728800  0.81477100  0.28518500  1
  C  C4  1  0.71271200  0.18522900  0.71481500  1
  C  C5  1  0.38060100  0.45495800  0.10548000  1
  C  C6  1  0.61939900  0.54504200  0.89452000  1
  Ni  Ni7  1  0.22727100  0.14454100  0.78192500  1
  Ni  Ni8  1  0.77272900  0.85545900  0.21807500  1
  Ni  Ni9  1  0.59165300  0.77118700  0.61468200  1
  Ni  Ni10  1  0.40834700  0.22881300  0.38531800  1
  Ni  Ni11  1  0.08317500  0.58251500  0.82182400  1
  Ni  Ni12  1  0.91682500  0.41748500  0.17817600  1
  Cu  Cu13  1  0.58237900  0.50335900  0.40226900  1
  Cu  Cu14  1  0.41762100  0.49664100  0.59773100  1
  Cu  Cu15  1  0.17995900  0.87602400  0.80765800  1
  Cu  Cu16  1  0.82004100  0.12397600  0.19234200  1
  C  C17  1  0.29805600  0.54310700  0.90885700  1
  C  C18  1  0.70194400  0.45689300  0.09114300  1
  C  C19  1  0.12383300  0.53569800  0.16828600  1
  C  C20  1  0.87616700  0.46430200  0.83171400  1
  C  C21  1  0.02103700  0.16964800  0.67057300  1
  C  C22  1  0.97896300  0.83035200  0.32942700  1
  C  C23  1  0.55382300  0.75424900  0.22156200  1
  C  C24  1  0.44617700  0.24575100  0.77843800  1
  C  C25  1  0.10248600  0.78208300  0.89257000  1
  C  C26  1  0.89751400  0.21791700  0.10743000  1
  C  C27  1  0.48774100  0.38258800  0.32134800  1
  C  C28  1  0.51225900  0.61741200  0.67865200  1
  C  C29  1  0.71963500  0.70351500  0.52124900  1
  C  C30  1  0.28036500  0.29648500  0.47875100  1
  C  C31  1  0.27454200  0.06172800  0.24373500  1
  C  C32  1  0.72545800  0.93827200  0.75626500  1
  C  C33  1  0.61866500  0.19977400  0.48962300  1
  C  C34  1  0.38133500  0.80022600  0.51037700  1
  C  C35  1  0.05256200  0.54417200  0.65462800  1
  C  C36  1  0.94743800  0.45582800  0.34537200  1
  C  C37  1  0.22123200  0.18663700  0.94170000  1
  C  C38  1  0.77876800  0.81336300  0.05830000  1
  C  C39  1  0.78836100  0.06110200  0.26837300  1
  C  C40  1  0.21163900  0.93889800  0.73162700  1
