# generated using pymatgen
data_CuNi5C16
_symmetry_space_group_name_H-M   'P 1'
_cell_length_a   5.26668594
_cell_length_b   5.26668594
_cell_length_c   10.35968577
_cell_angle_alpha   87.09625704
_cell_angle_beta   87.09625704
_cell_angle_gamma   120.70370365
_symmetry_Int_Tables_number   1
_chemical_formula_structural   CuNi5C16
_chemical_formula_sum   'Cu1 Ni5 C16'
_cell_volume   245.77589349
_cell_formula_units_Z   1
loop_
 _symmetry_equiv_pos_site_id
 _symmetry_equiv_pos_as_xyz
  1  'x, y, z'
loop_
 _atom_site_type_symbol
 _atom_site_label
 _atom_site_symmetry_multiplicity
 _atom_site_fract_x
 _atom_site_fract_y
 _atom_site_fract_z
 _atom_site_occupancy
  C  C0  1  0.87668800  0.53972000  0.29077300  1
  C  C1  1  0.46028000  0.12331200  0.70922700  1
  C  C2  1  0.53972000  0.87668800  0.29077300  1
  C  C3  1  0.12331200  0.46028000  0.70922700  1
  Ni  Ni4  1  0.83644800  0.16355200  0.50000000  1
  Ni  Ni5  1  0.66673300  0.33326700  0.00000000  1
  Ni  Ni6  1  0.50000000  0.50000000  0.50000000  1
  Ni  Ni7  1  0.33326700  0.66673300  0.00000000  1
  Ni  Ni8  1  0.16355200  0.83644800  0.50000000  1
  Cu  Cu9  1  0.00000000  0.00000000  0.00000000  1
  C  C10  1  0.01523800  0.35320200  0.89979000  1
  C  C11  1  0.64679800  0.98476200  0.10021000  1
  C  C12  1  0.81201600  0.46691700  0.60367000  1
  C  C13  1  0.53308300  0.18798400  0.39633000  1
  C  C14  1  0.84390300  0.84390300  0.39543100  1
  C  C15  1  0.69570100  0.69570100  0.90506000  1
  C  C16  1  0.30429900  0.30429900  0.09494000  1
  C  C17  1  0.15609700  0.15609700  0.60456900  1
  C  C18  1  0.46691700  0.81201600  0.60367000  1
  C  C19  1  0.18798400  0.53308300  0.39633000  1
  C  C20  1  0.35320200  0.01523800  0.89979000  1
  C  C21  1  0.98476200  0.64679800  0.10021000  1
