# generated using pymatgen
data_CuNi3C8
_symmetry_space_group_name_H-M   'P 1'
_cell_length_a   8.30473531
_cell_length_b   8.30473531
_cell_length_c   8.31155474
_cell_angle_alpha   89.95675717
_cell_angle_beta   89.95675717
_cell_angle_gamma   90.08607538
_symmetry_Int_Tables_number   1
_chemical_formula_structural   CuNi3C8
_chemical_formula_sum   'Cu4 Ni12 C32'
_cell_volume   573.23555850
_cell_formula_units_Z   4
loop_
 _symmetry_equiv_pos_site_id
 _symmetry_equiv_pos_as_xyz
  1  'x, y, z'
loop_
 _atom_site_type_symbol
 _atom_site_label
 _atom_site_symmetry_multiplicity
 _atom_site_fract_x
 _atom_site_fract_y
 _atom_site_fract_z
 _atom_site_occupancy
  Ni  Ni0  1  0.12823900  0.12526100  0.75263900  1
  Ni  Ni1  1  0.12528600  0.37625900  0.99690300  1
  Ni  Ni2  1  0.12448500  0.62718300  0.24669600  1
  Ni  Ni3  1  0.87849500  0.37704800  0.74902300  1
  Ni  Ni4  1  0.87325500  0.62306400  0.49870200  1
  Ni  Ni5  1  0.87473900  0.87176100  0.24736100  1
  Ni  Ni6  1  0.62592300  0.37407700  0.50000000  1
  Ni  Ni7  1  0.62295200  0.12150500  0.25097700  1
  Ni  Ni8  1  0.62374100  0.87471400  0.00309700  1
  Ni  Ni9  1  0.37693600  0.12674500  0.50129800  1
  Ni  Ni10  1  0.37281700  0.87551500  0.75330400  1
  Ni  Ni11  1  0.37242000  0.62758000  0.00000000  1
  Cu  Cu12  1  0.12517400  0.87482600  0.50000000  1
  Cu  Cu13  1  0.87550300  0.12449700  0.00000000  1
  Cu  Cu14  1  0.62381600  0.62574800  0.75150100  1
  Cu  Cu15  1  0.37425200  0.37618400  0.24849900  1
  C  C16  1  0.14128400  0.10640300  0.51653600  1
  C  C17  1  0.14267400  0.89333400  0.74457800  1
  C  C18  1  0.13878600  0.61059000  0.01512200  1
  C  C19  1  0.11722500  0.14431300  0.98352500  1
  C  C20  1  0.14381100  0.39040000  0.23380200  1
  C  C21  1  0.11046000  0.36058800  0.76358100  1
  C  C22  1  0.10950500  0.64403900  0.48285500  1
  C  C23  1  0.10666600  0.85732600  0.25542200  1
  C  C24  1  0.89155000  0.14022600  0.76958100  1
  C  C25  1  0.89372600  0.36632500  0.98191900  1
  C  C26  1  0.88974600  0.63836700  0.26468800  1
  C  C27  1  0.86696700  0.60834500  0.73003500  1
  C  C28  1  0.89359700  0.85871600  0.48346400  1
  C  C29  1  0.86025000  0.38844700  0.51433300  1
  C  C30  1  0.85977400  0.10845000  0.23041900  1
  C  C31  1  0.85568700  0.88277500  0.01647500  1
  C  C32  1  0.64247900  0.39268900  0.73415700  1
  C  C33  1  0.64313200  0.60693600  0.50860300  1
  C  C34  1  0.63941200  0.88954000  0.23641900  1
  C  C35  1  0.60731100  0.35752100  0.26584300  1
  C  C36  1  0.63367500  0.10627400  0.01808100  1
  C  C37  1  0.61155300  0.13975000  0.48566700  1
  C  C38  1  0.60960000  0.85618900  0.76619800  1
  C  C39  1  0.60496400  0.64150500  0.99186400  1
  C  C40  1  0.39306400  0.35686800  0.49139700  1
  C  C41  1  0.39165500  0.13303300  0.26996500  1
  C  C42  1  0.38941000  0.86121400  0.98487800  1
  C  C43  1  0.35596100  0.89049500  0.51714500  1
  C  C44  1  0.38272500  0.64346800  0.76888500  1
  C  C45  1  0.36163300  0.11025400  0.73531200  1
  C  C46  1  0.35849500  0.39503600  0.00813600  1
  C  C47  1  0.35653200  0.61727500  0.23111500  1
