# generated using pymatgen
data_Cu2(NiC4)3
_symmetry_space_group_name_H-M   'P 1'
_cell_length_a   9.15171600
_cell_length_b   8.76839600
_cell_length_c   15.11339567
_cell_angle_alpha   55.15709885
_cell_angle_beta   90.00000000
_cell_angle_gamma   90.00000000
_symmetry_Int_Tables_number   1
_chemical_formula_structural   Cu2(NiC4)3
_chemical_formula_sum   'Cu8 Ni12 C48'
_cell_volume   995.36102428
_cell_formula_units_Z   4
loop_
 _symmetry_equiv_pos_site_id
 _symmetry_equiv_pos_as_xyz
  1  'x, y, z'
loop_
 _atom_site_type_symbol
 _atom_site_label
 _atom_site_symmetry_multiplicity
 _atom_site_fract_x
 _atom_site_fract_y
 _atom_site_fract_z
 _atom_site_occupancy
  Ni  Ni0  1  0.75251900  0.54595100  0.49122600  1
  Ni  Ni1  1  0.62182200  0.25755400  0.85088600  1
  Ni  Ni2  1  0.88687000  0.97098100  0.14233900  1
  Ni  Ni3  1  0.12182200  0.74244600  0.64911400  1
  Ni  Ni4  1  0.38687000  0.02901900  0.35766100  1
  Ni  Ni5  1  0.25251900  0.45404900  0.00877400  1
  Ni  Ni6  1  0.74748100  0.54595100  0.99122600  1
  Ni  Ni7  1  0.61313000  0.97098100  0.64233900  1
  Ni  Ni8  1  0.87817800  0.25755400  0.35088600  1
  Ni  Ni9  1  0.11313000  0.02901900  0.85766100  1
  Ni  Ni10  1  0.37817800  0.74244600  0.14911400  1
  Ni  Ni11  1  0.24748100  0.45404900  0.50877400  1
  Cu  Cu12  1  0.97364900  0.36834900  0.88428700  1
  Cu  Cu13  1  0.47364900  0.63165100  0.61571300  1
  Cu  Cu14  1  0.03161400  0.87167400  0.38037400  1
  Cu  Cu15  1  0.53161400  0.12832600  0.11962600  1
  Cu  Cu16  1  0.46838600  0.87167400  0.88037400  1
  Cu  Cu17  1  0.96838600  0.12832600  0.61962600  1
  Cu  Cu18  1  0.52635100  0.36834900  0.38428700  1
  Cu  Cu19  1  0.02635100  0.63165100  0.11571300  1
  C  C20  1  0.12400700  0.62316900  0.44619500  1
  C  C21  1  0.10924600  0.16710000  0.90026200  1
  C  C22  1  0.33040000  0.46224100  0.60438400  1
  C  C23  1  0.42787500  0.88509100  0.18305000  1
  C  C24  1  0.63309000  0.51746000  0.58282300  1
  C  C25  1  0.80342200  0.28730800  0.83850700  1
  C  C26  1  0.57643400  0.16041700  0.97875100  1
  C  C27  1  0.00010200  0.88450700  0.24675900  1
  C  C28  1  0.71868700  0.98562000  0.17950600  1
  C  C29  1  0.83530500  0.75033900  0.43603800  1
  C  C30  1  0.53411500  0.45985400  0.77151000  1
  C  C31  1  0.03411500  0.54014600  0.72849000  1
  C  C32  1  0.93919400  0.18522500  0.04377300  1
  C  C33  1  0.43919400  0.81477500  0.45622700  1
  C  C34  1  0.33530500  0.24966100  0.06396200  1
  C  C35  1  0.21868700  0.01438000  0.32049400  1
  C  C36  1  0.07643400  0.83958300  0.52124900  1
  C  C37  1  0.50010200  0.11549300  0.25324100  1
  C  C38  1  0.30342200  0.71269200  0.66149300  1
  C  C39  1  0.13309000  0.48254000  0.91717700  1
  C  C40  1  0.83040000  0.53775900  0.89561600  1
  C  C41  1  0.60924600  0.83290000  0.59973800  1
  C  C42  1  0.92787500  0.11490900  0.31695000  1
  C  C43  1  0.62400700  0.37683100  0.05380500  1
  C  C44  1  0.37599300  0.62316900  0.94619500  1
  C  C45  1  0.07212500  0.88509100  0.68305000  1
  C  C46  1  0.39075400  0.16710000  0.40026200  1
  C  C47  1  0.16960000  0.46224100  0.10438400  1
  C  C48  1  0.86691000  0.51746000  0.08282300  1
  C  C49  1  0.69657800  0.28730800  0.33850700  1
  C  C50  1  0.49989800  0.88450700  0.74675900  1
  C  C51  1  0.92356600  0.16041700  0.47875100  1
  C  C52  1  0.78131300  0.98562000  0.67950600  1
  C  C53  1  0.66469500  0.75033900  0.93603800  1
  C  C54  1  0.56080600  0.18522500  0.54377300  1
  C  C55  1  0.06080600  0.81477500  0.95622700  1
  C  C56  1  0.96588500  0.45985400  0.27151000  1
  C  C57  1  0.46588500  0.54014600  0.22849000  1
  C  C58  1  0.16469500  0.24966100  0.56396200  1
  C  C59  1  0.28131300  0.01438000  0.82049400  1
  C  C60  1  0.99989800  0.11549300  0.75324100  1
  C  C61  1  0.42356600  0.83958300  0.02124900  1
  C  C62  1  0.19657800  0.71269200  0.16149300  1
  C  C63  1  0.36691000  0.48254000  0.41717700  1
  C  C64  1  0.57212500  0.11490900  0.81695000  1
  C  C65  1  0.66960000  0.53775900  0.39561600  1
  C  C66  1  0.89075400  0.83290000  0.09973800  1
  C  C67  1  0.87599300  0.37683100  0.55380500  1
