# generated using pymatgen
data_Cu9(Ni2C)5
_symmetry_space_group_name_H-M   'P 1'
_cell_length_a   8.42598900
_cell_length_b   9.37480500
_cell_length_c   24.18160200
_cell_angle_alpha   90.00000000
_cell_angle_beta   90.00000000
_cell_angle_gamma   90.00000000
_symmetry_Int_Tables_number   1
_chemical_formula_structural   Cu9(Ni2C)5
_chemical_formula_sum   'Cu36 Ni40 C20'
_cell_volume   1910.15319725
_cell_formula_units_Z   4
loop_
 _symmetry_equiv_pos_site_id
 _symmetry_equiv_pos_as_xyz
  1  'x, y, z'
loop_
 _atom_site_type_symbol
 _atom_site_label
 _atom_site_symmetry_multiplicity
 _atom_site_fract_x
 _atom_site_fract_y
 _atom_site_fract_z
 _atom_site_occupancy
  C  C0  1  0.78793700  0.05677100  0.58131900  1
  C  C1  1  0.21206300  0.55677100  0.41868100  1
  C  C2  1  0.28793700  0.55677100  0.91868100  1
  C  C3  1  0.71206300  0.05677100  0.08131900  1
  C  C4  1  0.64212300  0.34328700  0.59496900  1
  C  C5  1  0.35787700  0.84328700  0.40503100  1
  C  C6  1  0.14212300  0.84328700  0.90503100  1
  C  C7  1  0.85787700  0.34328700  0.09496900  1
  C  C8  1  0.75475700  0.12489200  0.70108800  1
  C  C9  1  0.24524300  0.62489200  0.29891200  1
  C  C10  1  0.25475700  0.62489200  0.79891200  1
  C  C11  1  0.74524300  0.12489200  0.20108800  1
  Ni  Ni12  1  0.77600400  0.05379400  0.50140300  1
  Ni  Ni13  1  0.22399600  0.55379400  0.49859700  1
  Ni  Ni14  1  0.27600400  0.55379400  0.99859700  1
  Ni  Ni15  1  0.72399600  0.05379400  0.00140300  1
  Ni  Ni16  1  0.85866600  0.86158100  0.59153700  1
  Ni  Ni17  1  0.14133400  0.36158100  0.40846300  1
  Ni  Ni18  1  0.35866600  0.36158100  0.90846300  1
  Ni  Ni19  1  0.64133400  0.86158100  0.09153700  1
  Ni  Ni20  1  0.54125700  0.98714100  0.58732700  1
  Ni  Ni21  1  0.45874300  0.48714100  0.41267300  1
  Ni  Ni22  1  0.04125700  0.48714100  0.91267300  1
  Ni  Ni23  1  0.95874300  0.98714100  0.08732700  1
  Ni  Ni24  1  0.97461500  0.14224900  0.58584400  1
  Ni  Ni25  1  0.02538500  0.64224900  0.41415600  1
  Ni  Ni26  1  0.47461500  0.64224900  0.91415600  1
  Ni  Ni27  1  0.52538500  0.14224900  0.08584400  1
  Ni  Ni28  1  0.49216600  0.27813200  0.54277000  1
  Ni  Ni29  1  0.50783400  0.77813200  0.45723000  1
  Ni  Ni30  1  0.99216600  0.77813200  0.95723000  1
  Ni  Ni31  1  0.00783400  0.27813200  0.04277000  1
  Ni  Ni32  1  0.56267500  0.53371500  0.60601100  1
  Ni  Ni33  1  0.43732500  0.03371500  0.39398900  1
  Ni  Ni34  1  0.06267500  0.03371500  0.89398900  1
  Ni  Ni35  1  0.93732500  0.53371500  0.10601100  1
  Ni  Ni36  1  0.79081100  0.38661800  0.53911600  1
  Ni  Ni37  1  0.20918900  0.88661800  0.46088400  1
  Ni  Ni38  1  0.29081100  0.88661800  0.96088400  1
  Ni  Ni39  1  0.70918900  0.38661800  0.03911600  1
  Ni  Ni40  1  0.67094000  0.93853400  0.70494400  1
  Ni  Ni41  1  0.32906000  0.43853400  0.29505600  1
  Ni  Ni42  1  0.17094000  0.43853400  0.79505600  1
  Ni  Ni43  1  0.82906000  0.93853400  0.20494400  1
  Ni  Ni44  1  0.73307700  0.17460700  0.77836800  1
  Ni  Ni45  1  0.26692300  0.67460700  0.22163200  1
  Ni  Ni46  1  0.23307700  0.67460700  0.72163200  1
  Ni  Ni47  1  0.76692300  0.17460700  0.27836800  1
  Ni  Ni48  1  0.96506200  0.05557200  0.70313400  1
  Ni  Ni49  1  0.03493800  0.55557200  0.29686600  1
  Ni  Ni50  1  0.46506200  0.55557200  0.79686600  1
  Ni  Ni51  1  0.53493800  0.05557200  0.20313400  1
  C  C52  1  0.45019500  0.24110500  0.68211000  1
  C  C53  1  0.54980500  0.74110500  0.31789000  1
  C  C54  1  0.95019500  0.74110500  0.81789000  1
  C  C55  1  0.04980500  0.24110500  0.18211000  1
  C  C56  1  0.87181800  0.39789200  0.67598700  1
  C  C57  1  0.12818200  0.89789200  0.32401300  1
  C  C58  1  0.37181800  0.89789200  0.82401300  1
  C  C59  1  0.62818200  0.39789200  0.17598700  1
  Cu  Cu60  1  0.77936300  0.04933600  0.45359500  1
  Cu  Cu61  1  0.22063700  0.54933600  0.54640500  1
  Cu  Cu62  1  0.27936300  0.54933600  0.04640500  1
  Cu  Cu63  1  0.72063700  0.04933600  0.95359500  1
  Cu  Cu64  1  0.90583700  0.74591900  0.59493700  1
  Cu  Cu65  1  0.09416300  0.24591900  0.40506300  1
  Cu  Cu66  1  0.40583700  0.24591900  0.90506300  1
  Cu  Cu67  1  0.59416300  0.74591900  0.09493700  1
  Cu  Cu68  1  0.41210900  0.94765600  0.58660200  1
  Cu  Cu69  1  0.58789100  0.44765600  0.41339800  1
  Cu  Cu70  1  0.91210900  0.44765600  0.91339800  1
  Cu  Cu71  1  0.08789100  0.94765600  0.08660200  1
  Cu  Cu72  1  0.40091100  0.24110800  0.50978700  1
  Cu  Cu73  1  0.59908900  0.74110800  0.49021300  1
  Cu  Cu74  1  0.90091100  0.74110800  0.99021300  1
  Cu  Cu75  1  0.09908900  0.24110800  0.00978700  1
  Cu  Cu76  1  0.52075600  0.65073000  0.61059600  1
  Cu  Cu77  1  0.47924400  0.15073000  0.38940400  1
  Cu  Cu78  1  0.02075600  0.15073000  0.88940400  1
  Cu  Cu79  1  0.97924400  0.65073000  0.11059600  1
  Cu  Cu80  1  0.87755800  0.41800000  0.50397200  1
  Cu  Cu81  1  0.12244200  0.91800000  0.49602800  1
  Cu  Cu82  1  0.37755800  0.91800000  0.99602800  1
  Cu  Cu83  1  0.62244200  0.41800000  0.00397200  1
  Cu  Cu84  1  0.62298000  0.82269200  0.70892300  1
  Cu  Cu85  1  0.37702000  0.32269200  0.29107700  1
  Cu  Cu86  1  0.12298000  0.32269200  0.79107700  1
  Cu  Cu87  1  0.87702000  0.82269200  0.20892300  1
  Cu  Cu88  1  0.72026600  0.19899600  0.82501400  1
  Cu  Cu89  1  0.27973400  0.69899600  0.17498600  1
  Cu  Cu90  1  0.22026600  0.69899600  0.67498600  1
  Cu  Cu91  1  0.77973400  0.19899600  0.32501400  1
  Cu  Cu92  1  0.09353700  0.01222100  0.70646800  1
  Cu  Cu93  1  0.90646300  0.51222100  0.29353200  1
  Cu  Cu94  1  0.59353700  0.51222100  0.79353200  1
  Cu  Cu95  1  0.40646300  0.01222100  0.20646800  1
