# generated using pymatgen
data_Cu3NiC
_symmetry_space_group_name_H-M   'P 1'
_cell_length_a   4.89193700
_cell_length_b   5.31901100
_cell_length_c   8.06875516
_cell_angle_alpha   89.87514400
_cell_angle_beta   90.00000000
_cell_angle_gamma   90.00000000
_symmetry_Int_Tables_number   1
_chemical_formula_structural   Cu3NiC
_chemical_formula_sum   'Cu12 Ni4 C4'
_cell_volume   209.95066277
_cell_formula_units_Z   4
loop_
 _symmetry_equiv_pos_site_id
 _symmetry_equiv_pos_as_xyz
  1  'x, y, z'
loop_
 _atom_site_type_symbol
 _atom_site_label
 _atom_site_symmetry_multiplicity
 _atom_site_fract_x
 _atom_site_fract_y
 _atom_site_fract_z
 _atom_site_occupancy
  C  C0  1  0.25000000  0.24334100  0.90002000  1
  C  C1  1  0.75000000  0.25025900  0.43261000  1
  C  C2  1  0.25000000  0.74974100  0.56739000  1
  C  C3  1  0.75000000  0.75665900  0.09998000  1
  Ni  Ni4  1  0.25000000  0.19311100  0.25199400  1
  Ni  Ni5  1  0.75000000  0.50849300  0.75489200  1
  Ni  Ni6  1  0.25000000  0.49150700  0.24510800  1
  Ni  Ni7  1  0.75000000  0.80688900  0.74800600  1
  Cu  Cu8  1  0.48588000  0.11241800  0.17303200  1
  Cu  Cu9  1  0.01412000  0.11241800  0.17303200  1
  Cu  Cu10  1  0.25000000  0.12401200  0.42186600  1
  Cu  Cu11  1  0.75000000  0.42249300  0.91687700  1
  Cu  Cu12  1  0.51588700  0.41800400  0.67202300  1
  Cu  Cu13  1  0.98411300  0.41800400  0.67202300  1
  Cu  Cu14  1  0.01588700  0.58199600  0.32797700  1
  Cu  Cu15  1  0.48411300  0.58199600  0.32797700  1
  Cu  Cu16  1  0.25000000  0.57750700  0.08312300  1
  Cu  Cu17  1  0.75000000  0.87598800  0.57813400  1
  Cu  Cu18  1  0.98588000  0.88758200  0.82696800  1
  Cu  Cu19  1  0.51412000  0.88758200  0.82696800  1
