# generated using pymatgen
data_Cu3NiC36
_symmetry_space_group_name_H-M   'P 1'
_cell_length_a   8.37551400
_cell_length_b   8.56800006
_cell_length_c   8.70176865
_cell_angle_alpha   62.79519033
_cell_angle_beta   63.59354905
_cell_angle_gamma   63.90201676
_symmetry_Int_Tables_number   1
_chemical_formula_structural   Cu3NiC36
_chemical_formula_sum   'Cu3 Ni1 C36'
_cell_volume   474.98096247
_cell_formula_units_Z   1
loop_
 _symmetry_equiv_pos_site_id
 _symmetry_equiv_pos_as_xyz
  1  'x, y, z'
loop_
 _atom_site_type_symbol
 _atom_site_label
 _atom_site_symmetry_multiplicity
 _atom_site_fract_x
 _atom_site_fract_y
 _atom_site_fract_z
 _atom_site_occupancy
  C  C0  1  0.25087800  0.64089500  0.85834800  1
  C  C1  1  0.74683000  0.34214400  0.16032000  1
  C  C2  1  0.35142900  0.15610800  0.74924200  1
  C  C3  1  0.14956300  0.74977100  0.34420700  1
  Ni  Ni4  1  0.15258100  0.15716100  0.16072300  1
  C  C5  1  0.99619900  0.00536000  0.00013100  1
  C  C6  1  0.50314300  0.50167000  0.49406700  1
  Cu  Cu7  1  0.85230300  0.85760700  0.85159500  1
  Cu  Cu8  1  0.64890900  0.64639200  0.64394300  1
  Cu  Cu9  1  0.34897800  0.34245600  0.34400900  1
  C  C10  1  0.74940500  0.04486100  0.45873000  1
  C  C11  1  0.44414600  0.74735400  0.03818400  1
  C  C12  1  0.05475600  0.46053100  0.75156100  1
  C  C13  1  0.93336900  0.56015100  0.25193800  1
  C  C14  1  0.56792700  0.24739600  0.94246900  1
  C  C15  1  0.25066400  0.93753800  0.55918000  1
  C  C16  1  0.89406300  0.52421800  0.67630300  1
  C  C17  1  0.67287800  0.89038000  0.50397500  1
  C  C18  1  0.92957700  0.74615500  0.08874100  1
  C  C19  1  0.46567200  0.67925700  0.89148300  1
  C  C20  1  0.95423000  0.40679100  0.19235600  1
  C  C21  1  0.74201600  0.58198700  0.40677000  1
  C  C22  1  0.76064000  0.09225200  0.92000200  1
  C  C23  1  0.57615900  0.41073900  0.75991200  1
  C  C24  1  0.82117400  0.00170800  0.61243600  1
  C  C25  1  0.40213300  0.74222800  0.58811600  1
  C  C26  1  0.89955900  0.06386200  0.26806000  1
  C  C27  1  0.60801300  0.81930800  0.97866800  1
  C  C28  1  0.40899700  0.18293600  0.97092600  1
  C  C29  1  0.10022000  0.91029000  0.75223600  1
  C  C30  1  0.59795700  0.23877000  0.43760200  1
  C  C31  1  0.19035500  0.96035500  0.40623100  1
  C  C32  1  0.43364000  0.59745200  0.22884500  1
  C  C33  1  0.24852900  0.89928500  0.06472300  1
  C  C34  1  0.25040100  0.43651800  0.60078200  1
  C  C35  1  0.03189900  0.60481000  0.82495500  1
  C  C36  1  0.54130200  0.30331600  0.09941200  1
  C  C37  1  0.06425900  0.26507600  0.89765200  1
  C  C38  1  0.31018600  0.09711600  0.52947200  1
  C  C39  1  0.09505800  0.52479500  0.31469700  1
