# generated using pymatgen
data_Cu3Ni5C16
_symmetry_space_group_name_H-M   'P 1'
_cell_length_a   5.81891672
_cell_length_b   5.81891672
_cell_length_c   8.88540462
_cell_angle_alpha   89.57691227
_cell_angle_beta   89.57691227
_cell_angle_gamma   59.88239553
_symmetry_Int_Tables_number   1
_chemical_formula_structural   Cu3Ni5C16
_chemical_formula_sum   'Cu3 Ni5 C16'
_cell_volume   260.23186165
_cell_formula_units_Z   1
loop_
 _symmetry_equiv_pos_site_id
 _symmetry_equiv_pos_as_xyz
  1  'x, y, z'
loop_
 _atom_site_type_symbol
 _atom_site_label
 _atom_site_symmetry_multiplicity
 _atom_site_fract_x
 _atom_site_fract_y
 _atom_site_fract_z
 _atom_site_occupancy
  Ni  Ni0  1  0.66804600  0.66804600  0.51640800  1
  Ni  Ni1  1  0.82914800  0.82914800  0.78568800  1
  Ni  Ni2  1  0.33345600  0.33345600  0.01790900  1
  Ni  Ni3  1  0.16556000  0.66274500  0.28849100  1
  Ni  Ni4  1  0.66274500  0.16556000  0.28849100  1
  Cu  Cu5  1  0.32878200  0.83203200  0.79598500  1
  Cu  Cu6  1  0.83203200  0.32878200  0.79598500  1
  Cu  Cu7  1  0.16309800  0.16309800  0.29878600  1
  C  C8  1  0.33793000  0.83394800  0.39454400  1
  C  C9  1  0.52643000  0.52643000  0.66176600  1
  C  C10  1  0.66998400  0.66998400  0.90250200  1
  C  C11  1  0.99643900  0.99643900  0.68334000  1
  C  C12  1  0.99671500  0.99671500  0.18325600  1
  C  C13  1  0.83394800  0.33793000  0.39454400  1
  C  C14  1  0.52109000  0.95562200  0.65836900  1
  C  C15  1  0.95562200  0.52109000  0.65836900  1
  C  C16  1  0.17257100  0.17257100  0.89111300  1
  C  C17  1  0.83417400  0.83417400  0.39940100  1
  C  C18  1  0.04543500  0.47665400  0.16041600  1
  C  C19  1  0.47665400  0.04543500  0.16041600  1
  C  C20  1  0.33655100  0.33655100  0.40038800  1
  C  C21  1  0.17195900  0.66255900  0.89490200  1
  C  C22  1  0.47853300  0.47853300  0.15828600  1
  C  C23  1  0.66255900  0.17195900  0.89490200  1
