# generated using pymatgen
data_CuNiC4
_symmetry_space_group_name_H-M   'P 1'
_cell_length_a   4.95128700
_cell_length_b   6.08363700
_cell_length_c   10.46366000
_cell_angle_alpha   90.00000000
_cell_angle_beta   90.00000000
_cell_angle_gamma   90.00000000
_symmetry_Int_Tables_number   1
_chemical_formula_structural   CuNiC4
_chemical_formula_sum   'Cu4 Ni4 C16'
_cell_volume   315.18461690
_cell_formula_units_Z   4
loop_
 _symmetry_equiv_pos_site_id
 _symmetry_equiv_pos_as_xyz
  1  'x, y, z'
loop_
 _atom_site_type_symbol
 _atom_site_label
 _atom_site_symmetry_multiplicity
 _atom_site_fract_x
 _atom_site_fract_y
 _atom_site_fract_z
 _atom_site_occupancy
  Ni  Ni0  1  0.40795200  0.75000000  0.40581100  1
  Ni  Ni1  1  0.09204800  0.75000000  0.90581100  1
  Ni  Ni2  1  0.90795200  0.25000000  0.09418900  1
  Ni  Ni3  1  0.59204800  0.25000000  0.59418900  1
  Cu  Cu4  1  0.97340600  0.75000000  0.23090900  1
  Cu  Cu5  1  0.52659400  0.75000000  0.73090900  1
  Cu  Cu6  1  0.47340600  0.25000000  0.26909100  1
  Cu  Cu7  1  0.02659400  0.25000000  0.76909100  1
  C  C8  1  0.27367000  0.53088200  0.32825200  1
  C  C9  1  0.22633000  0.53088200  0.82825200  1
  C  C10  1  0.16947100  0.75000000  0.05967200  1
  C  C11  1  0.73797100  0.75000000  0.38909100  1
  C  C12  1  0.76202900  0.75000000  0.88909100  1
  C  C13  1  0.33052900  0.75000000  0.55967200  1
  C  C14  1  0.27367000  0.96911800  0.32825200  1
  C  C15  1  0.22633000  0.96911800  0.82825200  1
  C  C16  1  0.72633000  0.03088200  0.67174800  1
  C  C17  1  0.77367000  0.03088200  0.17174800  1
  C  C18  1  0.83052900  0.25000000  0.94032800  1
  C  C19  1  0.66947100  0.25000000  0.44032800  1
  C  C20  1  0.23797100  0.25000000  0.11090900  1
  C  C21  1  0.26202900  0.25000000  0.61090900  1
  C  C22  1  0.77367000  0.46911800  0.17174800  1
  C  C23  1  0.72633000  0.46911800  0.67174800  1
