# generated using pymatgen
data_Cu4NiC23
_symmetry_space_group_name_H-M   'P 1'
_cell_length_a   10.53316054
_cell_length_b   10.50969624
_cell_length_c   10.41584421
_cell_angle_alpha   60.44362348
_cell_angle_beta   60.21931915
_cell_angle_gamma   59.33705736
_symmetry_Int_Tables_number   1
_chemical_formula_structural   Cu4NiC23
_chemical_formula_sum   'Cu8 Ni2 C46'
_cell_volume   815.15144693
_cell_formula_units_Z   2
loop_
 _symmetry_equiv_pos_site_id
 _symmetry_equiv_pos_as_xyz
  1  'x, y, z'
loop_
 _atom_site_type_symbol
 _atom_site_label
 _atom_site_symmetry_multiplicity
 _atom_site_fract_x
 _atom_site_fract_y
 _atom_site_fract_z
 _atom_site_occupancy
  C  C0  1  0.82149000  0.42255800  0.56809400  1
  C  C1  1  0.06339300  0.68208800  0.42736100  1
  C  C2  1  0.68208800  0.06339300  0.82715800  1
  C  C3  1  0.06214200  0.68190600  0.82744200  1
  C  C4  1  0.82263900  0.42284200  0.18660700  1
  C  C5  1  0.42255800  0.82149000  0.18785800  1
  C  C6  1  0.42284200  0.82263900  0.56791200  1
  C  C7  1  0.68128300  0.68128300  0.81871700  1
  C  C8  1  0.68190600  0.06214200  0.42851000  1
  C  C9  1  0.43128300  0.43128300  0.56871700  1
  C  C10  1  0.75323900  0.24187100  0.00364700  1
  C  C11  1  0.24635300  0.24875700  0.49676100  1
  C  C12  1  0.24187100  0.75323900  0.00124300  1
  C  C13  1  0.24875700  0.24635300  0.00812900  1
  Ni  Ni14  1  0.87465200  0.87465200  0.62534800  1
  Ni  Ni15  1  0.62465200  0.62465200  0.37534800  1
  Cu  Cu16  1  0.47537100  0.08708100  0.21733000  1
  Cu  Cu17  1  0.08708100  0.47537100  0.22021800  1
  Cu  Cu18  1  0.46989900  0.47112200  0.22158200  1
  Cu  Cu19  1  0.47112200  0.46989900  0.83739700  1
  Cu  Cu20  1  0.03267000  0.02978200  0.77462900  1
  Cu  Cu21  1  0.02978200  0.03267000  0.16291900  1
  Cu  Cu22  1  0.02841800  0.41260300  0.78010100  1
  Cu  Cu23  1  0.41260300  0.02841800  0.77887800  1
  C  C24  1  0.90163300  0.14813900  0.78393600  1
  C  C25  1  0.36170600  0.07804000  0.20847800  1
  C  C26  1  0.07804000  0.36170600  0.35177600  1
  C  C27  1  0.04095100  0.41448300  0.64789500  1
  C  C28  1  0.08370800  0.46606400  0.10186100  1
  C  C29  1  0.80657500  0.80567100  0.55888900  1
  C  C30  1  0.80567100  0.80657500  0.82886500  1
  C  C31  1  0.09947300  0.59819100  0.20840100  1
  C  C32  1  0.59819100  0.09947300  0.09393500  1
  C  C33  1  0.35407200  0.45853500  0.35224600  1
  C  C34  1  0.45853500  0.35407200  0.83514700  1
  C  C35  1  0.79062100  0.07482000  0.56713000  1
  C  C36  1  0.07482000  0.79062100  0.56742800  1
  C  C37  1  0.04152200  0.89822400  0.88829400  1
  C  C38  1  0.89822400  0.04152200  0.17196000  1
  C  C39  1  0.35333000  0.60210500  0.83551700  1
  C  C40  1  0.14813900  0.90163300  0.16629200  1
  C  C41  1  0.60058000  0.45569100  0.83886900  1
  C  C42  1  0.45569100  0.60058000  0.10486100  1
  C  C43  1  0.69111100  0.42113500  0.44342500  1
  C  C44  1  0.42113500  0.69111100  0.44432900  1
  C  C45  1  0.04159900  0.15606500  0.15052700  1
  C  C46  1  0.15606500  0.04159900  0.65180900  1
  C  C47  1  0.89775400  0.41485300  0.89592800  1
  C  C48  1  0.41485300  0.89775400  0.79146500  1
  C  C49  1  0.68257200  0.68287000  0.17517900  1
  C  C50  1  0.68287000  0.68257200  0.45937900  1
  C  C51  1  0.41448300  0.04095100  0.89667000  1
  C  C52  1  0.46606400  0.08370800  0.34836700  1
  C  C53  1  0.41113100  0.14513900  0.64942000  1
  C  C54  1  0.14513900  0.41113100  0.79430900  1
  C  C55  1  0.60210500  0.35333000  0.20904900  1
