# generated using pymatgen
data_Cu3NiC30
_symmetry_space_group_name_H-M   'P 1'
_cell_length_a   8.90255418
_cell_length_b   8.90255418
_cell_length_c   8.90255369
_cell_angle_alpha   58.91162971
_cell_angle_beta   58.91162971
_cell_angle_gamma   58.91163342
_symmetry_Int_Tables_number   1
_chemical_formula_structural   Cu3NiC30
_chemical_formula_sum   'Cu3 Ni1 C30'
_cell_volume   486.52503124
_cell_formula_units_Z   1
loop_
 _symmetry_equiv_pos_site_id
 _symmetry_equiv_pos_as_xyz
  1  'x, y, z'
loop_
 _atom_site_type_symbol
 _atom_site_label
 _atom_site_symmetry_multiplicity
 _atom_site_fract_x
 _atom_site_fract_y
 _atom_site_fract_z
 _atom_site_occupancy
  Ni  Ni0  1  0.14272700  0.14272700  0.14272700  1
  C  C1  1  0.53050300  0.96577400  0.24899900  1
  C  C2  1  0.24899900  0.53050300  0.96577400  1
  C  C3  1  0.96577400  0.24899900  0.53050300  1
  C  C4  1  0.03708200  0.75671400  0.45755400  1
  C  C5  1  0.75671400  0.45755400  0.03708200  1
  C  C6  1  0.45755400  0.03708200  0.75671400  1
  Cu  Cu7  1  0.85769100  0.85769100  0.85769100  1
  Cu  Cu8  1  0.64283900  0.64283900  0.64283900  1
  Cu  Cu9  1  0.35810900  0.35810900  0.35810900  1
  C  C10  1  0.49483400  0.86817500  0.71635100  1
  C  C11  1  0.86817500  0.71635100  0.49483400  1
  C  C12  1  0.71335400  0.93776900  0.07974200  1
  C  C13  1  0.71635100  0.49483400  0.86817500  1
  C  C14  1  0.56580000  0.78764700  0.41951900  1
  C  C15  1  0.36438100  0.98992900  0.22405800  1
  C  C16  1  0.07974200  0.71335400  0.93776900  1
  C  C17  1  0.41951900  0.56580000  0.78764700  1
  C  C18  1  0.78764700  0.41951900  0.56580000  1
  C  C19  1  0.00808100  0.77886700  0.63420200  1
  C  C20  1  0.05914000  0.92260700  0.28465300  1
  C  C21  1  0.77886700  0.63420200  0.00808100  1
  C  C22  1  0.22405800  0.36438100  0.98992900  1
  C  C23  1  0.93776900  0.07974200  0.71335400  1
  C  C24  1  0.98992900  0.22405800  0.36438100  1
  C  C25  1  0.21166900  0.57845600  0.43988100  1
  C  C26  1  0.57845600  0.43988100  0.21166900  1
  C  C27  1  0.92260700  0.28465300  0.05914000  1
  C  C28  1  0.63420200  0.00808100  0.77886700  1
  C  C29  1  0.43988100  0.21166900  0.57845600  1
  C  C30  1  0.27983300  0.50945100  0.13360600  1
  C  C31  1  0.28465300  0.05914000  0.92260700  1
  C  C32  1  0.13360600  0.27983300  0.50945100  1
  C  C33  1  0.50945100  0.13360600  0.27983300  1
