# generated using pymatgen
data_Cu5NiC20
_symmetry_space_group_name_H-M   'P 1'
_cell_length_a   6.53581900
_cell_length_b   8.56904972
_cell_length_c   10.11539303
_cell_angle_alpha   85.82909656
_cell_angle_beta   89.91662270
_cell_angle_gamma   89.17155747
_symmetry_Int_Tables_number   1
_chemical_formula_structural   Cu5NiC20
_chemical_formula_sum   'Cu10 Ni2 C40'
_cell_volume   564.96074055
_cell_formula_units_Z   2
loop_
 _symmetry_equiv_pos_site_id
 _symmetry_equiv_pos_as_xyz
  1  'x, y, z'
loop_
 _atom_site_type_symbol
 _atom_site_label
 _atom_site_symmetry_multiplicity
 _atom_site_fract_x
 _atom_site_fract_y
 _atom_site_fract_z
 _atom_site_occupancy
  Ni  Ni0  1  0.50007100  0.74405300  0.37171800  1
  Ni  Ni1  1  0.49992900  0.25594700  0.62828200  1
  Cu  Cu2  1  0.76562700  0.90847100  0.12177300  1
  Cu  Cu3  1  0.77056000  0.91318100  0.62596900  1
  Cu  Cu4  1  0.97727400  0.72302500  0.37775200  1
  Cu  Cu5  1  0.97607000  0.72345900  0.87743900  1
  Cu  Cu6  1  0.51736300  0.72845100  0.87437900  1
  Cu  Cu7  1  0.48263700  0.27154900  0.12562100  1
  Cu  Cu8  1  0.02393000  0.27654100  0.12256100  1
  Cu  Cu9  1  0.02272600  0.27697500  0.62224800  1
  Cu  Cu10  1  0.22944000  0.08681900  0.37403100  1
  Cu  Cu11  1  0.23437300  0.09152900  0.87822700  1
  C  C12  1  0.24683900  0.66358100  0.10380000  1
  C  C13  1  0.24466400  0.65846100  0.60869100  1
  C  C14  1  0.75533600  0.34153900  0.39130900  1
  C  C15  1  0.75316100  0.33641900  0.89620000  1
  C  C16  1  0.75268700  0.58882700  0.14191800  1
  C  C17  1  0.75517800  0.58977900  0.64579600  1
  C  C18  1  0.24482200  0.41022100  0.35420400  1
  C  C19  1  0.24731300  0.41117300  0.85808200  1
  C  C20  1  0.24701100  0.96647000  0.14158800  1
  C  C21  1  0.23978700  0.95900000  0.64707900  1
  C  C22  1  0.76021300  0.04100000  0.35292100  1
  C  C23  1  0.75298900  0.03353000  0.85841200  1
  C  C24  1  0.77853300  0.89773300  0.32158100  1
  C  C25  1  0.74576700  0.88810700  0.83076200  1
  C  C26  1  0.24717800  0.92556500  0.02057900  1
  C  C27  1  0.25079400  0.92383400  0.52432300  1
  C  C28  1  0.23848800  0.85759200  0.23867800  1
  C  C29  1  0.24644000  0.84651900  0.74192600  1
  C  C30  1  0.93324300  0.68957900  0.08281400  1
  C  C31  1  0.56028200  0.69067100  0.09939400  1
  C  C32  1  0.93036100  0.70149700  0.59466400  1
  C  C33  1  0.55676100  0.67971000  0.60011100  1
  C  C34  1  0.77074200  0.57156300  0.29579800  1
  C  C35  1  0.22512200  0.57216800  0.41094000  1
  C  C36  1  0.75849300  0.56966800  0.80096100  1
  C  C37  1  0.25371900  0.57633800  0.91005300  1
  C  C38  1  0.74628100  0.42366200  0.08994700  1
  C  C39  1  0.24150700  0.43033200  0.19903900  1
  C  C40  1  0.77487800  0.42783200  0.58906000  1
  C  C41  1  0.22925800  0.42843700  0.70420200  1
  C  C42  1  0.44323900  0.32029000  0.39988900  1
  C  C43  1  0.06963900  0.29850300  0.40533600  1
  C  C44  1  0.43971800  0.30932900  0.90060600  1
  C  C45  1  0.06675700  0.31042100  0.91718600  1
  C  C46  1  0.75356000  0.15348100  0.25807400  1
  C  C47  1  0.76151200  0.14240800  0.76132200  1
  C  C48  1  0.74920600  0.07616600  0.47567700  1
  C  C49  1  0.75282200  0.07443500  0.97942100  1
  C  C50  1  0.25423300  0.11189300  0.16923800  1
  C  C51  1  0.22146700  0.10226700  0.67841900  1
