# generated using pymatgen
data_Cu3NiC10
_symmetry_space_group_name_H-M   'P 1'
_cell_length_a   8.30044800
_cell_length_b   8.30044800
_cell_length_c   8.30044800
_cell_angle_alpha   90.00000000
_cell_angle_beta   90.00000000
_cell_angle_gamma   90.00000000
_symmetry_Int_Tables_number   1
_chemical_formula_structural   Cu3NiC10
_chemical_formula_sum   'Cu12 Ni4 C40'
_cell_volume   571.87959316
_cell_formula_units_Z   4
loop_
 _symmetry_equiv_pos_site_id
 _symmetry_equiv_pos_as_xyz
  1  'x, y, z'
loop_
 _atom_site_type_symbol
 _atom_site_label
 _atom_site_symmetry_multiplicity
 _atom_site_fract_x
 _atom_site_fract_y
 _atom_site_fract_z
 _atom_site_occupancy
  C  C0  1  0.00024600  0.00024600  0.00024600  1
  C  C1  1  0.99975400  0.50024600  0.49975400  1
  C  C2  1  0.12568900  0.87431100  0.37431100  1
  C  C3  1  0.37431100  0.12568900  0.87431100  1
  C  C4  1  0.50024600  0.49975400  0.99975400  1
  C  C5  1  0.49975400  0.99975400  0.50024600  1
  C  C6  1  0.62568900  0.62568900  0.62568900  1
  C  C7  1  0.87431100  0.37431100  0.12568900  1
  Ni  Ni8  1  0.24867900  0.24867900  0.24867900  1
  Ni  Ni9  1  0.25132100  0.75132100  0.74867900  1
  Ni  Ni10  1  0.74867900  0.25132100  0.75132100  1
  Ni  Ni11  1  0.75132100  0.74867900  0.25132100  1
  Cu  Cu12  1  0.13014500  0.12459300  0.62792700  1
  Cu  Cu13  1  0.12459300  0.62792700  0.13014500  1
  Cu  Cu14  1  0.12792700  0.36985500  0.87540700  1
  Cu  Cu15  1  0.37540700  0.37207300  0.63014500  1
  Cu  Cu16  1  0.37207300  0.63014500  0.37540700  1
  Cu  Cu17  1  0.36985500  0.87540700  0.12792700  1
  Cu  Cu18  1  0.62792700  0.13014500  0.12459300  1
  Cu  Cu19  1  0.63014500  0.37540700  0.37207300  1
  Cu  Cu20  1  0.62459300  0.87207300  0.86985500  1
  Cu  Cu21  1  0.87540700  0.12792700  0.36985500  1
  Cu  Cu22  1  0.86985500  0.62459300  0.87207300  1
  Cu  Cu23  1  0.87207300  0.86985500  0.62459300  1
  C  C24  1  0.12828900  0.39333800  0.10201900  1
  C  C25  1  0.13648900  0.36351100  0.63648900  1
  C  C26  1  0.14709000  0.85644700  0.11928500  1
  C  C27  1  0.10666200  0.89798100  0.62828900  1
  C  C28  1  0.10201900  0.12828900  0.39333800  1
  C  C29  1  0.11928500  0.14709000  0.85644700  1
  C  C30  1  0.14355300  0.61928500  0.35291000  1
  C  C31  1  0.11156800  0.61156800  0.88843200  1
  C  C32  1  0.39333800  0.10201900  0.12828900  1
  C  C33  1  0.38843200  0.38843200  0.38843200  1
  C  C34  1  0.35291000  0.14355300  0.61928500  1
  C  C35  1  0.35644700  0.38071500  0.85291000  1
  C  C36  1  0.36351100  0.63648900  0.13648900  1
  C  C37  1  0.38071500  0.85291000  0.35644700  1
  C  C38  1  0.37171100  0.60666200  0.60201900  1
  C  C39  1  0.39798100  0.87171100  0.89333800  1
  C  C40  1  0.63648900  0.13648900  0.36351100  1
  C  C41  1  0.62828900  0.10666200  0.89798100  1
  C  C42  1  0.61928500  0.35291000  0.14355300  1
  C  C43  1  0.60201900  0.37171100  0.60666200  1
  C  C44  1  0.60666200  0.60201900  0.37171100  1
  C  C45  1  0.64709000  0.64355300  0.88071500  1
  C  C46  1  0.61156800  0.88843200  0.11156800  1
  C  C47  1  0.64355300  0.88071500  0.64709000  1
  C  C48  1  0.85644700  0.11928500  0.14709000  1
  C  C49  1  0.88843200  0.11156800  0.61156800  1
  C  C50  1  0.85291000  0.35644700  0.38071500  1
  C  C51  1  0.89333800  0.39798100  0.87171100  1
  C  C52  1  0.89798100  0.62828900  0.10666200  1
  C  C53  1  0.88071500  0.64709000  0.64355300  1
  C  C54  1  0.87171100  0.89333800  0.39798100  1
  C  C55  1  0.86351100  0.86351100  0.86351100  1
