# generated using pymatgen
data_Cu3NiC36
_symmetry_space_group_name_H-M   'P 1'
_cell_length_a   9.86197505
_cell_length_b   9.86197505
_cell_length_c   9.89201011
_cell_angle_alpha   86.96288146
_cell_angle_beta   86.96288146
_cell_angle_gamma   87.57421703
_symmetry_Int_Tables_number   1
_chemical_formula_structural   Cu3NiC36
_chemical_formula_sum   'Cu6 Ni2 C72'
_cell_volume   958.62818957
_cell_formula_units_Z   2
loop_
 _symmetry_equiv_pos_site_id
 _symmetry_equiv_pos_as_xyz
  1  'x, y, z'
loop_
 _atom_site_type_symbol
 _atom_site_label
 _atom_site_symmetry_multiplicity
 _atom_site_fract_x
 _atom_site_fract_y
 _atom_site_fract_z
 _atom_site_occupancy
  C  C0  1  0.52095200  0.95084300  0.24481600  1
  C  C1  1  0.35595400  0.26405300  0.18860400  1
  C  C2  1  0.77143900  0.92827200  0.11270700  1
  C  C3  1  0.85457200  0.44032000  0.01856400  1
  C  C4  1  0.55968000  0.14542800  0.98143600  1
  C  C5  1  0.07172800  0.22856100  0.88729300  1
  C  C6  1  0.73594700  0.64404600  0.81139600  1
  C  C7  1  0.04915700  0.47904800  0.75518400  1
  C  C8  1  0.94152100  0.76722100  0.60851600  1
  C  C9  1  0.14216600  0.53757600  0.48217700  1
  C  C10  1  0.46242400  0.85783400  0.51782300  1
  C  C11  1  0.23277900  0.05847900  0.39148400  1
  Ni  Ni12  1  0.75643100  0.03161800  0.72250000  1
  Ni  Ni13  1  0.96838200  0.24356900  0.27750000  1
  Cu  Cu14  1  0.02891400  0.74592200  0.21677100  1
  Cu  Cu15  1  0.24991900  0.75008100  0.00000000  1
  Cu  Cu16  1  0.46387400  0.53612600  0.00000000  1
  Cu  Cu17  1  0.25407800  0.97108600  0.78322900  1
  Cu  Cu18  1  0.53200300  0.46799700  0.50000000  1
  Cu  Cu19  1  0.75144900  0.24855100  0.50000000  1
  C  C20  1  0.64060100  0.33133700  0.19907200  1
  C  C21  1  0.16793400  0.04606700  0.10128100  1
  C  C22  1  0.14689500  0.44979600  0.07750200  1
  C  C23  1  0.55020400  0.85310500  0.92249800  1
  C  C24  1  0.95393300  0.83206600  0.89871900  1
  C  C25  1  0.66866300  0.35939900  0.80092800  1
  C  C26  1  0.32342800  0.65305200  0.69981500  1
  C  C27  1  0.05051700  0.17805600  0.60713000  1
  C  C28  1  0.45325200  0.15216000  0.57782400  1
  C  C29  1  0.84784000  0.54674800  0.42217600  1
  C  C30  1  0.82194400  0.94948300  0.39287000  1
  C  C31  1  0.34694800  0.67657200  0.30018500  1
  C  C32  1  0.10244000  0.38516000  0.21713300  1
  C  C33  1  0.27389100  0.09368900  0.19384500  1
  C  C34  1  0.37663900  0.67063800  0.14056600  1
  C  C35  1  0.16829900  0.88544300  0.12753400  1
  C  C36  1  0.79305700  0.30964800  0.15926900  1
  C  C37  1  0.02464500  0.10866400  0.13261800  1
  C  C38  1  0.55049100  0.21861600  0.15793200  1
  C  C39  1  0.59321700  0.47011500  0.13474800  1
  C  C40  1  0.12137700  0.61040900  0.07973800  1
  C  C41  1  0.30179400  0.41445400  0.05690200  1
  C  C42  1  0.91705400  0.79698100  0.05233200  1
  C  C43  1  0.59356600  0.93975100  0.03654600  1
  C  C44  1  0.38959100  0.87862300  0.92026200  1
  C  C45  1  0.06024900  0.40643400  0.96345400  1
  C  C46  1  0.20301900  0.08294600  0.94766800  1
  C  C47  1  0.58554600  0.69820600  0.94309800  1
  C  C48  1  0.11455700  0.83170100  0.87246600  1
  C  C49  1  0.32936200  0.62336100  0.85943400  1
  C  C50  1  0.89133600  0.97535500  0.86738200  1
  C  C51  1  0.52988500  0.40678300  0.86525200  1
  C  C52  1  0.78138400  0.44950900  0.84206800  1
  C  C53  1  0.90631100  0.72610900  0.80615500  1
  C  C54  1  0.69035200  0.20694300  0.84073100  1
  C  C55  1  0.61484000  0.89756000  0.78286700  1
  C  C56  1  0.38917100  0.11263700  0.71780700  1
  C  C57  1  0.32577500  0.81081500  0.66813000  1
  C  C58  1  0.19689800  0.58963000  0.65487200  1
  C  C59  1  0.08596700  0.29420500  0.69239200  1
  C  C60  1  0.45752900  0.59421500  0.63239100  1
  C  C61  1  0.11369800  0.03992800  0.66438900  1
  C  C62  1  0.66332500  0.37831700  0.63946800  1
  C  C63  1  0.88959200  0.16744900  0.62691300  1
  C  C64  1  0.80899400  0.90751100  0.54539400  1
  C  C65  1  0.42776800  0.31153600  0.54731800  1
  C  C66  1  0.93392000  0.59663400  0.53271800  1
  C  C67  1  0.61176300  0.12322200  0.57839100  1
  C  C68  1  0.40336600  0.06608000  0.46728200  1
  C  C69  1  0.68846400  0.57223200  0.45268200  1
  C  C70  1  0.09248900  0.19100600  0.45460600  1
  C  C71  1  0.87677800  0.38823700  0.42160900  1
  C  C72  1  0.40578500  0.54247100  0.36760900  1
  C  C73  1  0.41037000  0.80310200  0.34512800  1
  C  C74  1  0.96007200  0.88630200  0.33561100  1
  C  C75  1  0.18918500  0.67422500  0.33187000  1
  C  C76  1  0.83255100  0.11040800  0.37308700  1
  C  C77  1  0.70579500  0.91403300  0.30760800  1
  C  C78  1  0.62168300  0.33667500  0.36053200  1
  C  C79  1  0.88736300  0.61082900  0.28219300  1
