# generated using pymatgen
data_Cu5Ni7C60
_symmetry_space_group_name_H-M   'P 1'
_cell_length_a   4.99903900
_cell_length_b   9.72357564
_cell_length_c   13.26916393
_cell_angle_alpha   97.12802318
_cell_angle_beta   100.46865918
_cell_angle_gamma   94.64342540
_symmetry_Int_Tables_number   1
_chemical_formula_structural   Cu5Ni7C60
_chemical_formula_sum   'Cu5 Ni7 C60'
_cell_volume   625.80578565
_cell_formula_units_Z   1
loop_
 _symmetry_equiv_pos_site_id
 _symmetry_equiv_pos_as_xyz
  1  'x, y, z'
loop_
 _atom_site_type_symbol
 _atom_site_label
 _atom_site_symmetry_multiplicity
 _atom_site_fract_x
 _atom_site_fract_y
 _atom_site_fract_z
 _atom_site_occupancy
  C  C0  1  0.16688700  0.99990800  0.83327500  1
  C  C1  1  0.05474900  0.00110800  0.61504800  1
  C  C2  1  0.99943500  0.74947100  0.25034300  1
  C  C3  1  0.33310800  0.75021600  0.91758900  1
  C  C4  1  0.04652200  0.49875800  0.11166000  1
  C  C5  1  0.37988600  0.50083800  0.77771600  1
  C  C6  1  0.16583300  0.50065600  0.33366900  1
  C  C7  1  0.50219100  0.49999200  0.00012300  1
  C  C8  1  0.28544000  0.49970800  0.55440700  1
  C  C9  1  0.33161300  0.25119100  0.41725500  1
  C  C10  1  0.50076900  0.99955900  0.50003800  1
  C  C11  1  0.28019200  0.99992900  0.05279200  1
  C  C12  1  0.61430000  0.99803300  0.71804400  1
  C  C13  1  0.38102300  0.99837200  0.27938700  1
  C  C14  1  0.71860500  0.00154500  0.94854800  1
  C  C15  1  0.66363500  0.75031400  0.58451800  1
  C  C16  1  0.71401200  0.49966600  0.44421300  1
  C  C17  1  0.83060300  0.50014700  0.66652700  1
  C  C18  1  0.62245900  0.50284800  0.22269400  1
  C  C19  1  0.95368300  0.49958100  0.88937700  1
  C  C20  1  0.66778800  0.24920300  0.08211700  1
  C  C21  1  0.83194900  0.99995200  0.16640400  1
  C  C22  1  0.00147900  0.24961700  0.74924300  1
  C  C23  1  0.95256300  0.99976100  0.38558200  1
  Ni  Ni24  1  0.10969000  0.24985600  0.97270200  1
  Ni  Ni25  1  0.22459100  0.75104000  0.69432800  1
  Ni  Ni26  1  0.44256300  0.24882800  0.63780000  1
  Ni  Ni27  1  0.44385700  0.74999100  0.13909400  1
  Ni  Ni28  1  0.55362100  0.74871900  0.35975900  1
  Ni  Ni29  1  0.89173700  0.25145400  0.52827000  1
  Ni  Ni30  1  0.89086900  0.75028200  0.02905600  1
  Cu  Cu31  1  0.10447200  0.75033800  0.47326100  1
  Cu  Cu32  1  0.22501200  0.24798000  0.19260600  1
  Cu  Cu33  1  0.55975000  0.25014400  0.85912700  1
  Cu  Cu34  1  0.77652200  0.74963400  0.80790500  1
  Cu  Cu35  1  0.77393000  0.25167100  0.30746600  1
  C  C36  1  0.00141600  0.86221600  0.93061500  1
  C  C37  1  0.06764400  0.63595900  0.78400500  1
  C  C38  1  0.00443700  0.36398700  0.43145000  1
  C  C39  1  0.14262000  0.36167400  0.64357800  1
  C  C40  1  0.26481900  0.36415100  0.88268200  1
  C  C41  1  0.33751300  0.86339700  0.59746400  1
  C  C42  1  0.06895700  0.13503800  0.28400200  1
  C  C43  1  0.19123400  0.13820800  0.52289000  1
  C  C44  1  0.40141700  0.13563900  0.95146400  1
  C  C45  1  0.14302300  0.86171600  0.14345400  1
  C  C46  1  0.26500700  0.86455500  0.38214300  1
  C  C47  1  0.47959900  0.86171400  0.80893500  1
  C  C48  1  0.33073400  0.13722700  0.73550200  1
  C  C49  1  0.19134000  0.63820000  0.02393100  1
  C  C50  1  0.40280500  0.63637800  0.45054800  1
  C  C51  1  0.52004100  0.63669000  0.68902500  1
  C  C52  1  0.33109100  0.63800800  0.23735900  1
  C  C53  1  0.66900900  0.63775700  0.90575800  1
  C  C54  1  0.33084800  0.36094200  0.09595300  1
  C  C55  1  0.66316700  0.36182400  0.76150300  1
  C  C56  1  0.48251200  0.36239600  0.30971000  1
  C  C57  1  0.59665200  0.36376800  0.54759700  1
  C  C58  1  0.81442200  0.36355000  0.97823900  1
  C  C59  1  0.66629500  0.86185600  0.26139700  1
  C  C60  1  0.51741100  0.13714100  0.19029700  1
  C  C61  1  0.73712600  0.13624200  0.61834800  1
  C  C62  1  0.85356700  0.13841900  0.85802100  1
  C  C63  1  0.59637000  0.86353100  0.04826800  1
  C  C64  1  0.81119600  0.86190800  0.47420600  1
  C  C65  1  0.93215600  0.86475500  0.71468100  1
  C  C66  1  0.67246900  0.13869200  0.40464900  1
  C  C67  1  0.73662700  0.63594000  0.11886300  1
  C  C68  1  0.85067100  0.63662000  0.35507000  1
  C  C69  1  0.00368900  0.63904100  0.57086600  1
  C  C70  1  0.93192100  0.36424900  0.21657100  1
  C  C71  1  0.99486100  0.13629600  0.06901600  1
