# generated using pymatgen
data_CuNiC3
_symmetry_space_group_name_H-M   'P 1'
_cell_length_a   5.55324991
_cell_length_b   5.55324991
_cell_length_c   6.02233461
_cell_angle_alpha   62.54482394
_cell_angle_beta   62.54482394
_cell_angle_gamma   60.00000110
_symmetry_Int_Tables_number   1
_chemical_formula_structural   CuNiC3
_chemical_formula_sum   'Cu2 Ni2 C6'
_cell_volume   136.15066093
_cell_formula_units_Z   2
loop_
 _symmetry_equiv_pos_site_id
 _symmetry_equiv_pos_as_xyz
  1  'x, y, z'
loop_
 _atom_site_type_symbol
 _atom_site_label
 _atom_site_symmetry_multiplicity
 _atom_site_fract_x
 _atom_site_fract_y
 _atom_site_fract_z
 _atom_site_occupancy
  Ni  Ni0  1  0.63432300  0.63432300  0.09703100  1
  Ni  Ni1  1  0.36567700  0.36567700  0.90296900  1
  Cu  Cu2  1  0.84558000  0.84558000  0.46326000  1
  Cu  Cu3  1  0.15442000  0.15442000  0.53674000  1
  C  C4  1  0.55620500  0.21208500  0.27085200  1
  C  C5  1  0.78791500  0.03914200  0.72914800  1
  C  C6  1  0.03914200  0.44379500  0.72914800  1
  C  C7  1  0.96085800  0.55620500  0.27085200  1
  C  C8  1  0.21208500  0.96085800  0.27085200  1
  C  C9  1  0.44379500  0.78791500  0.72914800  1
