# generated using pymatgen
data_Cu6NiC20
_symmetry_space_group_name_H-M   'P 1'
_cell_length_a   7.59079400
_cell_length_b   7.65430294
_cell_length_c   7.68790204
_cell_angle_alpha   106.45456168
_cell_angle_beta   101.24834131
_cell_angle_gamma   114.88806190
_symmetry_Int_Tables_number   1
_chemical_formula_structural   Cu6NiC20
_chemical_formula_sum   'Cu6 Ni1 C20'
_cell_volume   362.36533701
_cell_formula_units_Z   1
loop_
 _symmetry_equiv_pos_site_id
 _symmetry_equiv_pos_as_xyz
  1  'x, y, z'
loop_
 _atom_site_type_symbol
 _atom_site_label
 _atom_site_symmetry_multiplicity
 _atom_site_fract_x
 _atom_site_fract_y
 _atom_site_fract_z
 _atom_site_occupancy
  C  C0  1  0.51622100  0.96252200  0.42332900  1
  C  C1  1  0.72067200  0.86665900  0.16457000  1
  Ni  Ni2  1  0.24208800  0.09517800  0.83100400  1
  Cu  Cu3  1  0.96498500  0.29620900  0.73247600  1
  Cu  Cu4  1  0.31685500  0.67988500  0.79005500  1
  Cu  Cu5  1  0.22588100  0.28140100  0.50521200  1
  Cu  Cu6  1  0.81534200  0.74069900  0.51476700  1
  Cu  Cu7  1  0.00657900  0.68773800  0.22367000  1
  Cu  Cu8  1  0.67003500  0.31809200  0.23177500  1
  C  C9  1  0.10365700  0.27422900  0.89208900  1
  C  C10  1  0.47168700  0.71057800  0.96090900  1
  C  C11  1  0.07998800  0.54466600  0.77728600  1
  C  C12  1  0.74160100  0.20742800  0.69681500  1
  C  C13  1  0.34931900  0.22943200  0.65048100  1
  C  C14  1  0.00189000  0.20223700  0.53229700  1
  C  C15  1  0.33378500  0.87587500  0.76078200  1
  C  C16  1  0.93378000  0.84604100  0.73814400  1
  C  C17  1  0.31925500  0.53500400  0.59085000  1
  C  C18  1  0.20350000  0.19385900  0.30096000  1
  C  C19  1  0.70455200  0.48749600  0.43940700  1
  C  C20  1  0.63999100  0.12182500  0.25152700  1
  C  C21  1  0.00989300  0.79985500  0.44448100  1
  C  C22  1  0.66785100  0.80129600  0.43229500  1
  C  C23  1  0.22650900  0.75134100  0.24920900  1
  C  C24  1  0.88182100  0.43771400  0.19870800  1
  C  C25  1  0.49234000  0.29999200  0.07505200  1
  C  C26  1  0.86685700  0.71851800  0.08741300  1
