# generated using pymatgen
data_CuNiC11
_symmetry_space_group_name_H-M   'P 1'
_cell_length_a   7.44399883
_cell_length_b   7.44399883
_cell_length_c   7.44399883
_cell_angle_alpha   128.09812352
_cell_angle_beta   118.50722086
_cell_angle_gamma   84.59014137
_symmetry_Int_Tables_number   1
_chemical_formula_structural   CuNiC11
_chemical_formula_sum   'Cu2 Ni2 C22'
_cell_volume   273.04272858
_cell_formula_units_Z   2
loop_
 _symmetry_equiv_pos_site_id
 _symmetry_equiv_pos_as_xyz
  1  'x, y, z'
loop_
 _atom_site_type_symbol
 _atom_site_label
 _atom_site_symmetry_multiplicity
 _atom_site_fract_x
 _atom_site_fract_y
 _atom_site_fract_z
 _atom_site_occupancy
  Ni  Ni0  1  0.25218700  0.49235200  0.24016500  1
  Ni  Ni1  1  0.74781300  0.98797800  0.24016500  1
  Cu  Cu2  1  0.75054200  0.99176600  0.74230800  1
  Cu  Cu3  1  0.24945800  0.99176600  0.24122400  1
  C  C4  1  0.26470500  0.77081900  0.71469600  1
  C  C5  1  0.94387700  0.44999100  0.71469600  1
  C  C6  1  0.43775600  0.19591000  0.96689400  1
  C  C7  1  0.77098400  0.52913800  0.96689400  1
  C  C8  1  0.56224400  0.52913800  0.75815400  1
  C  C9  1  0.22901600  0.19591000  0.75815400  1
  C  C10  1  0.05612300  0.77081900  0.50611400  1
  C  C11  1  0.73529500  0.44999100  0.50611400  1
  C  C12  1  0.80832100  0.34641300  0.53809200  1
  C  C13  1  0.31471800  0.26054900  0.94583200  1
  C  C14  1  0.68528200  0.63111400  0.94583200  1
  C  C15  1  0.19167900  0.72977100  0.53809200  1
  C  C16  1  0.00000000  0.90630100  0.90630100  1
  C  C17  1  0.66537600  0.06881400  0.98820400  1
  C  C18  1  0.91939000  0.32282800  0.98820400  1
  C  C19  1  0.58389100  0.65922600  0.49424500  1
  C  C20  1  0.83501800  0.91035400  0.49424500  1
  C  C21  1  0.50000000  0.07123100  0.57123100  1
  C  C22  1  0.16498200  0.65922600  0.07533500  1
  C  C23  1  0.41610900  0.91035400  0.07533500  1
  C  C24  1  0.08061000  0.06881400  0.40343800  1
  C  C25  1  0.33462400  0.32282800  0.40343800  1
