# generated using pymatgen
data_Cu12Ni3C
_symmetry_space_group_name_H-M   'P 1'
_cell_length_a   9.71151700
_cell_length_b   12.20894100
_cell_length_c   16.67480900
_cell_angle_alpha   90.00000000
_cell_angle_beta   90.00000000
_cell_angle_gamma   90.00000000
_symmetry_Int_Tables_number   1
_chemical_formula_structural   Cu12Ni3C
_chemical_formula_sum   'Cu96 Ni24 C8'
_cell_volume   1977.08771601
_cell_formula_units_Z   8
loop_
 _symmetry_equiv_pos_site_id
 _symmetry_equiv_pos_as_xyz
  1  'x, y, z'
loop_
 _atom_site_type_symbol
 _atom_site_label
 _atom_site_symmetry_multiplicity
 _atom_site_fract_x
 _atom_site_fract_y
 _atom_site_fract_z
 _atom_site_occupancy
  C  C0  1  0.16394600  0.89278800  0.77010500  1
  C  C1  1  0.33605400  0.39278800  0.22989500  1
  C  C2  1  0.66394600  0.10721200  0.72989500  1
  C  C3  1  0.83605400  0.60721200  0.27010500  1
  C  C4  1  0.83605400  0.10721200  0.22989500  1
  C  C5  1  0.66394600  0.60721200  0.77010500  1
  C  C6  1  0.33605400  0.89278800  0.27010500  1
  C  C7  1  0.16394600  0.39278800  0.72989500  1
  Ni  Ni8  1  0.89585600  0.01194200  0.90248700  1
  Ni  Ni9  1  0.60414400  0.51194200  0.09751300  1
  Ni  Ni10  1  0.39585600  0.98805800  0.59751300  1
  Ni  Ni11  1  0.10414400  0.48805800  0.40248700  1
  Ni  Ni12  1  0.10414400  0.98805800  0.09751300  1
  Ni  Ni13  1  0.39585600  0.48805800  0.90248700  1
  Ni  Ni14  1  0.60414400  0.01194200  0.40248700  1
  Ni  Ni15  1  0.89585600  0.51194200  0.59751300  1
  Ni  Ni16  1  0.01464900  0.13233500  0.65327200  1
  Ni  Ni17  1  0.48535100  0.63233500  0.34672800  1
  Ni  Ni18  1  0.51464900  0.86766500  0.84672800  1
  Ni  Ni19  1  0.98535100  0.36766500  0.15327200  1
  Ni  Ni20  1  0.98535100  0.86766500  0.34672800  1
  Ni  Ni21  1  0.51464900  0.36766500  0.65327200  1
  Ni  Ni22  1  0.48535100  0.13233500  0.15327200  1
  Ni  Ni23  1  0.01464900  0.63233500  0.84672800  1
  Ni  Ni24  1  0.33012400  0.15923100  0.84186200  1
  Ni  Ni25  1  0.16987600  0.65923100  0.15813800  1
  Ni  Ni26  1  0.83012400  0.84076900  0.65813800  1
  Ni  Ni27  1  0.66987600  0.34076900  0.34186200  1
  Ni  Ni28  1  0.66987600  0.84076900  0.15813800  1
  Ni  Ni29  1  0.83012400  0.34076900  0.84186200  1
  Ni  Ni30  1  0.16987600  0.15923100  0.34186200  1
  Ni  Ni31  1  0.33012400  0.65923100  0.65813800  1
  Cu  Cu32  1  0.00767400  0.94004700  0.87226300  1
  Cu  Cu33  1  0.49232600  0.44004700  0.12773700  1
  Cu  Cu34  1  0.50767400  0.05995300  0.62773700  1
  Cu  Cu35  1  0.99232600  0.55995300  0.37226300  1
  Cu  Cu36  1  0.99232600  0.05995300  0.12773700  1
  Cu  Cu37  1  0.50767400  0.55995300  0.87226300  1
  Cu  Cu38  1  0.49232600  0.94004700  0.37226300  1
  Cu  Cu39  1  0.00767400  0.44004700  0.62773700  1
  Cu  Cu40  1  0.95937100  0.11084300  0.93903800  1
  Cu  Cu41  1  0.54062900  0.61084300  0.06096200  1
  Cu  Cu42  1  0.45937100  0.88915700  0.56096200  1
  Cu  Cu43  1  0.04062900  0.38915700  0.43903800  1
  Cu  Cu44  1  0.04062900  0.88915700  0.06096200  1
  Cu  Cu45  1  0.45937100  0.38915700  0.93903800  1
  Cu  Cu46  1  0.54062900  0.11084300  0.43903800  1
  Cu  Cu47  1  0.95937100  0.61084300  0.56096200  1
  Cu  Cu48  1  0.81587200  0.95488600  0.96532500  1
  Cu  Cu49  1  0.68412800  0.45488600  0.03467500  1
  Cu  Cu50  1  0.31587200  0.04511400  0.53467500  1
  Cu  Cu51  1  0.18412800  0.54511400  0.46532500  1
  Cu  Cu52  1  0.18412800  0.04511400  0.03467500  1
  Cu  Cu53  1  0.31587200  0.54511400  0.96532500  1
  Cu  Cu54  1  0.68412800  0.95488600  0.46532500  1
  Cu  Cu55  1  0.81587200  0.45488600  0.53467500  1
  Cu  Cu56  1  0.80312500  0.04296200  0.83560900  1
  Cu  Cu57  1  0.69687500  0.54296200  0.16439100  1
  Cu  Cu58  1  0.30312500  0.95703800  0.66439100  1
  Cu  Cu59  1  0.19687500  0.45703800  0.33560900  1
  Cu  Cu60  1  0.19687500  0.95703800  0.16439100  1
  Cu  Cu61  1  0.30312500  0.45703800  0.83560900  1
  Cu  Cu62  1  0.69687500  0.04296200  0.33560900  1
  Cu  Cu63  1  0.80312500  0.54296200  0.66439100  1
  Cu  Cu64  1  0.05614500  0.05502500  0.71800300  1
  Cu  Cu65  1  0.44385500  0.55502500  0.28199700  1
  Cu  Cu66  1  0.55614500  0.94497500  0.78199700  1
  Cu  Cu67  1  0.94385500  0.44497500  0.21800300  1
  Cu  Cu68  1  0.94385500  0.94497500  0.28199700  1
  Cu  Cu69  1  0.55614500  0.44497500  0.71800300  1
  Cu  Cu70  1  0.44385500  0.05502500  0.21800300  1
  Cu  Cu71  1  0.05614500  0.55502500  0.78199700  1
  Cu  Cu72  1  0.02013400  0.07704500  0.57458900  1
  Cu  Cu73  1  0.47986600  0.57704500  0.42541100  1
  Cu  Cu74  1  0.52013400  0.92295500  0.92541100  1
  Cu  Cu75  1  0.97986600  0.42295500  0.07458900  1
  Cu  Cu76  1  0.97986600  0.92295500  0.42541100  1
  Cu  Cu77  1  0.52013400  0.42295500  0.57458900  1
  Cu  Cu78  1  0.47986600  0.07704500  0.07458900  1
  Cu  Cu79  1  0.02013400  0.57704500  0.92541100  1
  Cu  Cu80  1  0.87042100  0.16949100  0.66744000  1
  Cu  Cu81  1  0.62957900  0.66949100  0.33256000  1
  Cu  Cu82  1  0.37042100  0.83050900  0.83256000  1
  Cu  Cu83  1  0.12957900  0.33050900  0.16744000  1
  Cu  Cu84  1  0.12957900  0.83050900  0.33256000  1
  Cu  Cu85  1  0.37042100  0.33050900  0.66744000  1
  Cu  Cu86  1  0.62957900  0.16949100  0.16744000  1
  Cu  Cu87  1  0.87042100  0.66949100  0.83256000  1
  Cu  Cu88  1  0.10842000  0.22812500  0.65469100  1
  Cu  Cu89  1  0.39158000  0.72812500  0.34530900  1
  Cu  Cu90  1  0.60842000  0.77187500  0.84530900  1
  Cu  Cu91  1  0.89158000  0.27187500  0.15469100  1
  Cu  Cu92  1  0.89158000  0.77187500  0.34530900  1
  Cu  Cu93  1  0.60842000  0.27187500  0.65469100  1
  Cu  Cu94  1  0.39158000  0.22812500  0.15469100  1
  Cu  Cu95  1  0.10842000  0.72812500  0.84530900  1
  Cu  Cu96  1  0.27087900  0.04761500  0.83735200  1
  Cu  Cu97  1  0.22912100  0.54761500  0.16264800  1
  Cu  Cu98  1  0.77087900  0.95238500  0.66264800  1
  Cu  Cu99  1  0.72912100  0.45238500  0.33735200  1
  Cu  Cu100  1  0.72912100  0.95238500  0.16264800  1
  Cu  Cu101  1  0.77087900  0.45238500  0.83735200  1
  Cu  Cu102  1  0.22912100  0.04761500  0.33735200  1
  Cu  Cu103  1  0.27087900  0.54761500  0.66264800  1
  Cu  Cu104  1  0.35710500  0.18450000  0.92732900  1
  Cu  Cu105  1  0.14289500  0.68450000  0.07267100  1
  Cu  Cu106  1  0.85710500  0.81550000  0.57267100  1
  Cu  Cu107  1  0.64289500  0.31550000  0.42732900  1
  Cu  Cu108  1  0.64289500  0.81550000  0.07267100  1
  Cu  Cu109  1  0.85710500  0.31550000  0.92732900  1
  Cu  Cu110  1  0.14289500  0.18450000  0.42732900  1
  Cu  Cu111  1  0.35710500  0.68450000  0.57267100  1
  Cu  Cu112  1  0.22907100  0.23956400  0.81016100  1
  Cu  Cu113  1  0.27092900  0.73956400  0.18983900  1
  Cu  Cu114  1  0.72907100  0.76043600  0.68983900  1
  Cu  Cu115  1  0.77092900  0.26043600  0.31016100  1
  Cu  Cu116  1  0.77092900  0.76043600  0.18983900  1
  Cu  Cu117  1  0.72907100  0.26043600  0.81016100  1
  Cu  Cu118  1  0.27092900  0.23956400  0.31016100  1
  Cu  Cu119  1  0.22907100  0.73956400  0.68983900  1
  Cu  Cu120  1  0.45912300  0.16598300  0.79438800  1
  Cu  Cu121  1  0.04087700  0.66598300  0.20561200  1
  Cu  Cu122  1  0.95912300  0.83401700  0.70561200  1
  Cu  Cu123  1  0.54087700  0.33401700  0.29438800  1
  Cu  Cu124  1  0.54087700  0.83401700  0.20561200  1
  Cu  Cu125  1  0.95912300  0.33401700  0.79438800  1
  Cu  Cu126  1  0.04087700  0.16598300  0.29438800  1
  Cu  Cu127  1  0.45912300  0.66598300  0.70561200  1
