# generated using pymatgen
data_Cu(NiC12)2
_symmetry_space_group_name_H-M   'P 1'
_cell_length_a   10.20944100
_cell_length_b   10.28107254
_cell_length_c   10.28996445
_cell_angle_alpha   118.93272341
_cell_angle_beta   118.77426800
_cell_angle_gamma   90.97598009
_symmetry_Int_Tables_number   1
_chemical_formula_structural   Cu(NiC12)2
_chemical_formula_sum   'Cu2 Ni4 C48'
_cell_volume   783.35203999
_cell_formula_units_Z   2
loop_
 _symmetry_equiv_pos_site_id
 _symmetry_equiv_pos_as_xyz
  1  'x, y, z'
loop_
 _atom_site_type_symbol
 _atom_site_label
 _atom_site_symmetry_multiplicity
 _atom_site_fract_x
 _atom_site_fract_y
 _atom_site_fract_z
 _atom_site_occupancy
  C  C0  1  0.83439200  0.08004900  0.76091500  1
  C  C1  1  0.83602100  0.08118500  0.15427000  1
  C  C2  1  0.42623300  0.07662100  0.75095900  1
  C  C3  1  0.56673700  0.32832400  0.25220500  1
  C  C4  1  0.82648200  0.67195500  0.75078200  1
  C  C5  1  0.41959000  0.66227100  0.73496200  1
  C  C6  1  0.56961500  0.92429500  0.25372800  1
  C  C7  1  0.18558600  0.92289400  0.25225100  1
  Ni  Ni8  1  0.00401200  0.50289000  0.49908500  1
  Ni  Ni9  1  0.00660600  0.49580500  0.00599700  1
  Ni  Ni10  1  0.49530700  0.49989300  0.99836400  1
  Ni  Ni11  1  0.00411900  0.99995200  0.50618600  1
  C  C12  1  0.83651800  0.27616200  0.55698900  1
  C  C13  1  0.77094600  0.32607100  0.05655100  1
  C  C14  1  0.77123900  0.71635700  0.43867700  1
  C  C15  1  0.78269400  0.73375700  0.06186700  1
  C  C16  1  0.21883000  0.27851600  0.55905800  1
  C  C17  1  0.21886500  0.27249600  0.93483200  1
  C  C18  1  0.22055600  0.66572500  0.93676300  1
  C  C19  1  0.16987000  0.73036200  0.44411100  1
  Cu  Cu20  1  0.37718100  0.12337900  0.25168300  1
  Cu  Cu21  1  0.62994200  0.87847000  0.75760200  1
  C  C22  1  0.82568200  0.14493500  0.42848900  1
  C  C23  1  0.88902200  0.32202000  0.03947500  1
  C  C24  1  0.85257800  0.28440300  0.69320800  1
  C  C25  1  0.78287400  0.32406000  0.18770600  1
  C  C26  1  0.83238100  0.39848200  0.54667800  1
  C  C27  1  0.43472400  0.05788000  0.36600800  1
  C  C28  1  0.44574100  0.06844600  0.13969500  1
  C  C29  1  0.64003300  0.32772900  0.94135000  1
  C  C30  1  0.88691900  0.71072100  0.56486300  1
  C  C31  1  0.79796000  0.61719900  0.94759900  1
  C  C32  1  0.20158600  0.05972800  0.13518900  1
  C  C33  1  0.43635000  0.29798900  0.36680400  1
  C  C34  1  0.35105500  0.27068400  0.94320800  1
  C  C35  1  0.22158100  0.14635100  0.54912300  1
  C  C36  1  0.89934700  0.86654200  0.18939000  1
  C  C37  1  0.65208500  0.58894600  0.30105500  1
  C  C38  1  0.33908500  0.40481500  0.68737500  1
  C  C39  1  0.09219100  0.15062100  0.80686300  1
  C  C40  1  0.64853500  0.72184200  0.04968300  1
  C  C41  1  0.77576200  0.84869800  0.45000200  1
  C  C42  1  0.57568400  0.70361300  0.64605900  1
  C  C43  1  0.80818900  0.93771500  0.87557400  1
  C  C44  1  0.09077700  0.28006400  0.43969200  1
  C  C45  1  0.21711400  0.39870300  0.05380700  1
  C  C46  1  0.35292500  0.67867200  0.06416600  1
  C  C47  1  0.57547200  0.94416700  0.64690800  1
  C  C48  1  0.56862300  0.93495900  0.87578000  1
  C  C49  1  0.17810600  0.61217800  0.45898000  1
  C  C50  1  0.21168800  0.65131100  0.79988000  1
  C  C51  1  0.14804700  0.71902200  0.30336700  1
  C  C52  1  0.09746200  0.66635600  0.94616700  1
  C  C53  1  0.18263400  0.86372200  0.57156700  1
