# generated using pymatgen
data_CuNi3C14
_symmetry_space_group_name_H-M   'P 1'
_cell_length_a   5.34110400
_cell_length_b   5.35129362
_cell_length_c   8.47587347
_cell_angle_alpha   90.04093092
_cell_angle_beta   108.26112707
_cell_angle_gamma   118.91527715
_symmetry_Int_Tables_number   1
_chemical_formula_structural   CuNi3C14
_chemical_formula_sum   'Cu1 Ni3 C14'
_cell_volume   197.97037767
_cell_formula_units_Z   1
loop_
 _symmetry_equiv_pos_site_id
 _symmetry_equiv_pos_as_xyz
  1  'x, y, z'
loop_
 _atom_site_type_symbol
 _atom_site_label
 _atom_site_symmetry_multiplicity
 _atom_site_fract_x
 _atom_site_fract_y
 _atom_site_fract_z
 _atom_site_occupancy
  Ni  Ni0  1  0.29807100  0.15137800  0.47870200  1
  Ni  Ni1  1  0.64263200  0.82142000  0.48171200  1
  Ni  Ni2  1  0.96739300  0.47435400  0.47982200  1
  Cu  Cu3  1  0.77136100  0.05108400  0.16948000  1
  C  C4  1  0.44700100  0.39623500  0.15405300  1
  C  C5  1  0.10917300  0.73414400  0.15370300  1
  C  C6  1  0.19897800  0.93044100  0.81949400  1
  C  C7  1  0.52811200  0.60242600  0.82014300  1
  C  C8  1  0.86764500  0.26998900  0.82367900  1
  C  C9  1  0.67477400  0.39447000  0.99322800  1
  C  C10  1  0.32295800  0.67844600  0.96293000  1
  C  C11  1  0.83069000  0.73686300  0.28405900  1
  C  C12  1  0.49407200  0.07344100  0.28409300  1
  C  C13  1  0.19865700  0.44821400  0.26710800  1
  C  C14  1  0.43127300  0.87658300  0.69354700  1
  C  C15  1  0.74861700  0.55541300  0.68779100  1
  C  C16  1  0.10988200  0.19746700  0.68786700  1
  C  C17  1  0.04993400  0.01788000  0.99318100  1
