# generated using pymatgen
data_Cu16Ni4C7
_symmetry_space_group_name_H-M   'P 1'
_cell_length_a   9.95221238
_cell_length_b   9.78402019
_cell_length_c   9.95124314
_cell_angle_alpha   59.93881646
_cell_angle_beta   59.42560893
_cell_angle_gamma   60.34489308
_symmetry_Int_Tables_number   1
_chemical_formula_structural   Cu16Ni4C7
_chemical_formula_sum   'Cu32 Ni8 C14'
_cell_volume   683.57685933
_cell_formula_units_Z   2
loop_
 _symmetry_equiv_pos_site_id
 _symmetry_equiv_pos_as_xyz
  1  'x, y, z'
loop_
 _atom_site_type_symbol
 _atom_site_label
 _atom_site_symmetry_multiplicity
 _atom_site_fract_x
 _atom_site_fract_y
 _atom_site_fract_z
 _atom_site_occupancy
  C  C0  1  0.91437000  0.33519700  0.33528400  1
  C  C1  1  0.08797200  0.07578700  0.65903100  1
  C  C2  1  0.65750300  0.68077800  0.08753200  1
  C  C3  1  0.35067900  0.32104100  0.91947500  1
  C  C4  1  0.90851000  0.91913400  0.32496300  1
  C  C5  1  0.90940500  0.32601400  0.91876000  1
  C  C6  1  0.08636500  0.67689000  0.65904100  1
  C  C7  1  0.33739100  0.91374000  0.91210400  1
  C  C8  1  0.49730600  0.49614400  0.00344900  1
  C  C9  1  0.50220300  0.99980900  0.49553000  1
  C  C10  1  0.50092900  0.50062500  0.50136200  1
  C  C11  1  0.00015300  0.50241900  0.49408200  1
  Ni  Ni12  1  0.64204300  0.28859700  0.28442300  1
  Ni  Ni13  1  0.28538300  0.28264200  0.29169000  1
  Ni  Ni14  1  0.28918200  0.64105900  0.28701100  1
  Ni  Ni15  1  0.28299100  0.28548300  0.64348800  1
  Ni  Ni16  1  0.71338700  0.36018700  0.71316000  1
  Ni  Ni17  1  0.71373500  0.71390400  0.36076200  1
  Ni  Ni18  1  0.35951000  0.71098000  0.71760300  1
  Ni  Ni19  1  0.71424400  0.71588100  0.71175000  1
  C  C20  1  0.12514500  0.12394600  0.12374700  1
  C  C21  1  0.87346100  0.87793600  0.87351800  1
  Cu  Cu22  1  0.30755200  0.06305100  0.05877400  1
  Cu  Cu23  1  0.06378300  0.06236000  0.06086100  1
  Cu  Cu24  1  0.06490600  0.31096200  0.06011100  1
  Cu  Cu25  1  0.05675300  0.06537700  0.30684400  1
  Cu  Cu26  1  0.64351200  0.14412600  0.31246700  1
  Cu  Cu27  1  0.39767300  0.31288700  0.14635100  1
  Cu  Cu28  1  0.64653400  0.40372100  0.13840900  1
  Cu  Cu29  1  0.31408500  0.14381900  0.40866200  1
  Cu  Cu30  1  0.13821800  0.39328600  0.31909400  1
  Cu  Cu31  1  0.64446200  0.31879300  0.39569000  1
  Cu  Cu32  1  0.31827200  0.64617300  0.14231900  1
  Cu  Cu33  1  0.39538300  0.14272200  0.64314300  1
  Cu  Cu34  1  0.69129300  0.59718400  0.35231000  1
  Cu  Cu35  1  0.86028500  0.35094900  0.59964900  1
  Cu  Cu36  1  0.40293000  0.63540300  0.31821400  1
  Cu  Cu37  1  0.13832100  0.31373200  0.64704400  1
  Cu  Cu38  1  0.59794500  0.36548400  0.68465600  1
  Cu  Cu39  1  0.85479900  0.68530200  0.36328600  1
  Cu  Cu40  1  0.30854000  0.40177700  0.64776900  1
  Cu  Cu41  1  0.14262600  0.64645000  0.39990200  1
  Cu  Cu42  1  0.68720500  0.36238000  0.85338100  1
  Cu  Cu43  1  0.59882800  0.85329600  0.36395800  1
  Cu  Cu44  1  0.35471000  0.68402500  0.60520700  1
  Cu  Cu45  1  0.85977700  0.60089900  0.68732700  1
  Cu  Cu46  1  0.68673900  0.85357500  0.59342100  1
  Cu  Cu47  1  0.36445900  0.59317700  0.85765900  1
  Cu  Cu48  1  0.35503500  0.85766300  0.69100300  1
  Cu  Cu49  1  0.60035500  0.68927200  0.85792600  1
  Cu  Cu50  1  0.93097900  0.69022000  0.93214100  1
  Cu  Cu51  1  0.94082500  0.93633000  0.68728800  1
  Cu  Cu52  1  0.93998000  0.93967700  0.92832800  1
  Cu  Cu53  1  0.69136900  0.93773200  0.93549700  1
