# generated using pymatgen
data_Cu2Ni3
_symmetry_space_group_name_H-M   'P 1'
_cell_length_a   5.78688500
_cell_length_b   5.78688500
_cell_length_c   9.35456500
_cell_angle_alpha   90.00000000
_cell_angle_beta   90.00000000
_cell_angle_gamma   90.00000000
_symmetry_Int_Tables_number   1
_chemical_formula_structural   Cu2Ni3
_chemical_formula_sum   'Cu8 Ni12'
_cell_volume   313.26602822
_cell_formula_units_Z   4
loop_
 _symmetry_equiv_pos_site_id
 _symmetry_equiv_pos_as_xyz
  1  'x, y, z'
loop_
 _atom_site_type_symbol
 _atom_site_label
 _atom_site_symmetry_multiplicity
 _atom_site_fract_x
 _atom_site_fract_y
 _atom_site_fract_z
 _atom_site_occupancy
  Ni  Ni0  1  0.17458700  0.17458700  0.75000000  1
  Ni  Ni1  1  0.82541300  0.82541300  0.75000000  1
  Ni  Ni2  1  0.17458700  0.82541300  0.25000000  1
  Ni  Ni3  1  0.82541300  0.17458700  0.25000000  1
  Ni  Ni4  1  0.34750200  0.21901900  0.41513900  1
  Ni  Ni5  1  0.65249800  0.78098100  0.41513900  1
  Ni  Ni6  1  0.34750200  0.78098100  0.91513900  1
  Ni  Ni7  1  0.65249800  0.21901900  0.91513900  1
  Ni  Ni8  1  0.21901900  0.65249800  0.58486100  1
  Ni  Ni9  1  0.78098100  0.34750200  0.58486100  1
  Ni  Ni10  1  0.78098100  0.65249800  0.08486100  1
  Ni  Ni11  1  0.21901900  0.34750200  0.08486100  1
  Cu  Cu12  1  0.50000000  0.50000000  0.25000000  1
  Cu  Cu13  1  0.50000000  0.50000000  0.75000000  1
  Cu  Cu14  1  0.00000000  0.00000000  0.50000000  1
  Cu  Cu15  1  0.00000000  0.00000000  0.00000000  1
  Cu  Cu16  1  0.50000000  0.00000000  0.12360800  1
  Cu  Cu17  1  0.50000000  0.00000000  0.62360800  1
  Cu  Cu18  1  0.00000000  0.50000000  0.87639200  1
  Cu  Cu19  1  0.00000000  0.50000000  0.37639200  1
