# generated using pymatgen
data_Cu11NiC4
_symmetry_space_group_name_H-M   'P 1'
_cell_length_a   5.06940212
_cell_length_b   5.34797165
_cell_length_c   16.92883974
_cell_angle_alpha   91.46320439
_cell_angle_beta   98.71765502
_cell_angle_gamma   61.83810476
_symmetry_Int_Tables_number   1
_chemical_formula_structural   Cu11NiC4
_chemical_formula_sum   'Cu22 Ni2 C8'
_cell_volume   399.39338361
_cell_formula_units_Z   2
loop_
 _symmetry_equiv_pos_site_id
 _symmetry_equiv_pos_as_xyz
  1  'x, y, z'
loop_
 _atom_site_type_symbol
 _atom_site_label
 _atom_site_symmetry_multiplicity
 _atom_site_fract_x
 _atom_site_fract_y
 _atom_site_fract_z
 _atom_site_occupancy
  C  C0  1  0.73579600  0.62019100  0.12858100  1
  C  C1  1  0.74912100  0.12620200  0.62469300  1
  C  C2  1  0.50259900  0.74961300  0.75092000  1
  C  C3  1  0.50334000  0.26481600  0.24650300  1
  C  C4  1  0.24691600  0.88233200  0.37357600  1
  C  C5  1  0.27032400  0.36433400  0.87843000  1
  C  C6  1  0.99800300  0.50408800  0.49944200  1
  C  C7  1  0.97569500  0.00776100  0.99623300  1
  Ni  Ni8  1  0.68278600  0.47073800  0.21740600  1
  Ni  Ni9  1  0.68380100  0.15791600  0.90745100  1
  Cu  Cu10  1  0.81274600  0.78083800  0.03433300  1
  Cu  Cu11  1  0.73873000  0.94131800  0.18610900  1
  Cu  Cu12  1  0.75101800  0.81553700  0.56167100  1
  Cu  Cu13  1  0.74643000  0.31458400  0.06208000  1
  Cu  Cu14  1  0.68420300  0.97032100  0.71785400  1
  Cu  Cu15  1  0.68187300  0.66038400  0.40646300  1
  Cu  Cu16  1  0.82548400  0.58696100  0.84251500  1
  Cu  Cu17  1  0.80958100  0.09830400  0.34140000  1
  Cu  Cu18  1  0.81245900  0.28436800  0.53156000  1
  Cu  Cu19  1  0.30889700  0.84551800  0.08999800  1
  Cu  Cu20  1  0.74137800  0.43917800  0.68745300  1
  Cu  Cu21  1  0.25139000  0.56844900  0.31021900  1
  Cu  Cu22  1  0.18576800  0.90803900  0.65751600  1
  Cu  Cu23  1  0.17706100  0.40967300  0.15590700  1
  Cu  Cu24  1  0.18306200  0.72495600  0.46739100  1
  Cu  Cu25  1  0.31406300  0.53554600  0.78456200  1
  Cu  Cu26  1  0.31203400  0.34142300  0.59261500  1
  Cu  Cu27  1  0.31807100  0.03937200  0.28129500  1
  Cu  Cu28  1  0.23961200  0.68966500  0.93798500  1
  Cu  Cu29  1  0.24321400  0.19389800  0.43640900  1
  Cu  Cu30  1  0.25648300  0.06512500  0.81305400  1
  Cu  Cu31  1  0.18405000  0.21478200  0.96903000  1
