# generated using pymatgen
data_Cu4NiC12
_symmetry_space_group_name_H-M   'P 1'
_cell_length_a   6.93134864
_cell_length_b   7.77173396
_cell_length_c   9.57782454
_cell_angle_alpha   100.73642464
_cell_angle_beta   79.80072171
_cell_angle_gamma   62.80136987
_symmetry_Int_Tables_number   1
_chemical_formula_structural   Cu4NiC12
_chemical_formula_sum   'Cu8 Ni2 C24'
_cell_volume   430.08400244
_cell_formula_units_Z   2
loop_
 _symmetry_equiv_pos_site_id
 _symmetry_equiv_pos_as_xyz
  1  'x, y, z'
loop_
 _atom_site_type_symbol
 _atom_site_label
 _atom_site_symmetry_multiplicity
 _atom_site_fract_x
 _atom_site_fract_y
 _atom_site_fract_z
 _atom_site_occupancy
  C  C0  1  0.29589100  0.30493900  0.40821600  1
  C  C1  1  0.40091400  0.80802300  0.04672400  1
  C  C2  1  0.59908600  0.19197700  0.95327600  1
  C  C3  1  0.70410900  0.69506100  0.59178400  1
  Ni  Ni4  1  0.23066800  0.69899000  0.57406900  1
  Ni  Ni5  1  0.76933200  0.30101000  0.42593100  1
  Cu  Cu6  1  0.12129600  0.26605400  0.14433000  1
  Cu  Cu7  1  0.23086500  0.06611100  0.81577800  1
  Cu  Cu8  1  0.21784000  0.59354900  0.22469700  1
  Cu  Cu9  1  0.36843200  0.37593500  0.74789700  1
  Cu  Cu10  1  0.63156800  0.62406500  0.25210300  1
  Cu  Cu11  1  0.78216000  0.40645100  0.77530300  1
  Cu  Cu12  1  0.76913500  0.93388900  0.18422200  1
  Cu  Cu13  1  0.87870400  0.73394600  0.85567000  1
  C  C14  1  0.11383300  0.20228800  0.29292700  1
  C  C15  1  0.96988000  0.22226900  0.82176000  1
  C  C16  1  0.28992600  0.36541300  0.11438500  1
  C  C17  1  0.23034200  0.06613600  0.99208800  1
  C  C18  1  0.14973800  0.59949000  0.39425400  1
  C  C19  1  0.12463700  0.56303100  0.86188800  1
  C  C20  1  0.39014500  0.16130100  0.76332900  1
  C  C21  1  0.41135900  0.39005900  0.58140600  1
  C  C22  1  0.44187500  0.61694800  0.17074600  1
  C  C23  1  0.66328500  0.16072400  0.28718000  1
  C  C24  1  0.33671500  0.83927600  0.71282000  1
  C  C25  1  0.55812500  0.38305200  0.82925400  1
  C  C26  1  0.58864100  0.60994100  0.41859400  1
  C  C27  1  0.60985500  0.83869900  0.23667100  1
  C  C28  1  0.87536300  0.43696900  0.13811300  1
  C  C29  1  0.85026200  0.40051000  0.60574600  1
  C  C30  1  0.76965800  0.93386400  0.00791200  1
  C  C31  1  0.71007400  0.63458700  0.88561500  1
  C  C32  1  0.03012000  0.77773100  0.17824000  1
  C  C33  1  0.88616700  0.79771200  0.70707300  1
