# generated using pymatgen
data_Cu(NiC4)3
_symmetry_space_group_name_H-M   'P 1'
_cell_length_a   5.10246300
_cell_length_b   5.85750986
_cell_length_c   10.55784067
_cell_angle_alpha   74.02828300
_cell_angle_beta   76.20292951
_cell_angle_gamma   73.31669723
_symmetry_Int_Tables_number   1
_chemical_formula_structural   Cu(NiC4)3
_chemical_formula_sum   'Cu2 Ni6 C24'
_cell_volume   286.20786973
_cell_formula_units_Z   2
loop_
 _symmetry_equiv_pos_site_id
 _symmetry_equiv_pos_as_xyz
  1  'x, y, z'
loop_
 _atom_site_type_symbol
 _atom_site_label
 _atom_site_symmetry_multiplicity
 _atom_site_fract_x
 _atom_site_fract_y
 _atom_site_fract_z
 _atom_site_occupancy
  C  C0  1  0.49823200  0.24959200  0.50128300  1
  C  C1  1  0.49959500  0.87190400  0.75255900  1
  C  C2  1  0.50409800  0.62150600  0.25055000  1
  C  C3  1  0.50000000  0.00000000  0.00000000  1
  C  C4  1  0.50176800  0.75040800  0.49871700  1
  C  C5  1  0.49590200  0.37849400  0.74945000  1
  C  C6  1  0.50040500  0.12809600  0.24744100  1
  C  C7  1  0.50000000  0.50000000  0.00000000  1
  Ni  Ni8  1  0.99979700  0.06027500  0.62748300  1
  Ni  Ni9  1  0.00005800  0.43690100  0.37340900  1
  Ni  Ni10  1  0.00020400  0.81122800  0.12277100  1
  Ni  Ni11  1  0.99994200  0.56309900  0.62659100  1
  Ni  Ni12  1  0.99979600  0.18877200  0.87722900  1
  Ni  Ni13  1  0.00020300  0.93972500  0.37251700  1
  Cu  Cu14  1  0.00024900  0.31386800  0.12341500  1
  Cu  Cu15  1  0.99975100  0.68613200  0.87658500  1
  C  C16  1  0.78131800  0.64392100  0.05746900  1
  C  C17  1  0.22312000  0.47045300  0.18706300  1
  C  C18  1  0.77284100  0.40084700  0.56127200  1
  C  C19  1  0.22751800  0.22363100  0.69093000  1
  C  C20  1  0.22318500  0.84545900  0.93786800  1
  C  C21  1  0.77535500  0.01986500  0.81428800  1
  C  C22  1  0.77248200  0.77636900  0.30907000  1
  C  C23  1  0.22715900  0.59915300  0.43872800  1
  C  C24  1  0.77681500  0.15454100  0.06213200  1
  C  C25  1  0.22464500  0.98013500  0.18571200  1
  C  C26  1  0.77313100  0.90201800  0.56007100  1
  C  C27  1  0.22393900  0.72138500  0.69474600  1
  C  C28  1  0.77688000  0.52954700  0.81293700  1
  C  C29  1  0.77606100  0.27861500  0.30525400  1
  C  C30  1  0.21868200  0.35607900  0.94253100  1
  C  C31  1  0.22686900  0.09798200  0.43992900  1
