# generated using pymatgen
data_Cu9NiC30
_symmetry_space_group_name_H-M   'P 1'
_cell_length_a   6.48520500
_cell_length_b   7.67389399
_cell_length_c   7.69378250
_cell_angle_alpha   65.43439931
_cell_angle_beta   89.20309810
_cell_angle_gamma   89.61196470
_symmetry_Int_Tables_number   1
_chemical_formula_structural   Cu9NiC30
_chemical_formula_sum   'Cu9 Ni1 C30'
_cell_volume   348.20347490
_cell_formula_units_Z   1
loop_
 _symmetry_equiv_pos_site_id
 _symmetry_equiv_pos_as_xyz
  1  'x, y, z'
loop_
 _atom_site_type_symbol
 _atom_site_label
 _atom_site_symmetry_multiplicity
 _atom_site_fract_x
 _atom_site_fract_y
 _atom_site_fract_z
 _atom_site_occupancy
  C  C0  1  0.30089800  0.69992600  0.69988800  1
  C  C1  1  0.80184100  0.70540700  0.20378300  1
  C  C2  1  0.10247300  0.89967800  0.90289800  1
  C  C3  1  0.89752700  0.10032200  0.09710200  1
  C  C4  1  0.59581700  0.90364700  0.40125900  1
  C  C5  1  0.40418300  0.09635300  0.59874100  1
  C  C6  1  0.19815900  0.29459300  0.79621700  1
  C  C7  1  0.00000000  0.50000000  0.00000000  1
  C  C8  1  0.69910200  0.30007400  0.30011200  1
  C  C9  1  0.50000000  0.50000000  0.50000000  1
  Ni  Ni10  1  0.00000000  0.00000000  0.50000000  1
  Cu  Cu11  1  0.69762700  0.79865400  0.79976800  1
  Cu  Cu12  1  0.20033300  0.80046300  0.29805100  1
  Cu  Cu13  1  0.50000000  0.00000000  0.00000000  1
  Cu  Cu14  1  0.30237300  0.20134600  0.20023200  1
  Cu  Cu15  1  0.79966700  0.19953700  0.70194900  1
  Cu  Cu16  1  0.10091900  0.40312600  0.39901800  1
  Cu  Cu17  1  0.60068300  0.39906800  0.90154000  1
  Cu  Cu18  1  0.39931700  0.60093200  0.09846000  1
  Cu  Cu19  1  0.89908100  0.59687400  0.60098200  1
  C  C20  1  0.12292600  0.64534600  0.14830200  1
  C  C21  1  0.98796600  0.74142000  0.73647300  1
  C  C22  1  0.60951300  0.62642100  0.67124900  1
  C  C23  1  0.48584400  0.74704700  0.23348400  1
  C  C24  1  0.91016100  0.84981300  0.35323800  1
  C  C25  1  0.40542100  0.83257100  0.87356300  1
  C  C26  1  0.08983900  0.15018700  0.64676200  1
  C  C27  1  0.29516700  0.95182400  0.44496800  1
  C  C28  1  0.22380200  0.04720900  0.05251100  1
  C  C29  1  0.77619800  0.95279100  0.94748900  1
  C  C30  1  0.51415600  0.25295300  0.76651600  1
  C  C31  1  0.01203400  0.25858000  0.26352700  1
  C  C32  1  0.70483300  0.04817600  0.55503200  1
  C  C33  1  0.59457900  0.16742900  0.12643700  1
  C  C34  1  0.87707400  0.35465400  0.85169800  1
  C  C35  1  0.39048700  0.37357900  0.32875100  1
  C  C36  1  0.32647500  0.45425000  0.95719000  1
  C  C37  1  0.67352500  0.54575000  0.04281000  1
  C  C38  1  0.18256500  0.54590100  0.53635500  1
  C  C39  1  0.81743500  0.45409900  0.46364500  1
