# generated using pymatgen
data_Cu9NiC10
_symmetry_space_group_name_H-M   'P 1'
_cell_length_a   5.19347400
_cell_length_b   5.99482744
_cell_length_c   6.71378981
_cell_angle_alpha   102.91345663
_cell_angle_beta   97.48037993
_cell_angle_gamma   106.77088247
_symmetry_Int_Tables_number   1
_chemical_formula_structural   Cu9NiC10
_chemical_formula_sum   'Cu9 Ni1 C10'
_cell_volume   190.78341190
_cell_formula_units_Z   1
loop_
 _symmetry_equiv_pos_site_id
 _symmetry_equiv_pos_as_xyz
  1  'x, y, z'
loop_
 _atom_site_type_symbol
 _atom_site_label
 _atom_site_symmetry_multiplicity
 _atom_site_fract_x
 _atom_site_fract_y
 _atom_site_fract_z
 _atom_site_occupancy
  Ni  Ni0  1  0.00000000  0.00000000  0.00000000  1
  Cu  Cu1  1  0.00000000  0.50000000  0.00000000  1
  Cu  Cu2  1  0.40027800  0.79946600  0.79939800  1
  Cu  Cu3  1  0.40024200  0.30019900  0.79908700  1
  Cu  Cu4  1  0.20033300  0.40068400  0.40124300  1
  Cu  Cu5  1  0.79966700  0.59931600  0.59875700  1
  Cu  Cu6  1  0.79946700  0.10017200  0.59970200  1
  Cu  Cu7  1  0.20053300  0.89982800  0.40029800  1
  Cu  Cu8  1  0.59975800  0.69980100  0.20091300  1
  Cu  Cu9  1  0.59972200  0.20053400  0.20060200  1
  C  C10  1  0.69615700  0.15153200  0.89929000  1
  C  C11  1  0.09920600  0.45032200  0.70047400  1
  C  C12  1  0.69659400  0.64597700  0.89845400  1
  C  C13  1  0.10059200  0.94893300  0.69617500  1
  C  C14  1  0.50006100  0.25002400  0.49893200  1
  C  C15  1  0.49993900  0.74997600  0.50106800  1
  C  C16  1  0.30340600  0.35402300  0.10154600  1
  C  C17  1  0.90079400  0.54967800  0.29952600  1
  C  C18  1  0.89940800  0.05106700  0.30382500  1
  C  C19  1  0.30384300  0.84846800  0.10071000  1
