# generated using pymatgen
data_CuNiC3
_symmetry_space_group_name_H-M   'P 1'
_cell_length_a   5.88351900
_cell_length_b   6.07552400
_cell_length_c   8.57596900
_cell_angle_alpha   90.00000000
_cell_angle_beta   90.00000000
_cell_angle_gamma   90.00000000
_symmetry_Int_Tables_number   1
_chemical_formula_structural   CuNiC3
_chemical_formula_sum   'Cu4 Ni4 C12'
_cell_volume   306.55196447
_cell_formula_units_Z   4
loop_
 _symmetry_equiv_pos_site_id
 _symmetry_equiv_pos_as_xyz
  1  'x, y, z'
loop_
 _atom_site_type_symbol
 _atom_site_label
 _atom_site_symmetry_multiplicity
 _atom_site_fract_x
 _atom_site_fract_y
 _atom_site_fract_z
 _atom_site_occupancy
  Ni  Ni0  1  0.98167400  0.04669100  0.25000000  1
  Ni  Ni1  1  0.48167400  0.45330900  0.75000000  1
  Ni  Ni2  1  0.51832600  0.54669100  0.25000000  1
  Ni  Ni3  1  0.01832600  0.95330900  0.75000000  1
  Cu  Cu4  1  0.50000000  0.00000000  0.00000000  1
  Cu  Cu5  1  0.50000000  0.00000000  0.50000000  1
  Cu  Cu6  1  0.00000000  0.50000000  0.00000000  1
  Cu  Cu7  1  0.00000000  0.50000000  0.50000000  1
  C  C8  1  0.63139700  0.05655300  0.75000000  1
  C  C9  1  0.19670100  0.19789500  0.57153000  1
  C  C10  1  0.19670100  0.19789500  0.92847000  1
  C  C11  1  0.69670100  0.30210500  0.42847000  1
  C  C12  1  0.69670100  0.30210500  0.07153000  1
  C  C13  1  0.13139700  0.44344700  0.25000000  1
  C  C14  1  0.86860300  0.55655300  0.75000000  1
  C  C15  1  0.30329900  0.69789500  0.92847000  1
  C  C16  1  0.30329900  0.69789500  0.57153000  1
  C  C17  1  0.80329900  0.80210500  0.07153000  1
  C  C18  1  0.80329900  0.80210500  0.42847000  1
  C  C19  1  0.36860300  0.94344700  0.25000000  1
