# generated using pymatgen
data_Cu12Ni3C4
_symmetry_space_group_name_H-M   'P 1'
_cell_length_a   8.57581800
_cell_length_b   8.75513000
_cell_length_c   12.23252900
_cell_angle_alpha   90.00000000
_cell_angle_beta   90.00000000
_cell_angle_gamma   90.00000000
_symmetry_Int_Tables_number   1
_chemical_formula_structural   Cu12Ni3C4
_chemical_formula_sum   'Cu48 Ni12 C16'
_cell_volume   918.44765308
_cell_formula_units_Z   4
loop_
 _symmetry_equiv_pos_site_id
 _symmetry_equiv_pos_as_xyz
  1  'x, y, z'
loop_
 _atom_site_type_symbol
 _atom_site_label
 _atom_site_symmetry_multiplicity
 _atom_site_fract_x
 _atom_site_fract_y
 _atom_site_fract_z
 _atom_site_occupancy
  C  C0  1  0.21720100  0.27709700  0.18263100  1
  C  C1  1  0.78279900  0.77709700  0.18263100  1
  C  C2  1  0.28279900  0.77709700  0.31736900  1
  C  C3  1  0.71720100  0.27709700  0.31736900  1
  C  C4  1  0.28279900  0.72290300  0.68263100  1
  C  C5  1  0.71720100  0.22290300  0.68263100  1
  C  C6  1  0.21720100  0.22290300  0.81736900  1
  C  C7  1  0.78279900  0.72290300  0.81736900  1
  C  C8  1  0.25223400  0.96291700  0.11019100  1
  C  C9  1  0.74776600  0.46291700  0.11019100  1
  C  C10  1  0.75223400  0.96291700  0.38980900  1
  C  C11  1  0.24776600  0.46291700  0.38980900  1
  C  C12  1  0.24776600  0.03708300  0.61019100  1
  C  C13  1  0.75223400  0.53708300  0.61019100  1
  C  C14  1  0.25223400  0.53708300  0.88980900  1
  C  C15  1  0.74776600  0.03708300  0.88980900  1
  Ni  Ni16  1  0.45839000  0.25000000  0.00000000  1
  Ni  Ni17  1  0.54161000  0.75000000  0.00000000  1
  Ni  Ni18  1  0.10219400  0.60577000  0.14534900  1
  Ni  Ni19  1  0.89780600  0.10577000  0.14534900  1
  Ni  Ni20  1  0.39780600  0.10577000  0.35465100  1
  Ni  Ni21  1  0.60219400  0.60577000  0.35465100  1
  Ni  Ni22  1  0.04161000  0.75000000  0.50000000  1
  Ni  Ni23  1  0.95839000  0.25000000  0.50000000  1
  Ni  Ni24  1  0.39780600  0.39423000  0.64534900  1
  Ni  Ni25  1  0.60219400  0.89423000  0.64534900  1
  Ni  Ni26  1  0.10219400  0.89423000  0.85465100  1
  Ni  Ni27  1  0.89780600  0.39423000  0.85465100  1
  Cu  Cu28  1  0.13730400  0.57228500  0.03127900  1
  Cu  Cu29  1  0.86269600  0.07228500  0.03127900  1
  Cu  Cu30  1  0.54972100  0.36275500  0.06056900  1
  Cu  Cu31  1  0.45027900  0.86275500  0.06056900  1
  Cu  Cu32  1  0.35473800  0.17166500  0.08112500  1
  Cu  Cu33  1  0.64526200  0.67166500  0.08112500  1
  Cu  Cu34  1  0.07068600  0.10975700  0.16092200  1
  Cu  Cu35  1  0.92931400  0.60975700  0.16092200  1
  Cu  Cu36  1  0.16595100  0.75710900  0.17951900  1
  Cu  Cu37  1  0.83404900  0.25710900  0.17951900  1
  Cu  Cu38  1  0.82999000  0.98505800  0.21749100  1
  Cu  Cu39  1  0.17001000  0.48505800  0.21749100  1
  Cu  Cu40  1  0.32999000  0.98505800  0.28250900  1
  Cu  Cu41  1  0.67001000  0.48505800  0.28250900  1
  Cu  Cu42  1  0.66595100  0.75710900  0.32048100  1
  Cu  Cu43  1  0.33404900  0.25710900  0.32048100  1
  Cu  Cu44  1  0.42931400  0.60975700  0.33907800  1
  Cu  Cu45  1  0.57068600  0.10975700  0.33907800  1
  Cu  Cu46  1  0.14526200  0.67166500  0.41887500  1
  Cu  Cu47  1  0.85473800  0.17166500  0.41887500  1
  Cu  Cu48  1  0.04972100  0.36275500  0.43943100  1
  Cu  Cu49  1  0.95027900  0.86275500  0.43943100  1
  Cu  Cu50  1  0.63730400  0.57228500  0.46872100  1
  Cu  Cu51  1  0.36269600  0.07228500  0.46872100  1
  Cu  Cu52  1  0.36269600  0.42771500  0.53127900  1
  Cu  Cu53  1  0.63730400  0.92771500  0.53127900  1
  Cu  Cu54  1  0.04972100  0.13724500  0.56056900  1
  Cu  Cu55  1  0.95027900  0.63724500  0.56056900  1
  Cu  Cu56  1  0.14526200  0.82833500  0.58112500  1
  Cu  Cu57  1  0.85473800  0.32833500  0.58112500  1
  Cu  Cu58  1  0.42931400  0.89024300  0.66092200  1
  Cu  Cu59  1  0.57068600  0.39024300  0.66092200  1
  Cu  Cu60  1  0.33404900  0.24289100  0.67951900  1
  Cu  Cu61  1  0.66595100  0.74289100  0.67951900  1
  Cu  Cu62  1  0.32999000  0.51494200  0.71749100  1
  Cu  Cu63  1  0.67001000  0.01494200  0.71749100  1
  Cu  Cu64  1  0.17001000  0.01494200  0.78250900  1
  Cu  Cu65  1  0.82999000  0.51494200  0.78250900  1
  Cu  Cu66  1  0.16595100  0.74289100  0.82048100  1
  Cu  Cu67  1  0.83404900  0.24289100  0.82048100  1
  Cu  Cu68  1  0.07068600  0.39024300  0.83907800  1
  Cu  Cu69  1  0.92931400  0.89024300  0.83907800  1
  Cu  Cu70  1  0.35473800  0.32833500  0.91887500  1
  Cu  Cu71  1  0.64526200  0.82833500  0.91887500  1
  Cu  Cu72  1  0.45027900  0.63724500  0.93943100  1
  Cu  Cu73  1  0.54972100  0.13724500  0.93943100  1
  Cu  Cu74  1  0.13730400  0.92771500  0.96872100  1
  Cu  Cu75  1  0.86269600  0.42771500  0.96872100  1
