# generated using pymatgen
data_Cu9Ni3C4
_symmetry_space_group_name_H-M   'P 1'
_cell_length_a   5.27861523
_cell_length_b   5.37811257
_cell_length_c   9.04521255
_cell_angle_alpha   74.41648483
_cell_angle_beta   90.07251634
_cell_angle_gamma   61.20814106
_symmetry_Int_Tables_number   1
_chemical_formula_structural   Cu9Ni3C4
_chemical_formula_sum   'Cu9 Ni3 C4'
_cell_volume   214.15502644
_cell_formula_units_Z   1
loop_
 _symmetry_equiv_pos_site_id
 _symmetry_equiv_pos_as_xyz
  1  'x, y, z'
loop_
 _atom_site_type_symbol
 _atom_site_label
 _atom_site_symmetry_multiplicity
 _atom_site_fract_x
 _atom_site_fract_y
 _atom_site_fract_z
 _atom_site_occupancy
  C  C0  1  0.74967800  0.50078600  0.25022000  1
  C  C1  1  0.49866900  0.97440300  0.49418700  1
  C  C2  1  0.26453300  0.51996700  0.74470600  1
  C  C3  1  0.00057700  0.02578300  0.00724100  1
  Ni  Ni4  1  0.96038500  0.23871200  0.12010700  1
  Ni  Ni5  1  0.54001300  0.76250500  0.37926600  1
  Ni  Ni6  1  0.40677900  0.73850400  0.66946200  1
  Cu  Cu7  1  0.91830300  0.74949000  0.58163100  1
  Cu  Cu8  1  0.92764500  0.74433800  0.16898900  1
  Cu  Cu9  1  0.42487800  0.74986900  0.07580800  1
  Cu  Cu10  1  0.57271700  0.25708900  0.33172400  1
  Cu  Cu11  1  0.57812000  0.24199000  0.92157900  1
  Cu  Cu12  1  0.46136800  0.23918600  0.62484100  1
  Cu  Cu13  1  0.03836300  0.74885800  0.88075400  1
  Cu  Cu14  1  0.08348700  0.25583800  0.82590200  1
  Cu  Cu15  1  0.07448500  0.25268200  0.42358200  1
