# generated using pymatgen
data_Cu(NiC2)2
_symmetry_space_group_name_H-M   'P 1'
_cell_length_a   9.02285000
_cell_length_b   9.97236000
_cell_length_c   3.55013000
_cell_angle_alpha   89.99999425
_cell_angle_beta   89.99999365
_cell_angle_gamma   90.00002419
_symmetry_Int_Tables_number   1
_chemical_formula_structural   Cu(NiC2)2
_chemical_formula_sum   'Cu4 Ni8 C16'
_cell_volume   319.43753220
_cell_formula_units_Z   4
loop_
 _symmetry_equiv_pos_site_id
 _symmetry_equiv_pos_as_xyz
  1  'x, y, z'
loop_
 _atom_site_type_symbol
 _atom_site_label
 _atom_site_symmetry_multiplicity
 _atom_site_fract_x
 _atom_site_fract_y
 _atom_site_fract_z
 _atom_site_occupancy
  C  C0  1  0.09544500  0.34358200  0.50000000  1
  C  C1  1  0.15362000  0.57206400  0.00000100  1
  C  C2  1  0.16726400  0.18043600  0.00000000  1
  C  C3  1  0.33273800  0.68043700  0.50000000  1
  C  C4  1  0.34638200  0.07206400  0.50000000  1
  C  C5  1  0.40455700  0.84358300  0.00000100  1
  C  C6  1  0.59544700  0.15642000  0.00000100  1
  C  C7  1  0.65361900  0.92793800  0.50000000  1
  C  C8  1  0.66726500  0.31956500  0.50000000  1
  C  C9  1  0.83273800  0.81956400  0.00000000  1
  C  C10  1  0.84638200  0.42793900  0.00000000  1
  C  C11  1  0.90455500  0.65641900  0.50000000  1
  C  C12  1  0.11528900  0.89820200  0.49999800  1
  C  C13  1  0.38471200  0.39820100  0.00000300  1
  C  C14  1  0.61527500  0.60179500  0.99999400  1
  C  C15  1  0.88471500  0.10177900  0.49999300  1
  Ni  Ni16  1  0.10605100  0.11638100  0.50000100  1
  Ni  Ni17  1  0.16983100  0.37813400  0.00000200  1
  Ni  Ni18  1  0.33017200  0.87813200  0.50000100  1
  Ni  Ni19  1  0.39394300  0.61638300  0.00000100  1
  Ni  Ni20  1  0.60604800  0.38362000  0.00000000  1
  Ni  Ni21  1  0.66983000  0.12186900  0.49999800  1
  Ni  Ni22  1  0.83016300  0.62186900  0.00000100  1
  Ni  Ni23  1  0.89395200  0.88361800  0.50000100  1
  Cu  Cu24  1  0.11768700  0.64540600  0.50000000  1
  Cu  Cu25  1  0.38231700  0.14540800  0.00000100  1
  Cu  Cu26  1  0.61768600  0.85459500  0.00000000  1
  Cu  Cu27  1  0.88231600  0.35459600  0.49999900  1
