# generated using pymatgen
data_Cu2NiC4
_symmetry_space_group_name_H-M   'P 1'
_cell_length_a   5.50941625
_cell_length_b   5.50941625
_cell_length_c   10.68560000
_cell_angle_alpha   90.00000000
_cell_angle_beta   90.00000000
_cell_angle_gamma   146.12450481
_symmetry_Int_Tables_number   1
_chemical_formula_structural   Cu2NiC4
_chemical_formula_sum   'Cu4 Ni2 C8'
_cell_volume   180.78788000
_cell_formula_units_Z   2
loop_
 _symmetry_equiv_pos_site_id
 _symmetry_equiv_pos_as_xyz
  1  'x, y, z'
loop_
 _atom_site_type_symbol
 _atom_site_label
 _atom_site_symmetry_multiplicity
 _atom_site_fract_x
 _atom_site_fract_y
 _atom_site_fract_z
 _atom_site_occupancy
  Ni  Ni0  1  0.89006600  0.10993400  0.25000000  1
  Ni  Ni1  1  0.10993400  0.89006600  0.75000000  1
  Cu  Cu2  1  0.63554800  0.36445200  0.42943800  1
  Cu  Cu3  1  0.36445200  0.63554800  0.57056200  1
  Cu  Cu4  1  0.63554800  0.36445200  0.07056200  1
  Cu  Cu5  1  0.36445200  0.63554800  0.92943800  1
  C  C6  1  0.00000000  0.00000000  0.00000000  1
  C  C7  1  0.00000000  0.00000000  0.50000000  1
  C  C8  1  0.73707900  0.26292100  0.60475700  1
  C  C9  1  0.56492000  0.43508000  0.25000000  1
  C  C10  1  0.43508000  0.56492000  0.75000000  1
  C  C11  1  0.26292100  0.73707900  0.39524300  1
  C  C12  1  0.73707900  0.26292100  0.89524300  1
  C  C13  1  0.26292100  0.73707900  0.10475700  1
