# generated using pymatgen
data_Cu7NiC4
_symmetry_space_group_name_H-M   'P 1'
_cell_length_a   6.83681600
_cell_length_b   5.73155000
_cell_length_c   9.68983904
_cell_angle_alpha   89.09003171
_cell_angle_beta   90.00000000
_cell_angle_gamma   90.00000000
_symmetry_Int_Tables_number   1
_chemical_formula_structural   Cu7NiC4
_chemical_formula_sum   'Cu14 Ni2 C8'
_cell_volume   379.65381248
_cell_formula_units_Z   2
loop_
 _symmetry_equiv_pos_site_id
 _symmetry_equiv_pos_as_xyz
  1  'x, y, z'
loop_
 _atom_site_type_symbol
 _atom_site_label
 _atom_site_symmetry_multiplicity
 _atom_site_fract_x
 _atom_site_fract_y
 _atom_site_fract_z
 _atom_site_occupancy
  C  C0  1  0.01713500  0.24743700  0.76391000  1
  C  C1  1  0.48286500  0.24743700  0.76391000  1
  C  C2  1  0.51713500  0.75256300  0.23609000  1
  C  C3  1  0.98286500  0.75256300  0.23609000  1
  C  C4  1  0.75000000  0.77334300  0.63634600  1
  C  C5  1  0.25000000  0.22665700  0.36365400  1
  C  C6  1  0.25000000  0.72338600  0.56437400  1
  C  C7  1  0.75000000  0.27661400  0.43562600  1
  Ni  Ni8  1  0.75000000  0.72836800  0.89823400  1
  Ni  Ni9  1  0.25000000  0.27163200  0.10176600  1
  Cu  Cu10  1  0.25000000  0.29056600  0.97255400  1
  Cu  Cu11  1  0.75000000  0.93009700  0.83032700  1
  Cu  Cu12  1  0.75000000  0.55042100  0.81347000  1
  Cu  Cu13  1  0.06336100  0.75853300  0.65145600  1
  Cu  Cu14  1  0.43663900  0.75853300  0.65145600  1
  Cu  Cu15  1  0.75000000  0.10539200  0.56301400  1
  Cu  Cu16  1  0.25000000  0.46705100  0.50802800  1
  Cu  Cu17  1  0.75000000  0.53294900  0.49197200  1
  Cu  Cu18  1  0.25000000  0.89460800  0.43698600  1
  Cu  Cu19  1  0.56336100  0.24146700  0.34854400  1
  Cu  Cu20  1  0.93663900  0.24146700  0.34854400  1
  Cu  Cu21  1  0.25000000  0.44957900  0.18653000  1
  Cu  Cu22  1  0.25000000  0.06990300  0.16967300  1
  Cu  Cu23  1  0.75000000  0.70943400  0.02744600  1
