# generated using pymatgen
data_CuNi3C11
_symmetry_space_group_name_H-M   'P 1'
_cell_length_a   5.89891237
_cell_length_b   5.89891237
_cell_length_c   5.89891252
_cell_angle_alpha   59.81110399
_cell_angle_beta   59.81110399
_cell_angle_gamma   59.81110382
_symmetry_Int_Tables_number   1
_chemical_formula_structural   CuNi3C11
_chemical_formula_sum   'Cu1 Ni3 C11'
_cell_volume   144.52223630
_cell_formula_units_Z   1
loop_
 _symmetry_equiv_pos_site_id
 _symmetry_equiv_pos_as_xyz
  1  'x, y, z'
loop_
 _atom_site_type_symbol
 _atom_site_label
 _atom_site_symmetry_multiplicity
 _atom_site_fract_x
 _atom_site_fract_y
 _atom_site_fract_z
 _atom_site_occupancy
  C  C0  1  0.00000000  0.50000000  0.00000000  1
  C  C1  1  0.00000000  0.00000000  0.50000000  1
  C  C2  1  0.50000000  0.00000000  0.00000000  1
  Ni  Ni3  1  0.50000000  0.00000000  0.50000000  1
  Ni  Ni4  1  0.50000000  0.50000000  0.00000000  1
  Ni  Ni5  1  0.00000000  0.50000000  0.50000000  1
  Cu  Cu6  1  0.00000000  0.00000000  0.00000000  1
  C  C7  1  0.25792900  0.25792900  0.25792900  1
  C  C8  1  0.76498400  0.25333100  0.76498400  1
  C  C9  1  0.76498400  0.76498400  0.25333100  1
  C  C10  1  0.74207100  0.74207100  0.74207100  1
  C  C11  1  0.25333100  0.76498400  0.76498400  1
  C  C12  1  0.23501600  0.74666900  0.23501600  1
  C  C13  1  0.23501600  0.23501600  0.74666900  1
  C  C14  1  0.74666900  0.23501600  0.23501600  1
