# generated using pymatgen
data_Cu2Ni2C13
_symmetry_space_group_name_H-M   'P 1'
_cell_length_a   7.81126900
_cell_length_b   6.75200100
_cell_length_c   9.95443304
_cell_angle_alpha   48.68045577
_cell_angle_beta   90.00000000
_cell_angle_gamma   90.00000000
_symmetry_Int_Tables_number   1
_chemical_formula_structural   Cu2Ni2C13
_chemical_formula_sum   'Cu4 Ni4 C26'
_cell_volume   394.30572790
_cell_formula_units_Z   2
loop_
 _symmetry_equiv_pos_site_id
 _symmetry_equiv_pos_as_xyz
  1  'x, y, z'
loop_
 _atom_site_type_symbol
 _atom_site_label
 _atom_site_symmetry_multiplicity
 _atom_site_fract_x
 _atom_site_fract_y
 _atom_site_fract_z
 _atom_site_occupancy
  C  C0  1  0.00000000  0.50000000  0.50000000  1
  C  C1  1  0.50000000  0.50000000  0.00000000  1
  C  C2  1  0.36278100  0.96621000  0.26362000  1
  C  C3  1  0.86278100  0.03379000  0.23638000  1
  C  C4  1  0.13721900  0.96621000  0.76362000  1
  C  C5  1  0.63721900  0.03379000  0.73638000  1
  Ni  Ni6  1  0.62571000  0.60913000  0.63268800  1
  Ni  Ni7  1  0.12571000  0.39087000  0.86731200  1
  Ni  Ni8  1  0.87429000  0.60913000  0.13268800  1
  Ni  Ni9  1  0.37429000  0.39087000  0.36731200  1
  Cu  Cu10  1  0.61874400  0.10701700  0.04753700  1
  Cu  Cu11  1  0.11874400  0.89298300  0.45246300  1
  Cu  Cu12  1  0.88125600  0.10701700  0.54753700  1
  Cu  Cu13  1  0.38125600  0.89298300  0.95246300  1
  C  C14  1  0.11859300  0.29365400  0.74502600  1
  C  C15  1  0.63413200  0.27065700  0.78736200  1
  C  C16  1  0.44532600  0.71748500  0.50574400  1
  C  C17  1  0.80962900  0.72767400  0.50468500  1
  C  C18  1  0.30962900  0.27232600  0.99531500  1
  C  C19  1  0.11516100  0.88602800  0.35682200  1
  C  C20  1  0.94532600  0.28251500  0.99425600  1
  C  C21  1  0.61516100  0.11397200  0.14317800  1
  C  C22  1  0.13413200  0.72934300  0.71263800  1
  C  C23  1  0.61859300  0.70634600  0.75497400  1
  C  C24  1  0.38140700  0.29365400  0.24502600  1
  C  C25  1  0.86586800  0.27065700  0.28736200  1
  C  C26  1  0.38483900  0.88602800  0.85682200  1
  C  C27  1  0.05467400  0.71748500  0.00574400  1
  C  C28  1  0.88483900  0.11397200  0.64317800  1
  C  C29  1  0.69037100  0.72767400  0.00468500  1
  C  C30  1  0.19037100  0.27232600  0.49531500  1
  C  C31  1  0.55467400  0.28251500  0.49425600  1
  C  C32  1  0.36586800  0.72934300  0.21263800  1
  C  C33  1  0.88140700  0.70634600  0.25497400  1
