# generated using pymatgen
data_CuNiC6
_symmetry_space_group_name_H-M   'P 1'
_cell_length_a   5.07124900
_cell_length_b   6.25472700
_cell_length_c   11.13049100
_cell_angle_alpha   90.00000000
_cell_angle_beta   90.00000000
_cell_angle_gamma   90.00000000
_symmetry_Int_Tables_number   1
_chemical_formula_structural   CuNiC6
_chemical_formula_sum   'Cu4 Ni4 C24'
_cell_volume   353.05113880
_cell_formula_units_Z   4
loop_
 _symmetry_equiv_pos_site_id
 _symmetry_equiv_pos_as_xyz
  1  'x, y, z'
loop_
 _atom_site_type_symbol
 _atom_site_label
 _atom_site_symmetry_multiplicity
 _atom_site_fract_x
 _atom_site_fract_y
 _atom_site_fract_z
 _atom_site_occupancy
  C  C0  1  0.18000800  0.00025300  0.58610300  1
  C  C1  1  0.31999200  0.00025300  0.08610300  1
  C  C2  1  0.31999200  0.49974700  0.08610300  1
  C  C3  1  0.18000800  0.49974700  0.58610300  1
  C  C4  1  0.68000800  0.50025300  0.91389700  1
  C  C5  1  0.81999200  0.50025300  0.41389700  1
  C  C6  1  0.81999200  0.99974700  0.41389700  1
  C  C7  1  0.68000800  0.99974700  0.91389700  1
  Ni  Ni8  1  0.17157700  0.25000000  0.83459200  1
  Ni  Ni9  1  0.32842300  0.25000000  0.33459200  1
  Ni  Ni10  1  0.67157700  0.75000000  0.66540800  1
  Ni  Ni11  1  0.82842300  0.75000000  0.16540800  1
  Cu  Cu12  1  0.67367000  0.25000000  0.66702800  1
  Cu  Cu13  1  0.82633000  0.25000000  0.16702800  1
  Cu  Cu14  1  0.32633000  0.75000000  0.33297200  1
  Cu  Cu15  1  0.17367000  0.75000000  0.83297200  1
  C  C16  1  0.77774100  0.98839700  0.59075300  1
  C  C17  1  0.72225900  0.98839700  0.09075300  1
  C  C18  1  0.29810400  0.25000000  0.68391700  1
  C  C19  1  0.68064800  0.25000000  0.32558300  1
  C  C20  1  0.81935200  0.25000000  0.82558300  1
  C  C21  1  0.20189600  0.25000000  0.18391700  1
  C  C22  1  0.72225900  0.51160300  0.09075300  1
  C  C23  1  0.77774100  0.51160300  0.59075300  1
  C  C24  1  0.22225900  0.48839700  0.40924700  1
  C  C25  1  0.27774100  0.48839700  0.90924700  1
  C  C26  1  0.70189600  0.75000000  0.31608300  1
  C  C27  1  0.79810400  0.75000000  0.81608300  1
  C  C28  1  0.31935200  0.75000000  0.67441700  1
  C  C29  1  0.18064800  0.75000000  0.17441700  1
  C  C30  1  0.22225900  0.01160300  0.40924700  1
  C  C31  1  0.27774100  0.01160300  0.90924700  1
