# generated using pymatgen
data_Cu12Ni3C
_symmetry_space_group_name_H-M   'P 1'
_cell_length_a   9.22392356
_cell_length_b   9.22392356
_cell_length_c   5.67582900
_cell_angle_alpha   90.00000000
_cell_angle_beta   90.00000000
_cell_angle_gamma   119.99999685
_symmetry_Int_Tables_number   1
_chemical_formula_structural   Cu12Ni3C
_chemical_formula_sum   'Cu24 Ni6 C2'
_cell_volume   418.20703940
_cell_formula_units_Z   2
loop_
 _symmetry_equiv_pos_site_id
 _symmetry_equiv_pos_as_xyz
  1  'x, y, z'
loop_
 _atom_site_type_symbol
 _atom_site_label
 _atom_site_symmetry_multiplicity
 _atom_site_fract_x
 _atom_site_fract_y
 _atom_site_fract_z
 _atom_site_occupancy
  C  C0  1  0.33333300  0.66666700  0.75000000  1
  C  C1  1  0.66666700  0.33333300  0.25000000  1
  Ni  Ni2  1  0.09066700  0.70751400  0.25000000  1
  Ni  Ni3  1  0.29248600  0.38315400  0.25000000  1
  Ni  Ni4  1  0.61684600  0.90933300  0.25000000  1
  Ni  Ni5  1  0.38315400  0.09066700  0.75000000  1
  Ni  Ni6  1  0.70751400  0.61684600  0.75000000  1
  Ni  Ni7  1  0.90933300  0.29248600  0.75000000  1
  Cu  Cu8  1  0.01995400  0.81289000  0.25000000  1
  Cu  Cu9  1  0.03588800  0.47121700  0.75000000  1
  Cu  Cu10  1  0.19817600  0.74149700  0.04191400  1
  Cu  Cu11  1  0.19817600  0.74149700  0.45808600  1
  Cu  Cu12  1  0.43532900  0.96411200  0.75000000  1
  Cu  Cu13  1  0.25850300  0.45668000  0.45808600  1
  Cu  Cu14  1  0.25850300  0.45668000  0.04191400  1
  Cu  Cu15  1  0.18711000  0.20706400  0.25000000  1
  Cu  Cu16  1  0.54332000  0.80182400  0.04191400  1
  Cu  Cu17  1  0.54332000  0.80182400  0.45808600  1
  Cu  Cu18  1  0.20706400  0.01995400  0.75000000  1
  Cu  Cu19  1  0.47121700  0.43532900  0.25000000  1
  Cu  Cu20  1  0.52878300  0.56467100  0.75000000  1
  Cu  Cu21  1  0.79293600  0.98004600  0.25000000  1
  Cu  Cu22  1  0.45668000  0.19817600  0.54191400  1
  Cu  Cu23  1  0.45668000  0.19817600  0.95808600  1
  Cu  Cu24  1  0.81289000  0.79293600  0.75000000  1
  Cu  Cu25  1  0.74149700  0.54332000  0.95808600  1
  Cu  Cu26  1  0.74149700  0.54332000  0.54191400  1
  Cu  Cu27  1  0.56467100  0.03588800  0.25000000  1
  Cu  Cu28  1  0.80182400  0.25850300  0.95808600  1
  Cu  Cu29  1  0.80182400  0.25850300  0.54191400  1
  Cu  Cu30  1  0.96411200  0.52878300  0.25000000  1
  Cu  Cu31  1  0.98004600  0.18711000  0.75000000  1
