# generated using pymatgen
data_Cu4NiC6
_symmetry_space_group_name_H-M   'P 1'
_cell_length_a   10.04175300
_cell_length_b   7.09079400
_cell_length_c   7.88716502
_cell_angle_alpha   89.11210550
_cell_angle_beta   90.00000000
_cell_angle_gamma   90.00000000
_symmetry_Int_Tables_number   1
_chemical_formula_structural   Cu4NiC6
_chemical_formula_sum   'Cu16 Ni4 C24'
_cell_volume   561.53028163
_cell_formula_units_Z   4
loop_
 _symmetry_equiv_pos_site_id
 _symmetry_equiv_pos_as_xyz
  1  'x, y, z'
loop_
 _atom_site_type_symbol
 _atom_site_label
 _atom_site_symmetry_multiplicity
 _atom_site_fract_x
 _atom_site_fract_y
 _atom_site_fract_z
 _atom_site_occupancy
  C  C0  1  0.27675200  0.24043000  0.89322500  1
  C  C1  1  0.22324800  0.24043000  0.39322500  1
  C  C2  1  0.72376500  0.26682000  0.88498200  1
  C  C3  1  0.77623500  0.26682000  0.38498200  1
  C  C4  1  0.22376500  0.73318000  0.61501800  1
  C  C5  1  0.27623500  0.73318000  0.11501800  1
  C  C6  1  0.77675200  0.75957000  0.60677500  1
  C  C7  1  0.72324800  0.75957000  0.10677500  1
  C  C8  1  0.50000000  0.00000000  0.50000000  1
  C  C9  1  0.00000000  0.00000000  0.00000000  1
  C  C10  1  0.50000000  0.50000000  0.50000000  1
  C  C11  1  0.00000000  0.50000000  0.00000000  1
  Ni  Ni12  1  0.99898500  0.25391100  0.66637000  1
  Ni  Ni13  1  0.50101500  0.25391100  0.16637000  1
  Ni  Ni14  1  0.49898500  0.74608900  0.83363000  1
  Ni  Ni15  1  0.00101500  0.74608900  0.33363000  1
  Cu  Cu16  1  0.07469400  0.11576700  0.78196500  1
  Cu  Cu17  1  0.42530600  0.11576700  0.28196500  1
  Cu  Cu18  1  0.90184900  0.15757200  0.56109000  1
  Cu  Cu19  1  0.59815100  0.15757200  0.06109000  1
  Cu  Cu20  1  0.10097200  0.35560600  0.56768000  1
  Cu  Cu21  1  0.39902800  0.35560600  0.06768000  1
  Cu  Cu22  1  0.92136000  0.38312100  0.78276100  1
  Cu  Cu23  1  0.57864000  0.38312100  0.28276100  1
  Cu  Cu24  1  0.42136000  0.61687900  0.71723900  1
  Cu  Cu25  1  0.07864000  0.61687900  0.21723900  1
  Cu  Cu26  1  0.60097200  0.64439400  0.93232000  1
  Cu  Cu27  1  0.89902800  0.64439400  0.43232000  1
  Cu  Cu28  1  0.40184900  0.84242800  0.93891000  1
  Cu  Cu29  1  0.09815100  0.84242800  0.43891000  1
  Cu  Cu30  1  0.57469400  0.88423300  0.71803500  1
  Cu  Cu31  1  0.92530600  0.88423300  0.21803500  1
  C  C32  1  0.81908600  0.02766100  0.92197700  1
  C  C33  1  0.68091400  0.02766100  0.42197700  1
  C  C34  1  0.49730400  0.25122500  0.61679700  1
  C  C35  1  0.00269600  0.25122500  0.11679800  1
  C  C36  1  0.17935000  0.47360600  0.91802400  1
  C  C37  1  0.32065000  0.47360600  0.41802400  1
  C  C38  1  0.67935000  0.52639400  0.58197600  1
  C  C39  1  0.82065000  0.52639400  0.08197600  1
  C  C40  1  0.99730400  0.74877500  0.88320300  1
  C  C41  1  0.50269600  0.74877500  0.38320300  1
  C  C42  1  0.31908600  0.97233900  0.57802300  1
  C  C43  1  0.18091400  0.97233900  0.07802300  1
