# generated using pymatgen
data_Cu9Ni8C9
_symmetry_space_group_name_H-M   'P 1'
_cell_length_a   14.37121000
_cell_length_b   6.94415800
_cell_length_c   7.16433843
_cell_angle_alpha   76.45030662
_cell_angle_beta   90.00000000
_cell_angle_gamma   90.00000000
_symmetry_Int_Tables_number   1
_chemical_formula_structural   Cu9Ni8C9
_chemical_formula_sum   'Cu18 Ni16 C18'
_cell_volume   695.07222535
_cell_formula_units_Z   2
loop_
 _symmetry_equiv_pos_site_id
 _symmetry_equiv_pos_as_xyz
  1  'x, y, z'
loop_
 _atom_site_type_symbol
 _atom_site_label
 _atom_site_symmetry_multiplicity
 _atom_site_fract_x
 _atom_site_fract_y
 _atom_site_fract_z
 _atom_site_occupancy
  C  C0  1  0.75000000  0.03252400  0.44617500  1
  C  C1  1  0.50489700  0.78457600  0.67598400  1
  C  C2  1  0.99510300  0.78457600  0.67598400  1
  C  C3  1  0.49510300  0.21542400  0.32401600  1
  C  C4  1  0.00489700  0.21542400  0.32401600  1
  C  C5  1  0.25000000  0.96747600  0.55382500  1
  C  C6  1  0.75000000  0.96287700  0.06680000  1
  C  C7  1  0.25000000  0.52516000  0.93175600  1
  C  C8  1  0.38127500  0.68986000  0.31278200  1
  C  C9  1  0.11872500  0.68986000  0.31278200  1
  C  C10  1  0.88127500  0.31014000  0.68721800  1
  C  C11  1  0.61872500  0.31014000  0.68721800  1
  C  C12  1  0.75000000  0.47484000  0.06824400  1
  C  C13  1  0.25000000  0.03712300  0.93320000  1
  C  C14  1  0.89917700  0.66741600  0.31385300  1
  C  C15  1  0.60082300  0.66741600  0.31385300  1
  C  C16  1  0.10082300  0.33258400  0.68614700  1
  C  C17  1  0.39917700  0.33258400  0.68614700  1
  Ni  Ni18  1  0.84092700  0.86101300  0.27481300  1
  Ni  Ni19  1  0.65907300  0.86101300  0.27481300  1
  Ni  Ni20  1  0.50656800  0.71665200  0.21121300  1
  Ni  Ni21  1  0.99343200  0.71665200  0.21121300  1
  Ni  Ni22  1  0.35236000  0.49916300  0.76071500  1
  Ni  Ni23  1  0.14764000  0.49916300  0.76071500  1
  Ni  Ni24  1  0.91190200  0.59272500  0.53576300  1
  Ni  Ni25  1  0.58809800  0.59272500  0.53576300  1
  Ni  Ni26  1  0.08809800  0.40727500  0.46423700  1
  Ni  Ni27  1  0.41190200  0.40727500  0.46423700  1
  Ni  Ni28  1  0.85236000  0.50083700  0.23928500  1
  Ni  Ni29  1  0.64764000  0.50083700  0.23928500  1
  Ni  Ni30  1  0.49343200  0.28334800  0.78878700  1
  Ni  Ni31  1  0.00656800  0.28334800  0.78878700  1
  Ni  Ni32  1  0.34092700  0.13898700  0.72518700  1
  Ni  Ni33  1  0.15907300  0.13898700  0.72518700  1
  Cu  Cu34  1  0.25000000  0.80905600  0.81613600  1
  Cu  Cu35  1  0.75000000  0.74900700  0.93982700  1
  Cu  Cu36  1  0.41331100  0.86440400  0.48489000  1
  Cu  Cu37  1  0.08668900  0.86440400  0.48489000  1
  Cu  Cu38  1  0.34900400  0.93806600  0.12216000  1
  Cu  Cu39  1  0.15099600  0.93806600  0.12216000  1
  Cu  Cu40  1  0.25000000  0.70288500  0.40735300  1
  Cu  Cu41  1  0.84714100  0.44845500  0.88405500  1
  Cu  Cu42  1  0.65285900  0.44845500  0.88405500  1
  Cu  Cu43  1  0.34714100  0.55154500  0.11594500  1
  Cu  Cu44  1  0.15285900  0.55154500  0.11594500  1
  Cu  Cu45  1  0.75000000  0.29711500  0.59264700  1
  Cu  Cu46  1  0.84900400  0.06193400  0.87784000  1
  Cu  Cu47  1  0.65099600  0.06193400  0.87784000  1
  Cu  Cu48  1  0.91331100  0.13559600  0.51511000  1
  Cu  Cu49  1  0.58668900  0.13559600  0.51511000  1
  Cu  Cu50  1  0.25000000  0.25099300  0.06017300  1
  Cu  Cu51  1  0.75000000  0.19094400  0.18386400  1
