# generated using pymatgen
data_Cu3NiC2
_symmetry_space_group_name_H-M   'P 1'
_cell_length_a   4.83951627
_cell_length_b   4.83951627
_cell_length_c   12.44821500
_cell_angle_alpha   90.00000000
_cell_angle_beta   90.00000000
_cell_angle_gamma   91.94272711
_symmetry_Int_Tables_number   1
_chemical_formula_structural   Cu3NiC2
_chemical_formula_sum   'Cu12 Ni4 C8'
_cell_volume   291.38104128
_cell_formula_units_Z   4
loop_
 _symmetry_equiv_pos_site_id
 _symmetry_equiv_pos_as_xyz
  1  'x, y, z'
loop_
 _atom_site_type_symbol
 _atom_site_label
 _atom_site_symmetry_multiplicity
 _atom_site_fract_x
 _atom_site_fract_y
 _atom_site_fract_z
 _atom_site_occupancy
  C  C0  1  0.97838500  0.97838500  0.62497400  1
  C  C1  1  0.97838500  0.97838500  0.87502600  1
  C  C2  1  0.02161500  0.02161500  0.12497400  1
  C  C3  1  0.02161500  0.02161500  0.37502600  1
  C  C4  1  0.47542000  0.47542000  0.25000000  1
  C  C5  1  0.52458000  0.52458000  0.75000000  1
  C  C6  1  0.50000000  0.50000000  0.50000000  1
  C  C7  1  0.50000000  0.50000000  0.00000000  1
  Ni  Ni8  1  0.31994900  0.31994900  0.12171100  1
  Ni  Ni9  1  0.31994900  0.31994900  0.37828900  1
  Ni  Ni10  1  0.68005100  0.68005100  0.62171100  1
  Ni  Ni11  1  0.68005100  0.68005100  0.87828900  1
  Cu  Cu12  1  0.78545200  0.20366600  0.75000000  1
  Cu  Cu13  1  0.79202600  0.20797400  0.00000000  1
  Cu  Cu14  1  0.79633400  0.21454800  0.25000000  1
  Cu  Cu15  1  0.79202600  0.20797400  0.50000000  1
  Cu  Cu16  1  0.29485300  0.29485300  0.62749600  1
  Cu  Cu17  1  0.29485300  0.29485300  0.87250400  1
  Cu  Cu18  1  0.70514700  0.70514700  0.12749600  1
  Cu  Cu19  1  0.70514700  0.70514700  0.37250400  1
  Cu  Cu20  1  0.20797400  0.79202600  0.00000000  1
  Cu  Cu21  1  0.21454800  0.79633400  0.25000000  1
  Cu  Cu22  1  0.20366600  0.78545200  0.75000000  1
  Cu  Cu23  1  0.20797400  0.79202600  0.50000000  1
