# generated using pymatgen
data_Cu2Ni5C8
_symmetry_space_group_name_H-M   'P 1'
_cell_length_a   5.95996500
_cell_length_b   5.20524600
_cell_length_c   10.11934469
_cell_angle_alpha   70.30715719
_cell_angle_beta   90.00000000
_cell_angle_gamma   90.00000000
_symmetry_Int_Tables_number   1
_chemical_formula_structural   Cu2Ni5C8
_chemical_formula_sum   'Cu4 Ni10 C16'
_cell_volume   295.57215338
_cell_formula_units_Z   2
loop_
 _symmetry_equiv_pos_site_id
 _symmetry_equiv_pos_as_xyz
  1  'x, y, z'
loop_
 _atom_site_type_symbol
 _atom_site_label
 _atom_site_symmetry_multiplicity
 _atom_site_fract_x
 _atom_site_fract_y
 _atom_site_fract_z
 _atom_site_occupancy
  C  C0  1  0.03672300  0.19963100  0.13513100  1
  C  C1  1  0.48671700  0.23615200  0.14768000  1
  C  C2  1  0.76118300  0.82527800  0.13071900  1
  C  C3  1  0.97744100  0.79179600  0.36847700  1
  C  C4  1  0.53600300  0.76875400  0.34746200  1
  C  C5  1  0.23564300  0.16640600  0.37120300  1
  C  C6  1  0.23881700  0.82527800  0.63071900  1
  C  C7  1  0.96327700  0.19963100  0.63513100  1
  C  C8  1  0.51328300  0.23615200  0.64768000  1
  C  C9  1  0.76435700  0.16640600  0.87120300  1
  C  C10  1  0.02255900  0.79179600  0.86847700  1
  C  C11  1  0.46399700  0.76875400  0.84746200  1
  C  C12  1  0.26736900  0.73446200  0.12885900  1
  C  C13  1  0.75202400  0.26715300  0.37058300  1
  C  C14  1  0.73263100  0.73446200  0.62885900  1
  C  C15  1  0.24797600  0.26715300  0.87058300  1
  Ni  Ni16  1  0.25434400  0.49981500  0.99980900  1
  Ni  Ni17  1  0.02760400  0.99171400  0.00378600  1
  Ni  Ni18  1  0.26014800  0.94849100  0.25425600  1
  Ni  Ni19  1  0.76063900  0.05057300  0.24668000  1
  Ni  Ni20  1  0.53452500  0.52330600  0.23393700  1
  Ni  Ni21  1  0.97239600  0.99171400  0.50378600  1
  Ni  Ni22  1  0.74565600  0.49981500  0.49980900  1
  Ni  Ni23  1  0.46547500  0.52330600  0.73393700  1
  Ni  Ni24  1  0.73985200  0.94849100  0.75425600  1
  Ni  Ni25  1  0.23936100  0.05057300  0.74668000  1
  Cu  Cu26  1  0.03494000  0.47857600  0.26565500  1
  Cu  Cu27  1  0.49053600  0.01789100  0.49576100  1
  Cu  Cu28  1  0.96506000  0.47857600  0.76565500  1
  Cu  Cu29  1  0.50946400  0.01789100  0.99576100  1
