# generated using pymatgen
data_CuNiC6
_symmetry_space_group_name_H-M   'P 1'
_cell_length_a   2.96647243
_cell_length_b   5.13147204
_cell_length_c   9.91704039
_cell_angle_alpha   99.19042678
_cell_angle_beta   89.96367313
_cell_angle_gamma   90.00892195
_symmetry_Int_Tables_number   1
_chemical_formula_structural   CuNiC6
_chemical_formula_sum   'Cu2 Ni2 C12'
_cell_volume   149.02294122
_cell_formula_units_Z   2
loop_
 _symmetry_equiv_pos_site_id
 _symmetry_equiv_pos_as_xyz
  1  'x, y, z'
loop_
 _atom_site_type_symbol
 _atom_site_label
 _atom_site_symmetry_multiplicity
 _atom_site_fract_x
 _atom_site_fract_y
 _atom_site_fract_z
 _atom_site_occupancy
  C  C0  1  0.50000300  0.49999300  0.00002800  1
  C  C1  1  0.50000000  0.00000700  0.49997100  1
  C  C2  1  0.00000200  0.00003300  0.00001600  1
  C  C3  1  0.00000100  0.49996600  0.49998400  1
  Ni  Ni4  1  0.00000000  0.25000100  0.75000000  1
  Ni  Ni5  1  0.00000000  0.75000000  0.25000000  1
  Cu  Cu6  1  0.49999100  0.25000100  0.24999900  1
  Cu  Cu7  1  0.50000000  0.75000100  0.75000200  1
  C  C8  1  0.99955600  0.12610700  0.36463000  1
  C  C9  1  0.99955800  0.62589700  0.86452100  1
  C  C10  1  0.00044500  0.37389300  0.13537000  1
  C  C11  1  0.00044500  0.87410300  0.63547900  1
  C  C12  1  0.50031100  0.88104300  0.13601500  1
  C  C13  1  0.50037100  0.38113800  0.63597200  1
  C  C14  1  0.49968800  0.61895700  0.36398500  1
  C  C15  1  0.49963100  0.11886200  0.86402800  1
