# generated using pymatgen
data_Cu13(Ni3C2)4
_symmetry_space_group_name_H-M   'P 1'
_cell_length_a   14.20910300
_cell_length_b   8.87079200
_cell_length_c   15.93311399
_cell_angle_alpha   78.69374111
_cell_angle_beta   90.00000000
_cell_angle_gamma   90.00000000
_symmetry_Int_Tables_number   1
_chemical_formula_structural   Cu13(Ni3C2)4
_chemical_formula_sum   'Cu52 Ni48 C32'
_cell_volume   1969.33056014
_cell_formula_units_Z   4
loop_
 _symmetry_equiv_pos_site_id
 _symmetry_equiv_pos_as_xyz
  1  'x, y, z'
loop_
 _atom_site_type_symbol
 _atom_site_label
 _atom_site_symmetry_multiplicity
 _atom_site_fract_x
 _atom_site_fract_y
 _atom_site_fract_z
 _atom_site_occupancy
  C  C0  1  0.58845300  0.32716600  0.29087600  1
  C  C1  1  0.08845300  0.67283400  0.20912400  1
  C  C2  1  0.41154700  0.67283400  0.70912400  1
  C  C3  1  0.91154700  0.32716600  0.79087600  1
  C  C4  1  0.73642400  0.19407200  0.04868300  1
  C  C5  1  0.23642400  0.80592800  0.45131700  1
  C  C6  1  0.26357600  0.80592800  0.95131700  1
  C  C7  1  0.76357600  0.19407200  0.54868300  1
  C  C8  1  0.53397700  0.81962200  0.14048200  1
  C  C9  1  0.03397700  0.18037800  0.35951800  1
  C  C10  1  0.46602300  0.18037800  0.85951800  1
  C  C11  1  0.96602300  0.81962200  0.64048200  1
  C  C12  1  0.83344400  0.75331800  0.94487400  1
  C  C13  1  0.33344400  0.24668200  0.55512600  1
  C  C14  1  0.16655600  0.24668200  0.05512600  1
  C  C15  1  0.66655600  0.75331800  0.44487400  1
  C  C16  1  0.66010900  0.65135000  0.94946500  1
  C  C17  1  0.16010900  0.34865000  0.55053500  1
  C  C18  1  0.33989100  0.34865000  0.05053500  1
  C  C19  1  0.83989100  0.65135000  0.44946500  1
  C  C20  1  0.71659900  0.86884700  0.80431300  1
  C  C21  1  0.21659900  0.13115300  0.69568700  1
  C  C22  1  0.28340100  0.13115300  0.19568700  1
  C  C23  1  0.78340100  0.86884700  0.30431300  1
  C  C24  1  0.68163600  0.41971300  0.68429800  1
  C  C25  1  0.18163600  0.58028700  0.81570200  1
  C  C26  1  0.31836400  0.58028700  0.31570200  1
  C  C27  1  0.81836400  0.41971300  0.18429800  1
  C  C28  1  0.63780800  0.26322300  0.67552600  1
  C  C29  1  0.13780800  0.73677700  0.82447400  1
  C  C30  1  0.36219200  0.73677700  0.32447400  1
  C  C31  1  0.86219200  0.26322300  0.17552600  1
  Ni  Ni32  1  0.91849600  0.72100200  0.86785700  1
  Ni  Ni33  1  0.41849600  0.27899800  0.63214300  1
  Ni  Ni34  1  0.08150400  0.27899800  0.13214300  1
  Ni  Ni35  1  0.58150400  0.72100200  0.36785700  1
  Ni  Ni36  1  0.86718600  0.94796700  0.94466000  1
  Ni  Ni37  1  0.36718600  0.05203300  0.55534000  1
  Ni  Ni38  1  0.13281400  0.05203300  0.05534000  1
  Ni  Ni39  1  0.63281400  0.94796700  0.44466000  1
  Ni  Ni40  1  0.89804800  0.67451600  0.03809300  1
  Ni  Ni41  1  0.39804800  0.32548400  0.46190700  1
  Ni  Ni42  1  0.10195200  0.32548400  0.96190700  1
  Ni  Ni43  1  0.60195200  0.67451600  0.53809300  1
  Ni  Ni44  1  0.72213400  0.80549300  0.00940600  1
  Ni  Ni45  1  0.22213400  0.19450700  0.49059400  1
  Ni  Ni46  1  0.27786600  0.19450700  0.99059400  1
  Ni  Ni47  1  0.77786600  0.80549300  0.50940600  1
  Ni  Ni48  1  0.78293500  0.54790500  0.93177300  1
  Ni  Ni49  1  0.28293500  0.45209500  0.56822700  1
  Ni  Ni50  1  0.21706500  0.45209500  0.06822700  1
  Ni  Ni51  1  0.71706500  0.54790500  0.43177300  1
  Ni  Ni52  1  0.63295900  0.52293500  0.04557800  1
  Ni  Ni53  1  0.13295900  0.47706500  0.45442200  1
  Ni  Ni54  1  0.36704100  0.47706500  0.95442200  1
  Ni  Ni55  1  0.86704100  0.52293500  0.54557800  1
  Ni  Ni56  1  0.61144000  0.53932900  0.87755800  1
  Ni  Ni57  1  0.11144000  0.46067100  0.62244200  1
  Ni  Ni58  1  0.38856000  0.46067100  0.12244200  1
  Ni  Ni59  1  0.88856000  0.53932900  0.37755800  1
  Ni  Ni60  1  0.55935200  0.77317600  0.94629500  1
  Ni  Ni61  1  0.05935200  0.22682400  0.55370500  1
  Ni  Ni62  1  0.44064800  0.22682400  0.05370500  1
  Ni  Ni63  1  0.94064800  0.77317600  0.44629500  1
  Ni  Ni64  1  0.75409500  0.69912600  0.76490400  1
  Ni  Ni65  1  0.25409500  0.30087400  0.73509600  1
  Ni  Ni66  1  0.24590500  0.30087400  0.23509600  1
  Ni  Ni67  1  0.74590500  0.69912600  0.26490400  1
  Ni  Ni68  1  0.80270600  0.98722600  0.74721200  1
  Ni  Ni69  1  0.30270600  0.01277400  0.75278800  1
  Ni  Ni70  1  0.19729400  0.01277400  0.25278800  1
  Ni  Ni71  1  0.69729400  0.98722600  0.24721200  1
  Ni  Ni72  1  0.68227500  0.01490700  0.86290700  1
  Ni  Ni73  1  0.18227500  0.98509300  0.63709300  1
  Ni  Ni74  1  0.31772500  0.98509300  0.13709300  1
  Ni  Ni75  1  0.81772500  0.01490700  0.36290700  1
  Ni  Ni76  1  0.61953900  0.90426700  0.73354700  1
  Ni  Ni77  1  0.11953900  0.09573300  0.76645300  1
  Ni  Ni78  1  0.38046100  0.09573300  0.26645300  1
  Ni  Ni79  1  0.88046100  0.90426700  0.23354700  1
  Cu  Cu80  1  0.97460600  0.69796300  0.81680200  1
  Cu  Cu81  1  0.47460600  0.30203700  0.68319800  1
  Cu  Cu82  1  0.02539400  0.30203700  0.18319800  1
  Cu  Cu83  1  0.52539400  0.69796300  0.31680200  1
  Cu  Cu84  1  0.88810500  0.07544200  0.94718800  1
  Cu  Cu85  1  0.38810500  0.92455800  0.55281200  1
  Cu  Cu86  1  0.11189500  0.92455800  0.05281200  1
  Cu  Cu87  1  0.61189500  0.07544200  0.44718800  1
  Cu  Cu88  1  0.94217500  0.62529500  0.10012900  1
  Cu  Cu89  1  0.44217500  0.37470500  0.39987100  1
  Cu  Cu90  1  0.05782500  0.37470500  0.89987100  1
  Cu  Cu91  1  0.55782500  0.62529500  0.60012900  1
  Cu  Cu92  1  0.70062900  0.88635700  0.05961900  1
  Cu  Cu93  1  0.20062900  0.11364300  0.44038100  1
  Cu  Cu94  1  0.29937100  0.11364300  0.94038100  1
  Cu  Cu95  1  0.79937100  0.88635700  0.55961900  1
  Cu  Cu96  1  0.81093000  0.42451800  0.92095800  1
  Cu  Cu97  1  0.31093000  0.57548200  0.57904200  1
  Cu  Cu98  1  0.18907000  0.57548200  0.07904200  1
  Cu  Cu99  1  0.68907000  0.42451800  0.42095800  1
  Cu  Cu100  1  0.61329400  0.43482100  0.10921400  1
  Cu  Cu101  1  0.11329400  0.56517900  0.39078600  1
  Cu  Cu102  1  0.38670600  0.56517900  0.89078600  1
  Cu  Cu103  1  0.88670600  0.43482100  0.60921400  1
  Cu  Cu104  1  0.57642500  0.46336200  0.83293900  1
  Cu  Cu105  1  0.07642500  0.53663800  0.66706100  1
  Cu  Cu106  1  0.42357500  0.53663800  0.16706100  1
  Cu  Cu107  1  0.92357500  0.46336200  0.33293900  1
  Cu  Cu108  1  0.49188100  0.85003600  0.95075900  1
  Cu  Cu109  1  0.99188100  0.14996400  0.54924100  1
  Cu  Cu110  1  0.50811900  0.14996400  0.04924100  1
  Cu  Cu111  1  0.00811900  0.85003600  0.45075900  1
  Cu  Cu112  1  0.78139700  0.59829300  0.73272100  1
  Cu  Cu113  1  0.28139700  0.40170700  0.76727900  1
  Cu  Cu114  1  0.21860300  0.40170700  0.26727900  1
  Cu  Cu115  1  0.71860300  0.59829300  0.23272100  1
  Cu  Cu116  1  0.86119200  0.06812900  0.70824200  1
  Cu  Cu117  1  0.36119200  0.93187100  0.79175800  1
  Cu  Cu118  1  0.13880800  0.93187100  0.29175800  1
  Cu  Cu119  1  0.63880800  0.06812900  0.20824200  1
  Cu  Cu120  1  0.65951400  0.11874500  0.89501300  1
  Cu  Cu121  1  0.15951400  0.88125500  0.60498700  1
  Cu  Cu122  1  0.34048600  0.88125500  0.10498700  1
  Cu  Cu123  1  0.84048600  0.11874500  0.39501300  1
  Cu  Cu124  1  0.55693400  0.93305500  0.68423600  1
  Cu  Cu125  1  0.05693400  0.06694500  0.81576400  1
  Cu  Cu126  1  0.44306600  0.06694500  0.31576400  1
  Cu  Cu127  1  0.94306600  0.93305500  0.18423600  1
  Cu  Cu128  1  0.69727700  0.31859000  0.67277600  1
  Cu  Cu129  1  0.19727700  0.68141000  0.82722400  1
  Cu  Cu130  1  0.30272300  0.68141000  0.32722400  1
  Cu  Cu131  1  0.80272300  0.31859000  0.17277600  1
