# generated using pymatgen
data_Cu2Ni3C14
_symmetry_space_group_name_H-M   'P 1'
_cell_length_a   10.59062100
_cell_length_b   10.59062100
_cell_length_c   10.59062100
_cell_angle_alpha   90.00000000
_cell_angle_beta   90.00000000
_cell_angle_gamma   90.00000000
_symmetry_Int_Tables_number   1
_chemical_formula_structural   Cu2Ni3C14
_chemical_formula_sum   'Cu8 Ni12 C56'
_cell_volume   1187.85732316
_cell_formula_units_Z   4
loop_
 _symmetry_equiv_pos_site_id
 _symmetry_equiv_pos_as_xyz
  1  'x, y, z'
loop_
 _atom_site_type_symbol
 _atom_site_label
 _atom_site_symmetry_multiplicity
 _atom_site_fract_x
 _atom_site_fract_y
 _atom_site_fract_z
 _atom_site_occupancy
  C  C0  1  0.91889400  0.41889400  0.08110600  1
  C  C1  1  0.41889400  0.08110600  0.91889400  1
  C  C2  1  0.08110600  0.91889400  0.41889400  1
  C  C3  1  0.58110600  0.58110600  0.58110600  1
  C  C4  1  0.66118700  0.16118700  0.33881300  1
  C  C5  1  0.16118700  0.33881300  0.66118700  1
  C  C6  1  0.33881300  0.66118700  0.16118700  1
  C  C7  1  0.83881300  0.83881300  0.83881300  1
  Ni  Ni8  1  0.23945800  0.37515300  0.97531100  1
  Ni  Ni9  1  0.02468900  0.73945800  0.12484700  1
  Ni  Ni10  1  0.87515300  0.52468900  0.76054200  1
  Ni  Ni11  1  0.73945800  0.12484700  0.02468900  1
  Ni  Ni12  1  0.52468900  0.76054200  0.87515300  1
  Ni  Ni13  1  0.37515300  0.97531100  0.23945800  1
  Ni  Ni14  1  0.76054200  0.87515300  0.52468900  1
  Ni  Ni15  1  0.97531100  0.23945800  0.37515300  1
  Ni  Ni16  1  0.12484700  0.02468900  0.73945800  1
  Ni  Ni17  1  0.26054200  0.62484700  0.47531100  1
  Ni  Ni18  1  0.47531100  0.26054200  0.62484700  1
  Ni  Ni19  1  0.62484700  0.47531100  0.26054200  1
  Cu  Cu20  1  0.43491900  0.93491900  0.56508100  1
  Cu  Cu21  1  0.93491900  0.56508100  0.43491900  1
  Cu  Cu22  1  0.56508100  0.43491900  0.93491900  1
  Cu  Cu23  1  0.06508100  0.06508100  0.06508100  1
  Cu  Cu24  1  0.19891100  0.69891100  0.80108900  1
  Cu  Cu25  1  0.69891100  0.80108900  0.19891100  1
  Cu  Cu26  1  0.80108900  0.19891100  0.69891100  1
  Cu  Cu27  1  0.30108900  0.30108900  0.30108900  1
  C  C28  1  0.10513500  0.34289800  0.00023200  1
  C  C29  1  0.99976800  0.60513500  0.15710200  1
  C  C30  1  0.84289800  0.49976800  0.89486500  1
  C  C31  1  0.60513500  0.15710200  0.99976800  1
  C  C32  1  0.49976800  0.89486500  0.84289800  1
  C  C33  1  0.34289800  0.00023200  0.10513500  1
  C  C34  1  0.89486500  0.84289800  0.49976800  1
  C  C35  1  0.00023200  0.10513500  0.34289800  1
  C  C36  1  0.15710200  0.99976800  0.60513500  1
  C  C37  1  0.39486500  0.65710200  0.50023200  1
  C  C38  1  0.50023200  0.39486500  0.65710200  1
  C  C39  1  0.65710200  0.50023200  0.39486500  1
  C  C40  1  0.31588500  0.25954500  0.99458900  1
  C  C41  1  0.00541100  0.81588500  0.24045500  1
  C  C42  1  0.75954500  0.50541100  0.68411500  1
  C  C43  1  0.81588500  0.24045500  0.00541100  1
  C  C44  1  0.50541100  0.68411500  0.75954500  1
  C  C45  1  0.25954500  0.99458900  0.31588500  1
  C  C46  1  0.68411500  0.75954500  0.50541100  1
  C  C47  1  0.99458900  0.31588500  0.25954500  1
  C  C48  1  0.24045500  0.00541100  0.81588500  1
  C  C49  1  0.18411500  0.74045500  0.49458900  1
  C  C50  1  0.49458900  0.18411500  0.74045500  1
  C  C51  1  0.74045500  0.49458900  0.18411500  1
  C  C52  1  0.25274400  0.41852100  0.84160600  1
  C  C53  1  0.15839400  0.75274400  0.08147900  1
  C  C54  1  0.91852100  0.65839400  0.74725600  1
  C  C55  1  0.75274400  0.08147900  0.15839400  1
  C  C56  1  0.65839400  0.74725600  0.91852100  1
  C  C57  1  0.41852100  0.84160600  0.25274400  1
  C  C58  1  0.74725600  0.91852100  0.65839400  1
  C  C59  1  0.84160600  0.25274400  0.41852100  1
  C  C60  1  0.08147900  0.15839400  0.75274400  1
  C  C61  1  0.24725600  0.58147900  0.34160600  1
  C  C62  1  0.34160600  0.24725600  0.58147900  1
  C  C63  1  0.58147900  0.34160600  0.24725600  1
  C  C64  1  0.28431000  0.47424900  0.06180600  1
  C  C65  1  0.93819400  0.78431000  0.02575100  1
  C  C66  1  0.97424900  0.43819400  0.71569000  1
  C  C67  1  0.78431000  0.02575100  0.93819400  1
  C  C68  1  0.43819400  0.71569000  0.97424900  1
  C  C69  1  0.47424900  0.06180600  0.28431000  1
  C  C70  1  0.71569000  0.97424900  0.43819400  1
  C  C71  1  0.06180600  0.28431000  0.47424900  1
  C  C72  1  0.02575100  0.93819400  0.78431000  1
  C  C73  1  0.21569000  0.52575100  0.56180600  1
  C  C74  1  0.56180600  0.21569000  0.52575100  1
  C  C75  1  0.52575100  0.56180600  0.21569000  1
