# generated using pymatgen
data_CuNiC3
_symmetry_space_group_name_H-M   'P 1'
_cell_length_a   7.24335200
_cell_length_b   7.05629300
_cell_length_c   11.98664859
_cell_angle_alpha   89.01435574
_cell_angle_beta   90.00000000
_cell_angle_gamma   90.00000000
_symmetry_Int_Tables_number   1
_chemical_formula_structural   CuNiC3
_chemical_formula_sum   'Cu12 Ni12 C36'
_cell_volume   612.56151106
_cell_formula_units_Z   12
loop_
 _symmetry_equiv_pos_site_id
 _symmetry_equiv_pos_as_xyz
  1  'x, y, z'
loop_
 _atom_site_type_symbol
 _atom_site_label
 _atom_site_symmetry_multiplicity
 _atom_site_fract_x
 _atom_site_fract_y
 _atom_site_fract_z
 _atom_site_occupancy
  C  C0  1  0.37074500  0.00000000  0.75000000  1
  C  C1  1  0.62925500  0.00000000  0.25000000  1
  C  C2  1  0.77405200  0.68044800  0.55368100  1
  C  C3  1  0.22594800  0.68044800  0.05368100  1
  C  C4  1  0.77405200  0.31955200  0.94631900  1
  C  C5  1  0.22594800  0.31955200  0.44631900  1
  Ni  Ni6  1  0.86062000  0.00000000  0.75000000  1
  Ni  Ni7  1  0.13938000  0.00000000  0.25000000  1
  Ni  Ni8  1  0.76325700  0.82621000  0.93367800  1
  Ni  Ni9  1  0.23674300  0.82621000  0.43367800  1
  Ni  Ni10  1  0.00126700  0.66367100  0.80172000  1
  Ni  Ni11  1  0.99873300  0.66367100  0.30172000  1
  Ni  Ni12  1  0.30898200  0.50000000  0.75000000  1
  Ni  Ni13  1  0.69101800  0.50000000  0.25000000  1
  Ni  Ni14  1  0.00126700  0.33632900  0.69828000  1
  Ni  Ni15  1  0.99873300  0.33632900  0.19828000  1
  Ni  Ni16  1  0.76325700  0.17379000  0.56632200  1
  Ni  Ni17  1  0.23674300  0.17379000  0.06632200  1
  Cu  Cu18  1  0.11450600  0.88291000  0.59020100  1
  Cu  Cu19  1  0.88549400  0.88291000  0.09020100  1
  Cu  Cu20  1  0.55252600  0.64404100  0.88134000  1
  Cu  Cu21  1  0.44747400  0.64404100  0.38134000  1
  Cu  Cu22  1  0.38324200  0.64438000  0.60479200  1
  Cu  Cu23  1  0.61675800  0.64438000  0.10479200  1
  Cu  Cu24  1  0.38324200  0.35562000  0.89520800  1
  Cu  Cu25  1  0.61675800  0.35562000  0.39520800  1
  Cu  Cu26  1  0.55252600  0.35595900  0.61866000  1
  Cu  Cu27  1  0.44747400  0.35595900  0.11866000  1
  Cu  Cu28  1  0.11450600  0.11709000  0.90979900  1
  Cu  Cu29  1  0.88549400  0.11709000  0.40979900  1
  C  C30  1  0.73384700  0.96584100  0.84547500  1
  C  C31  1  0.26615300  0.96584100  0.34547500  1
  C  C32  1  0.21658900  0.92818500  0.54240700  1
  C  C33  1  0.78341100  0.92818500  0.04240700  1
  C  C34  1  0.98133800  0.83411100  0.72721600  1
  C  C35  1  0.01866200  0.83411100  0.22721600  1
  C  C36  1  0.58383300  0.71248600  0.94930300  1
  C  C37  1  0.91851500  0.69851900  0.91451100  1
  C  C38  1  0.41616700  0.71248600  0.44930300  1
  C  C39  1  0.08148500  0.69851900  0.41451100  1
  C  C40  1  0.20030300  0.62294800  0.82168600  1
  C  C41  1  0.44099200  0.61521400  0.67721000  1
  C  C42  1  0.79969700  0.62294800  0.32168600  1
  C  C43  1  0.55900800  0.61521400  0.17721000  1
  C  C44  1  0.90790200  0.50000000  0.75000000  1
  C  C45  1  0.09209800  0.50000000  0.25000000  1
  C  C46  1  0.44099200  0.38478600  0.82279000  1
  C  C47  1  0.20030300  0.37705200  0.67831400  1
  C  C48  1  0.55900800  0.38478600  0.32279000  1
  C  C49  1  0.79969700  0.37705200  0.17831400  1
  C  C50  1  0.91851500  0.30148100  0.58548900  1
  C  C51  1  0.58383300  0.28751400  0.55069700  1
  C  C52  1  0.08148500  0.30148100  0.08548900  1
  C  C53  1  0.41616700  0.28751400  0.05069700  1
  C  C54  1  0.98133800  0.16588900  0.77278400  1
  C  C55  1  0.01866200  0.16588900  0.27278400  1
  C  C56  1  0.21658900  0.07181500  0.95759300  1
  C  C57  1  0.78341100  0.07181500  0.45759300  1
  C  C58  1  0.73384700  0.03415900  0.65452500  1
  C  C59  1  0.26615300  0.03415900  0.15452500  1
