# generated using pymatgen
data_Cu7(NiC6)2
_symmetry_space_group_name_H-M   'P 1'
_cell_length_a   5.80801800
_cell_length_b   5.82153379
_cell_length_c   14.15972181
_cell_angle_alpha   90.04472336
_cell_angle_beta   90.15719846
_cell_angle_gamma   119.91665400
_symmetry_Int_Tables_number   1
_chemical_formula_structural   Cu7(NiC6)2
_chemical_formula_sum   'Cu14 Ni4 C24'
_cell_volume   414.96540289
_cell_formula_units_Z   2
loop_
 _symmetry_equiv_pos_site_id
 _symmetry_equiv_pos_as_xyz
  1  'x, y, z'
loop_
 _atom_site_type_symbol
 _atom_site_label
 _atom_site_symmetry_multiplicity
 _atom_site_fract_x
 _atom_site_fract_y
 _atom_site_fract_z
 _atom_site_occupancy
  Ni  Ni0  1  0.33348700  0.66123900  0.04197900  1
  Ni  Ni1  1  0.16593800  0.83487900  0.20973400  1
  Ni  Ni2  1  0.83283700  0.66469200  0.54116300  1
  Ni  Ni3  1  0.49895400  0.00069400  0.87438200  1
  Cu  Cu4  1  0.67170700  0.33259400  0.08571100  1
  Cu  Cu5  1  0.16505200  0.32951800  0.20995100  1
  Cu  Cu6  1  0.66191200  0.33449400  0.33313300  1
  Cu  Cu7  1  0.99439600  0.99484200  0.99791800  1
  Cu  Cu8  1  0.33596600  0.16662700  0.54220800  1
  Cu  Cu9  1  0.83124500  0.16759900  0.54232700  1
  Cu  Cu10  1  0.66986400  0.83398900  0.20919100  1
  Cu  Cu11  1  0.33846700  0.67289800  0.41653500  1
  Cu  Cu12  1  0.66717300  0.33438600  0.70685000  1
  Cu  Cu13  1  0.99945700  0.00552300  0.37430200  1
  Cu  Cu14  1  0.32881100  0.65707900  0.66688900  1
  Cu  Cu15  1  0.50077300  0.50040800  0.87342800  1
  Cu  Cu16  1  0.99950400  0.50061600  0.87479500  1
  Cu  Cu17  1  0.00424700  0.01045200  0.74936200  1
  C  C18  1  0.85073900  0.14971700  0.28743600  1
  C  C19  1  0.29451700  0.16138500  0.29220000  1
  C  C20  1  0.49137300  0.50581500  0.13621500  1
  C  C21  1  0.01727000  0.49506800  0.13135800  1
  C  C22  1  0.15293700  0.30737100  0.46346600  1
  C  C23  1  0.50383500  0.98425400  0.12995000  1
  C  C24  1  0.34244600  0.65886800  0.28295600  1
  C  C25  1  0.99029300  0.00602500  0.13353100  1
  C  C26  1  0.51696900  0.03302000  0.62028100  1
  C  C27  1  0.83892600  0.70388000  0.29294400  1
  C  C28  1  0.65813400  0.31417400  0.47046500  1
  C  C29  1  0.50588100  0.46966700  0.62263300  1
  C  C30  1  0.96467400  0.47017100  0.62306900  1
  C  C31  1  0.36341900  0.19426100  0.79052500  1
  C  C32  1  0.83179100  0.19546600  0.79072700  1
  C  C33  1  0.16601100  0.85903900  0.45733700  1
  C  C34  1  0.69536900  0.86173800  0.45889000  1
  C  C35  1  0.81935900  0.63870000  0.79400800  1
  C  C36  1  0.67549400  0.34841900  0.94976800  1
  C  C37  1  0.00933400  0.01722200  0.61571000  1
  C  C38  1  0.17499900  0.34798900  0.94734900  1
  C  C39  1  0.32499900  0.65136300  0.80347600  1
  C  C40  1  0.16164200  0.81332000  0.95370500  1
  C  C41  1  0.64980500  0.81054200  0.95214500  1
