# generated using pymatgen
data_Cu7NiC4
_symmetry_space_group_name_H-M   'P 1'
_cell_length_a   6.70497200
_cell_length_b   5.35106900
_cell_length_c   9.19678025
_cell_angle_alpha   88.74439606
_cell_angle_beta   90.00000000
_cell_angle_gamma   90.00000000
_symmetry_Int_Tables_number   1
_chemical_formula_structural   Cu7NiC4
_chemical_formula_sum   'Cu14 Ni2 C8'
_cell_volume   329.88991395
_cell_formula_units_Z   2
loop_
 _symmetry_equiv_pos_site_id
 _symmetry_equiv_pos_as_xyz
  1  'x, y, z'
loop_
 _atom_site_type_symbol
 _atom_site_label
 _atom_site_symmetry_multiplicity
 _atom_site_fract_x
 _atom_site_fract_y
 _atom_site_fract_z
 _atom_site_occupancy
  C  C0  1  0.99269200  0.75925200  0.77583300  1
  C  C1  1  0.50730800  0.75925200  0.77583300  1
  C  C2  1  0.49269200  0.24074800  0.22416700  1
  C  C3  1  0.00730800  0.24074800  0.22416700  1
  C  C4  1  0.75000000  0.28577000  0.57420800  1
  C  C5  1  0.25000000  0.71423000  0.42579200  1
  C  C6  1  0.25000000  0.20857400  0.63930900  1
  C  C7  1  0.75000000  0.79142600  0.36069100  1
  Ni  Ni8  1  0.25000000  0.27365200  0.92175300  1
  Ni  Ni9  1  0.75000000  0.72634800  0.07824700  1
  Cu  Cu10  1  0.75000000  0.68589400  0.94457600  1
  Cu  Cu11  1  0.25000000  0.05046800  0.86475500  1
  Cu  Cu12  1  0.25000000  0.46039400  0.82189600  1
  Cu  Cu13  1  0.94631800  0.19654500  0.66717500  1
  Cu  Cu14  1  0.55368200  0.19654500  0.66717500  1
  Cu  Cu15  1  0.25000000  0.83674300  0.58891100  1
  Cu  Cu16  1  0.75000000  0.59617000  0.55371600  1
  Cu  Cu17  1  0.25000000  0.40383000  0.44628400  1
  Cu  Cu18  1  0.75000000  0.16325700  0.41108900  1
  Cu  Cu19  1  0.44631800  0.80345500  0.33282500  1
  Cu  Cu20  1  0.05368200  0.80345500  0.33282500  1
  Cu  Cu21  1  0.75000000  0.53960600  0.17810400  1
  Cu  Cu22  1  0.75000000  0.94953200  0.13524500  1
  Cu  Cu23  1  0.25000000  0.31410600  0.05542400  1
