# generated using pymatgen
data_Cu19Ni5C12
_symmetry_space_group_name_H-M   'P 1'
_cell_length_a   4.80994800
_cell_length_b   5.81230472
_cell_length_c   16.10923852
_cell_angle_alpha   90.40941509
_cell_angle_beta   89.99396072
_cell_angle_gamma   92.27090455
_symmetry_Int_Tables_number   1
_chemical_formula_structural   Cu19Ni5C12
_chemical_formula_sum   'Cu19 Ni5 C12'
_cell_volume   449.99891270
_cell_formula_units_Z   1
loop_
 _symmetry_equiv_pos_site_id
 _symmetry_equiv_pos_as_xyz
  1  'x, y, z'
loop_
 _atom_site_type_symbol
 _atom_site_label
 _atom_site_symmetry_multiplicity
 _atom_site_fract_x
 _atom_site_fract_y
 _atom_site_fract_z
 _atom_site_occupancy
  C  C0  1  0.01486800  0.85414400  0.58141700  1
  C  C1  1  0.99122200  0.14921500  0.75119500  1
  C  C2  1  0.01054800  0.82743000  0.90564900  1
  C  C3  1  0.99449200  0.84569800  0.25173000  1
  C  C4  1  0.01381500  0.16881500  0.42453900  1
  C  C5  1  0.01560000  0.15841900  0.09036300  1
  C  C6  1  0.52101300  0.66395300  0.40570100  1
  C  C7  1  0.48541900  0.67222200  0.08314500  1
  C  C8  1  0.50452700  0.67218700  0.76064300  1
  C  C9  1  0.50519400  0.35134200  0.91587800  1
  C  C10  1  0.48217700  0.33796800  0.58228800  1
  C  C11  1  0.49864300  0.33962400  0.24757100  1
  Ni  Ni12  1  0.22151700  0.10157200  0.53435500  1
  Ni  Ni13  1  0.22438500  0.10549600  0.20203500  1
  Ni  Ni14  1  0.29037600  0.62327700  0.86186800  1
  Ni  Ni15  1  0.72238900  0.61124700  0.29528400  1
  Ni  Ni16  1  0.78929600  0.87531300  0.80620700  1
  Cu  Cu17  1  0.23820100  0.88806600  0.69011900  1
  Cu  Cu18  1  0.20988400  0.87682700  0.36124400  1
  Cu  Cu19  1  0.22058700  0.88733800  0.01824700  1
  Cu  Cu20  1  0.24396200  0.11950400  0.85629600  1
  Cu  Cu21  1  0.27301100  0.40358000  0.69847400  1
  Cu  Cu22  1  0.26269000  0.60876700  0.52158700  1
  Cu  Cu23  1  0.27649900  0.38177800  0.35487100  1
  Cu  Cu24  1  0.24242100  0.60576800  0.19103400  1
  Cu  Cu25  1  0.26715300  0.38803200  0.02569800  1
  Cu  Cu26  1  0.74733300  0.61005800  0.97852800  1
  Cu  Cu27  1  0.73829900  0.38472200  0.80570700  1
  Cu  Cu28  1  0.73136700  0.62542500  0.64039900  1
  Cu  Cu29  1  0.71885100  0.39220200  0.47341000  1
  Cu  Cu30  1  0.70461300  0.37593200  0.13805300  1
  Cu  Cu31  1  0.76694600  0.88152100  0.47851000  1
  Cu  Cu32  1  0.76325200  0.11454000  0.63994800  1
  Cu  Cu33  1  0.77938500  0.10554800  0.97162100  1
  Cu  Cu34  1  0.77357500  0.88466000  0.14331700  1
  Cu  Cu35  1  0.75648600  0.10780400  0.31306800  1
