# generated using pymatgen
data_Cu12Ni4C43
_symmetry_space_group_name_H-M   'P 1'
_cell_length_a   8.38385223
_cell_length_b   8.38385223
_cell_length_c   8.74587261
_cell_angle_alpha   89.95861839
_cell_angle_beta   89.95861839
_cell_angle_gamma   90.53356795
_symmetry_Int_Tables_number   1
_chemical_formula_structural   Cu12Ni4C43
_chemical_formula_sum   'Cu12 Ni4 C43'
_cell_volume   614.71146962
_cell_formula_units_Z   1
loop_
 _symmetry_equiv_pos_site_id
 _symmetry_equiv_pos_as_xyz
  1  'x, y, z'
loop_
 _atom_site_type_symbol
 _atom_site_label
 _atom_site_symmetry_multiplicity
 _atom_site_fract_x
 _atom_site_fract_y
 _atom_site_fract_z
 _atom_site_occupancy
  C  C0  1  0.99698500  0.74990000  0.62505700  1
  C  C1  1  0.37680900  0.62319100  0.00000000  1
  C  C2  1  0.62703700  0.62798300  0.25102700  1
  C  C3  1  0.37201700  0.37296300  0.74897300  1
  C  C4  1  0.62574000  0.37426000  0.50000000  1
  C  C5  1  0.12711400  0.37715500  0.00204300  1
  C  C6  1  0.88166200  0.37847800  0.25177500  1
  C  C7  1  0.62152200  0.11833800  0.74822500  1
  C  C8  1  0.87705400  0.12294600  0.00000000  1
  C  C9  1  0.25010000  0.00301500  0.37494300  1
  C  C10  1  0.62284500  0.87288600  0.99795700  1
  Ni  Ni11  1  0.37185600  0.62814400  0.50000000  1
  Ni  Ni12  1  0.87354200  0.36716500  0.74919100  1
  Ni  Ni13  1  0.63283500  0.12645800  0.25080900  1
  Ni  Ni14  1  0.13089200  0.86910800  0.00000000  1
  Cu  Cu15  1  0.62909500  0.62813000  0.74525500  1
  Cu  Cu16  1  0.87344000  0.62610600  0.99632300  1
  Cu  Cu17  1  0.12431600  0.62612700  0.25186800  1
  Cu  Cu18  1  0.62230100  0.37769900  0.00000000  1
  Cu  Cu19  1  0.37187000  0.37090500  0.25474500  1
  Cu  Cu20  1  0.12639000  0.37576800  0.50540800  1
  Cu  Cu21  1  0.37389400  0.12656000  0.00367700  1
  Cu  Cu22  1  0.12484200  0.12100700  0.75344700  1
  Cu  Cu23  1  0.88071400  0.11928600  0.50000000  1
  Cu  Cu24  1  0.37387300  0.87568400  0.74813200  1
  Cu  Cu25  1  0.62423200  0.87361000  0.49459200  1
  Cu  Cu26  1  0.87899300  0.87515800  0.24655300  1
  C  C27  1  0.39634700  0.62329500  0.73071000  1
  C  C28  1  0.60819400  0.64401300  0.49205500  1
  C  C29  1  0.87704600  0.61836100  0.21358200  1
  C  C30  1  0.12072500  0.63988200  0.00957900  1
  C  C31  1  0.86172200  0.61655900  0.77213600  1
  C  C32  1  0.63062400  0.60912800  0.00128600  1
  C  C33  1  0.37670500  0.60365300  0.26929000  1
  C  C34  1  0.13792400  0.61268400  0.48950200  1
  C  C35  1  0.64108200  0.39058200  0.73750400  1
  C  C36  1  0.85913400  0.38328500  0.98383200  1
  C  C37  1  0.13611500  0.39866000  0.24640100  1
  C  C38  1  0.35598700  0.39180600  0.50794500  1
  C  C39  1  0.60941800  0.35891800  0.26249600  1
  C  C40  1  0.39087200  0.36937600  0.99871400  1
  C  C41  1  0.10855900  0.35216300  0.76045400  1
  C  C42  1  0.88992000  0.35730900  0.51646100  1
  C  C43  1  0.61671500  0.14086600  0.01616800  1
  C  C44  1  0.38344100  0.13827800  0.22786400  1
  C  C45  1  0.11140500  0.13626500  0.52297300  1
  C  C46  1  0.86172000  0.14760600  0.75866800  1
  C  C47  1  0.13274900  0.10904400  0.98629900  1
  C  C48  1  0.38163900  0.12295400  0.78641800  1
  C  C49  1  0.64269100  0.11008000  0.48353900  1
  C  C50  1  0.85239400  0.13828000  0.24133200  1
  C  C51  1  0.36011800  0.87927500  0.99042100  1
  C  C52  1  0.13959500  0.88904700  0.76614700  1
  C  C53  1  0.86373500  0.88859500  0.47702700  1
  C  C54  1  0.64783700  0.89144100  0.23954600  1
  C  C55  1  0.38731600  0.86207600  0.51049800  1
  C  C56  1  0.60134000  0.86388500  0.75359900  1
  C  C57  1  0.89095600  0.86725100  0.01370100  1
  C  C58  1  0.11095300  0.86040500  0.23385300  1
