# generated using pymatgen
data_Cu5NiC3
_symmetry_space_group_name_H-M   'P 1'
_cell_length_a   3.12716300
_cell_length_b   6.67698200
_cell_length_c   10.54007016
_cell_angle_alpha   71.58686889
_cell_angle_beta   90.00000000
_cell_angle_gamma   90.00000000
_symmetry_Int_Tables_number   1
_chemical_formula_structural   Cu5NiC3
_chemical_formula_sum   'Cu10 Ni2 C6'
_cell_volume   208.80965279
_cell_formula_units_Z   2
loop_
 _symmetry_equiv_pos_site_id
 _symmetry_equiv_pos_as_xyz
  1  'x, y, z'
loop_
 _atom_site_type_symbol
 _atom_site_label
 _atom_site_symmetry_multiplicity
 _atom_site_fract_x
 _atom_site_fract_y
 _atom_site_fract_z
 _atom_site_occupancy
  C  C0  1  0.00000000  0.02367000  0.99298600  1
  C  C1  1  0.50000000  0.47754300  0.00609500  1
  C  C2  1  0.00000000  0.32600500  0.34959500  1
  C  C3  1  0.50000000  0.17277100  0.65313900  1
  C  C4  1  0.50000000  0.83407300  0.33166800  1
  C  C5  1  0.00000000  0.66603500  0.66862500  1
  Ni  Ni6  1  0.00000000  0.29519700  0.00309200  1
  Ni  Ni7  1  0.50000000  0.26681000  0.46674400  1
  Cu  Cu8  1  0.00000000  0.70444000  0.00069100  1
  Cu  Cu9  1  0.00000000  0.03193500  0.32741800  1
  Cu  Cu10  1  0.50000000  0.39490900  0.21617900  1
  Cu  Cu11  1  0.50000000  0.93307900  0.12414300  1
  Cu  Cu12  1  0.00000000  0.64019700  0.33054800  1
  Cu  Cu13  1  0.00000000  0.36219500  0.66765500  1
  Cu  Cu14  1  0.50000000  0.06595300  0.85963100  1
  Cu  Cu15  1  0.50000000  0.73189000  0.53608500  1
  Cu  Cu16  1  0.50000000  0.60175100  0.80093700  1
  Cu  Cu17  1  0.00000000  0.97155000  0.66476800  1
