# generated using pymatgen
data_CuNiC11
_symmetry_space_group_name_H-M   'P 1'
_cell_length_a   6.30126100
_cell_length_b   8.60677100
_cell_length_c   9.68807898
_cell_angle_alpha   84.09652312
_cell_angle_beta   90.00000000
_cell_angle_gamma   90.00000000
_symmetry_Int_Tables_number   1
_chemical_formula_structural   CuNiC11
_chemical_formula_sum   'Cu4 Ni4 C44'
_cell_volume   522.63201581
_cell_formula_units_Z   4
loop_
 _symmetry_equiv_pos_site_id
 _symmetry_equiv_pos_as_xyz
  1  'x, y, z'
loop_
 _atom_site_type_symbol
 _atom_site_label
 _atom_site_symmetry_multiplicity
 _atom_site_fract_x
 _atom_site_fract_y
 _atom_site_fract_z
 _atom_site_occupancy
  C  C0  1  0.75792500  0.89152300  0.36108300  1
  C  C1  1  0.74207500  0.89152300  0.86108300  1
  C  C2  1  0.49830900  0.72128200  0.62836100  1
  C  C3  1  0.00169100  0.72128200  0.12836100  1
  C  C4  1  0.25234500  0.64417800  0.36288500  1
  C  C5  1  0.24765500  0.64417800  0.86288500  1
  C  C6  1  0.74765500  0.35582200  0.63711500  1
  C  C7  1  0.75234500  0.35582200  0.13711500  1
  C  C8  1  0.50169100  0.27871800  0.37163900  1
  C  C9  1  0.99830900  0.27871800  0.87163900  1
  C  C10  1  0.24207500  0.10847700  0.63891700  1
  C  C11  1  0.25792500  0.10847700  0.13891700  1
  C  C12  1  0.99639000  0.73022000  0.62228600  1
  C  C13  1  0.50361000  0.73022000  0.12228600  1
  C  C14  1  0.00361000  0.26978000  0.37771400  1
  C  C15  1  0.49639000  0.26978000  0.87771400  1
  Ni  Ni16  1  0.76091900  0.59291500  0.38849500  1
  Ni  Ni17  1  0.73908100  0.59291500  0.88849500  1
  Ni  Ni18  1  0.23908100  0.40708500  0.61150500  1
  Ni  Ni19  1  0.26091900  0.40708500  0.11150500  1
  Cu  Cu20  1  0.24088100  0.95912000  0.40088700  1
  Cu  Cu21  1  0.25911900  0.95912000  0.90088700  1
  Cu  Cu22  1  0.75911900  0.04088000  0.59911300  1
  Cu  Cu23  1  0.74088100  0.04088000  0.09911300  1
  C  C24  1  0.25930400  0.93533600  0.27429100  1
  C  C25  1  0.77367700  0.89695000  0.56329900  1
  C  C26  1  0.24069600  0.93533600  0.77429100  1
  C  C27  1  0.24207600  0.84451500  0.49912900  1
  C  C28  1  0.72632300  0.89695000  0.06329900  1
  C  C29  1  0.25792400  0.84451500  0.99912900  1
  C  C30  1  0.94910500  0.69236700  0.32991500  1
  C  C31  1  0.56030300  0.68372200  0.33162100  1
  C  C32  1  0.93969700  0.68372200  0.83162100  1
  C  C33  1  0.55089500  0.69236700  0.82991500  1
  C  C34  1  0.24061600  0.57610400  0.65191100  1
  C  C35  1  0.76223600  0.58622000  0.55051900  1
  C  C36  1  0.25938400  0.57610400  0.15191100  1
  C  C37  1  0.73776400  0.58622000  0.05051900  1
  C  C38  1  0.23776400  0.41378000  0.44948100  1
  C  C39  1  0.75938400  0.42389600  0.34808900  1
  C  C40  1  0.26223600  0.41378000  0.94948100  1
  C  C41  1  0.74061600  0.42389600  0.84808900  1
  C  C42  1  0.05089500  0.30763300  0.67008500  1
  C  C43  1  0.43969700  0.31627800  0.66837900  1
  C  C44  1  0.44910500  0.30763300  0.17008500  1
  C  C45  1  0.06030300  0.31627800  0.16837900  1
  C  C46  1  0.75792400  0.15548500  0.50087100  1
  C  C47  1  0.22632300  0.10305000  0.43670100  1
  C  C48  1  0.74207600  0.15548500  0.00087100  1
  C  C49  1  0.74069600  0.06466400  0.72570900  1
  C  C50  1  0.27367700  0.10305000  0.93670100  1
  C  C51  1  0.75930400  0.06466400  0.22570900  1
