# generated using pymatgen
data_CuNi7
_symmetry_space_group_name_H-M   'P 1'
_cell_length_a   8.13411600
_cell_length_b   8.65530800
_cell_length_c   13.83084100
_cell_angle_alpha   90.00000000
_cell_angle_beta   90.00000000
_cell_angle_gamma   90.00000000
_symmetry_Int_Tables_number   1
_chemical_formula_structural   CuNi7
_chemical_formula_sum   'Cu4 Ni28'
_cell_volume   973.73656171
_cell_formula_units_Z   4
loop_
 _symmetry_equiv_pos_site_id
 _symmetry_equiv_pos_as_xyz
  1  'x, y, z'
loop_
 _atom_site_type_symbol
 _atom_site_label
 _atom_site_symmetry_multiplicity
 _atom_site_fract_x
 _atom_site_fract_y
 _atom_site_fract_z
 _atom_site_occupancy
  Ni  Ni0  1  0.24531500  0.68015600  0.14076800  1
  Ni  Ni1  1  0.25468500  0.18015600  0.35923200  1
  Ni  Ni2  1  0.75468500  0.31984400  0.64076800  1
  Ni  Ni3  1  0.74531500  0.81984400  0.85923200  1
  Ni  Ni4  1  0.75468500  0.31984400  0.85923200  1
  Ni  Ni5  1  0.74531500  0.81984400  0.64076800  1
  Ni  Ni6  1  0.24531500  0.68015600  0.35923200  1
  Ni  Ni7  1  0.25468500  0.18015600  0.14076800  1
  Ni  Ni8  1  0.00698800  0.72441500  0.09045100  1
  Ni  Ni9  1  0.49301200  0.22441500  0.40954900  1
  Ni  Ni10  1  0.99301200  0.27558500  0.59045100  1
  Ni  Ni11  1  0.50698800  0.77558500  0.90954900  1
  Ni  Ni12  1  0.99301200  0.27558500  0.90954900  1
  Ni  Ni13  1  0.50698800  0.77558500  0.59045100  1
  Ni  Ni14  1  0.00698800  0.72441500  0.40954900  1
  Ni  Ni15  1  0.49301200  0.22441500  0.09045100  1
  Ni  Ni16  1  0.84765000  0.54939000  0.13031300  1
  Ni  Ni17  1  0.65235000  0.04939000  0.36968700  1
  Ni  Ni18  1  0.15235000  0.45061000  0.63031300  1
  Ni  Ni19  1  0.34765000  0.95061000  0.86968700  1
  Ni  Ni20  1  0.15235000  0.45061000  0.86968700  1
  Ni  Ni21  1  0.34765000  0.95061000  0.63031300  1
  Ni  Ni22  1  0.84765000  0.54939000  0.36968700  1
  Ni  Ni23  1  0.65235000  0.04939000  0.13031300  1
  Ni  Ni24  1  0.72264400  0.62581200  0.25000000  1
  Ni  Ni25  1  0.77735600  0.12581200  0.25000000  1
  Ni  Ni26  1  0.27735600  0.37418800  0.75000000  1
  Ni  Ni27  1  0.22264400  0.87418800  0.75000000  1
  Cu  Cu28  1  0.28885200  0.72963000  0.25000000  1
  Cu  Cu29  1  0.21114800  0.22963000  0.25000000  1
  Cu  Cu30  1  0.71114800  0.27037000  0.75000000  1
  Cu  Cu31  1  0.78885200  0.77037000  0.75000000  1
