# generated using pymatgen
data_Cu3NiC10
_symmetry_space_group_name_H-M   'P 1'
_cell_length_a   5.71601926
_cell_length_b   5.71601926
_cell_length_c   9.24316216
_cell_angle_alpha   89.96972567
_cell_angle_beta   89.96972567
_cell_angle_gamma   119.98693503
_symmetry_Int_Tables_number   1
_chemical_formula_structural   Cu3NiC10
_chemical_formula_sum   'Cu6 Ni2 C20'
_cell_volume   261.57455075
_cell_formula_units_Z   2
loop_
 _symmetry_equiv_pos_site_id
 _symmetry_equiv_pos_as_xyz
  1  'x, y, z'
loop_
 _atom_site_type_symbol
 _atom_site_label
 _atom_site_symmetry_multiplicity
 _atom_site_fract_x
 _atom_site_fract_y
 _atom_site_fract_z
 _atom_site_occupancy
  C  C0  1  0.66869500  0.33423300  0.11185300  1
  C  C1  1  0.00039800  0.00136800  0.00240400  1
  C  C2  1  0.00136800  0.00039800  0.50240400  1
  C  C3  1  0.33423300  0.66869500  0.61185300  1
  Ni  Ni4  1  0.66016900  0.32686000  0.50315400  1
  Ni  Ni5  1  0.32686000  0.66016900  0.00315400  1
  Cu  Cu6  1  0.82921000  0.65891400  0.78428200  1
  Cu  Cu7  1  0.34035400  0.17006700  0.78485100  1
  Cu  Cu8  1  0.82941500  0.16988300  0.78495400  1
  Cu  Cu9  1  0.16988300  0.82941500  0.28495400  1
  Cu  Cu10  1  0.65891400  0.82921000  0.28428200  1
  Cu  Cu11  1  0.17006700  0.34035400  0.28485100  1
  C  C12  1  0.83324100  0.67046300  0.39923700  1
  C  C13  1  0.52160900  0.48303000  0.66477700  1
  C  C14  1  0.66739700  0.33566800  0.88945100  1
  C  C15  1  0.99872500  0.99724900  0.69278100  1
  C  C16  1  0.99724900  0.99872500  0.19278100  1
  C  C17  1  0.33348300  0.16728000  0.40097500  1
  C  C18  1  0.96165200  0.48309700  0.66467800  1
  C  C19  1  0.52035900  0.04004200  0.66332600  1
  C  C20  1  0.16360500  0.83383400  0.89935800  1
  C  C21  1  0.83383400  0.16360500  0.39935800  1
  C  C22  1  0.48309700  0.96165200  0.16467800  1
  C  C23  1  0.04004200  0.52035900  0.16332600  1
  C  C24  1  0.33566800  0.66739700  0.38945100  1
  C  C25  1  0.67046300  0.83324100  0.89923700  1
  C  C26  1  0.48303000  0.52160900  0.16477700  1
  C  C27  1  0.16728000  0.33348300  0.90097500  1
