# generated using pymatgen
data_Cu3NiC13
_symmetry_space_group_name_H-M   'P 1'
_cell_length_a   8.68204600
_cell_length_b   8.68204600
_cell_length_c   8.39528000
_cell_angle_alpha   90.00000000
_cell_angle_beta   90.00000000
_cell_angle_gamma   90.00000000
_symmetry_Int_Tables_number   1
_chemical_formula_structural   Cu3NiC13
_chemical_formula_sum   'Cu12 Ni4 C52'
_cell_volume   632.81876727
_cell_formula_units_Z   4
loop_
 _symmetry_equiv_pos_site_id
 _symmetry_equiv_pos_as_xyz
  1  'x, y, z'
loop_
 _atom_site_type_symbol
 _atom_site_label
 _atom_site_symmetry_multiplicity
 _atom_site_fract_x
 _atom_site_fract_y
 _atom_site_fract_z
 _atom_site_occupancy
  C  C0  1  0.19784000  0.04882500  0.05681500  1
  C  C1  1  0.14719200  0.85280800  0.25000000  1
  C  C2  1  0.13301800  0.61037700  0.48303900  1
  C  C3  1  0.11037700  0.36698200  0.73303900  1
  C  C4  1  0.95117500  0.80216000  0.44318500  1
  C  C5  1  0.04882500  0.19784000  0.94318500  1
  C  C6  1  0.88962300  0.63301800  0.23303900  1
  C  C7  1  0.86698200  0.38962300  0.98303900  1
  C  C8  1  0.85280800  0.14719200  0.75000000  1
  C  C9  1  0.80216000  0.95117500  0.55681500  1
  C  C10  1  0.69784000  0.45117500  0.19318500  1
  C  C11  1  0.61037700  0.13301800  0.51696100  1
  C  C12  1  0.63301800  0.88962300  0.76696100  1
  C  C13  1  0.64719200  0.64719200  0.00000000  1
  C  C14  1  0.45117500  0.69784000  0.80681500  1
  C  C15  1  0.54882500  0.30216000  0.30681500  1
  C  C16  1  0.35280800  0.35280800  0.50000000  1
  C  C17  1  0.36698200  0.11037700  0.26696100  1
  C  C18  1  0.38962300  0.86698200  0.01696100  1
  C  C19  1  0.30216000  0.54882500  0.69318500  1
  Ni  Ni20  1  0.11914900  0.11914900  0.50000000  1
  Ni  Ni21  1  0.88085100  0.88085100  0.00000000  1
  Ni  Ni22  1  0.61914900  0.38085100  0.75000000  1
  Ni  Ni23  1  0.38085100  0.61914900  0.25000000  1
  Cu  Cu24  1  0.12907000  0.87093000  0.75000000  1
  Cu  Cu25  1  0.12096600  0.37365100  0.24728600  1
  Cu  Cu26  1  0.87903400  0.62634900  0.74728600  1
  Cu  Cu27  1  0.87093000  0.12907000  0.25000000  1
  Cu  Cu28  1  0.62096600  0.12634900  0.00271400  1
  Cu  Cu29  1  0.62907000  0.62907000  0.50000000  1
  Cu  Cu30  1  0.37093000  0.37093000  0.00000000  1
  Cu  Cu31  1  0.37903400  0.87365100  0.50271400  1
  Cu  Cu32  1  0.12634900  0.62096600  0.99728600  1
  Cu  Cu33  1  0.87365100  0.37903400  0.49728600  1
  Cu  Cu34  1  0.62634900  0.87903400  0.25271400  1
  Cu  Cu35  1  0.37365100  0.12096600  0.75271400  1
  C  C36  1  0.12216800  0.61371900  0.24028700  1
  C  C37  1  0.13726800  0.10658800  0.75967500  1
  C  C38  1  0.13339100  0.38703700  0.00472700  1
  C  C39  1  0.14568900  0.86652900  0.50601500  1
  C  C40  1  0.11296300  0.63339100  0.75472700  1
  C  C41  1  0.10658800  0.13726800  0.24032500  1
  C  C42  1  0.11371900  0.37783200  0.49028700  1
  C  C43  1  0.13347100  0.85431100  0.99398500  1
  C  C44  1  0.86652900  0.14568900  0.49398500  1
  C  C45  1  0.88628100  0.62216800  0.99028700  1
  C  C46  1  0.89341200  0.86273200  0.74032500  1
  C  C47  1  0.88703700  0.36660900  0.25472700  1
  C  C48  1  0.85431100  0.13347100  0.00601500  1
  C  C49  1  0.86660900  0.61296300  0.50472700  1
  C  C50  1  0.86273200  0.89341200  0.25967500  1
  C  C51  1  0.87783200  0.38628100  0.74028700  1
  C  C52  1  0.62216800  0.88628100  0.00971300  1
  C  C53  1  0.63726800  0.39341200  0.49032500  1
  C  C54  1  0.64568900  0.63347100  0.74398500  1
  C  C55  1  0.63339100  0.11296300  0.24527300  1
  C  C56  1  0.60658800  0.36273200  0.00967500  1
  C  C57  1  0.61296300  0.86660900  0.49527300  1
  C  C58  1  0.61371900  0.12216800  0.75971300  1
  C  C59  1  0.63347100  0.64568900  0.25601500  1
  C  C60  1  0.36652900  0.35431100  0.75601500  1
  C  C61  1  0.38628100  0.87783200  0.25971300  1
  C  C62  1  0.38703700  0.13339100  0.99527300  1
  C  C63  1  0.39341200  0.63726800  0.50967500  1
  C  C64  1  0.36660900  0.88703700  0.74527300  1
  C  C65  1  0.35431100  0.36652900  0.24398500  1
  C  C66  1  0.36273200  0.60658800  0.99032500  1
  C  C67  1  0.37783200  0.11371900  0.50971300  1
