# generated using pymatgen
data_Cu7NiC4
_symmetry_space_group_name_H-M   'P 1'
_cell_length_a   5.41693924
_cell_length_b   9.54720934
_cell_length_c   14.53343001
_cell_angle_alpha   89.99589107
_cell_angle_beta   89.99949833
_cell_angle_gamma   89.18872766
_symmetry_Int_Tables_number   1
_chemical_formula_structural   Cu7NiC4
_chemical_formula_sum   'Cu28 Ni4 C16'
_cell_volume   751.54500959
_cell_formula_units_Z   4
loop_
 _symmetry_equiv_pos_site_id
 _symmetry_equiv_pos_as_xyz
  1  'x, y, z'
loop_
 _atom_site_type_symbol
 _atom_site_label
 _atom_site_symmetry_multiplicity
 _atom_site_fract_x
 _atom_site_fract_y
 _atom_site_fract_z
 _atom_site_occupancy
  C  C0  1  0.25075800  0.24561200  0.23624000  1
  C  C1  1  0.25078800  0.24562200  0.73626400  1
  C  C2  1  0.25077800  0.24558800  0.01375400  1
  C  C3  1  0.25080100  0.24562700  0.51377200  1
  C  C4  1  0.74924200  0.75440100  0.26376000  1
  C  C5  1  0.74923400  0.75437400  0.76374700  1
  C  C6  1  0.74922000  0.75440600  0.48625000  1
  C  C7  1  0.74918700  0.75437400  0.98622500  1
  C  C8  1  0.77943000  0.36196000  0.87501600  1
  C  C9  1  0.22059700  0.63801900  0.62496800  1
  C  C10  1  0.77945600  0.36198600  0.37502800  1
  C  C11  1  0.22056400  0.63801000  0.12497500  1
  C  C12  1  0.72273400  0.42580600  0.12496200  1
  C  C13  1  0.72270900  0.42580900  0.62502600  1
  C  C14  1  0.27726400  0.57419500  0.37503500  1
  C  C15  1  0.27728900  0.57418300  0.87497700  1
  Ni  Ni16  1  0.72925000  0.10666800  0.37499400  1
  Ni  Ni17  1  0.72924900  0.10664600  0.87500300  1
  Ni  Ni18  1  0.27073900  0.89332500  0.12500300  1
  Ni  Ni19  1  0.27074800  0.89336800  0.62500000  1
  Cu  Cu20  1  0.29776300  0.02218000  0.12501300  1
  Cu  Cu21  1  0.29777100  0.02222500  0.62502000  1
  Cu  Cu22  1  0.70223200  0.97781100  0.37499000  1
  Cu  Cu23  1  0.70222900  0.97779500  0.87498400  1
  Cu  Cu24  1  0.94390700  0.17058800  0.37498900  1
  Cu  Cu25  1  0.94391200  0.17056300  0.87501200  1
  Cu  Cu26  1  0.05608700  0.82939900  0.12500800  1
  Cu  Cu27  1  0.05608200  0.82946300  0.62498700  1
  Cu  Cu28  1  0.54488400  0.19971400  0.37500900  1
  Cu  Cu29  1  0.54490700  0.19970400  0.87502000  1
  Cu  Cu30  1  0.45509900  0.80027600  0.12499100  1
  Cu  Cu31  1  0.45510600  0.80031900  0.62497700  1
  Cu  Cu32  1  0.11557300  0.43855400  0.37497900  1
  Cu  Cu33  1  0.11562400  0.43854700  0.87494400  1
  Cu  Cu34  1  0.88441700  0.56144900  0.12501800  1
  Cu  Cu35  1  0.88436800  0.56144500  0.62506000  1
  Cu  Cu36  1  0.44059500  0.47463200  0.12490400  1
  Cu  Cu37  1  0.44059000  0.47464600  0.62495400  1
  Cu  Cu38  1  0.55940100  0.52536400  0.37509600  1
  Cu  Cu39  1  0.55941200  0.52535900  0.87504600  1
  Cu  Cu40  1  0.76997400  0.34042000  0.03664800  1
  Cu  Cu41  1  0.76996500  0.34040400  0.53668800  1
  Cu  Cu42  1  0.76966100  0.34036800  0.21331200  1
  Cu  Cu43  1  0.76965500  0.34037600  0.71335800  1
  Cu  Cu44  1  0.23033600  0.65963700  0.28668800  1
  Cu  Cu45  1  0.23035000  0.65961300  0.78664400  1
  Cu  Cu46  1  0.23002500  0.65957900  0.46334800  1
  Cu  Cu47  1  0.23003800  0.65958800  0.96331200  1
