# generated using pymatgen
data_Cu9NiC5
_symmetry_space_group_name_H-M   'P 1'
_cell_length_a   7.92188200
_cell_length_b   8.28346643
_cell_length_c   8.84477153
_cell_angle_alpha   111.82435200
_cell_angle_beta   116.50373715
_cell_angle_gamma   83.50586180
_symmetry_Int_Tables_number   1
_chemical_formula_structural   Cu9NiC5
_chemical_formula_sum   'Cu18 Ni2 C10'
_cell_volume   481.20116321
_cell_formula_units_Z   2
loop_
 _symmetry_equiv_pos_site_id
 _symmetry_equiv_pos_as_xyz
  1  'x, y, z'
loop_
 _atom_site_type_symbol
 _atom_site_label
 _atom_site_symmetry_multiplicity
 _atom_site_fract_x
 _atom_site_fract_y
 _atom_site_fract_z
 _atom_site_occupancy
  C  C0  1  0.08212300  0.76106100  0.03330700  1
  C  C1  1  0.91787700  0.23893900  0.96669300  1
  C  C2  1  0.44733500  0.76907300  0.68929200  1
  C  C3  1  0.55266500  0.23092700  0.31070800  1
  C  C4  1  0.24410100  0.52476800  0.27797800  1
  C  C5  1  0.75589900  0.47523200  0.72202200  1
  C  C6  1  0.23159500  0.99722000  0.91422300  1
  C  C7  1  0.76840500  0.00278000  0.08577700  1
  C  C8  1  0.69082200  0.71164600  0.29845700  1
  C  C9  1  0.30917800  0.28835400  0.70154300  1
  Ni  Ni10  1  0.82807400  0.77919200  0.43071200  1
  Ni  Ni11  1  0.17192600  0.22080800  0.56928800  1
  Cu  Cu12  1  0.08293900  0.38225200  0.17650000  1
  Cu  Cu13  1  0.91706100  0.61774800  0.82350000  1
  Cu  Cu14  1  0.21634200  0.64484200  0.17258200  1
  Cu  Cu15  1  0.78365800  0.35515800  0.82741800  1
  Cu  Cu16  1  0.24926100  0.63210500  0.46535300  1
  Cu  Cu17  1  0.75073800  0.36789500  0.53464700  1
  Cu  Cu18  1  0.54798300  0.86610000  0.62268600  1
  Cu  Cu19  1  0.45201700  0.13390000  0.37731400  1
  Cu  Cu20  1  0.56279800  0.55642500  0.69460400  1
  Cu  Cu21  1  0.43720200  0.44357500  0.30539600  1
  Cu  Cu22  1  0.60972800  0.85862600  0.94647000  1
  Cu  Cu23  1  0.39027200  0.14137400  0.05353000  1
  Cu  Cu24  1  0.26334800  0.91366000  0.74124400  1
  Cu  Cu25  1  0.73665200  0.08634000  0.25875600  1
  Cu  Cu26  1  0.03801100  0.07780000  0.86267900  1
  Cu  Cu27  1  0.96198900  0.92220000  0.13732100  1
  Cu  Cu28  1  0.23545100  0.85568900  0.99032500  1
  Cu  Cu29  1  0.76454900  0.14431100  0.00967500  1
