# generated using pymatgen
data_CuNi7C4
_symmetry_space_group_name_H-M   'P 1'
_cell_length_a   5.54287530
_cell_length_b   5.54287530
_cell_length_c   8.94174260
_cell_angle_alpha   84.80813468
_cell_angle_beta   84.80813468
_cell_angle_gamma   71.08745362
_symmetry_Int_Tables_number   1
_chemical_formula_structural   CuNi7C4
_chemical_formula_sum   'Cu2 Ni14 C8'
_cell_volume   258.27812095
_cell_formula_units_Z   2
loop_
 _symmetry_equiv_pos_site_id
 _symmetry_equiv_pos_as_xyz
  1  'x, y, z'
loop_
 _atom_site_type_symbol
 _atom_site_label
 _atom_site_symmetry_multiplicity
 _atom_site_fract_x
 _atom_site_fract_y
 _atom_site_fract_z
 _atom_site_occupancy
  C  C0  1  0.86269800  0.86269800  0.61284800  1
  C  C1  1  0.63041900  0.63041900  0.87731400  1
  C  C2  1  0.50000000  0.50000000  0.50000000  1
  C  C3  1  0.73363600  0.73363600  0.24516600  1
  C  C4  1  0.26636400  0.26636400  0.75483400  1
  C  C5  1  0.36958100  0.36958100  0.12268600  1
  C  C6  1  0.13730200  0.13730200  0.38715200  1
  C  C7  1  0.00000000  0.00000000  0.00000000  1
  Ni  Ni8  1  0.94820500  0.55963500  0.74995700  1
  Ni  Ni9  1  0.81282000  0.18718000  0.50000000  1
  Ni  Ni10  1  0.55963500  0.94820500  0.74995700  1
  Ni  Ni11  1  0.71149100  0.71149100  0.46691200  1
  Ni  Ni12  1  0.48398300  0.48398300  0.71487900  1
  Ni  Ni13  1  0.21858800  0.21858800  0.96960300  1
  Ni  Ni14  1  0.51601700  0.51601700  0.28512100  1
  Ni  Ni15  1  0.78141200  0.78141200  0.03039700  1
  Ni  Ni16  1  0.28850900  0.28850900  0.53308800  1
  Ni  Ni17  1  0.44036500  0.05179500  0.25004300  1
  Ni  Ni18  1  0.18718000  0.81282000  0.50000000  1
  Ni  Ni19  1  0.69253900  0.30746100  0.00000000  1
  Ni  Ni20  1  0.05179500  0.44036500  0.25004300  1
  Ni  Ni21  1  0.30746100  0.69253900  0.00000000  1
  Cu  Cu22  1  0.97260800  0.97260800  0.22662900  1
  Cu  Cu23  1  0.02739200  0.02739200  0.77337100  1
