# generated using pymatgen
data_Cu4Ni2C9
_symmetry_space_group_name_H-M   'P 1'
_cell_length_a   9.94779236
_cell_length_b   9.94779236
_cell_length_c   11.59578000
_cell_angle_alpha   90.00000000
_cell_angle_beta   90.00000000
_cell_angle_gamma   120.00000240
_symmetry_Int_Tables_number   1
_chemical_formula_structural   Cu4Ni2C9
_chemical_formula_sum   'Cu24 Ni12 C54'
_cell_volume   993.76572021
_cell_formula_units_Z   6
loop_
 _symmetry_equiv_pos_site_id
 _symmetry_equiv_pos_as_xyz
  1  'x, y, z'
loop_
 _atom_site_type_symbol
 _atom_site_label
 _atom_site_symmetry_multiplicity
 _atom_site_fract_x
 _atom_site_fract_y
 _atom_site_fract_z
 _atom_site_occupancy
  C  C0  1  0.33333300  0.66666700  0.99856000  1
  C  C1  1  0.66666700  0.33333300  0.49856000  1
  C  C2  1  0.00000000  0.00000000  0.60164600  1
  C  C3  1  0.00000000  0.00000000  0.10164600  1
  C  C4  1  0.33333300  0.66666700  0.50257900  1
  C  C5  1  0.66666700  0.33333300  0.00257900  1
  C  C6  1  0.46524300  0.50375500  0.90842100  1
  C  C7  1  0.49624500  0.96148900  0.90842100  1
  C  C8  1  0.03851100  0.53475700  0.90842100  1
  C  C9  1  0.50375500  0.46524300  0.40842100  1
  C  C10  1  0.96148900  0.49624500  0.40842100  1
  C  C11  1  0.53475700  0.03851100  0.40842100  1
  C  C12  1  0.47547400  0.61824200  0.81288200  1
  C  C13  1  0.38175800  0.85723200  0.81288200  1
  C  C14  1  0.14276800  0.52452600  0.81288200  1
  C  C15  1  0.61824200  0.47547400  0.31288200  1
  C  C16  1  0.85723200  0.38175800  0.31288200  1
  C  C17  1  0.52452600  0.14276800  0.31288200  1
  C  C18  1  0.53816300  0.91661400  0.11343400  1
  C  C19  1  0.08338600  0.62154800  0.11343400  1
  C  C20  1  0.37845200  0.46183700  0.11343400  1
  C  C21  1  0.91661400  0.53816300  0.61343400  1
  C  C22  1  0.62154800  0.08338600  0.61343400  1
  C  C23  1  0.46183700  0.37845200  0.61343400  1
  C  C24  1  0.53263500  0.78367500  0.18698000  1
  C  C25  1  0.21632500  0.74896000  0.18698000  1
  C  C26  1  0.25104000  0.46736500  0.18698000  1
  C  C27  1  0.78367500  0.53263500  0.68698000  1
  C  C28  1  0.74896000  0.21632500  0.68698000  1
  C  C29  1  0.46736500  0.25104000  0.68698000  1
  C  C30  1  0.88763500  0.18045800  0.51911600  1
  C  C31  1  0.81954200  0.70717700  0.51911600  1
  C  C32  1  0.29282300  0.11236500  0.51911600  1
  C  C33  1  0.18045800  0.88763500  0.01911600  1
  C  C34  1  0.70717700  0.81954200  0.01911600  1
  C  C35  1  0.11236500  0.29282300  0.01911600  1
  C  C36  1  0.04274000  0.22399600  0.45210900  1
  C  C37  1  0.77600400  0.81874400  0.45210900  1
  C  C38  1  0.18125600  0.95726000  0.45210900  1
  C  C39  1  0.22399600  0.04274000  0.95210900  1
  C  C40  1  0.81874400  0.77600400  0.95210900  1
  C  C41  1  0.95726000  0.18125600  0.95210900  1
  C  C42  1  0.70578600  0.83433700  0.69241800  1
  C  C43  1  0.16566300  0.87144900  0.69241800  1
  C  C44  1  0.12855100  0.29421400  0.69241800  1
  C  C45  1  0.83433700  0.70578600  0.19241800  1
  C  C46  1  0.87144900  0.16566300  0.19241800  1
  C  C47  1  0.29421400  0.12855100  0.19241800  1
  C  C48  1  0.79290300  0.98643100  0.77082800  1
  C  C49  1  0.01356900  0.80647300  0.77082800  1
  C  C50  1  0.19352700  0.20709700  0.77082800  1
  C  C51  1  0.98643100  0.79290300  0.27082800  1
  C  C52  1  0.80647300  0.01356900  0.27082800  1
  C  C53  1  0.20709700  0.19352700  0.27082800  1
  Ni  Ni54  1  0.50528100  0.61127600  0.63525700  1
  Ni  Ni55  1  0.38872400  0.89400500  0.63525700  1
  Ni  Ni56  1  0.10599500  0.49471900  0.63525700  1
  Ni  Ni57  1  0.61127600  0.50528100  0.13525700  1
  Ni  Ni58  1  0.89400500  0.38872400  0.13525700  1
  Ni  Ni59  1  0.49471900  0.10599500  0.13525700  1
  Ni  Ni60  1  0.25573700  0.42641200  0.37517800  1
  Ni  Ni61  1  0.57358800  0.82932500  0.37517800  1
  Ni  Ni62  1  0.17067500  0.74426300  0.37517800  1
  Ni  Ni63  1  0.42641200  0.25573700  0.87517800  1
  Ni  Ni64  1  0.82932500  0.57358800  0.87517800  1
  Ni  Ni65  1  0.74426300  0.17067500  0.87517800  1
  Cu  Cu66  1  0.46429200  0.60150000  0.89773400  1
  Cu  Cu67  1  0.39850000  0.86279200  0.89773400  1
  Cu  Cu68  1  0.13720800  0.53570800  0.89773400  1
  Cu  Cu69  1  0.60150000  0.46429200  0.39773400  1
  Cu  Cu70  1  0.86279200  0.39850000  0.39773400  1
  Cu  Cu71  1  0.53570800  0.13720800  0.39773400  1
  Cu  Cu72  1  0.52608900  0.81159400  0.10578100  1
  Cu  Cu73  1  0.18840600  0.71449500  0.10578100  1
  Cu  Cu74  1  0.28550500  0.47391100  0.10578100  1
  Cu  Cu75  1  0.81159400  0.52608900  0.60578100  1
  Cu  Cu76  1  0.71449500  0.18840600  0.60578100  1
  Cu  Cu77  1  0.47391100  0.28550500  0.60578100  1
  Cu  Cu78  1  0.95361100  0.13889200  0.49254100  1
  Cu  Cu79  1  0.86110800  0.81471800  0.49254100  1
  Cu  Cu80  1  0.18528200  0.04638900  0.49254100  1
  Cu  Cu81  1  0.13889200  0.95361100  0.99254100  1
  Cu  Cu82  1  0.81471800  0.86110800  0.99254100  1
  Cu  Cu83  1  0.04638900  0.18528200  0.99254100  1
  Cu  Cu84  1  0.80633900  0.92887200  0.70769600  1
  Cu  Cu85  1  0.07112800  0.87746700  0.70769600  1
  Cu  Cu86  1  0.12253300  0.19366100  0.70769600  1
  Cu  Cu87  1  0.92887200  0.80633900  0.20769600  1
  Cu  Cu88  1  0.87746700  0.07112800  0.20769600  1
  Cu  Cu89  1  0.19366100  0.12253300  0.20769600  1
