# generated using pymatgen
data_Cu4Ni2C9
_symmetry_space_group_name_H-M   'P 1'
_cell_length_a   9.45117200
_cell_length_b   6.09967700
_cell_length_c   11.50747268
_cell_angle_alpha   69.06156162
_cell_angle_beta   90.00000000
_cell_angle_gamma   90.00000000
_symmetry_Int_Tables_number   1
_chemical_formula_structural   Cu4Ni2C9
_chemical_formula_sum   'Cu16 Ni8 C36'
_cell_volume   619.58804566
_cell_formula_units_Z   4
loop_
 _symmetry_equiv_pos_site_id
 _symmetry_equiv_pos_as_xyz
  1  'x, y, z'
loop_
 _atom_site_type_symbol
 _atom_site_label
 _atom_site_symmetry_multiplicity
 _atom_site_fract_x
 _atom_site_fract_y
 _atom_site_fract_z
 _atom_site_occupancy
  C  C0  1  0.67178800  0.24127500  0.26277400  1
  C  C1  1  0.17178800  0.75872500  0.23722600  1
  C  C2  1  0.32821200  0.75872500  0.73722600  1
  C  C3  1  0.82821200  0.24127500  0.76277400  1
  C  C4  1  0.70622600  0.45285800  0.42587900  1
  C  C5  1  0.20622600  0.54714200  0.07412100  1
  C  C6  1  0.29377400  0.54714200  0.57412100  1
  C  C7  1  0.79377400  0.45285800  0.92587900  1
  C  C8  1  0.67936100  0.65349500  0.29560500  1
  C  C9  1  0.17936100  0.34650500  0.20439500  1
  C  C10  1  0.32063900  0.34650500  0.70439500  1
  C  C11  1  0.82063900  0.65349500  0.79560500  1
  C  C12  1  0.65059000  0.00946800  0.11083500  1
  C  C13  1  0.15059000  0.99053200  0.38916500  1
  C  C14  1  0.34941000  0.99053200  0.88916500  1
  C  C15  1  0.84941000  0.00946800  0.61083500  1
  C  C16  1  0.50824300  0.96472500  0.18278700  1
  C  C17  1  0.00824300  0.03527500  0.31721300  1
  C  C18  1  0.49175700  0.03527500  0.81721300  1
  C  C19  1  0.99175700  0.96472500  0.68278700  1
  C  C20  1  0.40739400  0.18591600  0.31376200  1
  C  C21  1  0.90739400  0.81408400  0.18623800  1
  C  C22  1  0.59260600  0.81408400  0.68623800  1
  C  C23  1  0.09260600  0.18591600  0.81376200  1
  C  C24  1  0.47890800  0.97795900  0.41413100  1
  C  C25  1  0.97890800  0.02204100  0.08586900  1
  C  C26  1  0.52109200  0.02204100  0.58586900  1
  C  C27  1  0.02109200  0.97795900  0.91413100  1
  C  C28  1  0.57802800  0.61389200  0.06667600  1
  C  C29  1  0.07802800  0.38610800  0.43332400  1
  C  C30  1  0.42197200  0.38610800  0.93332400  1
  C  C31  1  0.92197200  0.61389200  0.56667600  1
  C  C32  1  0.43969200  0.51541300  0.14838000  1
  C  C33  1  0.93969200  0.48458700  0.35162000  1
  C  C34  1  0.56030800  0.48458700  0.85162000  1
  C  C35  1  0.06030800  0.51541300  0.64838000  1
  Ni  Ni36  1  0.85477600  0.33724300  0.11256500  1
  Ni  Ni37  1  0.35477600  0.66275700  0.38743500  1
  Ni  Ni38  1  0.14522400  0.66275700  0.88743500  1
  Ni  Ni39  1  0.64522400  0.33724300  0.61256500  1
  Ni  Ni40  1  0.81392800  0.97132700  0.42615200  1
  Ni  Ni41  1  0.31392800  0.02867300  0.07384800  1
  Ni  Ni42  1  0.18607200  0.02867300  0.57384800  1
  Ni  Ni43  1  0.68607200  0.97132700  0.92615200  1
  Cu  Cu44  1  0.73094800  0.50385200  0.33538700  1
  Cu  Cu45  1  0.23094800  0.49614800  0.16461300  1
  Cu  Cu46  1  0.26905200  0.49614800  0.66461300  1
  Cu  Cu47  1  0.76905200  0.50385200  0.83538700  1
  Cu  Cu48  1  0.61206000  0.96709700  0.19626400  1
  Cu  Cu49  1  0.11206000  0.03290300  0.30373600  1
  Cu  Cu50  1  0.38794000  0.03290300  0.80373600  1
  Cu  Cu51  1  0.88794000  0.96709700  0.69626400  1
  Cu  Cu52  1  0.48802300  0.14959500  0.36980100  1
  Cu  Cu53  1  0.98802300  0.85040500  0.13019900  1
  Cu  Cu54  1  0.51197700  0.85040500  0.63019900  1
  Cu  Cu55  1  0.01197700  0.14959500  0.86980100  1
  Cu  Cu56  1  0.53831600  0.47926500  0.13359200  1
  Cu  Cu57  1  0.03831600  0.52073500  0.36640800  1
  Cu  Cu58  1  0.46168400  0.52073500  0.86640800  1
  Cu  Cu59  1  0.96168400  0.47926500  0.63359200  1
