# generated using pymatgen
data_Cu(NiC4)3
_symmetry_space_group_name_H-M   'P 1'
_cell_length_a   5.12221700
_cell_length_b   7.77045429
_cell_length_c   7.79070226
_cell_angle_alpha   81.87376136
_cell_angle_beta   83.79320022
_cell_angle_gamma   71.01726840
_symmetry_Int_Tables_number   1
_chemical_formula_structural   Cu(NiC4)3
_chemical_formula_sum   'Cu2 Ni6 C24'
_cell_volume   289.63729079
_cell_formula_units_Z   2
loop_
 _symmetry_equiv_pos_site_id
 _symmetry_equiv_pos_as_xyz
  1  'x, y, z'
loop_
 _atom_site_type_symbol
 _atom_site_label
 _atom_site_symmetry_multiplicity
 _atom_site_fract_x
 _atom_site_fract_y
 _atom_site_fract_z
 _atom_site_occupancy
  C  C0  1  0.50036000  0.87511500  0.87442700  1
  C  C1  1  0.49892600  0.62433700  0.62852400  1
  C  C2  1  0.50097100  0.74924300  0.25077600  1
  C  C3  1  0.49902900  0.25075700  0.74922400  1
  C  C4  1  0.50107400  0.37566300  0.37147600  1
  C  C5  1  0.50000000  0.50000000  0.00000000  1
  C  C6  1  0.50000000  0.00000000  0.50000000  1
  C  C7  1  0.49964000  0.12488500  0.12557300  1
  Ni  Ni8  1  0.00034700  0.68553400  0.43848800  1
  Ni  Ni9  1  0.99990300  0.80963100  0.06237200  1
  Ni  Ni10  1  0.99965300  0.31446600  0.56151200  1
  Ni  Ni11  1  0.00018700  0.93565100  0.68802300  1
  Ni  Ni12  1  0.99981300  0.06434900  0.31197700  1
  Ni  Ni13  1  0.00009700  0.19036900  0.93762800  1
  Cu  Cu14  1  0.00006800  0.56165400  0.81435300  1
  Cu  Cu15  1  0.99993200  0.43834600  0.18564700  1
  C  C16  1  0.22347800  0.72010900  0.84497100  1
  C  C17  1  0.77596700  0.77166200  0.65869300  1
  C  C18  1  0.22658000  0.84837300  0.46944400  1
  C  C19  1  0.77671800  0.40448500  0.78057300  1
  C  C20  1  0.22450400  0.47469400  0.59935500  1
  C  C21  1  0.22328200  0.59551500  0.21942700  1
  C  C22  1  0.77549600  0.52530600  0.40064500  1
  C  C23  1  0.22643600  0.09881600  0.71914900  1
  C  C24  1  0.22403300  0.22833800  0.34130700  1
  C  C25  1  0.77744300  0.64641500  0.02929400  1
  C  C26  1  0.77342000  0.15162700  0.53055600  1
  C  C27  1  0.22255700  0.35358500  0.97070600  1
  C  C28  1  0.77652200  0.27989100  0.15502900  1
  C  C29  1  0.22630700  0.97336900  0.09424500  1
  C  C30  1  0.77356400  0.90118400  0.28085100  1
  C  C31  1  0.77369300  0.02663100  0.90575500  1
