# generated using pymatgen
data_Cu4Ni3C8
_symmetry_space_group_name_H-M   'P 1'
_cell_length_a   10.48629584
_cell_length_b   10.48629584
_cell_length_c   6.44171594
_cell_angle_alpha   77.74859813
_cell_angle_beta   77.74859813
_cell_angle_gamma   56.47679015
_symmetry_Int_Tables_number   1
_chemical_formula_structural   Cu4Ni3C8
_chemical_formula_sum   'Cu16 Ni12 C32'
_cell_volume   573.13549432
_cell_formula_units_Z   4
loop_
 _symmetry_equiv_pos_site_id
 _symmetry_equiv_pos_as_xyz
  1  'x, y, z'
loop_
 _atom_site_type_symbol
 _atom_site_label
 _atom_site_symmetry_multiplicity
 _atom_site_fract_x
 _atom_site_fract_y
 _atom_site_fract_z
 _atom_site_occupancy
  C  C0  1  0.06446400  0.58975000  0.60051600  1
  C  C1  1  0.41025000  0.93553600  0.89948400  1
  C  C2  1  0.93553600  0.41025000  0.39948400  1
  C  C3  1  0.58975000  0.06446400  0.10051600  1
  Ni  Ni4  1  0.82970500  0.48839100  0.94261700  1
  Ni  Ni5  1  0.51160900  0.17029500  0.55738300  1
  Ni  Ni6  1  0.17029500  0.51160900  0.05738300  1
  Ni  Ni7  1  0.48839100  0.82970500  0.44261700  1
  Ni  Ni8  1  0.99583700  0.19856500  0.99383800  1
  Ni  Ni9  1  0.80143500  0.00416300  0.50616200  1
  Ni  Ni10  1  0.00416300  0.80143500  0.00616200  1
  Ni  Ni11  1  0.19856500  0.99583700  0.49383800  1
  Ni  Ni12  1  0.72016000  0.32322300  0.98426500  1
  Ni  Ni13  1  0.67677700  0.27984000  0.51573500  1
  Ni  Ni14  1  0.27984000  0.67677700  0.01573500  1
  Ni  Ni15  1  0.32322300  0.72016000  0.48426500  1
  Cu  Cu16  1  0.49783100  0.38412400  0.00404400  1
  Cu  Cu17  1  0.61587600  0.50216900  0.49595600  1
  Cu  Cu18  1  0.50216900  0.61587600  0.99595600  1
  Cu  Cu19  1  0.38412400  0.49783100  0.50404400  1
  Cu  Cu20  1  0.75959100  0.63369200  0.66843300  1
  Cu  Cu21  1  0.36630800  0.24040900  0.83156700  1
  Cu  Cu22  1  0.24040900  0.36630800  0.33156700  1
  Cu  Cu23  1  0.63369200  0.75959100  0.16843300  1
  Cu  Cu24  1  0.86995900  0.62911400  0.05313300  1
  Cu  Cu25  1  0.37088600  0.13004100  0.44686700  1
  Cu  Cu26  1  0.13004100  0.37088600  0.94686700  1
  Cu  Cu27  1  0.62911400  0.86995900  0.55313300  1
  Cu  Cu28  1  0.13069500  0.97198800  0.02184900  1
  Cu  Cu29  1  0.02801200  0.86930500  0.47815100  1
  Cu  Cu30  1  0.86930500  0.02801200  0.97815100  1
  Cu  Cu31  1  0.97198800  0.13069500  0.52184900  1
  C  C32  1  0.60575700  0.29438600  0.99724800  1
  C  C33  1  0.70561400  0.39424300  0.50275200  1
  C  C34  1  0.39424300  0.70561400  0.00275200  1
  C  C35  1  0.29438600  0.60575700  0.49724800  1
  C  C36  1  0.85734100  0.54115200  0.71746400  1
  C  C37  1  0.45884800  0.14265900  0.78253600  1
  C  C38  1  0.14265900  0.45884800  0.28253600  1
  C  C39  1  0.54115200  0.85734100  0.21746400  1
  C  C40  1  0.79791700  0.59246000  0.09388300  1
  C  C41  1  0.40754000  0.20208300  0.40611700  1
  C  C42  1  0.20208300  0.40754000  0.90611700  1
  C  C43  1  0.59246000  0.79791700  0.59388300  1
  C  C44  1  0.13705400  0.06454200  0.01219000  1
  C  C45  1  0.93545800  0.86294600  0.48781000  1
  C  C46  1  0.86294600  0.93545800  0.98781000  1
  C  C47  1  0.06454200  0.13705400  0.51219000  1
  C  C48  1  0.86876000  0.18970900  0.98244900  1
  C  C49  1  0.81029100  0.13124000  0.51755100  1
  C  C50  1  0.13124000  0.81029100  0.01755100  1
  C  C51  1  0.18970900  0.86876000  0.48244900  1
  C  C52  1  0.97687200  0.33732800  0.99436100  1
  C  C53  1  0.66267200  0.02312800  0.50563900  1
  C  C54  1  0.02312800  0.66267200  0.00563900  1
  C  C55  1  0.33732800  0.97687200  0.49436100  1
  C  C56  1  0.69707300  0.46449600  0.98055400  1
  C  C57  1  0.53550400  0.30292700  0.51944600  1
  C  C58  1  0.30292700  0.53550400  0.01944600  1
  C  C59  1  0.46449600  0.69707300  0.48055400  1
