# generated using pymatgen
data_Cu3NiC32
_symmetry_space_group_name_H-M   'P 1'
_cell_length_a   8.88420788
_cell_length_b   8.88420788
_cell_length_c   8.88420775
_cell_angle_alpha   58.54432222
_cell_angle_beta   58.54432222
_cell_angle_gamma   58.54432972
_symmetry_Int_Tables_number   1
_chemical_formula_structural   Cu3NiC32
_chemical_formula_sum   'Cu3 Ni1 C32'
_cell_volume   479.33225858
_cell_formula_units_Z   1
loop_
 _symmetry_equiv_pos_site_id
 _symmetry_equiv_pos_as_xyz
  1  'x, y, z'
loop_
 _atom_site_type_symbol
 _atom_site_label
 _atom_site_symmetry_multiplicity
 _atom_site_fract_x
 _atom_site_fract_y
 _atom_site_fract_z
 _atom_site_occupancy
  Ni  Ni0  1  0.14462800  0.14462800  0.14462800  1
  Cu  Cu1  1  0.64982100  0.64982100  0.64982100  1
  Cu  Cu2  1  0.84775400  0.84775400  0.84775400  1
  Cu  Cu3  1  0.35140600  0.35140600  0.35140600  1
  C  C4  1  0.99075000  0.99075000  0.99075000  1
  C  C5  1  0.49900500  0.49900500  0.49900500  1
  C  C6  1  0.96105300  0.25095500  0.53956900  1
  C  C7  1  0.53956900  0.96105300  0.25095500  1
  C  C8  1  0.25095500  0.53956900  0.96105300  1
  C  C9  1  0.74870200  0.45795400  0.04383200  1
  C  C10  1  0.45795400  0.04383200  0.74870200  1
  C  C11  1  0.04383200  0.74870200  0.45795400  1
  C  C12  1  0.51023500  0.11552200  0.30322700  1
  C  C13  1  0.30322700  0.51023500  0.11552200  1
  C  C14  1  0.11552200  0.30322700  0.51023500  1
  C  C15  1  0.93949200  0.08118400  0.73528500  1
  C  C16  1  0.99771400  0.19209800  0.38805300  1
  C  C17  1  0.76797600  0.41666900  0.56183100  1
  C  C18  1  0.73528500  0.93949200  0.08118400  1
  C  C19  1  0.56183100  0.76797600  0.41666900  1
  C  C20  1  0.79605800  0.61871600  0.01010100  1
  C  C21  1  0.41666900  0.56183100  0.76797600  1
  C  C22  1  0.91312700  0.26781500  0.06679000  1
  C  C23  1  0.61871600  0.01010100  0.79605800  1
  C  C24  1  0.38805300  0.99771400  0.19209800  1
  C  C25  1  0.08118400  0.73528500  0.93949200  1
  C  C26  1  0.58056500  0.43951900  0.23670600  1
  C  C27  1  0.19209800  0.38805300  0.99771400  1
  C  C28  1  0.43951900  0.23670600  0.58056500  1
  C  C29  1  0.26781500  0.06679000  0.91312700  1
  C  C30  1  0.23670600  0.58056500  0.43951900  1
  C  C31  1  0.01010100  0.79605800  0.61871600  1
  C  C32  1  0.06679000  0.91312700  0.26781500  1
  C  C33  1  0.88534600  0.69823200  0.49230000  1
  C  C34  1  0.69823200  0.49230000  0.88534600  1
  C  C35  1  0.49230000  0.88534600  0.69823200  1
