# generated using pymatgen
data_Cu4Ni8C23
_symmetry_space_group_name_H-M   'P 1'
_cell_length_a   13.62180900
_cell_length_b   9.14259600
_cell_length_c   9.18070984
_cell_angle_alpha   66.45013137
_cell_angle_beta   90.00000000
_cell_angle_gamma   90.00000000
_symmetry_Int_Tables_number   1
_chemical_formula_structural   Cu4Ni8C23
_chemical_formula_sum   'Cu8 Ni16 C46'
_cell_volume   1048.12676087
_cell_formula_units_Z   2
loop_
 _symmetry_equiv_pos_site_id
 _symmetry_equiv_pos_as_xyz
  1  'x, y, z'
loop_
 _atom_site_type_symbol
 _atom_site_label
 _atom_site_symmetry_multiplicity
 _atom_site_fract_x
 _atom_site_fract_y
 _atom_site_fract_z
 _atom_site_occupancy
  C  C0  1  0.50000000  0.00000000  0.00000000  1
  C  C1  1  0.00000000  0.00000000  0.50000000  1
  C  C2  1  0.49844600  0.47140300  0.48020600  1
  C  C3  1  0.99844600  0.52859700  0.01979400  1
  C  C4  1  0.50155400  0.52859700  0.51979400  1
  C  C5  1  0.00155400  0.47140300  0.98020600  1
  C  C6  1  0.27761100  0.92741500  0.49739600  1
  C  C7  1  0.77761100  0.07258500  0.00260400  1
  C  C8  1  0.72238900  0.07258500  0.50260400  1
  C  C9  1  0.22238900  0.92741500  0.99739600  1
  C  C10  1  0.38423300  0.23200100  0.62444600  1
  C  C11  1  0.88423300  0.76799900  0.87555400  1
  C  C12  1  0.61576700  0.76799900  0.37555400  1
  C  C13  1  0.11576700  0.23200100  0.12444600  1
  C  C14  1  0.43126000  0.64223000  0.04081900  1
  C  C15  1  0.93126000  0.35777000  0.45918100  1
  C  C16  1  0.56874000  0.35777000  0.95918100  1
  C  C17  1  0.06874000  0.64223000  0.54081900  1
  C  C18  1  0.28694500  0.47977900  0.14088000  1
  C  C19  1  0.78694500  0.52022100  0.35912000  1
  C  C20  1  0.71305500  0.52022100  0.85912000  1
  C  C21  1  0.21305500  0.47977900  0.64088000  1
  C  C22  1  0.14928000  0.01300500  0.75222100  1
  C  C23  1  0.64928000  0.98699500  0.74777900  1
  C  C24  1  0.85072000  0.98699500  0.24777900  1
  C  C25  1  0.35072000  0.01300500  0.25222100  1
  C  C26  1  0.21689300  0.45733000  0.98965300  1
  C  C27  1  0.71689300  0.54267000  0.51034700  1
  C  C28  1  0.78310700  0.54267000  0.01034700  1
  C  C29  1  0.28310700  0.45733000  0.48965300  1
  C  C30  1  0.34444300  0.13077700  0.06556600  1
  C  C31  1  0.84444300  0.86922300  0.43443400  1
  C  C32  1  0.65555700  0.86922300  0.93443400  1
  C  C33  1  0.15555700  0.13077700  0.56556600  1
  C  C34  1  0.34397900  0.10986900  0.49788100  1
  C  C35  1  0.84397900  0.89013100  0.00211900  1
  C  C36  1  0.65602100  0.89013100  0.50211900  1
  C  C37  1  0.15602100  0.10986900  0.99788100  1
  C  C38  1  0.37854200  0.72193200  0.95207600  1
  C  C39  1  0.87854200  0.27806800  0.54792400  1
  C  C40  1  0.62145800  0.27806800  0.04792400  1
  C  C41  1  0.12145800  0.72193200  0.45207600  1
  Ni  Ni42  1  0.66354600  0.99887800  0.54873000  1
  Ni  Ni43  1  0.16354600  0.00112200  0.95127000  1
  Ni  Ni44  1  0.33645400  0.00112200  0.45127000  1
  Ni  Ni45  1  0.83645400  0.99887800  0.04873000  1
  Ni  Ni46  1  0.35225100  0.23179300  0.52173000  1
  Ni  Ni47  1  0.85225100  0.76820700  0.97827000  1
  Ni  Ni48  1  0.64774900  0.76820700  0.47827000  1
  Ni  Ni49  1  0.14774900  0.23179300  0.02173000  1
  Ni  Ni50  1  0.26880500  0.51927700  0.02254400  1
  Ni  Ni51  1  0.76880500  0.48072300  0.47745600  1
  Ni  Ni52  1  0.73119500  0.48072300  0.97745600  1
  Ni  Ni53  1  0.23119500  0.51927700  0.52254400  1
  Ni  Ni54  1  0.29720400  0.65772400  0.91450000  1
  Ni  Ni55  1  0.79720400  0.34227600  0.58550000  1
  Ni  Ni56  1  0.70279600  0.34227600  0.08550000  1
  Ni  Ni57  1  0.20279600  0.65772400  0.41450000  1
  C  C58  1  0.41160500  0.28948100  0.82894100  1
  C  C59  1  0.91160500  0.71051900  0.67105900  1
  C  C60  1  0.58839500  0.71051900  0.17105900  1
  C  C61  1  0.08839500  0.28948100  0.32894100  1
  Cu  Cu62  1  0.35812700  0.02031200  0.14136600  1
  Cu  Cu63  1  0.85812700  0.97968800  0.35863400  1
  Cu  Cu64  1  0.64187300  0.97968800  0.85863400  1
  Cu  Cu65  1  0.14187300  0.02031200  0.64136600  1
  Cu  Cu66  1  0.39877800  0.86751000  0.88447300  1
  Cu  Cu67  1  0.89877800  0.13249000  0.61552700  1
  Cu  Cu68  1  0.60122200  0.13249000  0.11552700  1
  Cu  Cu69  1  0.10122200  0.86751000  0.38447300  1
