# generated using pymatgen
data_Cu12Ni12C41
_symmetry_space_group_name_H-M   'P 1'
_cell_length_a   12.67771589
_cell_length_b   12.67771589
_cell_length_c   12.67771589
_cell_angle_alpha   146.46889061
_cell_angle_beta   131.75743370
_cell_angle_gamma   60.02880995
_symmetry_Int_Tables_number   1
_chemical_formula_structural   Cu12Ni12C41
_chemical_formula_sum   'Cu12 Ni12 C41'
_cell_volume   831.96060054
_cell_formula_units_Z   1
loop_
 _symmetry_equiv_pos_site_id
 _symmetry_equiv_pos_as_xyz
  1  'x, y, z'
loop_
 _atom_site_type_symbol
 _atom_site_label
 _atom_site_symmetry_multiplicity
 _atom_site_fract_x
 _atom_site_fract_y
 _atom_site_fract_z
 _atom_site_occupancy
  Ni  Ni0  1  0.42929700  0.42178800  0.00750900  1
  Ni  Ni1  1  0.41699200  0.41559500  0.50282200  1
  Ni  Ni2  1  0.41699200  0.91417000  0.00139700  1
  Ni  Ni3  1  0.91186600  0.91685700  0.99500900  1
  Ni  Ni4  1  0.75144100  0.74820500  0.00323600  1
  Ni  Ni5  1  0.58572200  0.57821200  0.00750900  1
  Ni  Ni6  1  0.74038400  0.25722100  0.99760500  1
  Ni  Ni7  1  0.08722700  0.08583000  0.50282200  1
  Ni  Ni8  1  0.74038400  0.74277900  0.48316300  1
  Ni  Ni9  1  0.08722700  0.58440500  0.00139700  1
  Ni  Ni10  1  0.07815200  0.08314300  0.99500900  1
  Ni  Ni11  1  0.25503100  0.25179500  0.00323600  1
  Cu  Cu12  1  0.41521400  0.91607400  0.49914000  1
  Cu  Cu13  1  0.58358900  0.08155900  0.99911600  1
  Cu  Cu14  1  0.58358900  0.58447300  0.50203000  1
  Cu  Cu15  1  0.58306500  0.08392600  0.49914000  1
  Cu  Cu16  1  0.75016400  0.24961900  0.50054500  1
  Cu  Cu17  1  0.91818000  0.41700200  0.50117800  1
  Cu  Cu18  1  0.91755600  0.91844100  0.50203000  1
  Cu  Cu19  1  0.91755600  0.41552700  0.99911600  1
  Cu  Cu20  1  0.08417700  0.58299800  0.50117800  1
  Cu  Cu21  1  0.25092600  0.75038100  0.50054500  1
  Cu  Cu22  1  0.24809000  0.25025700  0.49834700  1
  Cu  Cu23  1  0.24809000  0.74974300  0.99783300  1
  C  C24  1  0.30716200  0.71918800  0.16447200  1
  C  C25  1  0.30716200  0.14269000  0.58797500  1
  C  C26  1  0.24932200  0.83350600  0.41581600  1
  C  C27  1  0.38971600  0.97230800  0.83374100  1
  C  C28  1  0.28936400  0.16556800  0.12379600  1
  C  C29  1  0.52648600  0.10909000  0.83157600  1
  C  C30  1  0.38971600  0.55597500  0.41740800  1
  C  C31  1  0.52648600  0.69491000  0.41739700  1
  C  C32  1  0.50055400  0.33430300  0.16625200  1
  C  C33  1  0.33130200  0.50000000  0.83130200  1
  C  C34  1  0.66693700  0.83315400  0.83378300  1
  C  C35  1  0.54666000  0.65796100  0.88869900  1
  C  C36  1  0.77777400  0.61380100  0.58273700  1
  C  C37  1  0.44528500  0.85731000  0.16447200  1
  C  C38  1  0.63922800  0.47202800  0.58376500  1
  C  C39  1  0.44528500  0.28081200  0.58797500  1
  C  C40  1  0.77777400  0.19503700  0.16397200  1
  C  C41  1  0.63922800  0.05546300  0.16720000  1
  C  C42  1  0.58231000  0.16649400  0.41581600  1
  C  C43  1  0.91655200  0.33301000  0.58354100  1
  C  C44  1  0.58478900  0.00000000  0.58478900  1
  C  C45  1  0.05520600  0.63871800  0.83328500  1
  C  C46  1  0.86143300  0.02769200  0.41740800  1
  C  C47  1  0.86143300  0.44402500  0.83374100  1
  C  C48  1  0.05520600  0.22192200  0.41648800  1
  C  C49  1  0.72248700  0.30509000  0.83157600  1
  C  C50  1  0.72248700  0.89091000  0.41739700  1
  C  C51  1  0.95822800  0.83443200  0.12379600  1
  C  C52  1  0.83194900  0.66569700  0.16625200  1
  C  C53  1  0.00062900  0.16684600  0.83378300  1
  C  C54  1  0.84954100  0.00000000  0.84954100  1
  C  C55  1  0.23073800  0.34203900  0.88869900  1
  C  C56  1  0.96893500  0.80496300  0.58273700  1
  C  C57  1  0.11173700  0.52797200  0.16720000  1
  C  C58  1  0.96893500  0.38619900  0.16397200  1
  C  C59  1  0.11173700  0.94453700  0.58376500  1
  C  C60  1  0.91937300  0.50000000  0.41937300  1
  C  C61  1  0.25053100  0.66699000  0.58354100  1
  C  C62  1  0.19456700  0.36128200  0.41648800  1
  C  C63  1  0.19456700  0.77807800  0.83328500  1
  C  C64  1  0.16524300  0.00000000  0.16524300  1
