# generated using pymatgen
data_Cu(NiC2)2
_symmetry_space_group_name_H-M   'P 1'
_cell_length_a   4.47113100
_cell_length_b   9.59405800
_cell_length_c   12.71096500
_cell_angle_alpha   90.00000000
_cell_angle_beta   90.00000000
_cell_angle_gamma   90.00000000
_symmetry_Int_Tables_number   1
_chemical_formula_structural   Cu(NiC2)2
_chemical_formula_sum   'Cu8 Ni16 C32'
_cell_volume   545.25324259
_cell_formula_units_Z   8
loop_
 _symmetry_equiv_pos_site_id
 _symmetry_equiv_pos_as_xyz
  1  'x, y, z'
loop_
 _atom_site_type_symbol
 _atom_site_label
 _atom_site_symmetry_multiplicity
 _atom_site_fract_x
 _atom_site_fract_y
 _atom_site_fract_z
 _atom_site_occupancy
  Ni  Ni0  1  0.22852300  0.50651000  0.19260700  1
  Ni  Ni1  1  0.77147700  0.00651000  0.30739300  1
  Ni  Ni2  1  0.27147700  0.49349000  0.69260700  1
  Ni  Ni3  1  0.72852300  0.99349000  0.80739300  1
  Ni  Ni4  1  0.77147700  0.49349000  0.80739300  1
  Ni  Ni5  1  0.22852300  0.99349000  0.69260700  1
  Ni  Ni6  1  0.72852300  0.50651000  0.30739300  1
  Ni  Ni7  1  0.27147700  0.00651000  0.19260700  1
  Ni  Ni8  1  0.21418700  0.74007700  0.06569700  1
  Ni  Ni9  1  0.78581300  0.24007700  0.43430300  1
  Ni  Ni10  1  0.28581300  0.25992300  0.56569700  1
  Ni  Ni11  1  0.71418700  0.75992300  0.93430300  1
  Ni  Ni12  1  0.78581300  0.25992300  0.93430300  1
  Ni  Ni13  1  0.21418700  0.75992300  0.56569700  1
  Ni  Ni14  1  0.71418700  0.74007700  0.43430300  1
  Ni  Ni15  1  0.28581300  0.24007700  0.06569700  1
  Cu  Cu16  1  0.71919800  0.61427700  0.11309100  1
  Cu  Cu17  1  0.28080200  0.11427700  0.38690900  1
  Cu  Cu18  1  0.78080200  0.38572300  0.61309100  1
  Cu  Cu19  1  0.21919800  0.88572300  0.88690900  1
  Cu  Cu20  1  0.28080200  0.38572300  0.88690900  1
  Cu  Cu21  1  0.71919800  0.88572300  0.61309100  1
  Cu  Cu22  1  0.21919800  0.61427700  0.38690900  1
  Cu  Cu23  1  0.78080200  0.11427700  0.11309100  1
  C  C24  1  0.87099000  0.54039300  0.18921300  1
  C  C25  1  0.12901000  0.04039300  0.31078700  1
  C  C26  1  0.62901000  0.45960700  0.68921300  1
  C  C27  1  0.37099000  0.95960700  0.81078700  1
  C  C28  1  0.12901000  0.45960700  0.81078700  1
  C  C29  1  0.87099000  0.95960700  0.68921300  1
  C  C30  1  0.37099000  0.54039300  0.31078700  1
  C  C31  1  0.62901000  0.04039300  0.18921300  1
  C  C32  1  0.41057000  0.60902100  0.11003600  1
  C  C33  1  0.58943000  0.10902100  0.38996400  1
  C  C34  1  0.08943000  0.39097900  0.61003600  1
  C  C35  1  0.91057000  0.89097900  0.88996400  1
  C  C36  1  0.58943000  0.39097900  0.88996400  1
  C  C37  1  0.41057000  0.89097900  0.61003600  1
  C  C38  1  0.91057000  0.60902100  0.38996400  1
  C  C39  1  0.08943000  0.10902100  0.11003600  1
  C  C40  1  0.87069700  0.69400300  0.03989500  1
  C  C41  1  0.12930300  0.19400300  0.46010500  1
  C  C42  1  0.62930300  0.30599700  0.53989500  1
  C  C43  1  0.37069700  0.80599700  0.96010500  1
  C  C44  1  0.12930300  0.30599700  0.96010500  1
  C  C45  1  0.87069700  0.80599700  0.53989500  1
  C  C46  1  0.37069700  0.69400300  0.46010500  1
  C  C47  1  0.62930300  0.19400300  0.03989500  1
  C  C48  1  0.30513900  0.34864500  0.16172600  1
  C  C49  1  0.69486100  0.84864500  0.33827400  1
  C  C50  1  0.19486100  0.65135500  0.66172600  1
  C  C51  1  0.80513900  0.15135500  0.83827400  1
  C  C52  1  0.69486100  0.65135500  0.83827400  1
  C  C53  1  0.30513900  0.15135500  0.66172600  1
  C  C54  1  0.80513900  0.34864500  0.33827400  1
  C  C55  1  0.19486100  0.84864500  0.16172600  1
