# generated using pymatgen
data_CuNiC20
_symmetry_space_group_name_H-M   'P 1'
_cell_length_a   9.53451801
_cell_length_b   9.53451801
_cell_length_c   9.53451801
_cell_angle_alpha   133.33005665
_cell_angle_beta   133.33005665
_cell_angle_gamma   68.13628734
_symmetry_Int_Tables_number   1
_chemical_formula_structural   CuNiC20
_chemical_formula_sum   'Cu2 Ni2 C40'
_cell_volume   450.61379286
_cell_formula_units_Z   2
loop_
 _symmetry_equiv_pos_site_id
 _symmetry_equiv_pos_as_xyz
  1  'x, y, z'
loop_
 _atom_site_type_symbol
 _atom_site_label
 _atom_site_symmetry_multiplicity
 _atom_site_fract_x
 _atom_site_fract_y
 _atom_site_fract_z
 _atom_site_occupancy
  Ni  Ni0  1  0.75000000  0.25000000  0.50000000  1
  Ni  Ni1  1  0.00000000  0.00000000  0.00000000  1
  C  C2  1  0.18246700  0.37832200  0.19585600  1
  C  C3  1  0.12832200  0.43246700  0.69585600  1
  C  C4  1  0.73661100  0.43246700  0.30414400  1
  C  C5  1  0.18246700  0.98661100  0.80414400  1
  C  C6  1  0.56753300  0.87167800  0.30414400  1
  C  C7  1  0.62167800  0.81753300  0.80414400  1
  C  C8  1  0.01338900  0.81753300  0.19585600  1
  C  C9  1  0.56753300  0.26338900  0.69585600  1
  C  C10  1  0.38382500  0.44265700  0.27825900  1
  C  C11  1  0.16439800  0.44265700  0.05883200  1
  C  C12  1  0.19265700  0.63382500  0.77825900  1
  C  C13  1  0.85556600  0.63382500  0.44116800  1
  C  C14  1  0.38382500  0.10556600  0.94116800  1
  C  C15  1  0.16439800  0.10556600  0.72174100  1
  C  C16  1  0.19265700  0.41439800  0.55883200  1
  C  C17  1  0.85556600  0.41439800  0.22174100  1
  C  C18  1  0.36617500  0.80734300  0.22174100  1
  C  C19  1  0.58560200  0.80734300  0.44116800  1
  C  C20  1  0.55734300  0.61617500  0.72174100  1
  C  C21  1  0.89443400  0.61617500  0.05883200  1
  C  C22  1  0.36617500  0.14443400  0.55883200  1
  C  C23  1  0.58560200  0.14443400  0.77825900  1
  C  C24  1  0.55734300  0.83560200  0.94116800  1
  C  C25  1  0.89443400  0.83560200  0.27825900  1
  Cu  Cu26  1  0.25000000  0.75000000  0.50000000  1
  Cu  Cu27  1  0.50000000  0.50000000  0.00000000  1
  C  C28  1  0.24654200  0.47297700  0.22643500  1
  C  C29  1  0.22297700  0.49654200  0.72643500  1
  C  C30  1  0.77010700  0.49654200  0.27356500  1
  C  C31  1  0.24654200  0.02010700  0.77356500  1
  C  C32  1  0.50345800  0.77702300  0.27356500  1
  C  C33  1  0.52702300  0.75345800  0.77356500  1
  C  C34  1  0.97989300  0.75345800  0.22643500  1
  C  C35  1  0.50345800  0.22989300  0.72643500  1
  C  C36  1  0.61742700  0.31434400  0.30308300  1
  C  C37  1  0.01126100  0.31434400  0.69691700  1
  C  C38  1  0.06434400  0.86742700  0.80308300  1
  C  C39  1  0.06434400  0.26126100  0.19691700  1
  C  C40  1  0.13257300  0.93565600  0.19691700  1
  C  C41  1  0.73873900  0.93565600  0.80308300  1
  C  C42  1  0.68565600  0.38257300  0.69691700  1
  C  C43  1  0.68565600  0.98873900  0.30308300  1
