# generated using pymatgen
data_Cu4Ni3C7
_symmetry_space_group_name_H-M   'P 1'
_cell_length_a   13.76994077
_cell_length_b   13.76994077
_cell_length_c   13.76994077
_cell_angle_alpha   164.11955293
_cell_angle_beta   157.39021342
_cell_angle_gamma   27.75102488
_symmetry_Int_Tables_number   1
_chemical_formula_structural   Cu4Ni3C7
_chemical_formula_sum   'Cu4 Ni3 C7'
_cell_volume   274.55912757
_cell_formula_units_Z   1
loop_
 _symmetry_equiv_pos_site_id
 _symmetry_equiv_pos_as_xyz
  1  'x, y, z'
loop_
 _atom_site_type_symbol
 _atom_site_label
 _atom_site_symmetry_multiplicity
 _atom_site_fract_x
 _atom_site_fract_y
 _atom_site_fract_z
 _atom_site_occupancy
  Ni  Ni0  1  0.85519500  0.35519500  0.50000000  1
  Ni  Ni1  1  0.14480500  0.64480500  0.50000000  1
  Ni  Ni2  1  0.00000000  0.50000000  0.50000000  1
  Cu  Cu3  1  0.28493000  0.78493000  0.50000000  1
  Cu  Cu4  1  0.71507000  0.21507000  0.50000000  1
  Cu  Cu5  1  0.42820600  0.92820600  0.50000000  1
  Cu  Cu6  1  0.57179400  0.07179400  0.50000000  1
  C  C7  1  0.64041900  0.64041900  0.00000000  1
  C  C8  1  0.35958100  0.35958100  0.00000000  1
  C  C9  1  0.50000000  0.50000000  0.00000000  1
  C  C10  1  0.22237900  0.22237900  0.00000000  1
  C  C11  1  0.77762100  0.77762100  0.00000000  1
  C  C12  1  0.07367900  0.07367900  0.00000000  1
  C  C13  1  0.92632100  0.92632100  0.00000000  1
