# generated using pymatgen
data_Cu8NiC
_symmetry_space_group_name_H-M   'P 1'
_cell_length_a   9.72433800
_cell_length_b   7.42256700
_cell_length_c   11.90351825
_cell_angle_alpha   65.29706663
_cell_angle_beta   90.00000000
_cell_angle_gamma   90.00000000
_symmetry_Int_Tables_number   1
_chemical_formula_structural   Cu8NiC
_chemical_formula_sum   'Cu32 Ni4 C4'
_cell_volume   780.56329926
_cell_formula_units_Z   4
loop_
 _symmetry_equiv_pos_site_id
 _symmetry_equiv_pos_as_xyz
  1  'x, y, z'
loop_
 _atom_site_type_symbol
 _atom_site_label
 _atom_site_symmetry_multiplicity
 _atom_site_fract_x
 _atom_site_fract_y
 _atom_site_fract_z
 _atom_site_occupancy
  C  C0  1  0.11720600  0.71578100  0.86095200  1
  C  C1  1  0.61720600  0.28421900  0.63904800  1
  C  C2  1  0.88279400  0.28421900  0.13904800  1
  C  C3  1  0.38279400  0.71578100  0.36095200  1
  Ni  Ni4  1  0.85103400  0.75031500  0.02371300  1
  Ni  Ni5  1  0.35103400  0.24968500  0.47628700  1
  Ni  Ni6  1  0.14896600  0.24968500  0.97628700  1
  Ni  Ni7  1  0.64896600  0.75031500  0.52371300  1
  Cu  Cu8  1  0.18992400  0.46191100  0.96232900  1
  Cu  Cu9  1  0.68992400  0.53808900  0.53767100  1
  Cu  Cu10  1  0.81007600  0.53808900  0.03767100  1
  Cu  Cu11  1  0.31007600  0.46191100  0.46232900  1
  Cu  Cu12  1  0.99248500  0.78504400  0.95950700  1
  Cu  Cu13  1  0.49248500  0.21495600  0.54049300  1
  Cu  Cu14  1  0.00751500  0.21495600  0.04049300  1
  Cu  Cu15  1  0.50751500  0.78504400  0.45950700  1
  Cu  Cu16  1  0.75174400  0.89014900  0.94316800  1
  Cu  Cu17  1  0.25174400  0.10985100  0.55683200  1
  Cu  Cu18  1  0.24825600  0.10985100  0.05683200  1
  Cu  Cu19  1  0.74825600  0.89014900  0.44316800  1
  Cu  Cu20  1  0.24525600  0.87693300  0.80874100  1
  Cu  Cu21  1  0.74525600  0.12306700  0.69125900  1
  Cu  Cu22  1  0.75474400  0.12306700  0.19125900  1
  Cu  Cu23  1  0.25474400  0.87693300  0.30874100  1
  Cu  Cu24  1  0.04240100  0.70520800  0.74087600  1
  Cu  Cu25  1  0.54240100  0.29479200  0.75912400  1
  Cu  Cu26  1  0.95759900  0.29479200  0.25912400  1
  Cu  Cu27  1  0.45759900  0.70520800  0.24087600  1
  Cu  Cu28  1  0.86809800  0.75179400  0.14363900  1
  Cu  Cu29  1  0.36809800  0.24820600  0.35636100  1
  Cu  Cu30  1  0.13190200  0.24820600  0.85636100  1
  Cu  Cu31  1  0.63190200  0.75179400  0.64363900  1
  Cu  Cu32  1  0.47818800  0.71661700  0.97271500  1
  Cu  Cu33  1  0.97818800  0.28338300  0.52728500  1
  Cu  Cu34  1  0.52181200  0.28338300  0.02728500  1
  Cu  Cu35  1  0.02181200  0.71661700  0.47271500  1
  Cu  Cu36  1  0.51182900  0.68602300  0.88439900  1
  Cu  Cu37  1  0.01182900  0.31397700  0.61560100  1
  Cu  Cu38  1  0.48817100  0.31397700  0.11560100  1
  Cu  Cu39  1  0.98817100  0.68602300  0.38439900  1
