# generated using pymatgen
data_CuNiC11
_symmetry_space_group_name_H-M   'P 1'
_cell_length_a   6.51011500
_cell_length_b   7.53294959
_cell_length_c   12.31354462
_cell_angle_alpha   80.86691947
_cell_angle_beta   86.49807430
_cell_angle_gamma   72.61429271
_symmetry_Int_Tables_number   1
_chemical_formula_structural   CuNiC11
_chemical_formula_sum   'Cu2 Ni2 C22'
_cell_volume   568.90777285
_cell_formula_units_Z   2
loop_
 _symmetry_equiv_pos_site_id
 _symmetry_equiv_pos_as_xyz
  1  'x, y, z'
loop_
 _atom_site_type_symbol
 _atom_site_label
 _atom_site_symmetry_multiplicity
 _atom_site_fract_x
 _atom_site_fract_y
 _atom_site_fract_z
 _atom_site_occupancy
  Ni  Ni0  1  0.74895800  0.67613800  0.25412400  1
  Ni  Ni1  1  0.25104200  0.32386200  0.74587600  1
  Cu  Cu2  1  0.78487800  0.62743100  0.78866900  1
  Cu  Cu3  1  0.21512200  0.37256900  0.21133100  1
  C  C4  1  0.63642300  0.21307100  0.94766400  1
  C  C5  1  0.36357700  0.78692900  0.05233600  1
  C  C6  1  0.84033600  0.41001700  0.24975500  1
  C  C7  1  0.15966400  0.58998300  0.75024500  1
  C  C8  1  0.76022200  0.41587900  0.54481600  1
  C  C9  1  0.23977800  0.58412100  0.45518400  1
  C  C10  1  0.60818600  0.75147800  0.37752500  1
  C  C11  1  0.39181400  0.24852200  0.62247500  1
  C  C12  1  0.37440700  0.48503100  0.39846300  1
  C  C13  1  0.62559300  0.51496900  0.60153700  1
  C  C14  1  0.01971800  0.70874100  0.23873700  1
  C  C15  1  0.98028200  0.29125900  0.76126300  1
  C  C16  1  0.60654300  0.78111900  0.11891200  1
  C  C17  1  0.39345700  0.21888100  0.88108800  1
  C  C18  1  0.21867700  0.90092800  0.07777200  1
  C  C19  1  0.78132300  0.09907200  0.92222800  1
  C  C20  1  0.20583800  0.47888000  0.07011300  1
  C  C21  1  0.79416200  0.52112000  0.92988700  1
  C  C22  1  0.42032100  0.15083300  0.20621200  1
  C  C23  1  0.57967900  0.84916700  0.79378800  1
  C  C24  1  0.08355200  0.01264400  0.47862000  1
  C  C25  1  0.91644800  0.98735600  0.52138000  1
