# generated using pymatgen
data_CuNiC
_symmetry_space_group_name_H-M   'P 1'
_cell_length_a   3.30761800
_cell_length_b   5.25504500
_cell_length_c   7.23801800
_cell_angle_alpha   90.00000000
_cell_angle_beta   90.00000000
_cell_angle_gamma   90.00000000
_symmetry_Int_Tables_number   1
_chemical_formula_structural   CuNiC
_chemical_formula_sum   'Cu4 Ni4 C4'
_cell_volume   125.80892308
_cell_formula_units_Z   4
loop_
 _symmetry_equiv_pos_site_id
 _symmetry_equiv_pos_as_xyz
  1  'x, y, z'
loop_
 _atom_site_type_symbol
 _atom_site_label
 _atom_site_symmetry_multiplicity
 _atom_site_fract_x
 _atom_site_fract_y
 _atom_site_fract_z
 _atom_site_occupancy
  C  C0  1  0.75000000  0.63358000  0.65520900  1
  C  C1  1  0.25000000  0.13358000  0.84479100  1
  C  C2  1  0.75000000  0.86642000  0.15520900  1
  C  C3  1  0.25000000  0.36642000  0.34479100  1
  Ni  Ni4  1  0.25000000  0.39684200  0.62587000  1
  Ni  Ni5  1  0.75000000  0.89684200  0.87413000  1
  Ni  Ni6  1  0.25000000  0.10315800  0.12587000  1
  Ni  Ni7  1  0.75000000  0.60315800  0.37413000  1
  Cu  Cu8  1  0.25000000  0.88169600  0.61548600  1
  Cu  Cu9  1  0.75000000  0.38169600  0.88451400  1
  Cu  Cu10  1  0.25000000  0.61830400  0.11548600  1
  Cu  Cu11  1  0.75000000  0.11830400  0.38451400  1
