# generated using pymatgen
data_Cu3Ni2C23
_symmetry_space_group_name_H-M   'P 1'
_cell_length_a   6.24299700
_cell_length_b   6.26048580
_cell_length_c   9.97393459
_cell_angle_alpha   90.48222187
_cell_angle_beta   92.36241523
_cell_angle_gamma   119.22083998
_symmetry_Int_Tables_number   1
_chemical_formula_structural   Cu3Ni2C23
_chemical_formula_sum   'Cu3 Ni2 C23'
_cell_volume   339.74482066
_cell_formula_units_Z   1
loop_
 _symmetry_equiv_pos_site_id
 _symmetry_equiv_pos_as_xyz
  1  'x, y, z'
loop_
 _atom_site_type_symbol
 _atom_site_label
 _atom_site_symmetry_multiplicity
 _atom_site_fract_x
 _atom_site_fract_y
 _atom_site_fract_z
 _atom_site_occupancy
  C  C0  1  0.34869800  0.65558900  0.87855800  1
  C  C1  1  0.98423500  0.97623000  0.99277100  1
  C  C2  1  0.00664100  0.99901800  0.50537500  1
  C  C3  1  0.66483300  0.31020600  0.39690000  1
  Ni  Ni4  1  0.31316400  0.67965200  0.51163900  1
  Ni  Ni5  1  0.69630100  0.36449500  0.97479400  1
  Cu  Cu6  1  0.14604800  0.82262800  0.21327200  1
  Cu  Cu7  1  0.33843700  0.16986100  0.71890700  1
  Cu  Cu8  1  0.83823700  0.67171900  0.71496500  1
  C  C9  1  0.15132700  0.32679000  0.21293700  1
  C  C10  1  0.63442600  0.81702300  0.21922000  1
  C  C11  1  0.84009000  0.17816200  0.71435500  1
  C  C12  1  0.14034600  0.31422600  0.60816400  1
  C  C13  1  0.47559000  0.50358400  0.32834000  1
  C  C14  1  0.30830500  0.63205900  0.10419000  1
  C  C15  1  0.02446100  0.03452300  0.32252200  1
  C  C16  1  0.00751000  0.02973300  0.81517100  1
  C  C17  1  0.68786200  0.87234100  0.60560500  1
  C  C18  1  0.03007900  0.48723200  0.32898100  1
  C  C19  1  0.47771300  0.95230600  0.33356900  1
  C  C20  1  0.85686700  0.19426800  0.08904900  1
  C  C21  1  0.16348100  0.86112800  0.61220000  1
  C  C22  1  0.55597900  0.05686700  0.83994600  1
  C  C23  1  0.98756100  0.47406600  0.82761200  1
  C  C24  1  0.66494000  0.31313300  0.60615700  1
  C  C25  1  0.28634100  0.16602800  0.10738300  1
  C  C26  1  0.53351800  0.47524100  0.84037500  1
  C  C27  1  0.83671100  0.66159300  0.08488300  1
