# generated using pymatgen
data_CuNiC10
_symmetry_space_group_name_H-M   'P 1'
_cell_length_a   8.61546924
_cell_length_b   8.61416308
_cell_length_c   9.18620550
_cell_angle_alpha   88.94002999
_cell_angle_beta   88.93793992
_cell_angle_gamma   103.39736772
_symmetry_Int_Tables_number   1
_chemical_formula_structural   CuNiC10
_chemical_formula_sum   'Cu4 Ni4 C40'
_cell_volume   662.90580030
_cell_formula_units_Z   4
loop_
 _symmetry_equiv_pos_site_id
 _symmetry_equiv_pos_as_xyz
  1  'x, y, z'
loop_
 _atom_site_type_symbol
 _atom_site_label
 _atom_site_symmetry_multiplicity
 _atom_site_fract_x
 _atom_site_fract_y
 _atom_site_fract_z
 _atom_site_occupancy
  C  C0  1  0.61432200  0.61811000  0.20875500  1
  C  C1  1  0.11431500  0.11809700  0.20874200  1
  C  C2  1  0.36815700  0.86439600  0.20877500  1
  C  C3  1  0.86817100  0.36440000  0.20879600  1
  C  C4  1  0.63184000  0.13559800  0.79122000  1
  C  C5  1  0.13183700  0.63560500  0.79121100  1
  C  C6  1  0.38567200  0.38188900  0.79123800  1
  C  C7  1  0.88568300  0.88190200  0.79125600  1
  C  C8  1  0.26536600  0.51538300  0.35725500  1
  C  C9  1  0.73463300  0.48461600  0.64274500  1
  C  C10  1  0.76536500  0.01538200  0.35726800  1
  C  C11  1  0.23463900  0.98462000  0.64272800  1
  Ni  Ni12  1  0.73704300  0.98703800  0.08246200  1
  Ni  Ni13  1  0.23705200  0.48703500  0.08244900  1
  Ni  Ni14  1  0.26295300  0.01296100  0.91753400  1
  Ni  Ni15  1  0.76294700  0.51296300  0.91755600  1
  Cu  Cu16  1  0.48614800  0.23609900  0.41900900  1
  Cu  Cu17  1  0.98613400  0.73607500  0.41901600  1
  Cu  Cu18  1  0.51385500  0.76390200  0.58099100  1
  Cu  Cu19  1  0.01386500  0.26392400  0.58098700  1
  C  C20  1  0.27736500  0.02737600  0.05364400  1
  C  C21  1  0.77734300  0.52736200  0.05367200  1
  C  C22  1  0.72264000  0.97262900  0.94635000  1
  C  C23  1  0.22265800  0.47263700  0.94633400  1
  C  C24  1  0.84772700  0.09770500  0.14194900  1
  C  C25  1  0.34773300  0.59771000  0.14193100  1
  C  C26  1  0.15227000  0.90229500  0.85804900  1
  C  C27  1  0.65226300  0.40229000  0.85807500  1
  C  C28  1  0.64167500  0.89168800  0.17754800  1
  C  C29  1  0.14168100  0.39168600  0.17753300  1
  C  C30  1  0.35832300  0.10831100  0.82244600  1
  C  C31  1  0.85831800  0.60831300  0.82247200  1
  C  C32  1  0.46067600  0.71069000  0.43180300  1
  C  C33  1  0.96067300  0.21070900  0.43180700  1
  C  C34  1  0.53932300  0.28930800  0.56819900  1
  C  C35  1  0.03933000  0.78929500  0.56819300  1
  C  C36  1  0.34570700  0.09549800  0.43344800  1
  C  C37  1  0.84569200  0.59547600  0.43348300  1
  C  C38  1  0.65429800  0.90450200  0.56655000  1
  C  C39  1  0.15430800  0.40452300  0.56652000  1
  C  C40  1  0.44099200  0.36858000  0.33674300  1
  C  C41  1  0.94097600  0.86856100  0.33676100  1
  C  C42  1  0.61868000  0.19111300  0.33669700  1
  C  C43  1  0.11866200  0.69109300  0.33669000  1
  C  C44  1  0.38132400  0.80889100  0.66330100  1
  C  C45  1  0.88133600  0.30890400  0.66331200  1
  C  C46  1  0.55900900  0.63142100  0.66325800  1
  C  C47  1  0.05902400  0.13143600  0.66323900  1
