# generated using pymatgen
data_Cu2NiC6
_symmetry_space_group_name_H-M   'P 1'
_cell_length_a   6.95058250
_cell_length_b   6.94638158
_cell_length_c   9.95761100
_cell_angle_alpha   90.00000407
_cell_angle_beta   89.99998769
_cell_angle_gamma   89.98910249
_symmetry_Int_Tables_number   1
_chemical_formula_structural   Cu2NiC6
_chemical_formula_sum   'Cu8 Ni4 C24'
_cell_volume   480.76737414
_cell_formula_units_Z   4
loop_
 _symmetry_equiv_pos_site_id
 _symmetry_equiv_pos_as_xyz
  1  'x, y, z'
loop_
 _atom_site_type_symbol
 _atom_site_label
 _atom_site_symmetry_multiplicity
 _atom_site_fract_x
 _atom_site_fract_y
 _atom_site_fract_z
 _atom_site_occupancy
  Ni  Ni0  1  0.50000000  0.50000000  0.00000000  1
  Ni  Ni1  1  0.00000000  0.50000000  0.50000000  1
  Ni  Ni2  1  0.00000000  0.00000000  0.00000000  1
  Ni  Ni3  1  0.50000000  0.00000000  0.50000000  1
  Cu  Cu4  1  0.50000100  0.50000000  0.33284100  1
  Cu  Cu5  1  0.00000100  0.00000000  0.33283800  1
  Cu  Cu6  1  0.00000000  0.00000000  0.66716300  1
  Cu  Cu7  1  0.50000000  0.50000000  0.66715900  1
  Cu  Cu8  1  0.50000100  0.00000000  0.16678600  1
  Cu  Cu9  1  0.00000100  0.50000000  0.16678100  1
  Cu  Cu10  1  0.49999900  0.00000000  0.83321400  1
  Cu  Cu11  1  0.99999900  0.50000000  0.83321900  1
  C  C12  1  0.50000200  0.29789900  0.50000000  1
  C  C13  1  0.00002700  0.79789900  0.50000000  1
  C  C14  1  0.29803700  0.00000500  0.00000000  1
  C  C15  1  0.79801900  0.50000700  0.00000000  1
  C  C16  1  0.70196300  0.99999500  0.00000000  1
  C  C17  1  0.20198100  0.49999300  0.00000000  1
  C  C18  1  0.49999900  0.70210100  0.50000000  1
  C  C19  1  0.99997400  0.20210100  0.50000000  1
  C  C20  1  0.49999700  0.31142200  0.16107100  1
  C  C21  1  0.99999200  0.81139800  0.16107600  1
  C  C22  1  0.49999900  0.31142200  0.83892900  1
  C  C23  1  0.99999400  0.81139800  0.83892400  1
  C  C24  1  0.31123500  0.99999400  0.33847900  1
  C  C25  1  0.81124000  0.50001900  0.33847500  1
  C  C26  1  0.31123500  0.99999500  0.66152100  1
  C  C27  1  0.81123900  0.50001900  0.66152400  1
  C  C28  1  0.68876600  0.00000500  0.33847900  1
  C  C29  1  0.18876100  0.49998000  0.33847500  1
  C  C30  1  0.68876500  0.00000500  0.66152100  1
  C  C31  1  0.18876100  0.49998100  0.66152500  1
  C  C32  1  0.50000100  0.68857800  0.16107100  1
  C  C33  1  0.00000600  0.18860200  0.16107600  1
  C  C34  1  0.50000400  0.68857800  0.83892900  1
  C  C35  1  0.00000900  0.18860200  0.83892400  1
