# generated using pymatgen
data_Cu(NiC)2
_symmetry_space_group_name_H-M   'P 1'
_cell_length_a   8.69246400
_cell_length_b   8.73482917
_cell_length_c   8.74401619
_cell_angle_alpha   109.61262327
_cell_angle_beta   109.39131429
_cell_angle_gamma   109.22488194
_symmetry_Int_Tables_number   1
_chemical_formula_structural   Cu(NiC)2
_chemical_formula_sum   'Cu8 Ni16 C16'
_cell_volume   512.23517059
_cell_formula_units_Z   8
loop_
 _symmetry_equiv_pos_site_id
 _symmetry_equiv_pos_as_xyz
  1  'x, y, z'
loop_
 _atom_site_type_symbol
 _atom_site_label
 _atom_site_symmetry_multiplicity
 _atom_site_fract_x
 _atom_site_fract_y
 _atom_site_fract_z
 _atom_site_occupancy
  C  C0  1  0.99969400  0.50034200  0.99738000  1
  C  C1  1  0.53792600  0.75108000  0.28559200  1
  C  C2  1  0.24748200  0.71355900  0.46315800  1
  C  C3  1  0.25181500  0.21603500  0.96583400  1
  C  C4  1  0.95651000  0.24326100  0.21539700  1
  C  C5  1  0.22633300  0.96509300  0.25765800  1
  C  C6  1  0.49916400  0.00072100  0.00033600  1
  C  C7  1  0.49975600  0.48965400  0.49705700  1
  C  C8  1  0.78097400  0.03706700  0.74914400  1
  C  C9  1  0.71148600  0.47285700  0.26160300  1
  C  C10  1  0.99895500  0.99923000  0.51001900  1
  C  C11  1  0.28736400  0.52803300  0.73653600  1
  C  C12  1  0.04432400  0.76304700  0.78560500  1
  C  C13  1  0.74720600  0.28366100  0.53405100  1
  C  C14  1  0.74528800  0.77999700  0.02983000  1
  C  C15  1  0.46112000  0.24761400  0.70834500  1
  Ni  Ni16  1  0.27068400  0.73267300  0.22209300  1
  Ni  Ni17  1  0.22300700  0.44969600  0.45954300  1
  Ni  Ni18  1  0.26254000  0.77214600  0.72824000  1
  Ni  Ni19  1  0.77603700  0.72602200  0.25650700  1
  Ni  Ni20  1  0.27438500  0.01302900  0.04779800  1
  Ni  Ni21  1  0.45378600  0.46530500  0.22753900  1
  Ni  Ni22  1  0.98735600  0.95887500  0.73116500  1
  Ni  Ni23  1  0.23719000  0.96440800  0.51079900  1
  Ni  Ni24  1  0.22513300  0.27534300  0.74067200  1
  Ni  Ni25  1  0.54687100  0.53889700  0.77373900  1
  Ni  Ni26  1  0.46760700  0.22688800  0.45581000  1
  Ni  Ni27  1  0.72772700  0.98558500  0.95292400  1
  Ni  Ni28  1  0.74102000  0.22940400  0.27157300  1
  Ni  Ni29  1  0.77648900  0.54910900  0.53823100  1
  Ni  Ni30  1  0.75617400  0.03116700  0.48634700  1
  Ni  Ni31  1  0.73188100  0.26885400  0.78272500  1
  Cu  Cu32  1  0.95486400  0.72483400  0.99067600  1
  Cu  Cu33  1  0.96428800  0.50687500  0.23113500  1
  Cu  Cu34  1  0.49185400  0.76611700  0.03784600  1
  Cu  Cu35  1  0.04559300  0.27780800  0.01155500  1
  Cu  Cu36  1  0.01336500  0.04315900  0.26608100  1
  Cu  Cu37  1  0.53113200  0.77511500  0.54515000  1
  Cu  Cu38  1  0.03841700  0.49408500  0.77114300  1
  Cu  Cu39  1  0.50720100  0.23335400  0.96316100  1
