# generated using pymatgen
data_Cu14Ni2C9
_symmetry_space_group_name_H-M   'P 1'
_cell_length_a   8.25897500
_cell_length_b   8.27116783
_cell_length_c   8.42847031
_cell_angle_alpha   93.25479016
_cell_angle_beta   92.92446937
_cell_angle_gamma   104.62174827
_symmetry_Int_Tables_number   1
_chemical_formula_structural   Cu14Ni2C9
_chemical_formula_sum   'Cu28 Ni4 C18'
_cell_volume   554.94060538
_cell_formula_units_Z   2
loop_
 _symmetry_equiv_pos_site_id
 _symmetry_equiv_pos_as_xyz
  1  'x, y, z'
loop_
 _atom_site_type_symbol
 _atom_site_label
 _atom_site_symmetry_multiplicity
 _atom_site_fract_x
 _atom_site_fract_y
 _atom_site_fract_z
 _atom_site_occupancy
  C  C0  1  0.73970700  0.49504900  0.09769500  1
  C  C1  1  0.23609800  0.98733500  0.09883100  1
  C  C2  1  0.59897500  0.12383700  0.27308300  1
  C  C3  1  0.38288500  0.36499500  0.27663300  1
  C  C4  1  0.11035400  0.64446600  0.27406700  1
  C  C5  1  0.40291700  0.89062400  0.72927900  1
  C  C6  1  0.61382100  0.63761300  0.72301200  1
  C  C7  1  0.10744000  0.14909600  0.72363700  1
  C  C8  1  0.26534700  0.50869400  0.89558100  1
  C  C9  1  0.74652000  0.01624200  0.91442800  1
  C  C10  1  0.48653400  0.73393000  0.32621400  1
  C  C11  1  0.97053500  0.21739100  0.33771500  1
  C  C12  1  0.01991700  0.76848700  0.65925600  1
  C  C13  1  0.53508200  0.27643900  0.67344900  1
  C  C14  1  0.76280300  0.51071800  0.41354800  1
  C  C15  1  0.26212200  0.01216000  0.41631400  1
  C  C16  1  0.73784100  0.98599000  0.58778700  1
  C  C17  1  0.23926200  0.48564900  0.58141000  1
  Ni  Ni18  1  0.51490600  0.78178800  0.02865600  1
  Ni  Ni19  1  0.03772000  0.27353200  0.04989200  1
  Ni  Ni20  1  0.97659700  0.71997500  0.95150300  1
  Ni  Ni21  1  0.46870000  0.22444800  0.96973000  1
  Cu  Cu22  1  0.40354400  0.65113700  0.06565200  1
  Cu  Cu23  1  0.90880100  0.15353200  0.08154600  1
  Cu  Cu24  1  0.95708100  0.66474200  0.08836100  1
  Cu  Cu25  1  0.59435400  0.89136100  0.14162800  1
  Cu  Cu26  1  0.43236700  0.19505600  0.11610200  1
  Cu  Cu27  1  0.11565700  0.36703000  0.17711300  1
  Cu  Cu28  1  0.63584500  0.56140000  0.29664300  1
  Cu  Cu29  1  0.80497500  0.36173000  0.31554200  1
  Cu  Cu30  1  0.29356500  0.86554800  0.30896300  1
  Cu  Cu31  1  0.12459000  0.06794000  0.31686300  1
  Cu  Cu32  1  0.92948900  0.65362300  0.44786600  1
  Cu  Cu33  1  0.77915800  0.05790200  0.42405200  1
  Cu  Cu34  1  0.30437700  0.54513900  0.42114900  1
  Cu  Cu35  1  0.42231200  0.15839600  0.44403100  1
  Cu  Cu36  1  0.59492900  0.82221200  0.55902600  1
  Cu  Cu37  1  0.68933100  0.46643200  0.57243800  1
  Cu  Cu38  1  0.20830500  0.95520000  0.58379600  1
  Cu  Cu39  1  0.09126700  0.32364100  0.54648600  1
  Cu  Cu40  1  0.89663500  0.95103200  0.67434800  1
  Cu  Cu41  1  0.18383200  0.62533700  0.68200300  1
  Cu  Cu42  1  0.68283600  0.10669100  0.70709300  1
  Cu  Cu43  1  0.37407300  0.44490500  0.69609200  1
  Cu  Cu44  1  0.86955800  0.65601800  0.82920000  1
  Cu  Cu45  1  0.55074100  0.80432200  0.88215600  1
  Cu  Cu46  1  0.38214300  0.12612800  0.85216200  1
  Cu  Cu47  1  0.08812500  0.29806700  0.91186400  1
  Cu  Cu48  1  0.58908000  0.34947300  0.93886100  1
  Cu  Cu49  1  0.10495800  0.83953600  0.91724700  1
