# generated using pymatgen
data_Cu(NiC5)3
_symmetry_space_group_name_H-M   'P 1'
_cell_length_a   5.96841100
_cell_length_b   13.31601300
_cell_length_c   13.77292300
_cell_angle_alpha   90.00000000
_cell_angle_beta   90.00000000
_cell_angle_gamma   90.00000000
_symmetry_Int_Tables_number   1
_chemical_formula_structural   Cu(NiC5)3
_chemical_formula_sum   'Cu4 Ni12 C60'
_cell_volume   1094.60909437
_cell_formula_units_Z   4
loop_
 _symmetry_equiv_pos_site_id
 _symmetry_equiv_pos_as_xyz
  1  'x, y, z'
loop_
 _atom_site_type_symbol
 _atom_site_label
 _atom_site_symmetry_multiplicity
 _atom_site_fract_x
 _atom_site_fract_y
 _atom_site_fract_z
 _atom_site_occupancy
  Ni  Ni0  1  0.42381500  0.12803600  0.75000000  1
  Ni  Ni1  1  0.08566800  0.13758100  0.51610700  1
  Ni  Ni2  1  0.08566800  0.13758100  0.98389300  1
  Ni  Ni3  1  0.58566800  0.36241900  0.48389300  1
  Ni  Ni4  1  0.58566800  0.36241900  0.01610700  1
  Ni  Ni5  1  0.92381500  0.37196400  0.25000000  1
  Ni  Ni6  1  0.07618500  0.62803600  0.75000000  1
  Ni  Ni7  1  0.41433200  0.63758100  0.51610700  1
  Ni  Ni8  1  0.41433200  0.63758100  0.98389300  1
  Ni  Ni9  1  0.91433200  0.86241900  0.01610700  1
  Ni  Ni10  1  0.91433200  0.86241900  0.48389300  1
  Ni  Ni11  1  0.57618500  0.87196400  0.25000000  1
  Cu  Cu12  1  0.08634900  0.04066500  0.25000000  1
  Cu  Cu13  1  0.58634900  0.45933500  0.75000000  1
  Cu  Cu14  1  0.41365100  0.54066500  0.25000000  1
  Cu  Cu15  1  0.91365100  0.95933500  0.75000000  1
  C  C16  1  0.58730300  0.09793800  0.10403800  1
  C  C17  1  0.58730300  0.09793800  0.39596200  1
  C  C18  1  0.91923200  0.24804500  0.75000000  1
  C  C19  1  0.41923200  0.25195500  0.25000000  1
  C  C20  1  0.08730300  0.40206200  0.60403800  1
  C  C21  1  0.08730300  0.40206200  0.89596200  1
  C  C22  1  0.91269700  0.59793800  0.10403800  1
  C  C23  1  0.91269700  0.59793800  0.39596200  1
  C  C24  1  0.58076800  0.74804500  0.75000000  1
  C  C25  1  0.08076800  0.75195500  0.25000000  1
  C  C26  1  0.41269700  0.90206200  0.60403800  1
  C  C27  1  0.41269700  0.90206200  0.89596200  1
  C  C28  1  0.61017300  0.07069300  0.55958500  1
  C  C29  1  0.61017300  0.07069300  0.94041500  1
  C  C30  1  0.11017300  0.42930700  0.05958500  1
  C  C31  1  0.11017300  0.42930700  0.44041500  1
  C  C32  1  0.88982700  0.57069300  0.94041500  1
  C  C33  1  0.88982700  0.57069300  0.55958500  1
  C  C34  1  0.38982700  0.92930700  0.05958500  1
  C  C35  1  0.38982700  0.92930700  0.44041500  1
  C  C36  1  0.36900500  0.02904400  0.13059300  1
  C  C37  1  0.36900500  0.02904400  0.36940700  1
  C  C38  1  0.82329900  0.04418200  0.13023500  1
  C  C39  1  0.82329900  0.04418200  0.36976500  1
  C  C40  1  0.93441200  0.12734400  0.75000000  1
  C  C41  1  0.58509000  0.13000800  0.51457000  1
  C  C42  1  0.58509000  0.13000800  0.98543000  1
  C  C43  1  0.17032900  0.20518300  0.25000000  1
  C  C44  1  0.56591300  0.21170500  0.15355100  1
  C  C45  1  0.56591300  0.21170500  0.34644900  1
  C  C46  1  0.06591300  0.28829500  0.65355100  1
  C  C47  1  0.06591300  0.28829500  0.84644900  1
  C  C48  1  0.67032900  0.29481700  0.75000000  1
  C  C49  1  0.08509000  0.36999200  0.48543000  1
  C  C50  1  0.08509000  0.36999200  0.01457000  1
  C  C51  1  0.43441200  0.37265600  0.25000000  1
  C  C52  1  0.32329900  0.45581800  0.63023500  1
  C  C53  1  0.32329900  0.45581800  0.86976500  1
  C  C54  1  0.86900500  0.47095600  0.63059300  1
  C  C55  1  0.86900500  0.47095600  0.86940700  1
  C  C56  1  0.13099500  0.52904400  0.13059300  1
  C  C57  1  0.13099500  0.52904400  0.36940700  1
  C  C58  1  0.67670100  0.54418200  0.13023500  1
  C  C59  1  0.67670100  0.54418200  0.36976500  1
  C  C60  1  0.56558800  0.62734400  0.75000000  1
  C  C61  1  0.91491000  0.63000800  0.98543000  1
  C  C62  1  0.91491000  0.63000800  0.51457000  1
  C  C63  1  0.32967100  0.70518300  0.25000000  1
  C  C64  1  0.93408700  0.71170500  0.15355100  1
  C  C65  1  0.93408700  0.71170500  0.34644900  1
  C  C66  1  0.43408700  0.78829500  0.65355100  1
  C  C67  1  0.43408700  0.78829500  0.84644900  1
  C  C68  1  0.82967100  0.79481700  0.75000000  1
  C  C69  1  0.41491000  0.86999200  0.01457000  1
  C  C70  1  0.41491000  0.86999200  0.48543000  1
  C  C71  1  0.06558800  0.87265600  0.25000000  1
  C  C72  1  0.17670100  0.95581800  0.63023500  1
  C  C73  1  0.17670100  0.95581800  0.86976500  1
  C  C74  1  0.63099500  0.97095600  0.63059300  1
  C  C75  1  0.63099500  0.97095600  0.86940700  1
