# generated using pymatgen
data_Cu4(Ni4C3)3
_symmetry_space_group_name_H-M   'P 1'
_cell_length_a   6.22155300
_cell_length_b   11.83733100
_cell_length_c   13.72017400
_cell_angle_alpha   90.00000000
_cell_angle_beta   90.00000000
_cell_angle_gamma   90.00000000
_symmetry_Int_Tables_number   1
_chemical_formula_structural   Cu4(Ni4C3)3
_chemical_formula_sum   'Cu16 Ni48 C36'
_cell_volume   1010.44392222
_cell_formula_units_Z   4
loop_
 _symmetry_equiv_pos_site_id
 _symmetry_equiv_pos_as_xyz
  1  'x, y, z'
loop_
 _atom_site_type_symbol
 _atom_site_label
 _atom_site_symmetry_multiplicity
 _atom_site_fract_x
 _atom_site_fract_y
 _atom_site_fract_z
 _atom_site_occupancy
  C  C0  1  0.25000000  0.65342500  0.25000000  1
  C  C1  1  0.75000000  0.84657500  0.75000000  1
  C  C2  1  0.75000000  0.34657500  0.75000000  1
  C  C3  1  0.25000000  0.15342500  0.25000000  1
  Ni  Ni4  1  0.91937300  0.76041800  0.14479700  1
  Ni  Ni5  1  0.58062700  0.76041800  0.35520300  1
  Ni  Ni6  1  0.41937300  0.73958200  0.85520300  1
  Ni  Ni7  1  0.08062700  0.73958200  0.64479700  1
  Ni  Ni8  1  0.08062700  0.23958200  0.85520300  1
  Ni  Ni9  1  0.41937300  0.23958200  0.64479700  1
  Ni  Ni10  1  0.58062700  0.26041800  0.14479700  1
  Ni  Ni11  1  0.91937300  0.26041800  0.35520300  1
  Ni  Ni12  1  0.47043900  0.91900200  0.56941500  1
  Ni  Ni13  1  0.02956100  0.91900200  0.93058500  1
  Ni  Ni14  1  0.97043900  0.58099800  0.43058500  1
  Ni  Ni15  1  0.52956100  0.58099800  0.06941500  1
  Ni  Ni16  1  0.52956100  0.08099800  0.43058500  1
  Ni  Ni17  1  0.97043900  0.08099800  0.06941500  1
  Ni  Ni18  1  0.02956100  0.41900200  0.56941500  1
  Ni  Ni19  1  0.47043900  0.41900200  0.93058500  1
  Ni  Ni20  1  0.61993500  0.40991200  0.41963800  1
  Ni  Ni21  1  0.88006500  0.40991200  0.08036200  1
  Ni  Ni22  1  0.11993500  0.09008800  0.58036200  1
  Ni  Ni23  1  0.38006500  0.09008800  0.91963800  1
  Ni  Ni24  1  0.38006500  0.59008800  0.58036200  1
  Ni  Ni25  1  0.11993500  0.59008800  0.91963800  1
  Ni  Ni26  1  0.88006500  0.90991200  0.41963800  1
  Ni  Ni27  1  0.61993500  0.90991200  0.08036200  1
  Ni  Ni28  1  0.41176900  0.86746100  0.14763500  1
  Ni  Ni29  1  0.08823100  0.86746100  0.35236500  1
  Ni  Ni30  1  0.91176900  0.63253900  0.85236500  1
  Ni  Ni31  1  0.58823100  0.63253900  0.64763500  1
  Ni  Ni32  1  0.58823100  0.13253900  0.85236500  1
  Ni  Ni33  1  0.91176900  0.13253900  0.64763500  1
  Ni  Ni34  1  0.08823100  0.36746100  0.14763500  1
  Ni  Ni35  1  0.41176900  0.36746100  0.35236500  1
  Ni  Ni36  1  0.87433600  0.03016100  0.56528300  1
  Ni  Ni37  1  0.62566400  0.03016100  0.93471700  1
  Ni  Ni38  1  0.37433600  0.46983900  0.43471700  1
  Ni  Ni39  1  0.12566400  0.46983900  0.06528300  1
  Ni  Ni40  1  0.12566400  0.96983900  0.43471700  1
  Ni  Ni41  1  0.37433600  0.96983900  0.06528300  1
  Ni  Ni42  1  0.62566400  0.53016100  0.56528300  1
  Ni  Ni43  1  0.87433600  0.53016100  0.93471700  1
  Ni  Ni44  1  0.08192300  0.83643300  0.47306400  1
  Ni  Ni45  1  0.41807700  0.83643300  0.02693600  1
  Ni  Ni46  1  0.58192300  0.66356700  0.52693600  1
  Ni  Ni47  1  0.91807700  0.66356700  0.97306400  1
  Ni  Ni48  1  0.91807700  0.16356700  0.52693600  1
  Ni  Ni49  1  0.58192300  0.16356700  0.97306400  1
  Ni  Ni50  1  0.41807700  0.33643300  0.47306400  1
  Ni  Ni51  1  0.08192300  0.33643300  0.02693600  1
  Cu  Cu52  1  0.58008400  0.01592100  0.47638000  1
  Cu  Cu53  1  0.91991600  0.01592100  0.02362000  1
  Cu  Cu54  1  0.08008400  0.48407900  0.52362000  1
  Cu  Cu55  1  0.41991600  0.48407900  0.97638000  1
  Cu  Cu56  1  0.41991600  0.98407900  0.52362000  1
  Cu  Cu57  1  0.08008400  0.98407900  0.97638000  1
  Cu  Cu58  1  0.91991600  0.51592100  0.47638000  1
  Cu  Cu59  1  0.58008400  0.51592100  0.02362000  1
  Cu  Cu60  1  0.04363100  0.89616400  0.42030300  1
  Cu  Cu61  1  0.45636900  0.89616400  0.07969700  1
  Cu  Cu62  1  0.54363100  0.60383600  0.57969700  1
  Cu  Cu63  1  0.95636900  0.60383600  0.92030300  1
  Cu  Cu64  1  0.95636900  0.10383600  0.57969700  1
  Cu  Cu65  1  0.54363100  0.10383600  0.92030300  1
  Cu  Cu66  1  0.45636900  0.39616400  0.42030300  1
  Cu  Cu67  1  0.04363100  0.39616400  0.07969700  1
  C  C68  1  0.21102200  0.66186400  0.38133400  1
  C  C69  1  0.28897800  0.66186400  0.11866600  1
  C  C70  1  0.71102200  0.83813600  0.61866600  1
  C  C71  1  0.78897800  0.83813600  0.88133400  1
  C  C72  1  0.78897800  0.33813600  0.61866600  1
  C  C73  1  0.71102200  0.33813600  0.88133400  1
  C  C74  1  0.28897800  0.16186400  0.38133400  1
  C  C75  1  0.21102200  0.16186400  0.11866600  1
  C  C76  1  0.46021100  0.55067900  0.26229900  1
  C  C77  1  0.03978900  0.55067900  0.23770100  1
  C  C78  1  0.96021100  0.94932100  0.73770100  1
  C  C79  1  0.53978900  0.94932100  0.76229900  1
  C  C80  1  0.53978900  0.44932100  0.73770100  1
  C  C81  1  0.96021100  0.44932100  0.76229900  1
  C  C82  1  0.03978900  0.05067900  0.26229900  1
  C  C83  1  0.46021100  0.05067900  0.23770100  1
  C  C84  1  0.45201200  0.77295600  0.26605300  1
  C  C85  1  0.04798800  0.77295600  0.23394700  1
  C  C86  1  0.95201200  0.72704400  0.73394700  1
  C  C87  1  0.54798800  0.72704400  0.76605300  1
  C  C88  1  0.54798800  0.22704400  0.73394700  1
  C  C89  1  0.95201200  0.22704400  0.76605300  1
  C  C90  1  0.04798800  0.27295600  0.26605300  1
  C  C91  1  0.45201200  0.27295600  0.23394700  1
  C  C92  1  0.16233900  0.74581000  0.58299700  1
  C  C93  1  0.33766100  0.74581000  0.91700300  1
  C  C94  1  0.66233900  0.75419000  0.41700300  1
  C  C95  1  0.83766100  0.75419000  0.08299700  1
  C  C96  1  0.83766100  0.25419000  0.41700300  1
  C  C97  1  0.66233900  0.25419000  0.08299700  1
  C  C98  1  0.33766100  0.24581000  0.58299700  1
  C  C99  1  0.16233900  0.24581000  0.91700300  1
