# generated using pymatgen
data_Cu4Ni2C
_symmetry_space_group_name_H-M   'P 1'
_cell_length_a   13.74557900
_cell_length_b   13.74557900
_cell_length_c   13.41458100
_cell_angle_alpha   90.00000000
_cell_angle_beta   90.00000000
_cell_angle_gamma   90.00000000
_symmetry_Int_Tables_number   1
_chemical_formula_structural   Cu4Ni2C
_chemical_formula_sum   'Cu64 Ni32 C16'
_cell_volume   2534.56357128
_cell_formula_units_Z   16
loop_
 _symmetry_equiv_pos_site_id
 _symmetry_equiv_pos_as_xyz
  1  'x, y, z'
loop_
 _atom_site_type_symbol
 _atom_site_label
 _atom_site_symmetry_multiplicity
 _atom_site_fract_x
 _atom_site_fract_y
 _atom_site_fract_z
 _atom_site_occupancy
  C  C0  1  0.00000000  0.00000000  0.75000000  1
  C  C1  1  0.00000000  0.00000000  0.25000000  1
  C  C2  1  0.50000000  0.50000000  0.75000000  1
  C  C3  1  0.50000000  0.50000000  0.25000000  1
  C  C4  1  0.50000000  0.00000000  0.75000000  1
  C  C5  1  0.00000000  0.50000000  0.25000000  1
  C  C6  1  0.00000000  0.50000000  0.75000000  1
  C  C7  1  0.50000000  0.00000000  0.25000000  1
  C  C8  1  0.33016600  0.25819200  0.00000000  1
  C  C9  1  0.74180800  0.33016600  0.50000000  1
  C  C10  1  0.83016600  0.24180800  0.00000000  1
  C  C11  1  0.75819200  0.83016600  0.50000000  1
  C  C12  1  0.66983400  0.74180800  0.00000000  1
  C  C13  1  0.25819200  0.66983400  0.50000000  1
  C  C14  1  0.16983400  0.75819200  0.00000000  1
  C  C15  1  0.24180800  0.16983400  0.50000000  1
  Ni  Ni16  1  0.10636700  0.24483100  0.19469900  1
  Ni  Ni17  1  0.75516900  0.10636700  0.69469900  1
  Ni  Ni18  1  0.60636700  0.25516900  0.19469900  1
  Ni  Ni19  1  0.74483100  0.60636700  0.69469900  1
  Ni  Ni20  1  0.10636700  0.24483100  0.80530100  1
  Ni  Ni21  1  0.75516900  0.10636700  0.30530100  1
  Ni  Ni22  1  0.60636700  0.25516900  0.80530100  1
  Ni  Ni23  1  0.74483100  0.60636700  0.30530100  1
  Ni  Ni24  1  0.89363300  0.75516900  0.80530100  1
  Ni  Ni25  1  0.24483100  0.89363300  0.30530100  1
  Ni  Ni26  1  0.39363300  0.74483100  0.80530100  1
  Ni  Ni27  1  0.25516900  0.39363300  0.30530100  1
  Ni  Ni28  1  0.89363300  0.75516900  0.19469900  1
  Ni  Ni29  1  0.24483100  0.89363300  0.69469900  1
  Ni  Ni30  1  0.39363300  0.74483100  0.19469900  1
  Ni  Ni31  1  0.25516900  0.39363300  0.69469900  1
  Ni  Ni32  1  0.36536000  0.53937400  0.00000000  1
  Ni  Ni33  1  0.46062600  0.36536000  0.50000000  1
  Ni  Ni34  1  0.86536000  0.96062600  0.00000000  1
  Ni  Ni35  1  0.03937400  0.86536000  0.50000000  1
  Ni  Ni36  1  0.63464000  0.46062600  0.00000000  1
  Ni  Ni37  1  0.53937400  0.63464000  0.50000000  1
  Ni  Ni38  1  0.13464000  0.03937400  0.00000000  1
  Ni  Ni39  1  0.96062600  0.13464000  0.50000000  1
  Ni  Ni40  1  0.56627500  0.09545700  0.00000000  1
  Ni  Ni41  1  0.90454300  0.56627500  0.50000000  1
  Ni  Ni42  1  0.06627500  0.40454300  0.00000000  1
  Ni  Ni43  1  0.59545700  0.06627500  0.50000000  1
  Ni  Ni44  1  0.43372500  0.90454300  0.00000000  1
  Ni  Ni45  1  0.09545700  0.43372500  0.50000000  1
  Ni  Ni46  1  0.93372500  0.59545700  0.00000000  1
  Ni  Ni47  1  0.40454300  0.93372500  0.50000000  1
  Cu  Cu48  1  0.61888300  0.03003600  0.11133100  1
  Cu  Cu49  1  0.96996400  0.61888300  0.61133100  1
  Cu  Cu50  1  0.11888300  0.46996400  0.11133100  1
  Cu  Cu51  1  0.53003600  0.11888300  0.61133100  1
  Cu  Cu52  1  0.61888300  0.03003600  0.88866900  1
  Cu  Cu53  1  0.96996400  0.61888300  0.38866900  1
  Cu  Cu54  1  0.11888300  0.46996400  0.88866900  1
  Cu  Cu55  1  0.53003600  0.11888300  0.38866900  1
  Cu  Cu56  1  0.38111700  0.96996400  0.88866900  1
  Cu  Cu57  1  0.03003600  0.38111700  0.38866900  1
  Cu  Cu58  1  0.88111700  0.53003600  0.88866900  1
  Cu  Cu59  1  0.46996400  0.88111700  0.38866900  1
  Cu  Cu60  1  0.38111700  0.96996400  0.11133100  1
  Cu  Cu61  1  0.03003600  0.38111700  0.61133100  1
  Cu  Cu62  1  0.88111700  0.53003600  0.11133100  1
  Cu  Cu63  1  0.46996400  0.88111700  0.61133100  1
  Cu  Cu64  1  0.15990700  0.92041000  0.79592000  1
  Cu  Cu65  1  0.07959000  0.15990700  0.29592000  1
  Cu  Cu66  1  0.65990700  0.57959000  0.79592000  1
  Cu  Cu67  1  0.42041000  0.65990700  0.29592000  1
  Cu  Cu68  1  0.15990700  0.92041000  0.20408000  1
  Cu  Cu69  1  0.07959000  0.15990700  0.70408000  1
  Cu  Cu70  1  0.65990700  0.57959000  0.20408000  1
  Cu  Cu71  1  0.42041000  0.65990700  0.70408000  1
  Cu  Cu72  1  0.84009300  0.07959000  0.20408000  1
  Cu  Cu73  1  0.92041000  0.84009300  0.70408000  1
  Cu  Cu74  1  0.34009300  0.42041000  0.20408000  1
  Cu  Cu75  1  0.57959000  0.34009300  0.70408000  1
  Cu  Cu76  1  0.84009300  0.07959000  0.79592000  1
  Cu  Cu77  1  0.92041000  0.84009300  0.29592000  1
  Cu  Cu78  1  0.34009300  0.42041000  0.79592000  1
  Cu  Cu79  1  0.57959000  0.34009300  0.29592000  1
  Cu  Cu80  1  0.99381800  0.31579800  0.81693400  1
  Cu  Cu81  1  0.68420200  0.99381800  0.31693400  1
  Cu  Cu82  1  0.49381800  0.18420200  0.81693400  1
  Cu  Cu83  1  0.81579800  0.49381800  0.31693400  1
  Cu  Cu84  1  0.99381800  0.31579800  0.18306600  1
  Cu  Cu85  1  0.68420200  0.99381800  0.68306600  1
  Cu  Cu86  1  0.49381800  0.18420200  0.18306600  1
  Cu  Cu87  1  0.81579800  0.49381800  0.68306600  1
  Cu  Cu88  1  0.00618200  0.68420200  0.18306600  1
  Cu  Cu89  1  0.31579800  0.00618200  0.68306600  1
  Cu  Cu90  1  0.50618200  0.81579800  0.18306600  1
  Cu  Cu91  1  0.18420200  0.50618200  0.68306600  1
  Cu  Cu92  1  0.00618200  0.68420200  0.81693400  1
  Cu  Cu93  1  0.31579800  0.00618200  0.31693400  1
  Cu  Cu94  1  0.50618200  0.81579800  0.81693400  1
  Cu  Cu95  1  0.18420200  0.50618200  0.31693400  1
  Cu  Cu96  1  0.58977800  0.56007400  0.60606300  1
  Cu  Cu97  1  0.43992600  0.58977800  0.10606300  1
  Cu  Cu98  1  0.08977800  0.93992600  0.60606300  1
  Cu  Cu99  1  0.06007400  0.08977800  0.10606300  1
  Cu  Cu100  1  0.58977800  0.56007400  0.39393700  1
  Cu  Cu101  1  0.43992600  0.58977800  0.89393700  1
  Cu  Cu102  1  0.08977800  0.93992600  0.39393700  1
  Cu  Cu103  1  0.06007400  0.08977800  0.89393700  1
  Cu  Cu104  1  0.41022200  0.43992600  0.39393700  1
  Cu  Cu105  1  0.56007400  0.41022200  0.89393700  1
  Cu  Cu106  1  0.91022200  0.06007400  0.39393700  1
  Cu  Cu107  1  0.93992600  0.91022200  0.89393700  1
  Cu  Cu108  1  0.41022200  0.43992600  0.60606300  1
  Cu  Cu109  1  0.56007400  0.41022200  0.10606300  1
  Cu  Cu110  1  0.91022200  0.06007400  0.60606300  1
  Cu  Cu111  1  0.93992600  0.91022200  0.10606300  1
