# generated using pymatgen
data_Cu4NiC23
_symmetry_space_group_name_H-M   'P 1'
_cell_length_a   9.87242040
_cell_length_b   9.87242040
_cell_length_c   9.75869341
_cell_angle_alpha   60.45798187
_cell_angle_beta   60.45798187
_cell_angle_gamma   90.80186039
_symmetry_Int_Tables_number   1
_chemical_formula_structural   Cu4NiC23
_chemical_formula_sum   'Cu8 Ni2 C46'
_cell_volume   677.09355790
_cell_formula_units_Z   2
loop_
 _symmetry_equiv_pos_site_id
 _symmetry_equiv_pos_as_xyz
  1  'x, y, z'
loop_
 _atom_site_type_symbol
 _atom_site_label
 _atom_site_symmetry_multiplicity
 _atom_site_fract_x
 _atom_site_fract_y
 _atom_site_fract_z
 _atom_site_occupancy
  C  C0  1  0.08261900  0.33772900  0.34301000  1
  C  C1  1  0.33747000  0.08274200  0.23669900  1
  C  C2  1  0.33772900  0.08261900  0.84301000  1
  C  C3  1  0.07617900  0.92382100  0.75000000  1
  C  C4  1  0.08274200  0.33747000  0.73669900  1
  C  C5  1  0.92382100  0.07617900  0.25000000  1
  C  C6  1  0.91725800  0.66253000  0.26330100  1
  C  C7  1  0.66227100  0.91738100  0.15699000  1
  C  C8  1  0.66253000  0.91725800  0.76330100  1
  C  C9  1  0.91738100  0.66227100  0.65699000  1
  C  C10  1  0.50000000  0.00000000  0.50000000  1
  C  C11  1  0.50000000  0.50000000  0.00000000  1
  C  C12  1  0.50000000  0.50000000  0.50000000  1
  C  C13  1  0.00000000  0.50000000  0.00000000  1
  Ni  Ni14  1  0.87247100  0.12752900  0.75000000  1
  Ni  Ni15  1  0.12752900  0.87247100  0.25000000  1
  Cu  Cu16  1  0.28857400  0.71291300  0.92551800  1
  Cu  Cu17  1  0.28455400  0.36121200  0.92689200  1
  Cu  Cu18  1  0.63878800  0.71544600  0.57310800  1
  Cu  Cu19  1  0.28708700  0.71142600  0.57448200  1
  Cu  Cu20  1  0.36121200  0.28455400  0.42689200  1
  Cu  Cu21  1  0.71291300  0.28857400  0.42551800  1
  Cu  Cu22  1  0.71544600  0.63878800  0.07310800  1
  Cu  Cu23  1  0.71142600  0.28708700  0.07448200  1
  C  C24  1  0.35641400  0.13947700  0.45709300  1
  C  C25  1  0.30874900  0.35826100  0.04758600  1
  C  C26  1  0.14319200  0.59825800  0.04570200  1
  C  C27  1  0.59343800  0.31295300  0.05473600  1
  C  C28  1  0.13947700  0.35641400  0.95709300  1
  C  C29  1  0.68135200  0.05653800  0.88139600  1
  C  C30  1  0.93894600  0.06186300  0.88023100  1
  C  C31  1  0.39851000  0.35986300  0.78580700  1
  C  C32  1  0.31158000  0.85788800  0.78680600  1
  C  C33  1  0.64013700  0.60149000  0.71419300  1
  C  C34  1  0.14211200  0.68842000  0.71319400  1
  C  C35  1  0.93813700  0.06105400  0.61976900  1
  C  C36  1  0.94346200  0.31864800  0.61860400  1
  C  C37  1  0.35826100  0.30874900  0.54758600  1
  C  C38  1  0.59825800  0.14319200  0.54570200  1
  C  C39  1  0.31295300  0.59343800  0.55473600  1
  C  C40  1  0.68704700  0.40656200  0.44526400  1
  C  C41  1  0.40174200  0.85680800  0.45429800  1
  C  C42  1  0.64173900  0.69125100  0.45241400  1
  C  C43  1  0.06186300  0.93894600  0.38023100  1
  C  C44  1  0.05653800  0.68135200  0.38139600  1
  C  C45  1  0.85788800  0.31158000  0.28680600  1
  C  C46  1  0.35986300  0.39851000  0.28580700  1
  C  C47  1  0.68842000  0.14211200  0.21319400  1
  C  C48  1  0.60149000  0.64013700  0.21419300  1
  C  C49  1  0.06105400  0.93813700  0.11976900  1
  C  C50  1  0.31864800  0.94346200  0.11860400  1
  C  C51  1  0.86052300  0.64358600  0.04290700  1
  C  C52  1  0.40656200  0.68704700  0.94526400  1
  C  C53  1  0.69125100  0.64173900  0.95241400  1
  C  C54  1  0.85680800  0.40174200  0.95429800  1
  C  C55  1  0.64358600  0.86052300  0.54290700  1
