# generated using pymatgen
data_CuNi2C5
_symmetry_space_group_name_H-M   'P 1'
_cell_length_a   7.22592049
_cell_length_b   7.22592049
_cell_length_c   9.71870794
_cell_angle_alpha   74.66780706
_cell_angle_beta   74.66780706
_cell_angle_gamma   89.34929463
_symmetry_Int_Tables_number   1
_chemical_formula_structural   CuNi2C5
_chemical_formula_sum   'Cu4 Ni8 C20'
_cell_volume   471.03688188
_cell_formula_units_Z   4
loop_
 _symmetry_equiv_pos_site_id
 _symmetry_equiv_pos_as_xyz
  1  'x, y, z'
loop_
 _atom_site_type_symbol
 _atom_site_label
 _atom_site_symmetry_multiplicity
 _atom_site_fract_x
 _atom_site_fract_y
 _atom_site_fract_z
 _atom_site_occupancy
  Ni  Ni0  1  0.37138800  0.86027000  0.86904700  1
  Ni  Ni1  1  0.25440900  0.10247400  0.00436600  1
  Ni  Ni2  1  0.86027000  0.37138800  0.36904700  1
  Ni  Ni3  1  0.10247400  0.25440900  0.50436600  1
  Ni  Ni4  1  0.89752600  0.74559100  0.49563400  1
  Ni  Ni5  1  0.13973000  0.62861200  0.63095300  1
  Ni  Ni6  1  0.74559100  0.89752600  0.99563400  1
  Ni  Ni7  1  0.62861200  0.13973000  0.13095300  1
  Cu  Cu8  1  0.38100900  0.27035000  0.67350000  1
  Cu  Cu9  1  0.27035000  0.38100900  0.17350000  1
  Cu  Cu10  1  0.72965000  0.61899100  0.82650000  1
  Cu  Cu11  1  0.61899100  0.72965000  0.32650000  1
  C  C12  1  0.44424200  0.68093800  0.88974900  1
  C  C13  1  0.39531600  0.98126800  0.73146800  1
  C  C14  1  0.68093800  0.44424200  0.38974900  1
  C  C15  1  0.27250200  0.26369600  0.88363900  1
  C  C16  1  0.78525200  0.86724700  0.85616700  1
  C  C17  1  0.98126800  0.39531600  0.23146800  1
  C  C18  1  0.91620800  0.27930900  0.49766700  1
  C  C19  1  0.72069100  0.08379200  0.00233300  1
  C  C20  1  0.26369600  0.27250200  0.38363900  1
  C  C21  1  0.86724700  0.78525200  0.35616700  1
  C  C22  1  0.13275300  0.21474800  0.64383300  1
  C  C23  1  0.73630400  0.72749800  0.61636100  1
  C  C24  1  0.27930900  0.91620800  0.99766700  1
  C  C25  1  0.08379200  0.72069100  0.50233300  1
  C  C26  1  0.01873200  0.60468400  0.76853200  1
  C  C27  1  0.21474800  0.13275300  0.14383300  1
  C  C28  1  0.72749800  0.73630400  0.11636100  1
  C  C29  1  0.31906200  0.55575800  0.61025100  1
  C  C30  1  0.60468400  0.01873200  0.26853200  1
  C  C31  1  0.55575800  0.31906200  0.11025100  1
