# generated using pymatgen
data_Cu(NiC12)3
_symmetry_space_group_name_H-M   'P 1'
_cell_length_a   8.60120800
_cell_length_b   8.62899551
_cell_length_c   8.63660416
_cell_angle_alpha   61.90252226
_cell_angle_beta   61.88240933
_cell_angle_gamma   61.86558336
_symmetry_Int_Tables_number   1
_chemical_formula_structural   Cu(NiC12)3
_chemical_formula_sum   'Cu1 Ni3 C36'
_cell_volume   472.37190578
_cell_formula_units_Z   1
loop_
 _symmetry_equiv_pos_site_id
 _symmetry_equiv_pos_as_xyz
  1  'x, y, z'
loop_
 _atom_site_type_symbol
 _atom_site_label
 _atom_site_symmetry_multiplicity
 _atom_site_fract_x
 _atom_site_fract_y
 _atom_site_fract_z
 _atom_site_occupancy
  C  C0  1  0.02841900  0.00628300  0.00078800  1
  C  C1  1  0.75061100  0.14477600  0.34921100  1
  C  C2  1  0.46633900  0.50262700  0.49490100  1
  C  C3  1  0.27544500  0.83781000  0.64775200  1
  C  C4  1  0.64750800  0.27673100  0.83237300  1
  C  C5  1  0.83631600  0.64984400  0.27565900  1
  Ni  Ni6  1  0.14086800  0.14575500  0.13882700  1
  Ni  Ni7  1  0.35856800  0.35881500  0.35334700  1
  Ni  Ni8  1  0.64529900  0.64777700  0.64715700  1
  C  C9  1  0.05353300  0.75200200  0.44172000  1
  C  C10  1  0.44269100  0.05504700  0.75109600  1
  C  C11  1  0.75148900  0.44574400  0.04939700  1
  C  C12  1  0.25876000  0.53483600  0.95687500  1
  C  C13  1  0.53633100  0.96019000  0.25920600  1
  C  C14  1  0.95478900  0.25796000  0.53082300  1
  Cu  Cu15  1  0.85664900  0.85460300  0.85403500  1
  C  C16  1  0.12635200  0.29717500  0.48995700  1
  C  C17  1  0.31109900  0.50471800  0.11571600  1
  C  C18  1  0.05047400  0.92232600  0.26152600  1
  C  C19  1  0.52751300  0.11709600  0.30405200  1
  C  C20  1  0.24011800  0.59339700  0.41793900  1
  C  C21  1  0.03341600  0.80636200  0.59804300  1
  C  C22  1  0.25554300  0.07283100  0.90906100  1
  C  C23  1  0.43978300  0.23591900  0.58097400  1
  C  C24  1  0.59516500  0.42081400  0.24139700  1
  C  C25  1  0.19920000  0.38015500  0.98693500  1
  C  C26  1  0.10924600  0.73251500  0.92184800  1
  C  C27  1  0.37022400  0.00333100  0.20950800  1
  C  C28  1  0.59903000  0.03014400  0.80921300  1
  C  C29  1  0.90710100  0.25341700  0.07033300  1
  C  C30  1  0.81034700  0.59855600  0.02755800  1
  C  C31  1  0.42480200  0.55008300  0.76656700  1
  C  C32  1  0.54654200  0.77246300  0.42670800  1
  C  C33  1  0.73021200  0.91762300  0.10828400  1
  C  C34  1  0.96667200  0.20280800  0.37902100  1
  C  C35  1  0.76988600  0.42805800  0.54890700  1
  C  C36  1  0.47944800  0.88779600  0.69952900  1
  C  C37  1  0.92131800  0.10913300  0.72758400  1
  C  C38  1  0.69761400  0.48210600  0.88548500  1
  C  C39  1  0.88528100  0.69937100  0.48168300  1
