# generated using pymatgen
data_Cu(NiC3)2
_symmetry_space_group_name_H-M   'P 1'
_cell_length_a   16.95954500
_cell_length_b   10.01572300
_cell_length_c   11.27688645
_cell_angle_alpha   57.29231212
_cell_angle_beta   90.00000000
_cell_angle_gamma   90.00000000
_symmetry_Int_Tables_number   1
_chemical_formula_structural   Cu(NiC3)2
_chemical_formula_sum   'Cu4 Ni8 C24'
_cell_volume   1611.78822067
_cell_formula_units_Z   4
loop_
 _symmetry_equiv_pos_site_id
 _symmetry_equiv_pos_as_xyz
  1  'x, y, z'
loop_
 _atom_site_type_symbol
 _atom_site_label
 _atom_site_symmetry_multiplicity
 _atom_site_fract_x
 _atom_site_fract_y
 _atom_site_fract_z
 _atom_site_occupancy
  Ni  Ni0  1  0.07859200  0.81221300  0.73408000  1
  Ni  Ni1  1  0.57859200  0.18778700  0.76592000  1
  Ni  Ni2  1  0.25397500  0.23575900  0.78070800  1
  Ni  Ni3  1  0.75397500  0.76424100  0.71929200  1
  Ni  Ni4  1  0.24602500  0.23575900  0.28070800  1
  Ni  Ni5  1  0.74602500  0.76424100  0.21929200  1
  Ni  Ni6  1  0.42140800  0.81221300  0.23408000  1
  Ni  Ni7  1  0.92140800  0.18778700  0.26592000  1
  Cu  Cu8  1  0.90634300  0.33187900  0.70554700  1
  Cu  Cu9  1  0.40634300  0.66812100  0.79445300  1
  Cu  Cu10  1  0.59365700  0.33187900  0.20554700  1
  Cu  Cu11  1  0.09365700  0.66812100  0.29445300  1
  C  C12  1  0.08710000  0.40009700  0.62617500  1
  C  C13  1  0.42649000  0.42503900  0.69150900  1
  C  C14  1  0.92030700  0.07481800  0.60940000  1
  C  C15  1  0.72876000  0.45049400  0.66456500  1
  C  C16  1  0.22876000  0.54950600  0.83543500  1
  C  C17  1  0.60183600  0.09084400  0.53409300  1
  C  C18  1  0.92649000  0.57496100  0.80849100  1
  C  C19  1  0.23090700  0.05345500  0.61673200  1
  C  C20  1  0.73090700  0.94654500  0.88326800  1
  C  C21  1  0.41290000  0.40009700  0.12617500  1
  C  C22  1  0.10183600  0.90915600  0.96590700  1
  C  C23  1  0.57969300  0.07481800  0.10940000  1
  C  C24  1  0.42030700  0.92518200  0.89060000  1
  C  C25  1  0.89816400  0.09084400  0.03409300  1
  C  C26  1  0.58710000  0.59990300  0.87382500  1
  C  C27  1  0.26909300  0.05345500  0.11673200  1
  C  C28  1  0.76909300  0.94654500  0.38326800  1
  C  C29  1  0.07351000  0.42503900  0.19150900  1
  C  C30  1  0.39816400  0.90915600  0.46590700  1
  C  C31  1  0.77124000  0.45049400  0.16456500  1
  C  C32  1  0.27124000  0.54950600  0.33543500  1
  C  C33  1  0.07969300  0.92518200  0.39060000  1
  C  C34  1  0.57351000  0.57496100  0.30849100  1
  C  C35  1  0.91290000  0.59990300  0.37382500  1
