# generated using pymatgen
data_CuNi3C8
_symmetry_space_group_name_H-M   'P 1'
_cell_length_a   5.84972955
_cell_length_b   5.84972955
_cell_length_c   5.84973015
_cell_angle_alpha   60.00373038
_cell_angle_beta   60.00373038
_cell_angle_gamma   60.00373736
_symmetry_Int_Tables_number   1
_chemical_formula_structural   CuNi3C8
_chemical_formula_sum   'Cu1 Ni3 C8'
_cell_volume   141.55628687
_cell_formula_units_Z   1
loop_
 _symmetry_equiv_pos_site_id
 _symmetry_equiv_pos_as_xyz
  1  'x, y, z'
loop_
 _atom_site_type_symbol
 _atom_site_label
 _atom_site_symmetry_multiplicity
 _atom_site_fract_x
 _atom_site_fract_y
 _atom_site_fract_z
 _atom_site_occupancy
  Ni  Ni0  1  0.00000000  0.50000000  0.50000000  1
  Ni  Ni1  1  0.50000000  0.50000000  0.00000000  1
  Ni  Ni2  1  0.50000000  0.00000000  0.50000000  1
  Cu  Cu3  1  0.00000000  0.00000000  0.00000000  1
  C  C4  1  0.24306000  0.71931100  0.24306000  1
  C  C5  1  0.24306000  0.24306000  0.71931100  1
  C  C6  1  0.71931100  0.24306000  0.24306000  1
  C  C7  1  0.72825900  0.72825900  0.72825900  1
  C  C8  1  0.27174100  0.27174100  0.27174100  1
  C  C9  1  0.28068900  0.75694000  0.75694000  1
  C  C10  1  0.75694000  0.75694000  0.28068900  1
  C  C11  1  0.75694000  0.28068900  0.75694000  1
