# generated using pymatgen
data_Cu13NiC17
_symmetry_space_group_name_H-M   'P 1'
_cell_length_a   15.31407100
_cell_length_b   8.55652500
_cell_length_c   15.79997865
_cell_angle_alpha   74.39956862
_cell_angle_beta   90.00000000
_cell_angle_gamma   90.00000000
_symmetry_Int_Tables_number   1
_chemical_formula_structural   Cu13NiC17
_chemical_formula_sum   'Cu52 Ni4 C68'
_cell_volume   1994.08314393
_cell_formula_units_Z   4
loop_
 _symmetry_equiv_pos_site_id
 _symmetry_equiv_pos_as_xyz
  1  'x, y, z'
loop_
 _atom_site_type_symbol
 _atom_site_label
 _atom_site_symmetry_multiplicity
 _atom_site_fract_x
 _atom_site_fract_y
 _atom_site_fract_z
 _atom_site_occupancy
  C  C0  1  0.90664900  0.10351400  0.82662800  1
  C  C1  1  0.59335100  0.10351400  0.32662800  1
  C  C2  1  0.09335100  0.89648600  0.17337200  1
  C  C3  1  0.40664900  0.89648600  0.67337200  1
  Ni  Ni4  1  0.93285300  0.24707500  0.63416400  1
  Ni  Ni5  1  0.56714700  0.24707500  0.13416400  1
  Ni  Ni6  1  0.06714700  0.75292500  0.36583600  1
  Ni  Ni7  1  0.43285300  0.75292500  0.86583600  1
  C  C8  1  0.92590300  0.42566500  0.80310600  1
  C  C9  1  0.57409700  0.42566500  0.30310600  1
  C  C10  1  0.07409700  0.57433500  0.19689400  1
  C  C11  1  0.42590300  0.57433500  0.69689400  1
  C  C12  1  0.02613500  0.25743300  0.70188300  1
  C  C13  1  0.47386500  0.25743300  0.20188300  1
  C  C14  1  0.97386500  0.74256700  0.29811700  1
  C  C15  1  0.52613500  0.74256700  0.79811700  1
  C  C16  1  0.83090100  0.28629200  0.68157700  1
  C  C17  1  0.66909900  0.28629200  0.18157700  1
  C  C18  1  0.16909900  0.71370800  0.31842300  1
  C  C19  1  0.33090100  0.71370800  0.81842300  1
  Cu  Cu20  1  0.82796200  0.49302000  0.85893700  1
  Cu  Cu21  1  0.67203800  0.49302000  0.35893700  1
  Cu  Cu22  1  0.17203800  0.50698000  0.14106300  1
  Cu  Cu23  1  0.32796200  0.50698000  0.64106300  1
  Cu  Cu24  1  0.01605900  0.49162200  0.86992400  1
  Cu  Cu25  1  0.48394100  0.49162200  0.36992400  1
  Cu  Cu26  1  0.98394100  0.50837800  0.13007600  1
  Cu  Cu27  1  0.51605900  0.50837800  0.63007600  1
  Cu  Cu28  1  0.93673000  0.62847300  0.71595300  1
  Cu  Cu29  1  0.56327000  0.62847300  0.21595300  1
  Cu  Cu30  1  0.06327000  0.37152700  0.28404700  1
  Cu  Cu31  1  0.43673000  0.37152700  0.78404700  1
  Cu  Cu32  1  0.12225300  0.28064000  0.77424600  1
  Cu  Cu33  1  0.37774700  0.28064000  0.27424600  1
  Cu  Cu34  1  0.87774700  0.71936000  0.22575400  1
  Cu  Cu35  1  0.62225300  0.71936000  0.72575400  1
  Cu  Cu36  1  0.04915600  0.46044000  0.61853500  1
  Cu  Cu37  1  0.45084400  0.46044000  0.11853500  1
  Cu  Cu38  1  0.95084400  0.53956000  0.38146500  1
  Cu  Cu39  1  0.54915600  0.53956000  0.88146500  1
  Cu  Cu40  1  0.08239800  0.12960500  0.63371000  1
  Cu  Cu41  1  0.41760200  0.12960500  0.13371000  1
  Cu  Cu42  1  0.91760200  0.87039500  0.36629000  1
  Cu  Cu43  1  0.58239800  0.87039500  0.86629000  1
  Cu  Cu44  1  0.78235000  0.19992100  0.59090100  1
  Cu  Cu45  1  0.71765000  0.19992100  0.09090100  1
  Cu  Cu46  1  0.21765000  0.80007900  0.40909900  1
  Cu  Cu47  1  0.28235000  0.80007900  0.90909900  1
  Cu  Cu48  1  0.72622400  0.31380200  0.74135300  1
  Cu  Cu49  1  0.77377600  0.31380200  0.24135300  1
  Cu  Cu50  1  0.27377600  0.68619800  0.25864700  1
  Cu  Cu51  1  0.22622400  0.68619800  0.75864700  1
  Cu  Cu52  1  0.82831800  0.50217600  0.60475500  1
  Cu  Cu53  1  0.67168200  0.50217600  0.10475500  1
  Cu  Cu54  1  0.17168200  0.49782400  0.39524500  1
  Cu  Cu55  1  0.32831800  0.49782400  0.89524500  1
  Cu  Cu56  1  0.93259400  0.20885200  0.91441900  1
  Cu  Cu57  1  0.56740600  0.20885200  0.41441900  1
  Cu  Cu58  1  0.06740600  0.79114800  0.08558100  1
  Cu  Cu59  1  0.43259400  0.79114800  0.58558100  1
  Cu  Cu60  1  0.82806500  0.03095400  0.75505400  1
  Cu  Cu61  1  0.67193500  0.03095400  0.25505400  1
  Cu  Cu62  1  0.17193500  0.96904600  0.24494600  1
  Cu  Cu63  1  0.32806500  0.96904600  0.74494600  1
  Cu  Cu64  1  0.00771000  0.01276600  0.79957900  1
  Cu  Cu65  1  0.49229000  0.01276600  0.29957900  1
  Cu  Cu66  1  0.99229000  0.98723400  0.20042100  1
  Cu  Cu67  1  0.50771000  0.98723400  0.70042100  1
  Cu  Cu68  1  0.87156700  0.94039500  0.91279900  1
  Cu  Cu69  1  0.62843300  0.94039500  0.41279900  1
  Cu  Cu70  1  0.12843300  0.05960500  0.08720100  1
  Cu  Cu71  1  0.37156700  0.05960500  0.58720100  1
  C  C72  1  0.76943300  0.53437000  0.89442200  1
  C  C73  1  0.73056700  0.53437000  0.39442200  1
  C  C74  1  0.23056700  0.46563000  0.10557800  1
  C  C75  1  0.26943300  0.46563000  0.60557800  1
  C  C76  1  0.06920600  0.52958300  0.91274900  1
  C  C77  1  0.43079400  0.52958300  0.41274900  1
  C  C78  1  0.93079400  0.47041700  0.08725100  1
  C  C79  1  0.56920600  0.47041700  0.58725100  1
  C  C80  1  0.94517300  0.75801100  0.66941200  1
  C  C81  1  0.55482700  0.75801100  0.16941200  1
  C  C82  1  0.05482700  0.24198900  0.33058800  1
  C  C83  1  0.44517300  0.24198900  0.83058800  1
  C  C84  1  0.18052000  0.29657900  0.81809800  1
  C  C85  1  0.31948000  0.29657900  0.31809800  1
  C  C86  1  0.81948000  0.70342100  0.18190200  1
  C  C87  1  0.68052000  0.70342100  0.68190200  1
  C  C88  1  0.06480200  0.57900600  0.56460100  1
  C  C89  1  0.43519800  0.57900600  0.06460100  1
  C  C90  1  0.93519800  0.42099400  0.43539900  1
  C  C91  1  0.56480200  0.42099400  0.93539900  1
  C  C92  1  0.11903400  0.05362700  0.59451600  1
  C  C93  1  0.38096600  0.05362700  0.09451600  1
  C  C94  1  0.88096600  0.94637300  0.40548400  1
  C  C95  1  0.61903400  0.94637300  0.90548400  1
  C  C96  1  0.75241300  0.14788600  0.53709200  1
  C  C97  1  0.74758700  0.14788600  0.03709200  1
  C  C98  1  0.24758700  0.85211400  0.46290800  1
  C  C99  1  0.25241300  0.85211400  0.96290800  1
  C  C100  1  0.66243600  0.32463600  0.77897900  1
  C  C101  1  0.83756400  0.32463600  0.27897900  1
  C  C102  1  0.33756400  0.67536400  0.22102100  1
  C  C103  1  0.16243600  0.67536400  0.72102100  1
  C  C104  1  0.82351900  0.62648400  0.55284200  1
  C  C105  1  0.67648100  0.62648400  0.05284200  1
  C  C106  1  0.17648100  0.37351600  0.44715800  1
  C  C107  1  0.32351900  0.37351600  0.94715800  1
  C  C108  1  0.95028400  0.18427200  0.98924800  1
  C  C109  1  0.54971600  0.18427200  0.48924800  1
  C  C110  1  0.04971600  0.81572800  0.01075200  1
  C  C111  1  0.45028400  0.81572800  0.51075200  1
  C  C112  1  0.79083500  0.91374800  0.74900500  1
  C  C113  1  0.70916500  0.91374800  0.24900500  1
  C  C114  1  0.20916500  0.08625200  0.25099500  1
  C  C115  1  0.29083500  0.08625200  0.75099500  1
  C  C116  1  0.05148000  0.89504700  0.81557800  1
  C  C117  1  0.44852000  0.89504700  0.31557800  1
  C  C118  1  0.94852000  0.10495300  0.18442200  1
  C  C119  1  0.55148000  0.10495300  0.68442200  1
  C  C120  1  0.84701100  0.83311500  0.96935400  1
  C  C121  1  0.65298900  0.83311500  0.46935400  1
  C  C122  1  0.15298900  0.16688500  0.03064600  1
  C  C123  1  0.34701100  0.16688500  0.53064600  1
