# generated using pymatgen
data_Cu4Ni3C17
_symmetry_space_group_name_H-M   'P 1'
_cell_length_a   5.14819998
_cell_length_b   12.21830150
_cell_length_c   12.21833034
_cell_angle_alpha   118.79743760
_cell_angle_beta   89.52744751
_cell_angle_gamma   90.47339925
_symmetry_Int_Tables_number   1
_chemical_formula_structural   Cu4Ni3C17
_chemical_formula_sum   'Cu8 Ni6 C34'
_cell_volume   673.48035779
_cell_formula_units_Z   2
loop_
 _symmetry_equiv_pos_site_id
 _symmetry_equiv_pos_as_xyz
  1  'x, y, z'
loop_
 _atom_site_type_symbol
 _atom_site_label
 _atom_site_symmetry_multiplicity
 _atom_site_fract_x
 _atom_site_fract_y
 _atom_site_fract_z
 _atom_site_occupancy
  C  C0  1  0.05048400  0.23846600  0.51154000  1
  C  C1  1  0.05113200  0.73842800  0.01152700  1
  Ni  Ni2  1  0.45015900  0.48041500  0.26959900  1
  Ni  Ni3  1  0.45011800  0.98038400  0.76961800  1
  Ni  Ni4  1  0.55063500  0.51856600  0.73147100  1
  Ni  Ni5  1  0.55063900  0.01852600  0.23142800  1
  Ni  Ni6  1  0.95873000  0.26529200  0.98471800  1
  Ni  Ni7  1  0.95873100  0.76528700  0.48470100  1
  Cu  Cu8  1  0.11379500  0.43433900  0.81565000  1
  Cu  Cu9  1  0.11378400  0.93433200  0.31566500  1
  Cu  Cu10  1  0.43115100  0.16623000  0.08378900  1
  Cu  Cu11  1  0.43110200  0.66621200  0.58377900  1
  Cu  Cu12  1  0.58408300  0.82790800  0.92209500  1
  Cu  Cu13  1  0.58389600  0.32788100  0.42211500  1
  Cu  Cu14  1  0.87096200  0.57260400  0.17741900  1
  Cu  Cu15  1  0.87090400  0.07255600  0.67742600  1
  C  C16  1  0.16164900  0.36421200  0.88583400  1
  C  C17  1  0.16165300  0.86414600  0.38579600  1
  C  C18  1  0.14822300  0.54375200  0.20629000  1
  C  C19  1  0.14816200  0.04368800  0.70626700  1
  C  C20  1  0.29267300  0.82064900  0.92936400  1
  C  C21  1  0.29250500  0.32057800  0.42939300  1
  C  C22  1  0.32513700  0.59669800  0.65327400  1
  C  C23  1  0.32518400  0.09672800  0.15329900  1
  C  C24  1  0.67167400  0.39941200  0.35058900  1
  C  C25  1  0.67194100  0.89943900  0.85057900  1
  C  C26  1  0.72357300  0.16871400  0.08129400  1
  C  C27  1  0.72357300  0.66870600  0.58128700  1
  C  C28  1  0.81619300  0.44773300  0.80230300  1
  C  C29  1  0.81618000  0.94770200  0.30228700  1
  C  C30  1  0.88225600  0.64394800  0.10607800  1
  C  C31  1  0.88214000  0.14390600  0.60608400  1
  C  C32  1  0.25644900  0.37323000  0.68381700  1
  C  C33  1  0.25648600  0.87323500  0.18382500  1
  C  C34  1  0.25650400  0.56617800  0.87675400  1
  C  C35  1  0.25647200  0.06616000  0.37676700  1
  C  C36  1  0.30376900  0.10170600  0.94918200  1
  C  C37  1  0.30380200  0.60170600  0.44916400  1
  C  C38  1  0.30382000  0.30084400  0.14829500  1
  C  C39  1  0.30377500  0.80081800  0.64831000  1
  C  C40  1  0.72159600  0.69502900  0.85851600  1
  C  C41  1  0.72151300  0.19500800  0.35852500  1
  C  C42  1  0.72158100  0.89148500  0.05497900  1
  C  C43  1  0.72151700  0.39146100  0.55499000  1
  C  C44  1  0.70243800  0.44653400  0.11365500  1
  C  C45  1  0.70238900  0.94648300  0.61367100  1
  C  C46  1  0.70241500  0.63637600  0.30349300  1
  C  C47  1  0.70245000  0.13630500  0.80350600  1
