# generated using pymatgen
data_CuNi2C7
_symmetry_space_group_name_H-M   'P 1'
_cell_length_a   6.64180250
_cell_length_b   2.81761803
_cell_length_c   5.79731000
_cell_angle_alpha   90.00001393
_cell_angle_beta   104.18537071
_cell_angle_gamma   77.75382916
_symmetry_Int_Tables_number   1
_chemical_formula_structural   CuNi2C7
_chemical_formula_sum   'Cu1 Ni2 C7'
_cell_volume   102.63487701
_cell_formula_units_Z   1
loop_
 _symmetry_equiv_pos_site_id
 _symmetry_equiv_pos_as_xyz
  1  'x, y, z'
loop_
 _atom_site_type_symbol
 _atom_site_label
 _atom_site_symmetry_multiplicity
 _atom_site_fract_x
 _atom_site_fract_y
 _atom_site_fract_z
 _atom_site_occupancy
  C  C0  1  0.66313400  0.66843200  0.16211400  1
  Ni  Ni1  1  0.99582000  0.00209000  0.99311600  1
  Ni  Ni2  1  0.67731500  0.66134200  0.65862900  1
  Cu  Cu3  1  0.32529500  0.33735300  0.34947400  1
  C  C4  1  0.99119100  0.50440400  0.20763600  1
  C  C5  1  0.37837800  0.81081000  0.57265400  1
  C  C6  1  0.69614200  0.15192900  0.88871900  1
  C  C7  1  0.29870200  0.85064900  0.12449900  1
  C  C8  1  0.66161300  0.16919400  0.43541800  1
  C  C9  1  0.97907500  0.51046200  0.77440900  1
