# generated using pymatgen
data_Cu(Ni5C8)2
_symmetry_space_group_name_H-M   'P 1'
_cell_length_a   9.70320911
_cell_length_b   9.70320911
_cell_length_c   9.70320884
_cell_angle_alpha   34.25733123
_cell_angle_beta   34.25733123
_cell_angle_gamma   34.25732624
_symmetry_Int_Tables_number   1
_chemical_formula_structural   Cu(Ni5C8)2
_chemical_formula_sum   'Cu1 Ni10 C16'
_cell_volume   258.15036743
_cell_formula_units_Z   1
loop_
 _symmetry_equiv_pos_site_id
 _symmetry_equiv_pos_as_xyz
  1  'x, y, z'
loop_
 _atom_site_type_symbol
 _atom_site_label
 _atom_site_symmetry_multiplicity
 _atom_site_fract_x
 _atom_site_fract_y
 _atom_site_fract_z
 _atom_site_occupancy
  Ni  Ni0  1  0.50164600  0.50164600  0.50164600  1
  Ni  Ni1  1  0.30774600  0.30774600  0.30774600  1
  Ni  Ni2  1  0.24973800  0.75534200  0.75534200  1
  Ni  Ni3  1  0.75534200  0.24973800  0.75534200  1
  Ni  Ni4  1  0.24056900  0.75588400  0.24056900  1
  Ni  Ni5  1  0.81110800  0.81110800  0.81110800  1
  Ni  Ni6  1  0.24056900  0.24056900  0.75588400  1
  Ni  Ni7  1  0.75534200  0.75534200  0.24973800  1
  Ni  Ni8  1  0.75588400  0.24056900  0.24056900  1
  Ni  Ni9  1  0.69028900  0.69028900  0.69028900  1
  Cu  Cu10  1  0.18980400  0.18980400  0.18980400  1
  C  C11  1  0.39964400  0.39964400  0.83602700  1
  C  C12  1  0.39964400  0.83602700  0.39964400  1
  C  C13  1  0.37675700  0.37675700  0.37675700  1
  C  C14  1  0.11759500  0.62299800  0.11759500  1
  C  C15  1  0.87771400  0.87771400  0.87771400  1
  C  C16  1  0.11759500  0.11759500  0.62299800  1
  C  C17  1  0.14923700  0.61150600  0.61150600  1
  C  C18  1  0.62299800  0.11759500  0.11759500  1
  C  C19  1  0.83602700  0.39964400  0.39964400  1
  C  C20  1  0.87948500  0.87948500  0.38142700  1
  C  C21  1  0.38142700  0.87948500  0.87948500  1
  C  C22  1  0.87948500  0.38142700  0.87948500  1
  C  C23  1  0.62459400  0.62459400  0.62459400  1
  C  C24  1  0.11674100  0.11674100  0.11674100  1
  C  C25  1  0.61150600  0.14923700  0.61150600  1
  C  C26  1  0.61150600  0.61150600  0.14923700  1
