# generated using pymatgen
data_Cu6Ni3C14
_symmetry_space_group_name_H-M   'P 1'
_cell_length_a   6.83184500
_cell_length_b   6.86630535
_cell_length_c   13.70721404
_cell_angle_alpha   89.74496714
_cell_angle_beta   89.93449563
_cell_angle_gamma   89.40732241
_symmetry_Int_Tables_number   1
_chemical_formula_structural   Cu6Ni3C14
_chemical_formula_sum   'Cu12 Ni6 C28'
_cell_volume   642.95786414
_cell_formula_units_Z   2
loop_
 _symmetry_equiv_pos_site_id
 _symmetry_equiv_pos_as_xyz
  1  'x, y, z'
loop_
 _atom_site_type_symbol
 _atom_site_label
 _atom_site_symmetry_multiplicity
 _atom_site_fract_x
 _atom_site_fract_y
 _atom_site_fract_z
 _atom_site_occupancy
  C  C0  1  0.00013400  0.99284200  0.00114500  1
  C  C1  1  0.01249900  0.01756100  0.49908500  1
  C  C2  1  0.50538400  0.49923800  0.75152000  1
  C  C3  1  0.50698900  0.50344700  0.24583100  1
  C  C4  1  0.85284200  0.71795100  0.73127700  1
  C  C5  1  0.83295400  0.57288200  0.64392900  1
  C  C6  1  0.27083400  0.54643700  0.58404500  1
  C  C7  1  0.43071200  0.71067000  0.58473500  1
  C  C8  1  0.55460900  0.16375100  0.63073400  1
  C  C9  1  0.70207300  0.15461900  0.71879500  1
  C  C10  1  0.45269600  0.83626500  0.86810200  1
  C  C11  1  0.28677900  0.83359800  0.78813200  1
  C  C12  1  0.56225500  0.29660600  0.92276100  1
  C  C13  1  0.74543500  0.43486400  0.91536500  1
  C  C14  1  0.16796900  0.42644500  0.85122900  1
  C  C15  1  0.16848300  0.27095800  0.76729800  1
  C  C16  1  0.85356300  0.30214800  0.21737100  1
  C  C17  1  0.84994900  0.44826900  0.12909600  1
  C  C18  1  0.55270200  0.27173900  0.41556500  1
  C  C19  1  0.69959100  0.44793900  0.42200100  1
  C  C20  1  0.46313600  0.73178300  0.07521600  1
  C  C21  1  0.30725800  0.56510000  0.07103300  1
  C  C22  1  0.18109200  0.55677200  0.36939500  1
  C  C23  1  0.15909300  0.70014100  0.28049300  1
  C  C24  1  0.73991500  0.84052300  0.26458600  1
  C  C25  1  0.57783800  0.84132700  0.34611300  1
  C  C26  1  0.45301500  0.15963100  0.14921800  1
  C  C27  1  0.28104700  0.16168700  0.22525400  1
  Ni  Ni28  1  0.50336200  0.01628000  0.00167600  1
  Ni  Ni29  1  0.51006400  0.99390000  0.49408300  1
  Ni  Ni30  1  0.02297900  0.49316400  0.99331800  1
  Ni  Ni31  1  0.99278500  0.51529600  0.50410300  1
  Ni  Ni32  1  0.00283000  0.99548200  0.75058100  1
  Ni  Ni33  1  0.00872200  0.00373000  0.24868500  1
  Cu  Cu34  1  0.77851000  0.60407500  0.70870000  1
  Cu  Cu35  1  0.39252700  0.58790200  0.61625000  1
  Cu  Cu36  1  0.58624900  0.22493100  0.69363200  1
  Cu  Cu37  1  0.40768300  0.76624200  0.81051100  1
  Cu  Cu38  1  0.61493500  0.41043000  0.88791400  1
  Cu  Cu39  1  0.23123800  0.39125000  0.78912600  1
  Cu  Cu40  1  0.78273300  0.41547400  0.19029000  1
  Cu  Cu41  1  0.58503900  0.39942500  0.38642900  1
  Cu  Cu42  1  0.42331300  0.60897400  0.10690400  1
  Cu  Cu43  1  0.23306000  0.58561800  0.30375800  1
  Cu  Cu44  1  0.61544000  0.77895000  0.28412600  1
  Cu  Cu45  1  0.40531500  0.22613400  0.20829000  1
