# generated using pymatgen
data_Cu11NiC4
_symmetry_space_group_name_H-M   'P 1'
_cell_length_a   5.08142600
_cell_length_b   5.32884704
_cell_length_c   16.89008948
_cell_angle_alpha   88.25446590
_cell_angle_beta   98.33780384
_cell_angle_gamma   118.23902621
_symmetry_Int_Tables_number   1
_chemical_formula_structural   Cu11NiC4
_chemical_formula_sum   'Cu22 Ni2 C8'
_cell_volume   398.27807195
_cell_formula_units_Z   2
loop_
 _symmetry_equiv_pos_site_id
 _symmetry_equiv_pos_as_xyz
  1  'x, y, z'
loop_
 _atom_site_type_symbol
 _atom_site_label
 _atom_site_symmetry_multiplicity
 _atom_site_fract_x
 _atom_site_fract_y
 _atom_site_fract_z
 _atom_site_occupancy
  C  C0  1  0.74060500  0.35808400  0.12897800  1
  C  C1  1  0.75230500  0.87141900  0.62452900  1
  C  C2  1  0.50064000  0.24832700  0.74983900  1
  C  C3  1  0.50399100  0.77195500  0.24735300  1
  C  C4  1  0.24508000  0.14233100  0.37720400  1
  C  C5  1  0.24974100  0.62299400  0.87523400  1
  C  C6  1  0.00788500  0.49154900  0.49561200  1
  C  C7  1  0.99893400  0.99494800  0.00089500  1
  Ni  Ni8  1  0.50239300  0.06388000  0.18760500  1
  Ni  Ni9  1  0.06204700  0.34232500  0.40667500  1
  Cu  Cu10  1  0.43577700  0.21491700  0.03363700  1
  Cu  Cu11  1  0.00184900  0.18801200  0.56248400  1
  Cu  Cu12  1  0.98632400  0.67972500  0.06416500  1
  Cu  Cu13  1  0.06477700  0.03088500  0.71756700  1
  Cu  Cu14  1  0.06712500  0.53365300  0.21744700  1
  Cu  Cu15  1  0.43713200  0.40528600  0.84338800  1
  Cu  Cu16  1  0.43151600  0.91525000  0.34187000  1
  Cu  Cu17  1  0.43658400  0.71804100  0.53151500  1
  Cu  Cu18  1  0.93901200  0.15709200  0.09420200  1
  Cu  Cu19  1  0.50275400  0.56220200  0.68765200  1
  Cu  Cu20  1  0.48913500  0.44392100  0.31166900  1
  Cu  Cu21  1  0.06384700  0.84250500  0.90688400  1
  Cu  Cu22  1  0.56531900  0.09134500  0.65656300  1
  Cu  Cu23  1  0.56670300  0.59397400  0.15827600  1
  Cu  Cu24  1  0.56823500  0.28321200  0.46790300  1
  Cu  Cu25  1  0.93578400  0.46750200  0.78218800  1
  Cu  Cu26  1  0.93451000  0.65364900  0.58926400  1
  Cu  Cu27  1  0.93572300  0.96811200  0.28327200  1
  Cu  Cu28  1  0.00358800  0.31055000  0.93823200  1
  Cu  Cu29  1  0.00900900  0.81450100  0.43751300  1
  Cu  Cu30  1  0.49789800  0.93561800  0.81238100  1
  Cu  Cu31  1  0.56377700  0.78223500  0.96800200  1
