# generated using pymatgen
data_Cu6Ni2C
_symmetry_space_group_name_H-M   'P 1'
_cell_length_a   7.63776600
_cell_length_b   7.63776600
_cell_length_c   7.63776600
_cell_angle_alpha   90.00000000
_cell_angle_beta   90.00000000
_cell_angle_gamma   90.00000000
_symmetry_Int_Tables_number   1
_chemical_formula_structural   Cu6Ni2C
_chemical_formula_sum   'Cu24 Ni8 C4'
_cell_volume   445.55266532
_cell_formula_units_Z   4
loop_
 _symmetry_equiv_pos_site_id
 _symmetry_equiv_pos_as_xyz
  1  'x, y, z'
loop_
 _atom_site_type_symbol
 _atom_site_label
 _atom_site_symmetry_multiplicity
 _atom_site_fract_x
 _atom_site_fract_y
 _atom_site_fract_z
 _atom_site_occupancy
  C  C0  1  0.50000000  0.50000000  0.50000000  1
  C  C1  1  0.50000000  0.00000000  0.00000000  1
  C  C2  1  0.00000000  0.50000000  0.00000000  1
  C  C3  1  0.00000000  0.00000000  0.50000000  1
  Ni  Ni4  1  0.66643200  0.16643200  0.33356800  1
  Ni  Ni5  1  0.66643200  0.33356800  0.83356800  1
  Ni  Ni6  1  0.83356800  0.83356800  0.83356800  1
  Ni  Ni7  1  0.83356800  0.66643200  0.33356800  1
  Ni  Ni8  1  0.16643200  0.16643200  0.16643200  1
  Ni  Ni9  1  0.16643200  0.33356800  0.66643200  1
  Ni  Ni10  1  0.33356800  0.66643200  0.16643200  1
  Ni  Ni11  1  0.33356800  0.83356800  0.66643200  1
  Cu  Cu12  1  0.54878200  0.21748900  0.83188500  1
  Cu  Cu13  1  0.54878200  0.28251100  0.33188500  1
  Cu  Cu14  1  0.66811500  0.45121800  0.71748900  1
  Cu  Cu15  1  0.66811500  0.04878200  0.21748900  1
  Cu  Cu16  1  0.71748900  0.66811500  0.45121800  1
  Cu  Cu17  1  0.71748900  0.83188500  0.95121800  1
  Cu  Cu18  1  0.78251100  0.33188500  0.95121800  1
  Cu  Cu19  1  0.78251100  0.16811500  0.45121800  1
  Cu  Cu20  1  0.83188500  0.95121800  0.71748900  1
  Cu  Cu21  1  0.83188500  0.54878200  0.21748900  1
  Cu  Cu22  1  0.95121800  0.71748900  0.83188500  1
  Cu  Cu23  1  0.95121800  0.78251100  0.33188500  1
  Cu  Cu24  1  0.04878200  0.21748900  0.66811500  1
  Cu  Cu25  1  0.04878200  0.28251100  0.16811500  1
  Cu  Cu26  1  0.16811500  0.45121800  0.78251100  1
  Cu  Cu27  1  0.16811500  0.04878200  0.28251100  1
  Cu  Cu28  1  0.21748900  0.66811500  0.04878200  1
  Cu  Cu29  1  0.21748900  0.83188500  0.54878200  1
  Cu  Cu30  1  0.28251100  0.16811500  0.04878200  1
  Cu  Cu31  1  0.28251100  0.33188500  0.54878200  1
  Cu  Cu32  1  0.33188500  0.54878200  0.28251100  1
  Cu  Cu33  1  0.33188500  0.95121800  0.78251100  1
  Cu  Cu34  1  0.45121800  0.71748900  0.66811500  1
  Cu  Cu35  1  0.45121800  0.78251100  0.16811500  1
