# generated using pymatgen
data_Cu3Ni3C22
_symmetry_space_group_name_H-M   'P 1'
_cell_length_a   6.09485684
_cell_length_b   6.05321984
_cell_length_c   10.14553016
_cell_angle_alpha   90.00024086
_cell_angle_beta   89.74074279
_cell_angle_gamma   119.76995183
_symmetry_Int_Tables_number   1
_chemical_formula_structural   Cu3Ni3C22
_chemical_formula_sum   'Cu3 Ni3 C22'
_cell_volume   324.90135607
_cell_formula_units_Z   1
loop_
 _symmetry_equiv_pos_site_id
 _symmetry_equiv_pos_as_xyz
  1  'x, y, z'
loop_
 _atom_site_type_symbol
 _atom_site_label
 _atom_site_symmetry_multiplicity
 _atom_site_fract_x
 _atom_site_fract_y
 _atom_site_fract_z
 _atom_site_occupancy
  C  C0  1  0.33459100  0.66733900  0.90347700  1
  C  C1  1  0.00751800  0.00376000  0.99075800  1
  C  C2  1  0.01101800  0.00549700  0.49097000  1
  C  C3  1  0.67231700  0.33614700  0.39088400  1
  Ni  Ni4  1  0.66273300  0.83143900  0.21719500  1
  Ni  Ni5  1  0.82130300  0.64045200  0.71347100  1
  Ni  Ni6  1  0.82129700  0.18087300  0.71347700  1
  Cu  Cu7  1  0.17160100  0.82048900  0.21275900  1
  Cu  Cu8  1  0.17159800  0.35110500  0.21278600  1
  Cu  Cu9  1  0.34877900  0.17440200  0.71323200  1
  C  C10  1  0.32384100  0.66190900  0.49010000  1
  C  C11  1  0.64888000  0.32450600  0.99637900  1
  C  C12  1  0.15435900  0.83181800  0.59893200  1
  C  C13  1  0.03988200  0.51982600  0.34440200  1
  C  C14  1  0.35506400  0.67741300  0.10005900  1
  C  C15  1  0.99804600  0.99907300  0.30746900  1
  C  C16  1  0.99605300  0.99803400  0.80674200  1
  C  C17  1  0.15434600  0.32252000  0.59892200  1
  C  C18  1  0.49289100  0.96642300  0.34099600  1
  C  C19  1  0.49293500  0.52652200  0.34095600  1
  C  C20  1  0.31280800  0.15647000  0.09814600  1
  C  C21  1  0.66921300  0.83460800  0.59691100  1
  C  C22  1  0.52599400  0.49584100  0.84398900  1
  C  C23  1  0.52600400  0.03022600  0.84401700  1
  C  C24  1  0.66472700  0.33238400  0.58543200  1
  C  C25  1  0.82704100  0.67063900  0.10211900  1
  C  C26  1  0.96812100  0.48407700  0.85111600  1
  C  C27  1  0.82704000  0.15650800  0.10214600  1
