# generated using pymatgen
data_Cu4NiC
_symmetry_space_group_name_H-M   'P 1'
_cell_length_a   17.60980200
_cell_length_b   5.68591400
_cell_length_c   8.10748237
_cell_angle_alpha   88.42618767
_cell_angle_beta   90.00000000
_cell_angle_gamma   90.00000000
_symmetry_Int_Tables_number   1
_chemical_formula_structural   Cu4NiC
_chemical_formula_sum   'Cu32 Ni8 C8'
_cell_volume   811.47830528
_cell_formula_units_Z   8
loop_
 _symmetry_equiv_pos_site_id
 _symmetry_equiv_pos_as_xyz
  1  'x, y, z'
loop_
 _atom_site_type_symbol
 _atom_site_label
 _atom_site_symmetry_multiplicity
 _atom_site_fract_x
 _atom_site_fract_y
 _atom_site_fract_z
 _atom_site_occupancy
  C  C0  1  0.14139400  0.74477500  0.98266300  1
  C  C1  1  0.61246600  0.73698000  0.90009700  1
  C  C2  1  0.35860600  0.74477500  0.48266300  1
  C  C3  1  0.88753400  0.73698000  0.40009700  1
  C  C4  1  0.11246600  0.26302000  0.59990300  1
  C  C5  1  0.64139400  0.25522500  0.51733700  1
  C  C6  1  0.38753400  0.26302000  0.09990300  1
  C  C7  1  0.85860600  0.25522500  0.01733700  1
  Ni  Ni8  1  0.92110400  0.89920500  0.55872800  1
  Ni  Ni9  1  0.57889600  0.89920500  0.05872800  1
  Ni  Ni10  1  0.36347200  0.56386300  0.65418200  1
  Ni  Ni11  1  0.13652800  0.56386300  0.15418200  1
  Ni  Ni12  1  0.86347200  0.43613700  0.84581800  1
  Ni  Ni13  1  0.63652800  0.43613700  0.34581800  1
  Ni  Ni14  1  0.42110400  0.10079500  0.94127200  1
  Ni  Ni15  1  0.07889600  0.10079500  0.44127200  1
  Cu  Cu16  1  0.65065100  0.99538500  0.75306700  1
  Cu  Cu17  1  0.84934900  0.99538500  0.25306700  1
  Cu  Cu18  1  0.87193100  0.96356200  0.91933600  1
  Cu  Cu19  1  0.62806900  0.96356200  0.41933600  1
  Cu  Cu20  1  0.24710800  0.79375500  0.96197600  1
  Cu  Cu21  1  0.25289200  0.79375500  0.46197600  1
  Cu  Cu22  1  0.04031700  0.74412900  0.90571700  1
  Cu  Cu23  1  0.52831600  0.74118000  0.75566900  1
  Cu  Cu24  1  0.45968300  0.74412900  0.40571700  1
  Cu  Cu25  1  0.97168400  0.74118000  0.25566900  1
  Cu  Cu26  1  0.71530400  0.69951400  0.96042500  1
  Cu  Cu27  1  0.78469600  0.69951400  0.46042500  1
  Cu  Cu28  1  0.08711100  0.56669900  0.52133900  1
  Cu  Cu29  1  0.41288900  0.56669900  0.02133900  1
  Cu  Cu30  1  0.15751000  0.50140900  0.81453100  1
  Cu  Cu31  1  0.65751000  0.49859100  0.68546900  1
  Cu  Cu32  1  0.34249000  0.50140900  0.31453100  1
  Cu  Cu33  1  0.84249000  0.49859100  0.18546900  1
  Cu  Cu34  1  0.58711100  0.43330100  0.97866100  1
  Cu  Cu35  1  0.91288900  0.43330100  0.47866100  1
  Cu  Cu36  1  0.21530400  0.30048600  0.53957500  1
  Cu  Cu37  1  0.28469600  0.30048600  0.03957500  1
  Cu  Cu38  1  0.02831600  0.25882000  0.74433100  1
  Cu  Cu39  1  0.54031700  0.25587100  0.59428300  1
  Cu  Cu40  1  0.47168400  0.25882000  0.24433100  1
  Cu  Cu41  1  0.95968300  0.25587100  0.09428300  1
  Cu  Cu42  1  0.74710800  0.20624500  0.53802400  1
  Cu  Cu43  1  0.75289200  0.20624500  0.03802400  1
  Cu  Cu44  1  0.37193100  0.03643800  0.58066400  1
  Cu  Cu45  1  0.12806900  0.03643800  0.08066400  1
  Cu  Cu46  1  0.15065100  0.00461500  0.74693300  1
  Cu  Cu47  1  0.34934900  0.00461500  0.24693300  1
