# generated using pymatgen
data_Cu5Ni3C4
_symmetry_space_group_name_H-M   'P 1'
_cell_length_a   6.21423900
_cell_length_b   4.84572700
_cell_length_c   9.65472218
_cell_angle_alpha   88.01471422
_cell_angle_beta   90.00000000
_cell_angle_gamma   90.00000000
_symmetry_Int_Tables_number   1
_chemical_formula_structural   Cu5Ni3C4
_chemical_formula_sum   'Cu10 Ni6 C8'
_cell_volume   290.55336935
_cell_formula_units_Z   2
loop_
 _symmetry_equiv_pos_site_id
 _symmetry_equiv_pos_as_xyz
  1  'x, y, z'
loop_
 _atom_site_type_symbol
 _atom_site_label
 _atom_site_symmetry_multiplicity
 _atom_site_fract_x
 _atom_site_fract_y
 _atom_site_fract_z
 _atom_site_occupancy
  C  C0  1  0.00000000  0.00000000  0.00000000  1
  C  C1  1  0.50000000  0.00000000  0.00000000  1
  C  C2  1  0.00000000  0.00000000  0.50000000  1
  C  C3  1  0.50000000  0.00000000  0.50000000  1
  C  C4  1  0.25000000  0.59134200  0.75893400  1
  C  C5  1  0.75000000  0.53934100  0.73066700  1
  C  C6  1  0.25000000  0.46065900  0.26933300  1
  C  C7  1  0.75000000  0.40865800  0.24106600  1
  Ni  Ni8  1  0.75000000  0.18103500  0.09286000  1
  Ni  Ni9  1  0.00280700  0.28638800  0.35821700  1
  Ni  Ni10  1  0.49719300  0.28638800  0.35821700  1
  Ni  Ni11  1  0.99719300  0.71361200  0.64178300  1
  Ni  Ni12  1  0.50280700  0.71361200  0.64178300  1
  Ni  Ni13  1  0.25000000  0.81896500  0.90714000  1
  Cu  Cu14  1  0.25000000  0.18243500  0.59367700  1
  Cu  Cu15  1  0.75000000  0.19971500  0.60028800  1
  Cu  Cu16  1  0.25000000  0.21551400  0.10408200  1
  Cu  Cu17  1  0.99737700  0.32768400  0.83139300  1
  Cu  Cu18  1  0.50262300  0.32768400  0.83139300  1
  Cu  Cu19  1  0.00262300  0.67231600  0.16860700  1
  Cu  Cu20  1  0.49737700  0.67231600  0.16860700  1
  Cu  Cu21  1  0.75000000  0.81756500  0.40632300  1
  Cu  Cu22  1  0.75000000  0.78448600  0.89591800  1
  Cu  Cu23  1  0.25000000  0.80028500  0.39971200  1
