# generated using pymatgen
data_CuNiC48
_symmetry_space_group_name_H-M   'P 1'
_cell_length_a   5.43686100
_cell_length_b   5.53379019
_cell_length_c   38.61817823
_cell_angle_alpha   90.07275440
_cell_angle_beta   90.04505839
_cell_angle_gamma   90.23411052
_symmetry_Int_Tables_number   1
_chemical_formula_structural   CuNiC48
_chemical_formula_sum   'Cu2 Ni2 C96'
_cell_volume   1161.87281497
_cell_formula_units_Z   2
loop_
 _symmetry_equiv_pos_site_id
 _symmetry_equiv_pos_as_xyz
  1  'x, y, z'
loop_
 _atom_site_type_symbol
 _atom_site_label
 _atom_site_symmetry_multiplicity
 _atom_site_fract_x
 _atom_site_fract_y
 _atom_site_fract_z
 _atom_site_occupancy
  C  C0  1  0.00817100  0.95187300  0.95074600  1
  C  C1  1  0.01903200  0.96792600  0.34630900  1
  C  C2  1  0.00731200  0.96836900  0.14830600  1
  C  C3  1  0.00871000  0.96785400  0.54914900  1
  C  C4  1  0.00430300  0.94561500  0.75287800  1
  C  C5  1  0.49418000  0.46451800  0.14817300  1
  C  C6  1  0.48972800  0.45289900  0.95049500  1
  C  C7  1  0.48934800  0.46217200  0.34626200  1
  C  C8  1  0.48226800  0.45764100  0.54983200  1
  C  C9  1  0.48699100  0.44739700  0.75311700  1
  C  C10  1  0.50582000  0.53548200  0.85182700  1
  C  C11  1  0.51027200  0.54710100  0.04950500  1
  C  C12  1  0.51773200  0.54235900  0.45016800  1
  C  C13  1  0.51300900  0.55260300  0.24688300  1
  C  C14  1  0.51065200  0.53782800  0.65373800  1
  C  C15  1  0.99182900  0.04812700  0.04925400  1
  C  C16  1  0.99268800  0.03163100  0.85169400  1
  C  C17  1  0.99129000  0.03214600  0.45085100  1
  C  C18  1  0.99569700  0.05438500  0.24712200  1
  C  C19  1  0.98096800  0.03207400  0.65369100  1
  C  C20  1  0.00000000  0.50000000  0.00000000  1
  C  C21  1  0.99579300  0.51626000  0.19743100  1
  C  C22  1  0.99863500  0.51264000  0.29536900  1
  C  C23  1  0.00136500  0.48736000  0.70463100  1
  C  C24  1  0.50455700  0.98677800  0.90084300  1
  C  C25  1  0.49544300  0.01322200  0.09915700  1
  C  C26  1  0.50777300  0.98899300  0.80179900  1
  C  C27  1  0.50330800  0.00857100  0.29904200  1
  C  C28  1  0.49669200  0.99142900  0.70095800  1
  C  C29  1  0.50000000  0.00000000  0.00000000  1
  C  C30  1  0.49222700  0.01100700  0.19820100  1
  C  C31  1  0.50000000  0.00000000  0.50000000  1
  C  C32  1  0.99991800  0.48375200  0.90188900  1
  C  C33  1  0.00420700  0.48374000  0.80256900  1
  C  C34  1  0.00008200  0.51624800  0.09811100  1
  C  C35  1  0.00000000  0.50000000  0.50000000  1
  Ni  Ni36  1  0.99598100  0.49797900  0.60201600  1
  Ni  Ni37  1  0.00401900  0.50202100  0.39798400  1
  Cu  Cu38  1  0.50345900  0.00124300  0.39926800  1
  Cu  Cu39  1  0.49654100  0.99875700  0.60073200  1
  C  C40  1  0.07233100  0.47703000  0.85166700  1
  C  C41  1  0.08259400  0.48011200  0.04933800  1
  C  C42  1  0.08898000  0.48675500  0.24769500  1
  C  C43  1  0.41618900  0.97184400  0.45081900  1
  C  C44  1  0.08280800  0.47703300  0.65248400  1
  C  C45  1  0.20944500  0.21050400  0.99184500  1
  C  C46  1  0.21925700  0.21396700  0.18973400  1
  C  C47  1  0.21949400  0.21960000  0.38876700  1
  C  C48  1  0.20841500  0.21447200  0.59150900  1
  C  C49  1  0.19763700  0.20594600  0.79408200  1
  C  C50  1  0.20306100  0.21124900  0.90953800  1
  C  C51  1  0.21600900  0.21027400  0.10688700  1
  C  C52  1  0.22317000  0.22141100  0.30568000  1
  C  C53  1  0.21498500  0.21879000  0.50790600  1
  C  C54  1  0.19877600  0.20430900  0.71117900  1
  C  C55  1  0.28550100  0.71000900  0.90952800  1
  C  C56  1  0.28934300  0.71021000  0.99165200  1
  C  C57  1  0.29454400  0.71033800  0.10671000  1
  C  C58  1  0.29903500  0.71449900  0.18965500  1
  C  C59  1  0.28967600  0.71744300  0.38761000  1
  C  C60  1  0.27789600  0.70156600  0.71195300  1
  C  C61  1  0.27958300  0.71706500  0.50991200  1
  C  C62  1  0.27741100  0.71442700  0.59074100  1
  C  C63  1  0.29584800  0.72176500  0.30592300  1
  C  C64  1  0.28025500  0.70397300  0.79408900  1
  C  C65  1  0.41641000  0.97654200  0.85186400  1
  C  C66  1  0.42267100  0.97966200  0.04935900  1
  C  C67  1  0.09089900  0.49122500  0.44984300  1
  C  C68  1  0.43049500  0.98522400  0.24725700  1
  C  C69  1  0.40490200  0.96815200  0.65360600  1
  C  C70  1  0.58359000  0.02345800  0.14813600  1
  C  C71  1  0.57732900  0.02033800  0.95064100  1
  C  C72  1  0.59509800  0.03184800  0.34639400  1
  C  C73  1  0.90910100  0.50877500  0.55015700  1
  C  C74  1  0.56950500  0.01477600  0.75274300  1
  C  C75  1  0.70096500  0.28550100  0.81034500  1
  C  C76  1  0.70545600  0.28966200  0.89329000  1
  C  C77  1  0.71065700  0.28979000  0.00834800  1
  C  C78  1  0.71449900  0.28999100  0.09047200  1
  C  C79  1  0.72258900  0.28557300  0.40925900  1
  C  C80  1  0.71974500  0.29602700  0.20591100  1
  C  C81  1  0.72210400  0.29843400  0.28804700  1
  C  C82  1  0.71032400  0.28255700  0.61239000  1
  C  C83  1  0.72041700  0.28293500  0.49008800  1
  C  C84  1  0.70415200  0.27823500  0.69407700  1
  C  C85  1  0.78399100  0.78972600  0.89311300  1
  C  C86  1  0.78501500  0.78121000  0.49209400  1
  C  C87  1  0.79693900  0.78875100  0.09046200  1
  C  C88  1  0.80122400  0.79569100  0.28882100  1
  C  C89  1  0.77683000  0.77858900  0.69432000  1
  C  C90  1  0.78074300  0.78603300  0.81026600  1
  C  C91  1  0.79055500  0.78949600  0.00815500  1
  C  C92  1  0.80236300  0.79405400  0.20591800  1
  C  C93  1  0.79158500  0.78552800  0.40849100  1
  C  C94  1  0.78050600  0.78040000  0.61123300  1
  C  C95  1  0.91740600  0.51988800  0.95066200  1
  C  C96  1  0.92766900  0.52297000  0.14833300  1
  C  C97  1  0.91719200  0.52296700  0.34751600  1
  C  C98  1  0.58381100  0.02815600  0.54918100  1
  C  C99  1  0.91102000  0.51324500  0.75230500  1
