# generated using pymatgen
data_Cu4Ni2C3
_symmetry_space_group_name_H-M   'P 1'
_cell_length_a   9.47782200
_cell_length_b   4.75776100
_cell_length_c   4.78914770
_cell_angle_alpha   88.81763039
_cell_angle_beta   90.00000000
_cell_angle_gamma   90.00000000
_symmetry_Int_Tables_number   1
_chemical_formula_structural   Cu4Ni2C3
_chemical_formula_sum   'Cu8 Ni4 C6'
_cell_volume   215.91207040
_cell_formula_units_Z   2
loop_
 _symmetry_equiv_pos_site_id
 _symmetry_equiv_pos_as_xyz
  1  'x, y, z'
loop_
 _atom_site_type_symbol
 _atom_site_label
 _atom_site_symmetry_multiplicity
 _atom_site_fract_x
 _atom_site_fract_y
 _atom_site_fract_z
 _atom_site_occupancy
  C  C0  1  0.17446900  0.97512000  0.98912700  1
  C  C1  1  0.82553100  0.97512000  0.98912700  1
  C  C2  1  0.50000000  0.98223900  0.03235500  1
  C  C3  1  0.00000000  0.52040900  0.52980000  1
  C  C4  1  0.32322200  0.53133900  0.49175200  1
  C  C5  1  0.67677800  0.53133900  0.49175200  1
  Ni  Ni6  1  0.65648900  0.80374300  0.20169600  1
  Ni  Ni7  1  0.34351100  0.80374300  0.20169600  1
  Ni  Ni8  1  0.16647000  0.68181200  0.68677600  1
  Ni  Ni9  1  0.83353000  0.68181200  0.68677600  1
  Cu  Cu10  1  0.00000000  0.78643200  0.20314000  1
  Cu  Cu11  1  0.50000000  0.69724400  0.69701500  1
  Cu  Cu12  1  0.16497500  0.30217600  0.30341100  1
  Cu  Cu13  1  0.83502500  0.30217600  0.30341100  1
  Cu  Cu14  1  0.50000000  0.31062600  0.31135200  1
  Cu  Cu15  1  0.00000000  0.19476800  0.79808400  1
  Cu  Cu16  1  0.35026400  0.20998800  0.79113600  1
  Cu  Cu17  1  0.64973600  0.20998800  0.79113600  1
