# generated using pymatgen
data_Cu24Ni6C17
_symmetry_space_group_name_H-M   'P 1'
_cell_length_a   10.39377600
_cell_length_b   10.74188827
_cell_length_c   11.47144566
_cell_angle_alpha   69.13894729
_cell_angle_beta   68.41769818
_cell_angle_gamma   82.45217968
_symmetry_Int_Tables_number   1
_chemical_formula_structural   Cu24Ni6C17
_chemical_formula_sum   'Cu48 Ni12 C34'
_cell_volume   1112.90554367
_cell_formula_units_Z   2
loop_
 _symmetry_equiv_pos_site_id
 _symmetry_equiv_pos_as_xyz
  1  'x, y, z'
loop_
 _atom_site_type_symbol
 _atom_site_label
 _atom_site_symmetry_multiplicity
 _atom_site_fract_x
 _atom_site_fract_y
 _atom_site_fract_z
 _atom_site_occupancy
  C  C0  1  0.86093000  0.93005100  0.57008400  1
  C  C1  1  0.35961700  0.92516500  0.57223200  1
  C  C2  1  0.63679400  0.42913000  0.64502900  1
  C  C3  1  0.69743500  0.74997100  0.51794100  1
  C  C4  1  0.14408100  0.42224500  0.64904200  1
  C  C5  1  0.85591900  0.57775500  0.35095800  1
  C  C6  1  0.85912700  0.92385200  0.23423400  1
  C  C7  1  0.80108500  0.25147400  0.48231000  1
  C  C8  1  0.19891500  0.74852600  0.51769000  1
  C  C9  1  0.63769800  0.44245300  0.30624400  1
  C  C10  1  0.36338100  0.92932600  0.23519400  1
  C  C11  1  0.64038300  0.07483500  0.42776800  1
  C  C12  1  0.36320600  0.57087000  0.35497100  1
  C  C13  1  0.30256500  0.25002900  0.48205900  1
  C  C14  1  0.85897300  0.92274900  0.91035500  1
  C  C15  1  0.80405800  0.25005300  0.14827100  1
  C  C16  1  0.13583000  0.43139900  0.31139800  1
  C  C17  1  0.85924400  0.57664100  0.02605200  1
  C  C18  1  0.13907000  0.06994900  0.42991600  1
  C  C19  1  0.19695000  0.75191300  0.18320500  1
  C  C20  1  0.64050400  0.42534900  0.97806500  1
  C  C21  1  0.35949600  0.57465100  0.02193500  1
  C  C22  1  0.63770400  0.05757900  0.10138700  1
  C  C23  1  0.36229600  0.94242100  0.89861300  1
  C  C24  1  0.30241100  0.25031700  0.14887400  1
  C  C25  1  0.69758900  0.74968300  0.85112600  1
  C  C26  1  0.86417000  0.56860100  0.68860200  1
  C  C27  1  0.80305000  0.24808700  0.81679500  1
  C  C28  1  0.19594200  0.74994700  0.85172900  1
  C  C29  1  0.14102700  0.07725100  0.08964500  1
  C  C30  1  0.14075600  0.42335900  0.97394800  1
  C  C31  1  0.63661900  0.07067400  0.76480600  1
  C  C32  1  0.36230200  0.55754700  0.69375600  1
  C  C33  1  0.14087300  0.07614800  0.76576600  1
  Ni  Ni34  1  0.77277600  0.75030800  0.65900500  1
  Ni  Ni35  1  0.26927600  0.74941300  0.66100200  1
  Ni  Ni36  1  0.77868500  0.75015800  0.33525500  1
  Ni  Ni37  1  0.26704800  0.75009300  0.32762300  1
  Ni  Ni38  1  0.73072400  0.25058700  0.33899800  1
  Ni  Ni39  1  0.22722400  0.24969200  0.34099500  1
  Ni  Ni40  1  0.77896400  0.74976600  0.97884100  1
  Ni  Ni41  1  0.26892600  0.75073200  0.99283100  1
  Ni  Ni42  1  0.73107400  0.24926800  0.00716900  1
  Ni  Ni43  1  0.22103600  0.25023400  0.02115900  1
  Ni  Ni44  1  0.73295200  0.24990700  0.67237700  1
  Ni  Ni45  1  0.22131500  0.24984200  0.66474500  1
  Cu  Cu46  1  0.81008300  0.93678800  0.41922200  1
  Cu  Cu47  1  0.54767100  0.88185500  0.52364500  1
  Cu  Cu48  1  0.81273400  0.56581200  0.54226400  1
  Cu  Cu49  1  0.54905600  0.62265300  0.60936900  1
  Cu  Cu50  1  0.68927600  0.06560600  0.58131000  1
  Cu  Cu51  1  0.31012500  0.56253500  0.54266500  1
  Cu  Cu52  1  0.95186000  0.11781300  0.47680300  1
  Cu  Cu53  1  0.68987500  0.43746500  0.45733500  1
  Cu  Cu54  1  0.04814000  0.88218700  0.52319700  1
  Cu  Cu55  1  0.95280900  0.37838800  0.39143700  1
  Cu  Cu56  1  0.31072400  0.93439400  0.41869000  1
  Cu  Cu57  1  0.04719100  0.62161200  0.60856300  1
  Cu  Cu58  1  0.18991700  0.06321200  0.58077800  1
  Cu  Cu59  1  0.82306800  0.55084600  0.20862900  1
  Cu  Cu60  1  0.45232900  0.11814500  0.47635500  1
  Cu  Cu61  1  0.45094400  0.37734700  0.39063100  1
  Cu  Cu62  1  0.82347800  0.94879100  0.07609600  1
  Cu  Cu63  1  0.54334200  0.89093200  0.18853400  1
  Cu  Cu64  1  0.54331600  0.60898500  0.28256400  1
  Cu  Cu65  1  0.18726600  0.43418800  0.45773600  1
  Cu  Cu66  1  0.68880100  0.43699900  0.12453400  1
  Cu  Cu67  1  0.95215000  0.38033800  0.05254000  1
  Cu  Cu68  1  0.68886300  0.06292100  0.24951700  1
  Cu  Cu69  1  0.31040400  0.93739500  0.08366800  1
  Cu  Cu70  1  0.04826400  0.61692700  0.27731200  1
  Cu  Cu71  1  0.95209500  0.11922500  0.14470300  1
  Cu  Cu72  1  0.31106400  0.56587600  0.20720500  1
  Cu  Cu73  1  0.04735800  0.87919500  0.19276500  1
  Cu  Cu74  1  0.45092600  0.12254200  0.14185300  1
  Cu  Cu75  1  0.54763600  0.61808800  0.94480300  1
  Cu  Cu76  1  0.54907400  0.87745800  0.85814700  1
  Cu  Cu77  1  0.45236400  0.38191200  0.05519700  1
  Cu  Cu78  1  0.18714900  0.06584000  0.25074400  1
  Cu  Cu79  1  0.18966400  0.43648100  0.12623400  1
  Cu  Cu80  1  0.81033600  0.56351900  0.87376600  1
  Cu  Cu81  1  0.81285100  0.93416000  0.74925600  1
  Cu  Cu82  1  0.95173600  0.38307300  0.72268800  1
  Cu  Cu83  1  0.68893600  0.43412400  0.79279500  1
  Cu  Cu84  1  0.68959600  0.06260500  0.91633200  1
  Cu  Cu85  1  0.31113700  0.93707900  0.75048300  1
  Cu  Cu86  1  0.04785000  0.61966200  0.94746000  1
  Cu  Cu87  1  0.95264200  0.12080500  0.80723500  1
  Cu  Cu88  1  0.04790500  0.88077500  0.85529700  1
  Cu  Cu89  1  0.31119900  0.56300100  0.87546600  1
  Cu  Cu90  1  0.45668400  0.39101500  0.71743600  1
  Cu  Cu91  1  0.45665800  0.10906800  0.81146600  1
  Cu  Cu92  1  0.17693200  0.44915400  0.79137100  1
  Cu  Cu93  1  0.17652200  0.05120900  0.92390400  1
