# generated using pymatgen
data_Cu5NiC6
_symmetry_space_group_name_H-M   'P 1'
_cell_length_a   9.57877200
_cell_length_b   9.57877200
_cell_length_c   11.21699900
_cell_angle_alpha   90.00000000
_cell_angle_beta   90.00000000
_cell_angle_gamma   90.00000000
_symmetry_Int_Tables_number   1
_chemical_formula_structural   Cu5NiC6
_chemical_formula_sum   'Cu40 Ni8 C48'
_cell_volume   1029.19188500
_cell_formula_units_Z   8
loop_
 _symmetry_equiv_pos_site_id
 _symmetry_equiv_pos_as_xyz
  1  'x, y, z'
loop_
 _atom_site_type_symbol
 _atom_site_label
 _atom_site_symmetry_multiplicity
 _atom_site_fract_x
 _atom_site_fract_y
 _atom_site_fract_z
 _atom_site_occupancy
  C  C0  1  0.59646600  0.40353400  0.25000000  1
  C  C1  1  0.40353400  0.59646600  0.75000000  1
  C  C2  1  0.90353400  0.90353400  0.50000000  1
  C  C3  1  0.09646600  0.09646600  0.00000000  1
  C  C4  1  0.15365200  0.84634800  0.25000000  1
  C  C5  1  0.84634800  0.15365200  0.75000000  1
  C  C6  1  0.34634800  0.34634800  0.50000000  1
  C  C7  1  0.65365200  0.65365200  0.00000000  1
  C  C8  1  0.83896200  0.68559000  0.25534900  1
  C  C9  1  0.16103800  0.31441000  0.75534900  1
  C  C10  1  0.18559000  0.66103800  0.50534900  1
  C  C11  1  0.81441000  0.33896200  0.00534900  1
  C  C12  1  0.31441000  0.16103800  0.24465100  1
  C  C13  1  0.68559000  0.83896200  0.74465100  1
  C  C14  1  0.66103800  0.18559000  0.49465100  1
  C  C15  1  0.33896200  0.81441000  0.99465100  1
  C  C16  1  0.94050700  0.23442000  0.31772100  1
  C  C17  1  0.05949300  0.76558000  0.81772100  1
  C  C18  1  0.73442000  0.55949300  0.56772100  1
  C  C19  1  0.26558000  0.44050700  0.06772100  1
  C  C20  1  0.76558000  0.05949300  0.18227900  1
  C  C21  1  0.23442000  0.94050700  0.68227900  1
  C  C22  1  0.55949300  0.73442000  0.43227900  1
  C  C23  1  0.44050700  0.26558000  0.93227900  1
  C  C24  1  0.98157600  0.39460200  0.36753700  1
  C  C25  1  0.01842400  0.60539800  0.86753700  1
  C  C26  1  0.89460200  0.51842400  0.61753700  1
  C  C27  1  0.10539800  0.48157600  0.11753700  1
  C  C28  1  0.60539800  0.01842400  0.13246300  1
  C  C29  1  0.39460200  0.98157600  0.63246300  1
  C  C30  1  0.51842400  0.89460200  0.38246300  1
  C  C31  1  0.48157600  0.10539800  0.88246300  1
  C  C32  1  0.94320800  0.36956200  0.22448400  1
  C  C33  1  0.05679200  0.63043800  0.72448400  1
  C  C34  1  0.86956200  0.55679200  0.47448400  1
  C  C35  1  0.13043800  0.44320800  0.97448400  1
  C  C36  1  0.63043800  0.05679200  0.27551600  1
  C  C37  1  0.36956200  0.94320800  0.77551600  1
  C  C38  1  0.55679200  0.86956200  0.52551600  1
  C  C39  1  0.44320800  0.13043800  0.02551600  1
  C  C40  1  0.09641500  0.30293400  0.28804300  1
  C  C41  1  0.90358500  0.69706600  0.78804300  1
  C  C42  1  0.80293400  0.40358500  0.53804300  1
  C  C43  1  0.19706600  0.59641500  0.03804300  1
  C  C44  1  0.69706600  0.90358500  0.21195700  1
  C  C45  1  0.30293400  0.09641500  0.71195700  1
  C  C46  1  0.40358500  0.80293400  0.46195700  1
  C  C47  1  0.59641500  0.19706600  0.96195700  1
  Ni  Ni48  1  0.99055800  0.32654400  0.29819000  1
  Ni  Ni49  1  0.00944200  0.67345600  0.79819000  1
  Ni  Ni50  1  0.82654400  0.50944200  0.54819000  1
  Ni  Ni51  1  0.17345600  0.49055800  0.04819000  1
  Ni  Ni52  1  0.67345600  0.00944200  0.20181000  1
  Ni  Ni53  1  0.32654400  0.99055800  0.70181000  1
  Ni  Ni54  1  0.50944200  0.82654400  0.45181000  1
  Ni  Ni55  1  0.49055800  0.17345600  0.95181000  1
  Cu  Cu56  1  0.76584900  0.75106400  0.14410300  1
  Cu  Cu57  1  0.23415100  0.24893600  0.64410300  1
  Cu  Cu58  1  0.25106400  0.73415100  0.39410300  1
  Cu  Cu59  1  0.74893600  0.26584900  0.89410300  1
  Cu  Cu60  1  0.24893600  0.23415100  0.35589700  1
  Cu  Cu61  1  0.75106400  0.76584900  0.85589700  1
  Cu  Cu62  1  0.73415100  0.25106400  0.60589700  1
  Cu  Cu63  1  0.26584900  0.74893600  0.10589700  1
  Cu  Cu64  1  0.77994200  0.53859600  0.28187000  1
  Cu  Cu65  1  0.22005800  0.46140400  0.78187000  1
  Cu  Cu66  1  0.03859600  0.72005800  0.53187000  1
  Cu  Cu67  1  0.96140400  0.27994200  0.03187000  1
  Cu  Cu68  1  0.46140400  0.22005800  0.21813000  1
  Cu  Cu69  1  0.53859600  0.77994200  0.71813000  1
  Cu  Cu70  1  0.72005800  0.03859600  0.46813000  1
  Cu  Cu71  1  0.27994200  0.96140400  0.96813000  1
  Cu  Cu72  1  0.99878500  0.67320200  0.23859700  1
  Cu  Cu73  1  0.00121500  0.32679800  0.73859700  1
  Cu  Cu74  1  0.17320200  0.50121500  0.48859700  1
  Cu  Cu75  1  0.82679800  0.49878500  0.98859700  1
  Cu  Cu76  1  0.32679800  0.00121500  0.26140300  1
  Cu  Cu77  1  0.67320200  0.99878500  0.76140300  1
  Cu  Cu78  1  0.50121500  0.17320200  0.51140300  1
  Cu  Cu79  1  0.49878500  0.82679800  0.01140300  1
  Cu  Cu80  1  0.79986400  0.78230600  0.36225400  1
  Cu  Cu81  1  0.20013600  0.21769400  0.86225400  1
  Cu  Cu82  1  0.28230600  0.70013600  0.61225400  1
  Cu  Cu83  1  0.71769400  0.29986400  0.11225400  1
  Cu  Cu84  1  0.21769400  0.20013600  0.13774600  1
  Cu  Cu85  1  0.78230600  0.79986400  0.63774600  1
  Cu  Cu86  1  0.70013600  0.28230600  0.38774600  1
  Cu  Cu87  1  0.29986400  0.71769400  0.88774600  1
  Cu  Cu88  1  0.47277500  0.49088700  0.39254300  1
  Cu  Cu89  1  0.52722500  0.50911300  0.89254300  1
  Cu  Cu90  1  0.99088700  0.02722500  0.64254300  1
  Cu  Cu91  1  0.00911300  0.97277500  0.14254300  1
  Cu  Cu92  1  0.50911300  0.52722500  0.10745700  1
  Cu  Cu93  1  0.49088700  0.47277500  0.60745700  1
  Cu  Cu94  1  0.02722500  0.99088700  0.35745700  1
  Cu  Cu95  1  0.97277500  0.00911300  0.85745700  1
