# generated using pymatgen
data_Cu3NiC16
_symmetry_space_group_name_H-M   'P 1'
_cell_length_a   5.18212700
_cell_length_b   5.47844489
_cell_length_c   7.50870618
_cell_angle_alpha   94.15024164
_cell_angle_beta   90.41074235
_cell_angle_gamma   90.06825155
_symmetry_Int_Tables_number   1
_chemical_formula_structural   Cu3NiC16
_chemical_formula_sum   'Cu3 Ni1 C16'
_cell_volume   212.60737096
_cell_formula_units_Z   1
loop_
 _symmetry_equiv_pos_site_id
 _symmetry_equiv_pos_as_xyz
  1  'x, y, z'
loop_
 _atom_site_type_symbol
 _atom_site_label
 _atom_site_symmetry_multiplicity
 _atom_site_fract_x
 _atom_site_fract_y
 _atom_site_fract_z
 _atom_site_occupancy
  C  C0  1  0.99759000  0.44114000  0.30328500  1
  C  C1  1  0.50401100  0.92121300  0.77036500  1
  C  C2  1  0.00459400  0.48493500  0.74679500  1
  C  C3  1  0.49215400  0.92757600  0.29996000  1
  Ni  Ni4  1  0.50078000  0.49878200  0.49787100  1
  Cu  Cu5  1  0.99710200  0.00170300  0.00574000  1
  Cu  Cu6  1  0.00405900  0.00194500  0.50595500  1
  Cu  Cu7  1  0.50086600  0.49705200  0.99933600  1
  C  C8  1  0.29330800  0.19431200  0.43584600  1
  C  C9  1  0.12409300  0.00754800  0.75178600  1
  C  C10  1  0.30560500  0.82439700  0.05780900  1
  C  C11  1  0.19354600  0.70962200  0.43762800  1
  C  C12  1  0.81795100  0.70022100  0.92920400  1
  C  C13  1  0.38678600  0.51810600  0.75643000  1
  C  C14  1  0.61605600  0.51050200  0.24086400  1
  C  C15  1  0.17582000  0.30925300  0.05940400  1
  C  C16  1  0.81843700  0.30646100  0.54721300  1
  C  C17  1  0.69500500  0.18080200  0.93112000  1
  C  C18  1  0.87346300  0.00473200  0.24495300  1
  C  C19  1  0.69877300  0.81729400  0.54963700  1
