# generated using pymatgen
data_CuNi3C10
_symmetry_space_group_name_H-M   'P 1'
_cell_length_a   8.42160100
_cell_length_b   8.42160100
_cell_length_c   8.42160100
_cell_angle_alpha   90.00000000
_cell_angle_beta   90.00000000
_cell_angle_gamma   90.00000000
_symmetry_Int_Tables_number   1
_chemical_formula_structural   CuNi3C10
_chemical_formula_sum   'Cu4 Ni12 C40'
_cell_volume   597.28826816
_cell_formula_units_Z   4
loop_
 _symmetry_equiv_pos_site_id
 _symmetry_equiv_pos_as_xyz
  1  'x, y, z'
loop_
 _atom_site_type_symbol
 _atom_site_label
 _atom_site_symmetry_multiplicity
 _atom_site_fract_x
 _atom_site_fract_y
 _atom_site_fract_z
 _atom_site_occupancy
  C  C0  1  0.99876500  0.99876500  0.99876500  1
  C  C1  1  0.25123500  0.25123500  0.25123500  1
  C  C2  1  0.24876500  0.74876500  0.75123500  1
  C  C3  1  0.50123500  0.00123500  0.49876500  1
  C  C4  1  0.49876500  0.50123500  0.00123500  1
  C  C5  1  0.75123500  0.24876500  0.74876500  1
  C  C6  1  0.74876500  0.75123500  0.24876500  1
  C  C7  1  0.00123500  0.49876500  0.50123500  1
  Ni  Ni8  1  0.12963200  0.12036800  0.62500000  1
  Ni  Ni9  1  0.12500000  0.37036800  0.87963200  1
  Ni  Ni10  1  0.12036800  0.62500000  0.12963200  1
  Ni  Ni11  1  0.37963200  0.37500000  0.62963200  1
  Ni  Ni12  1  0.37500000  0.62963200  0.37963200  1
  Ni  Ni13  1  0.37036800  0.87963200  0.12500000  1
  Ni  Ni14  1  0.62963200  0.37963200  0.37500000  1
  Ni  Ni15  1  0.62500000  0.12963200  0.12036800  1
  Ni  Ni16  1  0.62036800  0.87500000  0.87036800  1
  Ni  Ni17  1  0.87963200  0.12500000  0.37036800  1
  Ni  Ni18  1  0.87500000  0.87036800  0.62036800  1
  Ni  Ni19  1  0.87036800  0.62036800  0.87500000  1
  Cu  Cu20  1  0.12500000  0.87500000  0.37500000  1
  Cu  Cu21  1  0.37500000  0.12500000  0.87500000  1
  Cu  Cu22  1  0.62500000  0.62500000  0.62500000  1
  Cu  Cu23  1  0.87500000  0.37500000  0.12500000  1
  C  C24  1  0.10727300  0.12327600  0.39065200  1
  C  C25  1  0.10934800  0.89272700  0.62327600  1
  C  C26  1  0.11113700  0.61113700  0.88886300  1
  C  C27  1  0.12672400  0.14272700  0.85934800  1
  C  C28  1  0.12327600  0.39065200  0.10727300  1
  C  C29  1  0.13886300  0.36113700  0.63886300  1
  C  C30  1  0.14065200  0.62672400  0.35727300  1
  C  C31  1  0.14272700  0.85934800  0.12672400  1
  C  C32  1  0.35727300  0.14065200  0.62672400  1
  C  C33  1  0.35934800  0.37327600  0.85727300  1
  C  C34  1  0.36113700  0.63886300  0.13886300  1
  C  C35  1  0.37672400  0.60934800  0.60727300  1
  C  C36  1  0.37327600  0.85727300  0.35934800  1
  C  C37  1  0.38886300  0.38886300  0.38886300  1
  C  C38  1  0.39065200  0.10727300  0.12327600  1
  C  C39  1  0.39272700  0.87672400  0.89065200  1
  C  C40  1  0.60727300  0.37672400  0.60934800  1
  C  C41  1  0.60934800  0.60727300  0.37672400  1
  C  C42  1  0.61113700  0.88886300  0.11113700  1
  C  C43  1  0.62672400  0.35727300  0.14065200  1
  C  C44  1  0.62327600  0.10934800  0.89272700  1
  C  C45  1  0.63886300  0.13886300  0.36113700  1
  C  C46  1  0.64065200  0.87327600  0.64272700  1
  C  C47  1  0.64272700  0.64065200  0.87327600  1
  C  C48  1  0.85727300  0.35934800  0.37327600  1
  C  C49  1  0.85934800  0.12672400  0.14272700  1
  C  C50  1  0.86113700  0.86113700  0.86113700  1
  C  C51  1  0.87672400  0.89065200  0.39272700  1
  C  C52  1  0.87327600  0.64272700  0.64065200  1
  C  C53  1  0.88886300  0.11113700  0.61113700  1
  C  C54  1  0.89065200  0.39272700  0.87672400  1
  C  C55  1  0.89272700  0.62327600  0.10934800  1
