# generated using pymatgen
data_Cu3NiC2
_symmetry_space_group_name_H-M   'P 1'
_cell_length_a   4.70590322
_cell_length_b   4.70590322
_cell_length_c   15.75133100
_cell_angle_alpha   90.00000000
_cell_angle_beta   90.00000000
_cell_angle_gamma   93.55156873
_symmetry_Int_Tables_number   1
_chemical_formula_structural   Cu3NiC2
_chemical_formula_sum   'Cu15 Ni5 C10'
_cell_volume   348.15156662
_cell_formula_units_Z   5
loop_
 _symmetry_equiv_pos_site_id
 _symmetry_equiv_pos_as_xyz
  1  'x, y, z'
loop_
 _atom_site_type_symbol
 _atom_site_label
 _atom_site_symmetry_multiplicity
 _atom_site_fract_x
 _atom_site_fract_y
 _atom_site_fract_z
 _atom_site_occupancy
  C  C0  1  0.96338200  0.96338200  0.80079700  1
  C  C1  1  0.03598800  0.03598800  0.00000000  1
  C  C2  1  0.96338200  0.96338200  0.19920300  1
  C  C3  1  0.02808300  0.02808300  0.39914600  1
  C  C4  1  0.02808300  0.02808300  0.60085400  1
  C  C5  1  0.50080300  0.50080300  0.90021000  1
  C  C6  1  0.49475300  0.49475300  0.29941000  1
  C  C7  1  0.50080300  0.50080300  0.09979000  1
  C  C8  1  0.49475300  0.49475300  0.70059000  1
  C  C9  1  0.49038300  0.49038300  0.50000000  1
  Ni  Ni10  1  0.31130000  0.31130000  0.00000000  1
  Ni  Ni11  1  0.30384700  0.30384700  0.39891000  1
  Ni  Ni12  1  0.30384700  0.30384700  0.60109000  1
  Ni  Ni13  1  0.68792900  0.68792900  0.79960500  1
  Ni  Ni14  1  0.68792900  0.68792900  0.20039500  1
  Cu  Cu15  1  0.80628000  0.19431500  0.90020500  1
  Cu  Cu16  1  0.80128600  0.18902100  0.29960200  1
  Cu  Cu17  1  0.80628000  0.19431500  0.09979500  1
  Cu  Cu18  1  0.81288900  0.20254500  0.50000000  1
  Cu  Cu19  1  0.80128600  0.18902100  0.70039800  1
  Cu  Cu20  1  0.27756400  0.27756400  0.80066000  1
  Cu  Cu21  1  0.27756400  0.27756400  0.19934000  1
  Cu  Cu22  1  0.72164300  0.72164300  0.00000000  1
  Cu  Cu23  1  0.71536100  0.71536100  0.40114900  1
  Cu  Cu24  1  0.71536100  0.71536100  0.59885100  1
  Cu  Cu25  1  0.19431500  0.80628000  0.90020500  1
  Cu  Cu26  1  0.18902100  0.80128600  0.29960200  1
  Cu  Cu27  1  0.19431500  0.80628000  0.09979500  1
  Cu  Cu28  1  0.18902100  0.80128600  0.70039800  1
  Cu  Cu29  1  0.20254500  0.81288900  0.50000000  1
