# generated using pymatgen
data_Cu2(NiC5)3
_symmetry_space_group_name_H-M   'P 1'
_cell_length_a   9.34298700
_cell_length_b   9.03901700
_cell_length_c   15.26444368
_cell_angle_alpha   55.34465382
_cell_angle_beta   90.00000000
_cell_angle_gamma   90.00000000
_symmetry_Int_Tables_number   1
_chemical_formula_structural   Cu2(NiC5)3
_chemical_formula_sum   'Cu8 Ni12 C60'
_cell_volume   1060.40072196
_cell_formula_units_Z   4
loop_
 _symmetry_equiv_pos_site_id
 _symmetry_equiv_pos_as_xyz
  1  'x, y, z'
loop_
 _atom_site_type_symbol
 _atom_site_label
 _atom_site_symmetry_multiplicity
 _atom_site_fract_x
 _atom_site_fract_y
 _atom_site_fract_z
 _atom_site_occupancy
  C  C0  1  0.91295300  0.36479700  0.70137800  1
  C  C1  1  0.48487200  0.72185300  0.34747000  1
  C  C2  1  0.22115000  0.00057500  0.18228600  1
  C  C3  1  0.72115000  0.99942500  0.31771400  1
  C  C4  1  0.41295300  0.63520300  0.79862200  1
  C  C5  1  0.98487200  0.27814700  0.15253000  1
  C  C6  1  0.01512800  0.72185300  0.84747000  1
  C  C7  1  0.58704700  0.36479700  0.20137800  1
  C  C8  1  0.27885000  0.00057500  0.68228600  1
  C  C9  1  0.77885000  0.99942500  0.81771400  1
  C  C10  1  0.51512800  0.27814700  0.65253000  1
  C  C11  1  0.08704700  0.63520300  0.29862200  1
  Ni  Ni12  1  0.75408100  0.54323200  0.48682700  1
  Ni  Ni13  1  0.61783000  0.26406100  0.85090700  1
  Ni  Ni14  1  0.87867800  0.97662700  0.13273400  1
  Ni  Ni15  1  0.11783000  0.73593900  0.64909300  1
  Ni  Ni16  1  0.37867800  0.02337300  0.36726600  1
  Ni  Ni17  1  0.25408100  0.45676800  0.01317300  1
  Ni  Ni18  1  0.74591900  0.54323200  0.98682700  1
  Ni  Ni19  1  0.62132200  0.97662700  0.63273400  1
  Ni  Ni20  1  0.88217000  0.26406100  0.35090700  1
  Ni  Ni21  1  0.12132200  0.02337300  0.86726600  1
  Ni  Ni22  1  0.38217000  0.73593900  0.14909300  1
  Ni  Ni23  1  0.24591900  0.45676800  0.51317300  1
  Cu  Cu24  1  0.98188800  0.36421000  0.88912900  1
  Cu  Cu25  1  0.48188800  0.63579000  0.61087100  1
  Cu  Cu26  1  0.51811200  0.36421000  0.38912900  1
  Cu  Cu27  1  0.01811200  0.63579000  0.11087100  1
  Cu  Cu28  1  0.02865600  0.87285900  0.37793500  1
  Cu  Cu29  1  0.52865600  0.12714100  0.12206500  1
  Cu  Cu30  1  0.47134400  0.87285900  0.87793500  1
  Cu  Cu31  1  0.97134400  0.12714100  0.62206500  1
  C  C32  1  0.10974200  0.63989700  0.43037200  1
  C  C33  1  0.10456800  0.17843100  0.91127800  1
  C  C34  1  0.35455700  0.45343200  0.61733300  1
  C  C35  1  0.42407300  0.89085500  0.19400000  1
  C  C36  1  0.63586700  0.50103100  0.60051500  1
  C  C37  1  0.82081100  0.27547300  0.84989000  1
  C  C38  1  0.57038700  0.14883600  0.99611900  1
  C  C39  1  0.01759100  0.88726500  0.24156500  1
  C  C40  1  0.70451900  0.99312300  0.18855200  1
  C  C41  1  0.83641000  0.77493800  0.41801000  1
  C  C42  1  0.51713600  0.48196800  0.76637200  1
  C  C43  1  0.01713600  0.51803200  0.73362800  1
  C  C44  1  0.94523900  0.21970900  0.04295000  1
  C  C45  1  0.44523900  0.78029100  0.45705000  1
  C  C46  1  0.33641000  0.22506200  0.08199000  1
  C  C47  1  0.20451900  0.00687700  0.31144800  1
  C  C48  1  0.07038700  0.85116400  0.50388100  1
  C  C49  1  0.51759100  0.11273500  0.25843500  1
  C  C50  1  0.32081100  0.72452700  0.65011000  1
  C  C51  1  0.13586700  0.49896900  0.89948500  1
  C  C52  1  0.85455700  0.54656800  0.88266700  1
  C  C53  1  0.60456800  0.82156900  0.58872200  1
  C  C54  1  0.92407300  0.10914500  0.30600000  1
  C  C55  1  0.60974200  0.36010300  0.06962800  1
  C  C56  1  0.39025800  0.63989700  0.93037200  1
  C  C57  1  0.07592700  0.89085500  0.69400000  1
  C  C58  1  0.39543200  0.17843100  0.41127800  1
  C  C59  1  0.14544300  0.45343200  0.11733300  1
  C  C60  1  0.86413300  0.50103100  0.10051500  1
  C  C61  1  0.67918900  0.27547300  0.34989000  1
  C  C62  1  0.48240900  0.88726500  0.74156500  1
  C  C63  1  0.92961300  0.14883600  0.49611900  1
  C  C64  1  0.79548100  0.99312300  0.68855200  1
  C  C65  1  0.66359000  0.77493800  0.91801000  1
  C  C66  1  0.55476100  0.21970900  0.54295000  1
  C  C67  1  0.05476100  0.78029100  0.95705000  1
  C  C68  1  0.98286400  0.48196800  0.26637200  1
  C  C69  1  0.48286400  0.51803200  0.23362800  1
  C  C70  1  0.16359000  0.22506200  0.58199000  1
  C  C71  1  0.29548100  0.00687700  0.81144800  1
  C  C72  1  0.98240900  0.11273500  0.75843500  1
  C  C73  1  0.42961300  0.85116400  0.00388100  1
  C  C74  1  0.17918900  0.72452700  0.15011000  1
  C  C75  1  0.36413300  0.49896900  0.39948500  1
  C  C76  1  0.57592700  0.10914500  0.80600000  1
  C  C77  1  0.64544300  0.54656800  0.38266700  1
  C  C78  1  0.89543200  0.82156900  0.08872200  1
  C  C79  1  0.89025800  0.36010300  0.56962800  1
