# generated using pymatgen
data_Cu4NiC11
_symmetry_space_group_name_H-M   'P 1'
_cell_length_a   6.03372346
_cell_length_b   6.03372346
_cell_length_c   5.54599311
_cell_angle_alpha   64.42012901
_cell_angle_beta   64.42012901
_cell_angle_gamma   55.93336099
_symmetry_Int_Tables_number   1
_chemical_formula_structural   Cu4NiC11
_chemical_formula_sum   'Cu4 Ni1 C11'
_cell_volume   145.90856647
_cell_formula_units_Z   1
loop_
 _symmetry_equiv_pos_site_id
 _symmetry_equiv_pos_as_xyz
  1  'x, y, z'
loop_
 _atom_site_type_symbol
 _atom_site_label
 _atom_site_symmetry_multiplicity
 _atom_site_fract_x
 _atom_site_fract_y
 _atom_site_fract_z
 _atom_site_occupancy
  C  C0  1  0.00000000  0.50000000  0.00000000  1
  C  C1  1  0.00000000  0.00000000  0.50000000  1
  C  C2  1  0.50000000  0.00000000  0.00000000  1
  Ni  Ni3  1  0.50000000  0.50000000  0.00000000  1
  Cu  Cu4  1  0.50000000  0.50000000  0.50000000  1
  Cu  Cu5  1  0.00000000  0.00000000  0.00000000  1
  Cu  Cu6  1  0.00000000  0.50000000  0.50000000  1
  Cu  Cu7  1  0.50000000  0.00000000  0.50000000  1
  C  C8  1  0.29472400  0.29472400  0.23780600  1
  C  C9  1  0.24287200  0.70349600  0.77188700  1
  C  C10  1  0.70349600  0.24287200  0.77188700  1
  C  C11  1  0.79402400  0.79402400  0.24145000  1
  C  C12  1  0.20597600  0.20597600  0.75855000  1
  C  C13  1  0.29650400  0.75712800  0.22811300  1
  C  C14  1  0.75712800  0.29650400  0.22811300  1
  C  C15  1  0.70527600  0.70527600  0.76219400  1
