# generated using pymatgen
data_Cu3NiC
_symmetry_space_group_name_H-M   'P 1'
_cell_length_a   6.81116500
_cell_length_b   6.81116500
_cell_length_c   6.81116500
_cell_angle_alpha   90.00000000
_cell_angle_beta   90.00000000
_cell_angle_gamma   90.00000000
_symmetry_Int_Tables_number   1
_chemical_formula_structural   Cu3NiC
_chemical_formula_sum   'Cu12 Ni4 C4'
_cell_volume   315.98335320
_cell_formula_units_Z   4
loop_
 _symmetry_equiv_pos_site_id
 _symmetry_equiv_pos_as_xyz
  1  'x, y, z'
loop_
 _atom_site_type_symbol
 _atom_site_label
 _atom_site_symmetry_multiplicity
 _atom_site_fract_x
 _atom_site_fract_y
 _atom_site_fract_z
 _atom_site_occupancy
  C  C0  1  0.06995400  0.06995400  0.06995400  1
  C  C1  1  0.43004600  0.93004600  0.56995400  1
  C  C2  1  0.56995400  0.43004600  0.93004600  1
  C  C3  1  0.93004600  0.56995400  0.43004600  1
  Ni  Ni4  1  0.07991400  0.57991400  0.92008600  1
  Ni  Ni5  1  0.42008600  0.42008600  0.42008600  1
  Ni  Ni6  1  0.57991400  0.92008600  0.07991400  1
  Ni  Ni7  1  0.92008600  0.07991400  0.57991400  1
  Cu  Cu8  1  0.00478000  0.19336100  0.40772500  1
  Cu  Cu9  1  0.09227500  0.99522000  0.69336100  1
  Cu  Cu10  1  0.19336100  0.40772500  0.00478000  1
  Cu  Cu11  1  0.30663900  0.59227500  0.50478000  1
  Cu  Cu12  1  0.40772500  0.00478000  0.19336100  1
  Cu  Cu13  1  0.49522000  0.80663900  0.90772500  1
  Cu  Cu14  1  0.50478000  0.30663900  0.59227500  1
  Cu  Cu15  1  0.59227500  0.50478000  0.30663900  1
  Cu  Cu16  1  0.69336100  0.09227500  0.99522000  1
  Cu  Cu17  1  0.80663900  0.90772500  0.49522000  1
  Cu  Cu18  1  0.90772500  0.49522000  0.80663900  1
  Cu  Cu19  1  0.99522000  0.69336100  0.09227500  1
