# generated using pymatgen
data_Cu6NiC33
_symmetry_space_group_name_H-M   'P 1'
_cell_length_a   8.54765800
_cell_length_b   8.63730619
_cell_length_c   8.72215530
_cell_angle_alpha   61.49892352
_cell_angle_beta   61.99499940
_cell_angle_gamma   62.62247605
_symmetry_Int_Tables_number   1
_chemical_formula_structural   Cu6NiC33
_chemical_formula_sum   'Cu6 Ni1 C33'
_cell_volume   476.01065407
_cell_formula_units_Z   1
loop_
 _symmetry_equiv_pos_site_id
 _symmetry_equiv_pos_as_xyz
  1  'x, y, z'
loop_
 _atom_site_type_symbol
 _atom_site_label
 _atom_site_symmetry_multiplicity
 _atom_site_fract_x
 _atom_site_fract_y
 _atom_site_fract_z
 _atom_site_occupancy
  C  C0  1  0.99705000  0.99432600  0.97505500  1
  C  C1  1  0.65125300  0.84690200  0.24942200  1
  C  C2  1  0.50248700  0.50152300  0.51305500  1
  C  C3  1  0.35034800  0.16022900  0.70961300  1
  C  C4  1  0.15910700  0.70717100  0.35578600  1
  C  C5  1  0.70974700  0.35625300  0.16003900  1
  C  C6  1  0.85724700  0.85689600  0.85643800  1
  C  C7  1  0.64307600  0.64144800  0.64527700  1
  C  C8  1  0.34556700  0.34887400  0.35051300  1
  Ni  Ni9  1  0.14653900  0.15231300  0.14397300  1
  Cu  Cu10  1  0.94373000  0.55883000  0.25056400  1
  Cu  Cu11  1  0.56336500  0.25835200  0.94366300  1
  Cu  Cu12  1  0.24884500  0.94160300  0.55979400  1
  Cu  Cu13  1  0.03978800  0.46168300  0.75330400  1
  Cu  Cu14  1  0.74941700  0.03594300  0.45784000  1
  Cu  Cu15  1  0.46345000  0.75637600  0.04573600  1
  C  C16  1  0.50185400  0.71363000  0.88088000  1
  C  C17  1  0.88324600  0.49292800  0.69283500  1
  C  C18  1  0.74136200  0.09235600  0.93676600  1
  C  C19  1  0.69671500  0.87907900  0.47087700  1
  C  C20  1  0.39514400  0.20135600  0.98114800  1
  C  C21  1  0.57313800  0.41615000  0.75508300  1
  C  C22  1  0.08385300  0.92149200  0.74189400  1
  C  C23  1  0.41141300  0.75933600  0.55963600  1
  C  C24  1  0.99802500  0.60820700  0.82642900  1
  C  C25  1  0.74824900  0.57497000  0.39460400  1
  C  C26  1  0.06442600  0.26053500  0.90957600  1
  C  C27  1  0.80703000  0.98507800  0.61919300  1
  C  C28  1  0.19364800  0.98764000  0.39159500  1
  C  C29  1  0.92717200  0.74961900  0.09431700  1
  C  C30  1  0.23172000  0.44436200  0.59721900  1
  C  C31  1  0.98507800  0.39526000  0.19100200  1
  C  C32  1  0.59337000  0.22445600  0.44079600  1
  C  C33  1  0.91006500  0.06513300  0.26470100  1
  C  C34  1  0.44088100  0.59699200  0.23365900  1
  C  C35  1  0.61852400  0.81921200  0.02410800  1
  C  C36  1  0.30428200  0.09685300  0.54048100  1
  C  C37  1  0.26736000  0.91375900  0.06925700  1
  C  C38  1  0.09693500  0.52934200  0.31477300  1
  C  C39  1  0.53249100  0.31653400  0.09910100  1
