# generated using pymatgen
data_CuNi2C7
_symmetry_space_group_name_H-M   'P 1'
_cell_length_a   16.01080500
_cell_length_b   7.07665600
_cell_length_c   10.79899478
_cell_angle_alpha   89.10421978
_cell_angle_beta   90.00000000
_cell_angle_gamma   90.00000000
_symmetry_Int_Tables_number   1
_chemical_formula_structural   CuNi2C7
_chemical_formula_sum   'Cu4 Ni8 C28'
_cell_volume   1223.40853071
_cell_formula_units_Z   4
loop_
 _symmetry_equiv_pos_site_id
 _symmetry_equiv_pos_as_xyz
  1  'x, y, z'
loop_
 _atom_site_type_symbol
 _atom_site_label
 _atom_site_symmetry_multiplicity
 _atom_site_fract_x
 _atom_site_fract_y
 _atom_site_fract_z
 _atom_site_occupancy
  Ni  Ni0  1  0.22109600  0.73060500  0.05036200  1
  Ni  Ni1  1  0.56174700  0.73138600  0.17573600  1
  Ni  Ni2  1  0.06174700  0.26861400  0.32426400  1
  Ni  Ni3  1  0.72109600  0.26939500  0.44963800  1
  Ni  Ni4  1  0.27890400  0.73060500  0.55036200  1
  Ni  Ni5  1  0.93825300  0.73138600  0.67573600  1
  Ni  Ni6  1  0.43825300  0.26861400  0.82426400  1
  Ni  Ni7  1  0.77890400  0.26939500  0.94963800  1
  Cu  Cu8  1  0.87357200  0.78092400  0.21742600  1
  Cu  Cu9  1  0.37357200  0.21907600  0.28257400  1
  Cu  Cu10  1  0.62642800  0.78092400  0.71742600  1
  Cu  Cu11  1  0.12642800  0.21907600  0.78257400  1
  C  C12  1  0.14183800  0.29673900  0.03744500  1
  C  C13  1  0.39653300  0.99546000  0.06624300  1
  C  C14  1  0.39616300  0.49363100  0.07967700  1
  C  C15  1  0.92893100  0.14055800  0.12335500  1
  C  C16  1  0.74015700  0.50541800  0.19529100  1
  C  C17  1  0.72405800  0.00353500  0.20561000  1
  C  C18  1  0.04480700  0.69742600  0.21253400  1
  C  C19  1  0.54480700  0.30257400  0.28746600  1
  C  C20  1  0.22405800  0.99646500  0.29439000  1
  C  C21  1  0.24015700  0.49458200  0.30470900  1
  C  C22  1  0.42893100  0.85944200  0.37664500  1
  C  C23  1  0.89616300  0.50636900  0.42032300  1
  C  C24  1  0.89653300  0.00454000  0.43375700  1
  C  C25  1  0.64183800  0.70326100  0.46255500  1
  C  C26  1  0.35816200  0.29673900  0.53744500  1
  C  C27  1  0.10346700  0.99546000  0.56624300  1
  C  C28  1  0.10383700  0.49363100  0.57967700  1
  C  C29  1  0.57106900  0.14055800  0.62335500  1
  C  C30  1  0.75984300  0.50541800  0.69529100  1
  C  C31  1  0.77594200  0.00353500  0.70561000  1
  C  C32  1  0.45519300  0.69742600  0.71253400  1
  C  C33  1  0.95519300  0.30257400  0.78746600  1
  C  C34  1  0.27594200  0.99646500  0.79439000  1
  C  C35  1  0.25984300  0.49458200  0.80470900  1
  C  C36  1  0.07106900  0.85944200  0.87664500  1
  C  C37  1  0.60383700  0.50636900  0.92032300  1
  C  C38  1  0.60346700  0.00454000  0.93375700  1
  C  C39  1  0.85816200  0.70326100  0.96255500  1
