# generated using pymatgen
data_Cu2Ni4C5
_symmetry_space_group_name_H-M   'P 1'
_cell_length_a   5.97824853
_cell_length_b   5.97824853
_cell_length_c   14.94073027
_cell_angle_alpha   89.90706133
_cell_angle_beta   89.90706133
_cell_angle_gamma   60.21697584
_symmetry_Int_Tables_number   1
_chemical_formula_structural   Cu2Ni4C5
_chemical_formula_sum   'Cu8 Ni16 C20'
_cell_volume   463.44160260
_cell_formula_units_Z   4
loop_
 _symmetry_equiv_pos_site_id
 _symmetry_equiv_pos_as_xyz
  1  'x, y, z'
loop_
 _atom_site_type_symbol
 _atom_site_label
 _atom_site_symmetry_multiplicity
 _atom_site_fract_x
 _atom_site_fract_y
 _atom_site_fract_z
 _atom_site_occupancy
  C  C0  1  0.13652200  0.71092700  0.16641200  1
  C  C1  1  0.14762600  0.66909000  0.66711200  1
  C  C2  1  0.49922500  0.49922500  0.02689400  1
  C  C3  1  0.71092700  0.13652200  0.16641200  1
  C  C4  1  0.66909000  0.14762600  0.66711200  1
  C  C5  1  0.33114500  0.33114500  0.29241700  1
  C  C6  1  0.16368000  0.16368000  0.66306500  1
  C  C7  1  0.47441000  0.99662900  0.04588600  1
  C  C8  1  0.67325100  0.67325100  0.17523400  1
  C  C9  1  0.99662900  0.47441000  0.04588600  1
  C  C10  1  0.32931300  0.86105000  0.29658200  1
  C  C11  1  0.86105000  0.32931300  0.29658200  1
  C  C12  1  0.50344600  0.50344600  0.50819100  1
  C  C13  1  0.99694600  0.99694600  0.49302900  1
  C  C14  1  0.33258200  0.33258200  0.83549100  1
  C  C15  1  0.49590100  0.00203400  0.49945100  1
  C  C16  1  0.83061000  0.83061000  0.83605100  1
  C  C17  1  0.00203400  0.49590100  0.49945100  1
  C  C18  1  0.33425000  0.83193600  0.82730900  1
  C  C19  1  0.83193600  0.33425000  0.82730900  1
  Ni  Ni20  1  0.16714200  0.66741500  0.89663000  1
  Ni  Ni21  1  0.17110500  0.66717300  0.43747100  1
  Ni  Ni22  1  0.48956000  0.48956000  0.75909500  1
  Ni  Ni23  1  0.66717300  0.17110500  0.43747100  1
  Ni  Ni24  1  0.66741500  0.16714200  0.89663000  1
  Ni  Ni25  1  0.99221900  0.99221900  0.75528000  1
  Ni  Ni26  1  0.32789700  0.32789700  0.57716700  1
  Ni  Ni27  1  0.17391200  0.17391200  0.89602500  1
  Ni  Ni28  1  0.16339200  0.16339200  0.42583300  1
  Ni  Ni29  1  0.50152500  0.00976500  0.75973500  1
  Ni  Ni30  1  0.83996500  0.83996500  0.57174900  1
  Ni  Ni31  1  0.66985900  0.66985900  0.43824000  1
  Ni  Ni32  1  0.67560400  0.67560400  0.89847700  1
  Ni  Ni33  1  0.00976500  0.50152500  0.75973500  1
  Ni  Ni34  1  0.31446300  0.85145200  0.57225000  1
  Ni  Ni35  1  0.85145200  0.31446300  0.57225000  1
  Cu  Cu36  1  0.50777500  0.50777500  0.25681900  1
  Cu  Cu37  1  0.00081700  0.00081700  0.25129800  1
  Cu  Cu38  1  0.33622200  0.33622200  0.07186500  1
  Cu  Cu39  1  0.50977100  0.00513600  0.24569900  1
  Cu  Cu40  1  0.81990100  0.81990100  0.08999200  1
  Cu  Cu41  1  0.00513600  0.50977100  0.24569900  1
  Cu  Cu42  1  0.35097600  0.79971200  0.09102200  1
  Cu  Cu43  1  0.79971200  0.35097600  0.09102200  1
