# generated using pymatgen
data_Cu3Ni2C15
_symmetry_space_group_name_H-M   'P 1'
_cell_length_a   20.58177126
_cell_length_b   2.86024626
_cell_length_c   5.77802197
_cell_angle_alpha   89.99999429
_cell_angle_beta   82.29121873
_cell_angle_gamma   89.99999842
_symmetry_Int_Tables_number   1
_chemical_formula_structural   Cu3Ni2C15
_chemical_formula_sum   'Cu6 Ni4 C30'
_cell_volume   337.07197839
_cell_formula_units_Z   2
loop_
 _symmetry_equiv_pos_site_id
 _symmetry_equiv_pos_as_xyz
  1  'x, y, z'
loop_
 _atom_site_type_symbol
 _atom_site_label
 _atom_site_symmetry_multiplicity
 _atom_site_fract_x
 _atom_site_fract_y
 _atom_site_fract_z
 _atom_site_occupancy
  C  C0  1  0.90039200  0.50000000  0.29928200  1
  C  C1  1  0.80058900  0.00000000  0.09964100  1
  C  C2  1  0.69998200  0.50000000  0.90013200  1
  C  C3  1  0.59934500  0.00000000  0.70059100  1
  C  C4  1  0.49963000  0.50000000  0.50080600  1
  C  C5  1  0.40027800  0.00000000  0.30045700  1
  C  C6  1  0.19995200  0.00000000  0.89968400  1
  C  C7  1  0.29944400  0.50000000  0.09779300  1
  C  C8  1  0.10054100  0.50000000  0.70184400  1
  C  C9  1  0.99984200  0.00000000  0.49945500  1
  Ni  Ni10  1  0.69999300  0.50000000  0.39996200  1
  Ni  Ni11  1  0.29835500  0.50000000  0.59975800  1
  Ni  Ni12  1  0.20004200  0.00000000  0.40009900  1
  Ni  Ni13  1  0.10161200  0.50000000  0.20015700  1
  Cu  Cu14  1  0.90007800  0.50000000  0.80000600  1
  Cu  Cu15  1  0.79983600  0.00000000  0.59808400  1
  Cu  Cu16  1  0.60006600  0.00000000  0.20199200  1
  Cu  Cu17  1  0.39909200  0.00000000  0.79726900  1
  Cu  Cu18  1  0.49993000  0.50000000  0.00001100  1
  Cu  Cu19  1  0.00099500  0.00000000  0.00273500  1
  C  C20  1  0.99359600  0.50000000  0.76775800  1
  C  C21  1  0.90045600  0.00000000  0.56388700  1
  C  C22  1  0.89927000  0.00000000  0.03574100  1
  C  C23  1  0.80649400  0.50000000  0.83096700  1
  C  C24  1  0.69932600  0.00000000  0.62626300  1
  C  C25  1  0.79259100  0.50000000  0.36886600  1
  C  C26  1  0.59345200  0.50000000  0.96887200  1
  C  C27  1  0.70063700  0.00000000  0.17375800  1
  C  C28  1  0.60741100  0.50000000  0.43125200  1
  C  C29  1  0.50072000  0.00000000  0.76417400  1
  C  C30  1  0.49955200  0.00000000  0.23627200  1
  C  C31  1  0.29813800  0.00000000  0.82570500  1
  C  C32  1  0.39148900  0.50000000  0.56582400  1
  C  C33  1  0.40645200  0.50000000  0.03244100  1
  C  C34  1  0.29479600  0.00000000  0.37451500  1
  C  C35  1  0.10187400  0.00000000  0.97441300  1
  C  C36  1  0.20416600  0.50000000  0.62150600  1
  C  C37  1  0.10521300  0.00000000  0.42559700  1
  C  C38  1  0.19587700  0.50000000  0.17840600  1
  C  C39  1  0.00849700  0.50000000  0.23402400  1
