# generated using pymatgen
data_Cu3NiC3
_symmetry_space_group_name_H-M   'P 1'
_cell_length_a   5.19325700
_cell_length_b   5.99905200
_cell_length_c   10.29134700
_cell_angle_alpha   90.00000000
_cell_angle_beta   90.00000000
_cell_angle_gamma   90.00000000
_symmetry_Int_Tables_number   1
_chemical_formula_structural   Cu3NiC3
_chemical_formula_sum   'Cu12 Ni4 C12'
_cell_volume   320.62299264
_cell_formula_units_Z   4
loop_
 _symmetry_equiv_pos_site_id
 _symmetry_equiv_pos_as_xyz
  1  'x, y, z'
loop_
 _atom_site_type_symbol
 _atom_site_label
 _atom_site_symmetry_multiplicity
 _atom_site_fract_x
 _atom_site_fract_y
 _atom_site_fract_z
 _atom_site_occupancy
  C  C0  1  0.97488000  0.75000000  0.58959600  1
  C  C1  1  0.52512000  0.75000000  0.08959600  1
  C  C2  1  0.47488000  0.25000000  0.91040400  1
  C  C3  1  0.02512000  0.25000000  0.41040400  1
  C  C4  1  0.00000000  0.00000000  0.00000000  1
  C  C5  1  0.00000000  0.50000000  0.00000000  1
  C  C6  1  0.00221900  0.25000000  0.74478800  1
  C  C7  1  0.49778100  0.25000000  0.24478800  1
  C  C8  1  0.50000000  0.50000000  0.50000000  1
  C  C9  1  0.50000000  0.00000000  0.50000000  1
  C  C10  1  0.50221900  0.75000000  0.75521200  1
  C  C11  1  0.99778100  0.75000000  0.25521200  1
  Ni  Ni12  1  0.83164500  0.25000000  0.91554600  1
  Ni  Ni13  1  0.66835500  0.25000000  0.41554600  1
  Ni  Ni14  1  0.33164500  0.75000000  0.58445400  1
  Ni  Ni15  1  0.16835500  0.75000000  0.08445400  1
  Cu  Cu16  1  0.79134800  0.75000000  0.42489000  1
  Cu  Cu17  1  0.77081200  0.98832900  0.66635600  1
  Cu  Cu18  1  0.77081200  0.51167100  0.66635600  1
  Cu  Cu19  1  0.72918800  0.98832900  0.16635600  1
  Cu  Cu20  1  0.72918800  0.51167100  0.16635600  1
  Cu  Cu21  1  0.70865200  0.75000000  0.92489000  1
  Cu  Cu22  1  0.29134800  0.25000000  0.07511000  1
  Cu  Cu23  1  0.27081200  0.01167100  0.83364400  1
  Cu  Cu24  1  0.27081200  0.48832900  0.83364400  1
  Cu  Cu25  1  0.22918800  0.48832900  0.33364400  1
  Cu  Cu26  1  0.22918800  0.01167100  0.33364400  1
  Cu  Cu27  1  0.20865200  0.25000000  0.57511000  1
