# generated using pymatgen
data_Cu3Ni2C13
_symmetry_space_group_name_H-M   'P 1'
_cell_length_a   7.19947900
_cell_length_b   8.50194332
_cell_length_c   8.61899309
_cell_angle_alpha   79.98966559
_cell_angle_beta   87.45044174
_cell_angle_gamma   87.07448844
_symmetry_Int_Tables_number   1
_chemical_formula_structural   Cu3Ni2C13
_chemical_formula_sum   'Cu6 Ni4 C26'
_cell_volume   518.51602050
_cell_formula_units_Z   2
loop_
 _symmetry_equiv_pos_site_id
 _symmetry_equiv_pos_as_xyz
  1  'x, y, z'
loop_
 _atom_site_type_symbol
 _atom_site_label
 _atom_site_symmetry_multiplicity
 _atom_site_fract_x
 _atom_site_fract_y
 _atom_site_fract_z
 _atom_site_occupancy
  C  C0  1  0.16869200  0.67782700  0.58538800  1
  C  C1  1  0.69301700  0.28363400  0.91264100  1
  C  C2  1  0.41713800  0.65173000  0.07490400  1
  C  C3  1  0.92602800  0.34880300  0.53968900  1
  C  C4  1  0.27129200  0.16180000  0.27850800  1
  C  C5  1  0.96151500  0.75089100  0.09434400  1
  Ni  Ni6  1  0.55578900  0.84186700  0.41920900  1
  Ni  Ni7  1  0.98304200  0.94732200  0.76305900  1
  Ni  Ni8  1  0.81668000  0.11061100  0.25712900  1
  Ni  Ni9  1  0.40522600  0.00166500  0.70054100  1
  Cu  Cu10  1  0.23229600  0.34700300  0.97732500  1
  Cu  Cu11  1  0.55252600  0.57306600  0.52851200  1
  Cu  Cu12  1  0.10162300  0.65159500  0.98056800  1
  Cu  Cu13  1  0.41707800  0.16878300  0.66688700  1
  Cu  Cu14  1  0.75269500  0.54380400  0.20970900  1
  Cu  Cu15  1  0.02223300  0.53993100  0.90654400  1
  C  C16  1  0.11496600  0.42981000  0.23166400  1
  C  C17  1  0.61910900  0.57881200  0.62895200  1
  C  C18  1  0.96543800  0.95045100  0.94933300  1
  C  C19  1  0.14320700  0.07358600  0.68714300  1
  C  C20  1  0.22080200  0.39190500  0.86223100  1
  C  C21  1  0.35615400  0.85601800  0.81932100  1
  C  C22  1  0.22700600  0.37657000  0.35645600  1
  C  C23  1  0.00600700  0.10155000  0.33165700  1
  C  C24  1  0.79302000  0.08061800  0.70220300  1
  C  C25  1  0.68720200  0.74393300  0.57176800  1
  C  C26  1  0.73573100  0.92967600  0.34519300  1
  C  C27  1  0.76450700  0.60925300  0.10515400  1
  C  C28  1  0.42181500  0.95873400  0.51719400  1
  C  C29  1  0.62860400  0.97571400  0.77218000  1
  C  C30  1  0.47554800  0.69421900  0.37641000  1
  C  C31  1  0.02424900  0.44753700  0.84512400  1
  C  C32  1  0.42739700  0.96017800  0.24703000  1
  C  C33  1  0.06189500  0.74911800  0.28917700  1
  C  C34  1  0.68589100  0.21958500  0.37076600  1
  C  C35  1  0.41678300  0.27239900  0.09608500  1
