# generated using pymatgen
data_Cu2Ni3C19
_symmetry_space_group_name_H-M   'P 1'
_cell_length_a   5.95062800
_cell_length_b   5.96161624
_cell_length_c   9.22456496
_cell_angle_alpha   90.27616623
_cell_angle_beta   90.11733619
_cell_angle_gamma   119.93681812
_symmetry_Int_Tables_number   1
_chemical_formula_structural   Cu2Ni3C19
_chemical_formula_sum   'Cu2 Ni3 C19'
_cell_volume   283.57550237
_cell_formula_units_Z   1
loop_
 _symmetry_equiv_pos_site_id
 _symmetry_equiv_pos_as_xyz
  1  'x, y, z'
loop_
 _atom_site_type_symbol
 _atom_site_label
 _atom_site_symmetry_multiplicity
 _atom_site_fract_x
 _atom_site_fract_y
 _atom_site_fract_z
 _atom_site_occupancy
  C  C0  1  0.17409800  0.83540000  0.21290300  1
  C  C1  1  0.33993700  0.16866700  0.71439500  1
  C  C2  1  0.83701200  0.66958400  0.70763100  1
  Ni  Ni3  1  0.16965600  0.33580600  0.20996000  1
  Ni  Ni4  1  0.66457100  0.83327100  0.21293600  1
  Ni  Ni5  1  0.83135700  0.16818700  0.71252600  1
  Cu  Cu6  1  0.33401700  0.66141400  0.49006800  1
  Cu  Cu7  1  0.67399400  0.33669700  0.99236000  1
  C  C8  1  0.17522100  0.34728500  0.59803500  1
  C  C9  1  0.47682800  0.52530100  0.34415100  1
  C  C10  1  0.32902500  0.67145800  0.10866600  1
  C  C11  1  0.00740600  0.99840900  0.30740600  1
  C  C12  1  0.00451500  0.99547200  0.80513700  1
  C  C13  1  0.65114700  0.83660400  0.59053000  1
  C  C14  1  0.04650400  0.53205800  0.33928300  1
  C  C15  1  0.47218500  0.95596900  0.33949500  1
  C  C16  1  0.82100400  0.16770300  0.09634000  1
  C  C17  1  0.18470400  0.83503900  0.59412400  1
  C  C18  1  0.51340400  0.04186200  0.83714200  1
  C  C19  1  0.95100000  0.46462400  0.85120300  1
  C  C20  1  0.66224400  0.33895700  0.61154100  1
  C  C21  1  0.34924100  0.16771400  0.09827700  1
  C  C22  1  0.50459200  0.45917400  0.84521800  1
  C  C23  1  0.82613900  0.65314300  0.09639100  1
