# generated using pymatgen
data_CuNiC13
_symmetry_space_group_name_H-M   'P 1'
_cell_length_a   6.86659400
_cell_length_b   7.14054211
_cell_length_c   7.58638722
_cell_angle_alpha   104.42146131
_cell_angle_beta   93.60692270
_cell_angle_gamma   91.83733970
_symmetry_Int_Tables_number   1
_chemical_formula_structural   CuNiC13
_chemical_formula_sum   'Cu2 Ni2 C26'
_cell_volume   359.09667631
_cell_formula_units_Z   2
loop_
 _symmetry_equiv_pos_site_id
 _symmetry_equiv_pos_as_xyz
  1  'x, y, z'
loop_
 _atom_site_type_symbol
 _atom_site_label
 _atom_site_symmetry_multiplicity
 _atom_site_fract_x
 _atom_site_fract_y
 _atom_site_fract_z
 _atom_site_occupancy
  Ni  Ni0  1  0.34337500  0.91455500  0.66849100  1
  Ni  Ni1  1  0.65662500  0.08544500  0.33150900  1
  Cu  Cu2  1  0.35116000  0.40644700  0.64304100  1
  Cu  Cu3  1  0.64884000  0.59355300  0.35695900  1
  C  C4  1  0.17560800  0.08996200  0.25882500  1
  C  C5  1  0.82439200  0.91003800  0.74117500  1
  C  C6  1  0.14336000  0.52371400  0.27838100  1
  C  C7  1  0.85664000  0.47628600  0.72161900  1
  C  C8  1  0.36629300  0.74016300  0.04552100  1
  C  C9  1  0.63370700  0.25983700  0.95447900  1
  C  C10  1  0.97064700  0.83902500  0.30513200  1
  C  C11  1  0.02935300  0.16097500  0.69486800  1
  C  C12  1  0.66617600  0.87214100  0.56334300  1
  C  C13  1  0.33382400  0.12785900  0.43665700  1
  C  C14  1  0.67193800  0.42049300  0.56181300  1
  C  C15  1  0.32806200  0.57950700  0.43818700  1
  C  C16  1  0.43883400  0.24002500  0.81585300  1
  C  C17  1  0.56116600  0.75997500  0.18414700  1
  C  C18  1  0.97256900  0.97684700  0.28998400  1
  C  C19  1  0.02743100  0.02315300  0.71001600  1
  C  C20  1  0.94612800  0.63065200  0.34741900  1
  C  C21  1  0.05387200  0.36934800  0.65258100  1
  C  C22  1  0.39476700  0.67370900  0.82833100  1
  C  C23  1  0.60523300  0.32629100  0.17166900  1
  C  C24  1  0.10167000  0.28847600  0.21557200  1
  C  C25  1  0.89833000  0.71152400  0.78442800  1
  C  C26  1  0.20456200  0.59477100  0.09936700  1
  C  C27  1  0.79543800  0.40522900  0.90063300  1
  C  C28  1  0.28099500  0.96181400  0.08148100  1
  C  C29  1  0.71900500  0.03818600  0.91851900  1
