# generated using pymatgen
data_Cu3(NiC)2
_symmetry_space_group_name_H-M   'P 1'
_cell_length_a   10.19065465
_cell_length_b   10.19065465
_cell_length_c   6.93190200
_cell_angle_alpha   90.00000000
_cell_angle_beta   90.00000000
_cell_angle_gamma   120.00000424
_symmetry_Int_Tables_number   1
_chemical_formula_structural   Cu3(NiC)2
_chemical_formula_sum   'Cu12 Ni8 C8'
_cell_volume   623.42928046
_cell_formula_units_Z   4
loop_
 _symmetry_equiv_pos_site_id
 _symmetry_equiv_pos_as_xyz
  1  'x, y, z'
loop_
 _atom_site_type_symbol
 _atom_site_label
 _atom_site_symmetry_multiplicity
 _atom_site_fract_x
 _atom_site_fract_y
 _atom_site_fract_z
 _atom_site_occupancy
  C  C0  1  0.33333300  0.66666700  0.75000000  1
  C  C1  1  0.66666700  0.33333300  0.25000000  1
  C  C2  1  0.19792400  0.80207600  0.25000000  1
  C  C3  1  0.19792400  0.39584800  0.25000000  1
  C  C4  1  0.60415200  0.80207600  0.25000000  1
  C  C5  1  0.80207600  0.19792400  0.75000000  1
  C  C6  1  0.80207600  0.60415200  0.75000000  1
  C  C7  1  0.39584800  0.19792400  0.75000000  1
  Ni  Ni8  1  0.50000000  0.50000000  0.50000000  1
  Ni  Ni9  1  0.50000000  0.00000000  0.50000000  1
  Ni  Ni10  1  0.00000000  0.50000000  0.50000000  1
  Ni  Ni11  1  0.50000000  0.50000000  0.00000000  1
  Ni  Ni12  1  0.50000000  0.00000000  0.00000000  1
  Ni  Ni13  1  0.00000000  0.50000000  0.00000000  1
  Ni  Ni14  1  0.00000000  0.00000000  0.25000000  1
  Ni  Ni15  1  0.00000000  0.00000000  0.75000000  1
  Cu  Cu16  1  0.56933800  0.43066200  0.52895800  1
  Cu  Cu17  1  0.56933800  0.13867600  0.52895800  1
  Cu  Cu18  1  0.86132400  0.43066200  0.52895800  1
  Cu  Cu19  1  0.43066200  0.56933800  0.47104200  1
  Cu  Cu20  1  0.43066200  0.86132400  0.47104200  1
  Cu  Cu21  1  0.13867600  0.56933800  0.47104200  1
  Cu  Cu22  1  0.43066200  0.56933800  0.02895800  1
  Cu  Cu23  1  0.43066200  0.86132400  0.02895800  1
  Cu  Cu24  1  0.13867600  0.56933800  0.02895800  1
  Cu  Cu25  1  0.56933800  0.43066200  0.97104200  1
  Cu  Cu26  1  0.56933800  0.13867600  0.97104200  1
  Cu  Cu27  1  0.86132400  0.43066200  0.97104200  1
