# generated using pymatgen
data_Cu3Ni13C32
_symmetry_space_group_name_H-M   'P 1'
_cell_length_a   8.30055341
_cell_length_b   8.30055341
_cell_length_c   10.12595498
_cell_angle_alpha   66.00815883
_cell_angle_beta   66.00815883
_cell_angle_gamma   89.49452181
_symmetry_Int_Tables_number   1
_chemical_formula_structural   Cu3Ni13C32
_chemical_formula_sum   'Cu3 Ni13 C32'
_cell_volume   571.99649612
_cell_formula_units_Z   1
loop_
 _symmetry_equiv_pos_site_id
 _symmetry_equiv_pos_as_xyz
  1  'x, y, z'
loop_
 _atom_site_type_symbol
 _atom_site_label
 _atom_site_symmetry_multiplicity
 _atom_site_fract_x
 _atom_site_fract_y
 _atom_site_fract_z
 _atom_site_occupancy
  Ni  Ni0  1  0.50000000  0.00000000  0.00000000  1
  Ni  Ni1  1  0.00000000  0.50000000  0.00000000  1
  Ni  Ni2  1  0.37530700  0.12475900  0.75011500  1
  Ni  Ni3  1  0.87528700  0.62538300  0.74972400  1
  Ni  Ni4  1  0.62538300  0.87528700  0.74972400  1
  Ni  Ni5  1  0.12475900  0.37530700  0.75011500  1
  Ni  Ni6  1  0.00000000  0.00000000  0.50000000  1
  Ni  Ni7  1  0.75042100  0.75042100  0.50016900  1
  Ni  Ni8  1  0.24957900  0.24957900  0.49983100  1
  Ni  Ni9  1  0.37461700  0.12471300  0.25027600  1
  Ni  Ni10  1  0.87524100  0.62469300  0.24988500  1
  Ni  Ni11  1  0.12471300  0.37461700  0.25027600  1
  Ni  Ni12  1  0.62469300  0.87524100  0.24988500  1
  Cu  Cu13  1  0.24993700  0.75006300  0.00000000  1
  Cu  Cu14  1  0.75006300  0.24993700  0.00000000  1
  Cu  Cu15  1  0.50000000  0.50000000  0.50000000  1
  C  C16  1  0.49806800  0.77499000  0.98356800  1
  C  C17  1  0.77499000  0.49806800  0.98356800  1
  C  C18  1  0.99949200  0.27537100  0.98252100  1
  C  C19  1  0.27537100  0.99949200  0.98252100  1
  C  C20  1  0.10192400  0.60213400  0.76533200  1
  C  C21  1  0.60213400  0.10192400  0.76533200  1
  C  C22  1  0.88848800  0.38749300  0.75819500  1
  C  C23  1  0.38749300  0.88848800  0.75819500  1
  C  C24  1  0.14857300  0.14857300  0.73416500  1
  C  C25  1  0.36481800  0.36481800  0.73833600  1
  C  C26  1  0.64776000  0.64776000  0.73476100  1
  C  C27  1  0.86690800  0.86690800  0.73458800  1
  C  C28  1  0.97601900  0.75733300  0.51566800  1
  C  C29  1  0.25365300  0.47596700  0.51603600  1
  C  C30  1  0.47596700  0.25365300  0.51603600  1
  C  C31  1  0.75733300  0.97601900  0.51566800  1
  C  C32  1  0.74634700  0.52403300  0.48396400  1
  C  C33  1  0.52403300  0.74634700  0.48396400  1
  C  C34  1  0.02398100  0.24266700  0.48433200  1
  C  C35  1  0.24266700  0.02398100  0.48433200  1
  C  C36  1  0.63518200  0.63518200  0.26166400  1
  C  C37  1  0.13309200  0.13309200  0.26541200  1
  C  C38  1  0.85142700  0.85142700  0.26583500  1
  C  C39  1  0.35224000  0.35224000  0.26523900  1
  C  C40  1  0.39786600  0.89807600  0.23466800  1
  C  C41  1  0.61250700  0.11151200  0.24180500  1
  C  C42  1  0.11151200  0.61250700  0.24180500  1
  C  C43  1  0.89807600  0.39786600  0.23466800  1
  C  C44  1  0.50193200  0.22501000  0.01643200  1
  C  C45  1  0.22501000  0.50193200  0.01643200  1
  C  C46  1  0.72462900  0.00050800  0.01747900  1
  C  C47  1  0.00050800  0.72462900  0.01747900  1
