# generated using pymatgen
data_Cu2Ni3C19
_symmetry_space_group_name_H-M   'P 1'
_cell_length_a   4.98041874
_cell_length_b   4.98041874
_cell_length_c   9.86122926
_cell_angle_alpha   85.17853873
_cell_angle_beta   85.17853873
_cell_angle_gamma   119.99456334
_symmetry_Int_Tables_number   1
_chemical_formula_structural   Cu2Ni3C19
_chemical_formula_sum   'Cu2 Ni3 C19'
_cell_volume   208.83036202
_cell_formula_units_Z   1
loop_
 _symmetry_equiv_pos_site_id
 _symmetry_equiv_pos_as_xyz
  1  'x, y, z'
loop_
 _atom_site_type_symbol
 _atom_site_label
 _atom_site_symmetry_multiplicity
 _atom_site_fract_x
 _atom_site_fract_y
 _atom_site_fract_z
 _atom_site_occupancy
  C  C0  1  0.74716800  0.74716800  0.74339700  1
  C  C1  1  0.90924100  0.58124800  0.25660800  1
  C  C2  1  0.50000000  0.50000000  0.50000000  1
  C  C3  1  0.41875200  0.09075900  0.74339200  1
  C  C4  1  0.25283200  0.25283200  0.25660300  1
  C  C5  1  0.58124800  0.90924100  0.25660800  1
  C  C6  1  0.09075900  0.41875200  0.74339200  1
  Ni  Ni7  1  0.00000000  0.00000000  0.00000000  1
  Ni  Ni8  1  0.66711900  0.33288100  0.00000000  1
  Ni  Ni9  1  0.33288100  0.66711900  0.00000000  1
  Cu  Cu10  1  0.83330400  0.16669600  0.50000000  1
  Cu  Cu11  1  0.16669600  0.83330400  0.50000000  1
  C  C12  1  0.90835300  0.90835300  0.39761400  1
  C  C13  1  0.84020900  0.46585200  0.60241400  1
  C  C14  1  0.03890400  0.70609100  0.88143800  1
  C  C15  1  0.62583700  0.62583700  0.12133600  1
  C  C16  1  0.96109600  0.29390900  0.11856200  1
  C  C17  1  0.53414800  0.15979100  0.39758600  1
  C  C18  1  0.37416300  0.37416300  0.87866400  1
  C  C19  1  0.09164700  0.09164700  0.60238600  1
  C  C20  1  0.70609100  0.03890400  0.88143800  1
  C  C21  1  0.46585200  0.84020900  0.60241400  1
  C  C22  1  0.29390900  0.96109600  0.11856200  1
  C  C23  1  0.15979100  0.53414800  0.39758600  1
