# generated using pymatgen
data_Cu3NiC24
_symmetry_space_group_name_H-M   'P 1'
_cell_length_a   4.76272500
_cell_length_b   10.48076500
_cell_length_c   12.21746300
_cell_angle_alpha   90.00000000
_cell_angle_beta   90.00000000
_cell_angle_gamma   90.00000000
_symmetry_Int_Tables_number   1
_chemical_formula_structural   Cu3NiC24
_chemical_formula_sum   'Cu6 Ni2 C48'
_cell_volume   609.85911871
_cell_formula_units_Z   2
loop_
 _symmetry_equiv_pos_site_id
 _symmetry_equiv_pos_as_xyz
  1  'x, y, z'
loop_
 _atom_site_type_symbol
 _atom_site_label
 _atom_site_symmetry_multiplicity
 _atom_site_fract_x
 _atom_site_fract_y
 _atom_site_fract_z
 _atom_site_occupancy
  C  C0  1  0.24981100  0.00041600  0.87485400  1
  C  C1  1  0.24981100  0.00041600  0.12514600  1
  C  C2  1  0.25033600  0.99974400  0.37453800  1
  C  C3  1  0.25033600  0.99974400  0.62546200  1
  C  C4  1  0.75018900  0.50041600  0.37485400  1
  C  C5  1  0.74966400  0.49974400  0.87453800  1
  C  C6  1  0.74966400  0.49974400  0.12546200  1
  C  C7  1  0.75018900  0.50041600  0.62514600  1
  Ni  Ni8  1  0.27311500  0.71850900  0.00000000  1
  Ni  Ni9  1  0.72688500  0.21850900  0.50000000  1
  Cu  Cu10  1  0.27595200  0.71839500  0.50000000  1
  Cu  Cu11  1  0.72404800  0.21839500  0.00000000  1
  Cu  Cu12  1  0.77532200  0.78158500  0.74960100  1
  Cu  Cu13  1  0.77532200  0.78158500  0.25039900  1
  Cu  Cu14  1  0.22467800  0.28158500  0.24960100  1
  Cu  Cu15  1  0.22467800  0.28158500  0.75039900  1
  C  C16  1  0.33405700  0.59427100  0.74922800  1
  C  C17  1  0.33405700  0.59427100  0.25077200  1
  C  C18  1  0.66594300  0.09427100  0.75077200  1
  C  C19  1  0.66594300  0.09427100  0.24922800  1
  C  C20  1  0.83206500  0.90731200  0.00000000  1
  C  C21  1  0.83368000  0.90467700  0.50000000  1
  C  C22  1  0.16793500  0.40731200  0.50000000  1
  C  C23  1  0.16632000  0.40467700  0.00000000  1
  C  C24  1  0.45684900  0.45630400  0.74938000  1
  C  C25  1  0.45684900  0.45630400  0.25062000  1
  C  C26  1  0.47150600  0.66417000  0.15042800  1
  C  C27  1  0.46620500  0.66449400  0.35252600  1
  C  C28  1  0.46620500  0.66449400  0.64747400  1
  C  C29  1  0.47150600  0.66417000  0.84957200  1
  C  C30  1  0.49138300  0.40484300  0.50000000  1
  C  C31  1  0.48964500  0.40328400  0.00000000  1
  C  C32  1  0.51035500  0.90328400  0.50000000  1
  C  C33  1  0.50861700  0.90484300  0.00000000  1
  C  C34  1  0.53379500  0.16449400  0.14747400  1
  C  C35  1  0.52849400  0.16417000  0.34957200  1
  C  C36  1  0.53379500  0.16449400  0.85252600  1
  C  C37  1  0.52849400  0.16417000  0.65042800  1
  C  C38  1  0.54315100  0.95630400  0.24938000  1
  C  C39  1  0.54315100  0.95630400  0.75062000  1
  C  C40  1  0.95957700  0.04171300  0.50000000  1
  C  C41  1  0.95827500  0.04403600  0.00000000  1
  C  C42  1  0.96622800  0.83430800  0.39852100  1
  C  C43  1  0.96622800  0.83430800  0.60147900  1
  C  C44  1  0.96280400  0.83629400  0.89851800  1
  C  C45  1  0.96280400  0.83629400  0.10148200  1
  C  C46  1  0.98906800  0.09703100  0.74989900  1
  C  C47  1  0.98906800  0.09703100  0.25010100  1
  C  C48  1  0.01093200  0.59703100  0.24989900  1
  C  C49  1  0.01093200  0.59703100  0.75010100  1
  C  C50  1  0.03719600  0.33629400  0.60148200  1
  C  C51  1  0.03377200  0.33430800  0.89852100  1
  C  C52  1  0.03377200  0.33430800  0.10147900  1
  C  C53  1  0.03719600  0.33629400  0.39851800  1
  C  C54  1  0.04172500  0.54403600  0.50000000  1
  C  C55  1  0.04042300  0.54171300  0.00000000  1
