# generated using pymatgen
data_Cu2Ni4C9
_symmetry_space_group_name_H-M   'P 1'
_cell_length_a   5.68516989
_cell_length_b   5.68516989
_cell_length_c   10.88214000
_cell_angle_alpha   90.00000000
_cell_angle_beta   90.00000000
_cell_angle_gamma   119.47845378
_symmetry_Int_Tables_number   1
_chemical_formula_structural   Cu2Ni4C9
_chemical_formula_sum   'Cu4 Ni8 C18'
_cell_volume   306.18953189
_cell_formula_units_Z   2
loop_
 _symmetry_equiv_pos_site_id
 _symmetry_equiv_pos_as_xyz
  1  'x, y, z'
loop_
 _atom_site_type_symbol
 _atom_site_label
 _atom_site_symmetry_multiplicity
 _atom_site_fract_x
 _atom_site_fract_y
 _atom_site_fract_z
 _atom_site_occupancy
  C  C0  1  0.68677400  0.68677400  0.27393400  1
  C  C1  1  0.59213100  0.59213100  0.62756800  1
  C  C2  1  0.40786900  0.40786900  0.12756800  1
  C  C3  1  0.31322600  0.31322600  0.77393400  1
  C  C4  1  0.33157700  0.65484800  0.90276100  1
  C  C5  1  0.34515200  0.66842300  0.40276100  1
  C  C6  1  0.00218600  0.30634700  0.26347900  1
  C  C7  1  0.00755700  0.38497100  0.63880700  1
  C  C8  1  0.99244300  0.61502900  0.13880700  1
  C  C9  1  0.69365300  0.99781400  0.76347900  1
  C  C10  1  0.99781400  0.69365300  0.76347900  1
  C  C11  1  0.61502900  0.99244300  0.13880700  1
  C  C12  1  0.66842300  0.34515200  0.40276100  1
  C  C13  1  0.65484800  0.33157700  0.90276100  1
  C  C14  1  0.38497100  0.00755700  0.63880700  1
  C  C15  1  0.30634700  0.00218600  0.26347900  1
  C  C16  1  0.97415400  0.97415400  0.50025400  1
  C  C17  1  0.02584600  0.02584600  0.00025400  1
  Ni  Ni18  1  0.65028200  0.65028200  0.45097700  1
  Ni  Ni19  1  0.34971800  0.34971800  0.95097700  1
  Ni  Ni20  1  0.33428700  0.67359700  0.71850400  1
  Ni  Ni21  1  0.01567800  0.01567800  0.68489500  1
  Ni  Ni22  1  0.32640300  0.66571300  0.21850400  1
  Ni  Ni23  1  0.98432200  0.98432200  0.18489500  1
  Ni  Ni24  1  0.66571300  0.32640300  0.21850400  1
  Ni  Ni25  1  0.67359700  0.33428700  0.71850400  1
  Cu  Cu26  1  0.00398000  0.35188300  0.45049600  1
  Cu  Cu27  1  0.64811700  0.99602000  0.95049600  1
  Cu  Cu28  1  0.99602000  0.64811700  0.95049600  1
  Cu  Cu29  1  0.35188300  0.00398000  0.45049600  1
