# generated using pymatgen
data_Cu(NiC3)2
_symmetry_space_group_name_H-M   'P 1'
_cell_length_a   5.12214610
_cell_length_b   5.12214610
_cell_length_c   9.82167700
_cell_angle_alpha   90.00000000
_cell_angle_beta   90.00000000
_cell_angle_gamma   120.19318770
_symmetry_Int_Tables_number   1
_chemical_formula_structural   Cu(NiC3)2
_chemical_formula_sum   'Cu2 Ni4 C12'
_cell_volume   222.72628385
_cell_formula_units_Z   2
loop_
 _symmetry_equiv_pos_site_id
 _symmetry_equiv_pos_as_xyz
  1  'x, y, z'
loop_
 _atom_site_type_symbol
 _atom_site_label
 _atom_site_symmetry_multiplicity
 _atom_site_fract_x
 _atom_site_fract_y
 _atom_site_fract_z
 _atom_site_occupancy
  Ni  Ni0  1  0.33249000  0.66751000  0.00000000  1
  Ni  Ni1  1  0.16751000  0.83249000  0.50000000  1
  Ni  Ni2  1  0.83249000  0.16751000  0.50000000  1
  Ni  Ni3  1  0.66751000  0.33249000  0.00000000  1
  Cu  Cu4  1  0.50000000  0.50000000  0.50000000  1
  Cu  Cu5  1  0.00000000  0.00000000  0.00000000  1
  C  C6  1  0.15950900  0.50040000  0.59806100  1
  C  C7  1  0.84049100  0.49960000  0.40193900  1
  C  C8  1  0.00040000  0.65950900  0.90193900  1
  C  C9  1  0.34049100  0.99960000  0.09806100  1
  C  C10  1  0.66279300  0.66279300  0.09699400  1
  C  C11  1  0.83720700  0.83720700  0.59699400  1
  C  C12  1  0.16279300  0.16279300  0.40300600  1
  C  C13  1  0.49960000  0.84049100  0.40193900  1
  C  C14  1  0.33720700  0.33720700  0.90300600  1
  C  C15  1  0.65950900  0.00040000  0.90193900  1
  C  C16  1  0.99960000  0.34049100  0.09806100  1
  C  C17  1  0.50040000  0.15950900  0.59806100  1
