# generated using pymatgen
data_Cu2Ni3C23
_symmetry_space_group_name_H-M   'P 1'
_cell_length_a   6.03434997
_cell_length_b   6.03434997
_cell_length_c   9.82932549
_cell_angle_alpha   89.36047884
_cell_angle_beta   89.36047884
_cell_angle_gamma   59.64524288
_symmetry_Int_Tables_number   1
_chemical_formula_structural   Cu2Ni3C23
_chemical_formula_sum   'Cu2 Ni3 C23'
_cell_volume   308.82735608
_cell_formula_units_Z   1
loop_
 _symmetry_equiv_pos_site_id
 _symmetry_equiv_pos_as_xyz
  1  'x, y, z'
loop_
 _atom_site_type_symbol
 _atom_site_label
 _atom_site_symmetry_multiplicity
 _atom_site_fract_x
 _atom_site_fract_y
 _atom_site_fract_z
 _atom_site_occupancy
  C  C0  1  0.66331400  0.66331400  0.10451100  1
  C  C1  1  0.99974200  0.99974200  0.00732000  1
  C  C2  1  0.00135300  0.00135300  0.50786700  1
  C  C3  1  0.33018000  0.33018000  0.60296600  1
  C  C4  1  0.17056800  0.17056800  0.28256900  1
  C  C5  1  0.34100800  0.83312800  0.78530300  1
  C  C6  1  0.83312800  0.34100800  0.78530300  1
  Ni  Ni7  1  0.82873500  0.82873500  0.78712300  1
  Ni  Ni8  1  0.17027800  0.66101400  0.28693500  1
  Ni  Ni9  1  0.66101400  0.17027800  0.28693500  1
  Cu  Cu10  1  0.66870200  0.66870200  0.50724300  1
  Cu  Cu11  1  0.34021600  0.34021600  0.00952700  1
  C  C12  1  0.32681800  0.84109900  0.39750100  1
  C  C13  1  0.51692700  0.51692700  0.66543300  1
  C  C14  1  0.64994200  0.64994200  0.89591900  1
  C  C15  1  0.01115300  0.01115300  0.69397000  1
  C  C16  1  0.00503900  0.00503900  0.19330800  1
  C  C17  1  0.84109900  0.32681800  0.39750100  1
  C  C18  1  0.50249100  0.96035800  0.65712500  1
  C  C19  1  0.96035800  0.50249100  0.65712500  1
  C  C20  1  0.16730300  0.16730300  0.89667500  1
  C  C21  1  0.84099300  0.84099300  0.40222600  1
  C  C22  1  0.03553500  0.47555000  0.16101100  1
  C  C23  1  0.47555000  0.03553500  0.16101100  1
  C  C24  1  0.32474000  0.32474000  0.39392000  1
  C  C25  1  0.17230400  0.68033900  0.90150000  1
  C  C26  1  0.48152100  0.48152100  0.16290300  1
  C  C27  1  0.68033900  0.17230400  0.90150000  1
