# generated using pymatgen
data_Cu8Ni2C3
_symmetry_space_group_name_H-M   'P 1'
_cell_length_a   9.84270639
_cell_length_b   9.92614183
_cell_length_c   9.84270639
_cell_angle_alpha   60.30074236
_cell_angle_beta   89.95957923
_cell_angle_gamma   119.69925764
_symmetry_Int_Tables_number   1
_chemical_formula_structural   Cu8Ni2C3
_chemical_formula_sum   'Cu32 Ni8 C12'
_cell_volume   685.87916511
_cell_formula_units_Z   4
loop_
 _symmetry_equiv_pos_site_id
 _symmetry_equiv_pos_as_xyz
  1  'x, y, z'
loop_
 _atom_site_type_symbol
 _atom_site_label
 _atom_site_symmetry_multiplicity
 _atom_site_fract_x
 _atom_site_fract_y
 _atom_site_fract_z
 _atom_site_occupancy
  C  C0  1  0.34848000  0.26382400  0.33199100  1
  C  C1  1  0.90418500  0.23617600  0.91534400  1
  C  C2  1  0.08465600  0.73617600  0.09581500  1
  C  C3  1  0.66800900  0.76382400  0.65152000  1
  C  C4  1  0.34002900  0.25000000  0.90997100  1
  C  C5  1  0.09002900  0.75000000  0.65997100  1
  C  C6  1  0.50035800  0.99324800  0.00212400  1
  C  C7  1  0.50710900  0.00675200  0.49537200  1
  C  C8  1  0.50462800  0.50675200  0.49289100  1
  C  C9  1  0.99787600  0.49324800  0.49964200  1
  C  C10  1  0.12522900  0.25000000  0.12477100  1
  C  C11  1  0.87522900  0.75000000  0.87477100  1
  Ni  Ni12  1  0.71517600  0.07575800  0.71118000  1
  Ni  Ni13  1  0.71306200  0.42424200  0.36058300  1
  Ni  Ni14  1  0.35821700  0.07553800  0.71360000  1
  Ni  Ni15  1  0.71086200  0.42446200  0.71732200  1
  Ni  Ni16  1  0.63941700  0.92424200  0.28693800  1
  Ni  Ni17  1  0.28882000  0.57575800  0.28482400  1
  Ni  Ni18  1  0.28640000  0.57553800  0.64178300  1
  Ni  Ni19  1  0.28267800  0.92446200  0.28913800  1
  Cu  Cu20  1  0.64650200  0.04237700  0.14139200  1
  Cu  Cu21  1  0.85606300  0.21877400  0.59773300  1
  Cu  Cu22  1  0.68349300  0.28122600  0.36271100  1
  Cu  Cu23  1  0.39290300  0.04329600  0.31674300  1
  Cu  Cu24  1  0.85860800  0.54237700  0.35349800  1
  Cu  Cu25  1  0.31645600  0.37380600  0.06453200  1
  Cu  Cu26  1  0.06166200  0.12619400  0.05734900  1
  Cu  Cu27  1  0.59761700  0.45230200  0.36082900  1
  Cu  Cu28  1  0.68686900  0.04769800  0.85468600  1
  Cu  Cu29  1  0.35259800  0.04204600  0.60016100  1
  Cu  Cu30  1  0.85779200  0.45795400  0.68944800  1
  Cu  Cu31  1  0.06499500  0.38015200  0.05735200  1
  Cu  Cu32  1  0.06249600  0.11984800  0.31515600  1
  Cu  Cu33  1  0.63728900  0.78122600  0.31650700  1
  Cu  Cu34  1  0.40226700  0.71877400  0.14393700  1
  Cu  Cu35  1  0.68325700  0.54329500  0.60709700  1
  Cu  Cu36  1  0.31623000  0.45762300  0.39587500  1
  Cu  Cu37  1  0.36557400  0.22210800  0.68255500  1
  Cu  Cu38  1  0.59533700  0.27789200  0.85653400  1
  Cu  Cu39  1  0.93546800  0.87380600  0.68354400  1
  Cu  Cu40  1  0.94265100  0.62619400  0.93833800  1
  Cu  Cu41  1  0.14531400  0.54769800  0.31313100  1
  Cu  Cu42  1  0.63917100  0.95230200  0.40238300  1
  Cu  Cu43  1  0.31055200  0.95795400  0.14220800  1
  Cu  Cu44  1  0.39983900  0.54204600  0.64740200  1
  Cu  Cu45  1  0.94264800  0.88015200  0.93500500  1
  Cu  Cu46  1  0.68484400  0.61984800  0.93750400  1
  Cu  Cu47  1  0.13996100  0.45670500  0.65039300  1
  Cu  Cu48  1  0.60412500  0.95762300  0.68377000  1
  Cu  Cu49  1  0.31744500  0.72210800  0.63442600  1
  Cu  Cu50  1  0.14346600  0.77789200  0.40466300  1
  Cu  Cu51  1  0.34960700  0.95670500  0.86003900  1
