# generated using pymatgen
data_CuNiC18
_symmetry_space_group_name_H-M   'P 1'
_cell_length_a   8.63690900
_cell_length_b   8.67903562
_cell_length_c   12.65799104
_cell_angle_alpha   105.63428290
_cell_angle_beta   105.83448495
_cell_angle_gamma   95.38290933
_symmetry_Int_Tables_number   1
_chemical_formula_structural   CuNiC18
_chemical_formula_sum   'Cu4 Ni4 C72'
_cell_volume   864.60542930
_cell_formula_units_Z   4
loop_
 _symmetry_equiv_pos_site_id
 _symmetry_equiv_pos_as_xyz
  1  'x, y, z'
loop_
 _atom_site_type_symbol
 _atom_site_label
 _atom_site_symmetry_multiplicity
 _atom_site_fract_x
 _atom_site_fract_y
 _atom_site_fract_z
 _atom_site_occupancy
  C  C0  1  0.99371600  0.00127100  0.12673800  1
  C  C1  1  0.99892400  0.00147600  0.62456100  1
  C  C2  1  0.71137100  0.28782900  0.37413200  1
  C  C3  1  0.50023700  0.50200000  0.25043700  1
  C  C4  1  0.71427200  0.29203100  0.87756900  1
  C  C5  1  0.49734800  0.49962500  0.49821400  1
  C  C6  1  0.28789700  0.70983500  0.12515800  1
  C  C7  1  0.49979300  0.50022200  0.75115900  1
  C  C8  1  0.49980000  0.50002600  0.00021100  1
  C  C9  1  0.28732500  0.71043900  0.62328900  1
  C  C10  1  0.00210400  0.99702300  0.37353700  1
  C  C11  1  0.00776600  0.99841500  0.87530300  1
  Ni  Ni12  1  0.94154500  0.62975000  0.18357700  1
  Ni  Ni13  1  0.62578800  0.94350700  0.43507800  1
  Ni  Ni14  1  0.05887100  0.37062200  0.31464700  1
  Ni  Ni15  1  0.05808400  0.37330000  0.81631000  1
  Cu  Cu16  1  0.94263300  0.62248500  0.67988200  1
  Cu  Cu17  1  0.37976400  0.05593800  0.07010300  1
  Cu  Cu18  1  0.62132400  0.94415300  0.93142800  1
  Cu  Cu19  1  0.37698000  0.05647800  0.56902000  1
  C  C20  1  0.71570000  0.28991400  0.12537000  1
  C  C21  1  0.86521000  0.66569400  0.43151700  1
  C  C22  1  0.66116200  0.86734100  0.18419500  1
  C  C23  1  0.71277400  0.28676200  0.62508000  1
  C  C24  1  0.85888100  0.66495000  0.93274600  1
  C  C25  1  0.66198000  0.86149400  0.68109500  1
  C  C26  1  0.33464200  0.13458600  0.31727100  1
  C  C27  1  0.14141500  0.33407400  0.06767400  1
  C  C28  1  0.28524800  0.71261700  0.37452600  1
  C  C29  1  0.33776400  0.13169900  0.81726400  1
  C  C30  1  0.13875000  0.33945400  0.56809100  1
  C  C31  1  0.28521900  0.71250600  0.87508400  1
  C  C32  1  0.98418200  0.66214800  0.04767000  1
  C  C33  1  0.94817700  0.60905700  0.33434300  1
  C  C34  1  0.74189700  0.17390800  0.01715200  1
  C  C35  1  0.98966100  0.65509500  0.54382800  1
  C  C36  1  0.82611600  0.26540600  0.23769300  1
  C  C37  1  0.84468800  0.85714000  0.19777300  1
  C  C38  1  0.74061300  0.46388800  0.11400000  1
  C  C39  1  0.85543900  0.85031400  0.45217300  1
  C  C40  1  0.94572300  0.61536400  0.83818600  1
  C  C41  1  0.73790000  0.17334200  0.51471100  1
  C  C42  1  0.82727100  0.26256500  0.73649000  1
  C  C43  1  0.84426500  0.84288900  0.69356900  1
  C  C44  1  0.70352700  0.55063400  0.39833700  1
  C  C45  1  0.59783900  0.95400400  0.08938800  1
  C  C46  1  0.65984000  0.98846600  0.30032700  1
  C  C47  1  0.53902900  0.26423300  0.13306000  1
  C  C48  1  0.73614700  0.46122900  0.61517000  1
  C  C49  1  0.54686300  0.70501700  0.14881200  1
  C  C50  1  0.83878800  0.84789600  0.95161400  1
  C  C51  1  0.70026700  0.54428000  0.89732500  1
  C  C52  1  0.59971100  0.95132700  0.58689100  1
  C  C53  1  0.45069800  0.29568100  0.35144700  1
  C  C54  1  0.66280500  0.98543800  0.79565800  1
  C  C55  1  0.53749400  0.26228700  0.63510600  1
  C  C56  1  0.46191100  0.74011200  0.36553900  1
  C  C57  1  0.34366600  0.01158700  0.20480800  1
  C  C58  1  0.54385100  0.70251800  0.64674900  1
  C  C59  1  0.38992600  0.05208700  0.41379900  1
  C  C60  1  0.29952100  0.45438500  0.10204500  1
  C  C61  1  0.16190300  0.15160300  0.04949500  1
  C  C62  1  0.45151400  0.29378500  0.85133100  1
  C  C63  1  0.26199000  0.53768900  0.38487600  1
  C  C64  1  0.46228700  0.73690000  0.86749600  1
  C  C65  1  0.34354300  0.00888600  0.70378500  1
  C  C66  1  0.40181800  0.04683500  0.91287400  1
  C  C67  1  0.29924600  0.45741200  0.60355900  1
  C  C68  1  0.14916400  0.14448800  0.29712500  1
  C  C69  1  0.17320600  0.73560200  0.26203100  1
  C  C70  1  0.25689600  0.82603000  0.48275000  1
  C  C71  1  0.05351200  0.38523900  0.16229000  1
  C  C72  1  0.15754800  0.15852700  0.55694900  1
  C  C73  1  0.26023100  0.53642400  0.88461200  1
  C  C74  1  0.15322700  0.14161200  0.80126900  1
  C  C75  1  0.17404400  0.73947900  0.76514800  1
  C  C76  1  0.01587600  0.33720700  0.45161600  1
  C  C77  1  0.25939000  0.82591600  0.98401100  1
  C  C78  1  0.04786600  0.40059200  0.66194600  1
  C  C79  1  0.01463500  0.33595500  0.95290300  1
