# generated using pymatgen
data_Cu2NiC4
_symmetry_space_group_name_H-M   'P 1'
_cell_length_a   8.33709198
_cell_length_b   7.38890932
_cell_length_c   6.11480837
_cell_angle_alpha   75.59524490
_cell_angle_beta   59.13822227
_cell_angle_gamma   45.26653283
_symmetry_Int_Tables_number   1
_chemical_formula_structural   Cu2NiC4
_chemical_formula_sum   'Cu4 Ni2 C8'
_cell_volume   225.77721078
_cell_formula_units_Z   2
loop_
 _symmetry_equiv_pos_site_id
 _symmetry_equiv_pos_as_xyz
  1  'x, y, z'
loop_
 _atom_site_type_symbol
 _atom_site_label
 _atom_site_symmetry_multiplicity
 _atom_site_fract_x
 _atom_site_fract_y
 _atom_site_fract_z
 _atom_site_occupancy
  Ni  Ni0  1  0.75000000  0.75000000  0.75000000  1
  Ni  Ni1  1  0.50000000  0.50000000  0.50000000  1
  Cu  Cu2  1  0.12780600  0.12780600  0.37219400  1
  Cu  Cu3  1  0.87780600  0.87780600  0.12219400  1
  Cu  Cu4  1  0.37219400  0.37219400  0.12780600  1
  Cu  Cu5  1  0.12219400  0.12219400  0.87780600  1
  C  C6  1  0.02879000  0.72243800  0.36499100  1
  C  C7  1  0.36621900  0.88500900  0.52756200  1
  C  C8  1  0.36499100  0.88378100  0.02879000  1
  C  C9  1  0.72243800  0.02879000  0.88378100  1
  C  C10  1  0.88500900  0.36621900  0.22121000  1
  C  C11  1  0.52756200  0.22121000  0.36621900  1
  C  C12  1  0.88378100  0.36499100  0.72243800  1
  C  C13  1  0.22121000  0.52756200  0.88500900  1
