# generated using pymatgen
data_CuNi8C9
_symmetry_space_group_name_H-M   'P 1'
_cell_length_a   8.32782195
_cell_length_b   8.32782195
_cell_length_c   10.90323700
_cell_angle_alpha   90.00000000
_cell_angle_beta   90.00000000
_cell_angle_gamma   92.36903725
_symmetry_Int_Tables_number   1
_chemical_formula_structural   CuNi8C9
_chemical_formula_sum   'Cu4 Ni32 C36'
_cell_volume   755.52174899
_cell_formula_units_Z   4
loop_
 _symmetry_equiv_pos_site_id
 _symmetry_equiv_pos_as_xyz
  1  'x, y, z'
loop_
 _atom_site_type_symbol
 _atom_site_label
 _atom_site_symmetry_multiplicity
 _atom_site_fract_x
 _atom_site_fract_y
 _atom_site_fract_z
 _atom_site_occupancy
  C  C0  1  0.24738300  0.24738300  0.76745600  1
  C  C1  1  0.75261700  0.75261700  0.23254400  1
  C  C2  1  0.25261700  0.25261700  0.26745600  1
  C  C3  1  0.74738300  0.74738300  0.73254400  1
  Ni  Ni4  1  0.35127100  0.05923800  0.63516100  1
  Ni  Ni5  1  0.94076200  0.64872900  0.36483900  1
  Ni  Ni6  1  0.44076200  0.14872900  0.13516100  1
  Ni  Ni7  1  0.85127100  0.55923800  0.86483900  1
  Ni  Ni8  1  0.64872900  0.94076200  0.36483900  1
  Ni  Ni9  1  0.05923800  0.35127100  0.63516100  1
  Ni  Ni10  1  0.55923800  0.85127100  0.86483900  1
  Ni  Ni11  1  0.14872900  0.44076200  0.13516100  1
  Ni  Ni12  1  0.48563000  0.20275900  0.66617800  1
  Ni  Ni13  1  0.79724100  0.51437000  0.33382200  1
  Ni  Ni14  1  0.29724100  0.01437000  0.16617800  1
  Ni  Ni15  1  0.98563000  0.70275900  0.83382200  1
  Ni  Ni16  1  0.51437000  0.79724100  0.33382200  1
  Ni  Ni17  1  0.20275900  0.48563000  0.66617800  1
  Ni  Ni18  1  0.70275900  0.98563000  0.83382200  1
  Ni  Ni19  1  0.01437000  0.29724100  0.16617800  1
  Ni  Ni20  1  0.13783500  0.00179000  0.83797300  1
  Ni  Ni21  1  0.99821000  0.86216500  0.16202700  1
  Ni  Ni22  1  0.49821000  0.36216500  0.33797300  1
  Ni  Ni23  1  0.63783500  0.50179000  0.66202700  1
  Ni  Ni24  1  0.86216500  0.99821000  0.16202700  1
  Ni  Ni25  1  0.00179000  0.13783500  0.83797300  1
  Ni  Ni26  1  0.50179000  0.63783500  0.66202700  1
  Ni  Ni27  1  0.36216500  0.49821000  0.33797300  1
  Ni  Ni28  1  0.43344800  0.29737600  0.92203500  1
  Ni  Ni29  1  0.70262400  0.56655200  0.07796500  1
  Ni  Ni30  1  0.20262400  0.06655200  0.42203500  1
  Ni  Ni31  1  0.93344800  0.79737600  0.57796500  1
  Ni  Ni32  1  0.56655200  0.70262400  0.07796500  1
  Ni  Ni33  1  0.29737600  0.43344800  0.92203500  1
  Ni  Ni34  1  0.79737600  0.93344800  0.57796500  1
  Ni  Ni35  1  0.06655200  0.20262400  0.42203500  1
  Cu  Cu36  1  0.74674000  0.25326000  0.50000000  1
  Cu  Cu37  1  0.24674000  0.75326000  0.00000000  1
  Cu  Cu38  1  0.25326000  0.74674000  0.50000000  1
  Cu  Cu39  1  0.75326000  0.24674000  0.00000000  1
  C  C40  1  0.70948500  0.05555700  0.48308600  1
  C  C41  1  0.94444300  0.29051500  0.51691400  1
  C  C42  1  0.44444300  0.79051500  0.98308600  1
  C  C43  1  0.20948500  0.55555700  0.01691400  1
  C  C44  1  0.29051500  0.94444300  0.51691400  1
  C  C45  1  0.05555700  0.70948500  0.48308600  1
  C  C46  1  0.55555700  0.20948500  0.01691400  1
  C  C47  1  0.79051500  0.44444300  0.98308600  1
  C  C48  1  0.64812900  0.31341700  0.62509300  1
  C  C49  1  0.68658300  0.35187100  0.37490700  1
  C  C50  1  0.18658300  0.85187100  0.12509300  1
  C  C51  1  0.14812900  0.81341700  0.87490700  1
  C  C52  1  0.35187100  0.68658300  0.37490700  1
  C  C53  1  0.31341700  0.64812900  0.62509300  1
  C  C54  1  0.81341700  0.14812900  0.87490700  1
  C  C55  1  0.85187100  0.18658300  0.12509300  1
  C  C56  1  0.11450900  0.11450900  0.81271600  1
  C  C57  1  0.88549100  0.88549100  0.18728400  1
  C  C58  1  0.38549100  0.38549100  0.31271600  1
  C  C59  1  0.61450900  0.61450900  0.68728400  1
  C  C60  1  0.34952400  0.34952400  0.87091900  1
  C  C61  1  0.65047600  0.65047600  0.12908100  1
  C  C62  1  0.15047600  0.15047600  0.37091900  1
  C  C63  1  0.84952400  0.84952400  0.62908100  1
  C  C64  1  0.38230500  0.14796900  0.69372800  1
  C  C65  1  0.85203100  0.61769500  0.30627200  1
  C  C66  1  0.35203100  0.11769500  0.19372800  1
  C  C67  1  0.88230500  0.64796900  0.80627200  1
  C  C68  1  0.61769500  0.85203100  0.30627200  1
  C  C69  1  0.14796900  0.38230500  0.69372800  1
  C  C70  1  0.64796900  0.88230500  0.80627200  1
  C  C71  1  0.11769500  0.35203100  0.19372800  1
