# generated using pymatgen
data_CuNi5C3
_symmetry_space_group_name_H-M   'P 1'
_cell_length_a   3.00706500
_cell_length_b   4.54725200
_cell_length_c   13.64676039
_cell_angle_alpha   87.84658324
_cell_angle_beta   90.00000000
_cell_angle_gamma   90.00000000
_symmetry_Int_Tables_number   1
_chemical_formula_structural   CuNi5C3
_chemical_formula_sum   'Cu2 Ni10 C6'
_cell_volume   186.47241530
_cell_formula_units_Z   2
loop_
 _symmetry_equiv_pos_site_id
 _symmetry_equiv_pos_as_xyz
  1  'x, y, z'
loop_
 _atom_site_type_symbol
 _atom_site_label
 _atom_site_symmetry_multiplicity
 _atom_site_fract_x
 _atom_site_fract_y
 _atom_site_fract_z
 _atom_site_occupancy
  C  C0  1  0.00000000  0.00000000  0.00000000  1
  C  C1  1  0.00000000  0.02052400  0.33968100  1
  C  C2  1  0.00000000  0.97947600  0.66031900  1
  C  C3  1  0.50000000  0.48046500  0.15986700  1
  C  C4  1  0.50000000  0.50000000  0.50000000  1
  C  C5  1  0.50000000  0.51953500  0.84013300  1
  Ni  Ni6  1  0.50000000  0.80006300  0.60032600  1
  Ni  Ni7  1  0.50000000  0.80961900  0.93614700  1
  Ni  Ni8  1  0.00000000  0.69468500  0.10280400  1
  Ni  Ni9  1  0.00000000  0.69571800  0.76878300  1
  Ni  Ni10  1  0.00000000  0.69407000  0.43400100  1
  Ni  Ni11  1  0.00000000  0.30428200  0.23121700  1
  Ni  Ni12  1  0.00000000  0.30593000  0.56599900  1
  Ni  Ni13  1  0.00000000  0.30531500  0.89719600  1
  Ni  Ni14  1  0.50000000  0.19038100  0.06385300  1
  Ni  Ni15  1  0.50000000  0.19993700  0.39967400  1
  Cu  Cu16  1  0.50000000  0.80158200  0.26727700  1
  Cu  Cu17  1  0.50000000  0.19841800  0.73272300  1
