# generated using pymatgen
data_CuNi5C34
_symmetry_space_group_name_H-M   'P 1'
_cell_length_a   8.35496289
_cell_length_b   8.91460799
_cell_length_c   8.91562770
_cell_angle_alpha   59.93215769
_cell_angle_beta   58.40203386
_cell_angle_gamma   58.61867934
_symmetry_Int_Tables_number   1
_chemical_formula_structural   CuNi5C34
_chemical_formula_sum   'Cu1 Ni5 C34'
_cell_volume   458.47261119
_cell_formula_units_Z   1
loop_
 _symmetry_equiv_pos_site_id
 _symmetry_equiv_pos_as_xyz
  1  'x, y, z'
loop_
 _atom_site_type_symbol
 _atom_site_label
 _atom_site_symmetry_multiplicity
 _atom_site_fract_x
 _atom_site_fract_y
 _atom_site_fract_z
 _atom_site_occupancy
  C  C0  1  0.25148100  0.85467200  0.64250800  1
  C  C1  1  0.74813500  0.15417100  0.34298900  1
  C  C2  1  0.74713100  0.75756900  0.15002500  1
  C  C3  1  0.74669400  0.34523900  0.75704100  1
  Ni  Ni4  1  0.00507100  0.00093400  0.00295300  1
  Ni  Ni5  1  0.06585100  0.64253200  0.64575800  1
  Ni  Ni6  1  0.49955800  0.49551300  0.49799100  1
  Ni  Ni7  1  0.43404900  0.85367300  0.85849600  1
  Ni  Ni8  1  0.95582500  0.34813400  0.34513600  1
  Cu  Cu9  1  0.55390500  0.15200900  0.14811800  1
  C  C10  1  0.25120300  0.25239500  0.55458700  1
  C  C11  1  0.24964300  0.94472300  0.24959600  1
  C  C12  1  0.24987000  0.55489100  0.94468800  1
  C  C13  1  0.74981100  0.45472100  0.04261900  1
  C  C14  1  0.76022400  0.04223700  0.75037000  1
  C  C15  1  0.73846400  0.75317700  0.45650100  1
  C  C16  1  0.05440200  0.09925300  0.31182900  1
  C  C17  1  0.05268000  0.53224900  0.09807400  1
  C  C18  1  0.05409200  0.31963500  0.52880800  1
  C  C19  1  0.23053700  0.09034200  0.74453400  1
  C  C20  1  0.44230100  0.19060900  0.39574600  1
  C  C21  1  0.27335100  0.40505500  0.57481500  1
  C  C22  1  0.23200800  0.92110600  0.09667000  1
  C  C23  1  0.27084400  0.75573900  0.41222400  1
  C  C24  1  0.56549400  0.60864700  0.99640900  1
  C  C25  1  0.27522500  0.58136200  0.74529700  1
  C  C26  1  0.77841200  0.25947600  0.05694000  1
  C  C27  1  0.58568000  0.98432800  0.81601900  1
  C  C28  1  0.44190000  0.97788600  0.18588500  1
  C  C29  1  0.22738800  0.75314100  0.91947400  1
  C  C30  1  0.71995000  0.43331100  0.23958000  1
  C  C31  1  0.43981300  0.39607000  0.97522900  1
  C  C32  1  0.72562400  0.23774400  0.60167400  1
  C  C33  1  0.77617300  0.06479300  0.90573500  1
  C  C34  1  0.72020000  0.60142900  0.43189200  1
  C  C35  1  0.53925400  0.82268700  0.60654500  1
  C  C36  1  0.77478400  0.90431800  0.26023800  1
  C  C37  1  0.91461300  0.68761400  0.51277200  1
  C  C38  1  0.93795300  0.49782700  0.88895200  1
  C  C39  1  0.96040600  0.89178600  0.68228500  1
