# generated using pymatgen
data_Cu3NiC10
_symmetry_space_group_name_H-M   'P 1'
_cell_length_a   5.89027554
_cell_length_b   5.89027554
_cell_length_c   9.59957300
_cell_angle_alpha   90.00000000
_cell_angle_beta   90.00000000
_cell_angle_gamma   119.55164566
_symmetry_Int_Tables_number   1
_chemical_formula_structural   Cu3NiC10
_chemical_formula_sum   'Cu6 Ni2 C20'
_cell_volume   289.73315684
_cell_formula_units_Z   2
loop_
 _symmetry_equiv_pos_site_id
 _symmetry_equiv_pos_as_xyz
  1  'x, y, z'
loop_
 _atom_site_type_symbol
 _atom_site_label
 _atom_site_symmetry_multiplicity
 _atom_site_fract_x
 _atom_site_fract_y
 _atom_site_fract_z
 _atom_site_occupancy
  C  C0  1  0.33199200  0.66800800  0.89438500  1
  C  C1  1  0.99974500  0.00025500  0.99742700  1
  C  C2  1  0.00025500  0.99974500  0.49742700  1
  C  C3  1  0.66800800  0.33199200  0.39438500  1
  Ni  Ni4  1  0.33590900  0.66409100  0.48468000  1
  Ni  Ni5  1  0.66409100  0.33590900  0.98468000  1
  Cu  Cu6  1  0.16880600  0.33822000  0.21291900  1
  Cu  Cu7  1  0.66178000  0.83119400  0.21291900  1
  Cu  Cu8  1  0.16872200  0.83127800  0.21310900  1
  Cu  Cu9  1  0.83127800  0.16872200  0.71310900  1
  Cu  Cu10  1  0.33822000  0.16880600  0.71291900  1
  Cu  Cu11  1  0.83119400  0.66178000  0.71291900  1
  C  C12  1  0.16662600  0.32688300  0.60093800  1
  C  C13  1  0.48123800  0.51876200  0.34095800  1
  C  C14  1  0.33338600  0.66661400  0.10249300  1
  C  C15  1  0.99952700  0.00047300  0.31022400  1
  C  C16  1  0.00047300  0.99952700  0.81022400  1
  C  C17  1  0.67311700  0.83337400  0.60093800  1
  C  C18  1  0.04244200  0.51685000  0.34173300  1
  C  C19  1  0.48315000  0.95755800  0.34173300  1
  C  C20  1  0.83406300  0.16593700  0.09899700  1
  C  C21  1  0.16593700  0.83406300  0.59899700  1
  C  C22  1  0.51685000  0.04244200  0.84173300  1
  C  C23  1  0.95755800  0.48315000  0.84173300  1
  C  C24  1  0.66661400  0.33338600  0.60249300  1
  C  C25  1  0.32688300  0.16662600  0.10093800  1
  C  C26  1  0.51876200  0.48123800  0.84095800  1
  C  C27  1  0.83337400  0.67311700  0.10093800  1
