# generated using pymatgen
data_CuNiC5
_symmetry_space_group_name_H-M   'P 1'
_cell_length_a   8.51249886
_cell_length_b   8.51249886
_cell_length_c   8.51249912
_cell_angle_alpha   107.18574848
_cell_angle_beta   107.18574848
_cell_angle_gamma   107.18574315
_symmetry_Int_Tables_number   1
_chemical_formula_structural   CuNiC5
_chemical_formula_sum   'Cu6 Ni6 C30'
_cell_volume   511.08341809
_cell_formula_units_Z   6
loop_
 _symmetry_equiv_pos_site_id
 _symmetry_equiv_pos_as_xyz
  1  'x, y, z'
loop_
 _atom_site_type_symbol
 _atom_site_label
 _atom_site_symmetry_multiplicity
 _atom_site_fract_x
 _atom_site_fract_y
 _atom_site_fract_z
 _atom_site_occupancy
  C  C0  1  0.45605700  0.05477100  0.22838400  1
  C  C1  1  0.77161600  0.54394300  0.94522900  1
  C  C2  1  0.94522900  0.77161600  0.54394300  1
  C  C3  1  0.05477100  0.22838400  0.45605700  1
  C  C4  1  0.22838400  0.45605700  0.05477100  1
  C  C5  1  0.54394300  0.94522900  0.77161600  1
  Ni  Ni6  1  0.80054000  0.39561500  0.56841100  1
  Ni  Ni7  1  0.43158900  0.19946000  0.60438500  1
  Ni  Ni8  1  0.60438500  0.43158900  0.19946000  1
  Ni  Ni9  1  0.39561500  0.56841100  0.80054000  1
  Ni  Ni10  1  0.56841100  0.80054000  0.39561500  1
  Ni  Ni11  1  0.19946000  0.60438500  0.43158900  1
  Cu  Cu12  1  0.90476900  0.13301600  0.73043800  1
  Cu  Cu13  1  0.86698400  0.26956200  0.09523100  1
  Cu  Cu14  1  0.26956200  0.09523100  0.86698400  1
  Cu  Cu15  1  0.73043800  0.90476900  0.13301600  1
  Cu  Cu16  1  0.13301600  0.73043800  0.90476900  1
  Cu  Cu17  1  0.09523100  0.86698400  0.26956200  1
  C  C18  1  0.96049700  0.26276000  0.94656800  1
  C  C19  1  0.73724000  0.05343200  0.03950300  1
  C  C20  1  0.92845400  0.25114400  0.61379300  1
  C  C21  1  0.74885600  0.38620700  0.07154600  1
  C  C22  1  0.97309100  0.64137300  0.70048500  1
  C  C23  1  0.63766400  0.29839200  0.34142000  1
  C  C24  1  0.38620700  0.07154600  0.74885600  1
  C  C25  1  0.65858000  0.36233600  0.70160800  1
  C  C26  1  0.29951500  0.02690900  0.35862700  1
  C  C27  1  0.35862700  0.29951500  0.02690900  1
  C  C28  1  0.70160800  0.65858000  0.36233600  1
  C  C29  1  0.05343200  0.03950300  0.73724000  1
  C  C30  1  0.94656800  0.96049700  0.26276000  1
  C  C31  1  0.29839200  0.34142000  0.63766400  1
  C  C32  1  0.64137300  0.70048500  0.97309100  1
  C  C33  1  0.70048500  0.97309100  0.64137300  1
  C  C34  1  0.34142000  0.63766400  0.29839200  1
  C  C35  1  0.61379300  0.92845400  0.25114400  1
  C  C36  1  0.36233600  0.70160800  0.65858000  1
  C  C37  1  0.02690900  0.35862700  0.29951500  1
  C  C38  1  0.25114400  0.61379300  0.92845400  1
  C  C39  1  0.07154600  0.74885600  0.38620700  1
  C  C40  1  0.26276000  0.94656800  0.96049700  1
  C  C41  1  0.03950300  0.73724000  0.05343200  1
