# generated using pymatgen
data_Cu40Ni3C43
_symmetry_space_group_name_H-M   'P 1'
_cell_length_a   12.89555338
_cell_length_b   12.89555338
_cell_length_c   12.89555381
_cell_angle_alpha   81.14966669
_cell_angle_beta   81.14966669
_cell_angle_gamma   81.14966505
_symmetry_Int_Tables_number   1
_chemical_formula_structural   Cu40Ni3C43
_chemical_formula_sum   'Cu80 Ni6 C86'
_cell_volume   2075.01229435
_cell_formula_units_Z   2
loop_
 _symmetry_equiv_pos_site_id
 _symmetry_equiv_pos_as_xyz
  1  'x, y, z'
loop_
 _atom_site_type_symbol
 _atom_site_label
 _atom_site_symmetry_multiplicity
 _atom_site_fract_x
 _atom_site_fract_y
 _atom_site_fract_z
 _atom_site_occupancy
  C  C0  1  0.69816800  0.92145800  0.92145800  1
  C  C1  1  0.92145800  0.69816800  0.92145800  1
  C  C2  1  0.92145800  0.92145800  0.69816800  1
  C  C3  1  0.30183200  0.07854200  0.07854200  1
  C  C4  1  0.07854200  0.30183200  0.07854200  1
  C  C5  1  0.07854200  0.07854200  0.30183200  1
  C  C6  1  0.51878300  0.95012600  0.74250800  1
  C  C7  1  0.74250800  0.51878300  0.95012600  1
  C  C8  1  0.95012600  0.74250800  0.51878300  1
  C  C9  1  0.74250800  0.95012600  0.51878300  1
  C  C10  1  0.51878300  0.74250800  0.95012600  1
  C  C11  1  0.95012600  0.51878300  0.74250800  1
  C  C12  1  0.48121700  0.04987400  0.25749200  1
  C  C13  1  0.25749200  0.48121700  0.04987400  1
  C  C14  1  0.04987400  0.25749200  0.48121700  1
  C  C15  1  0.25749200  0.04987400  0.48121700  1
  C  C16  1  0.48121700  0.25749200  0.04987400  1
  C  C17  1  0.04987400  0.48121700  0.25749200  1
  C  C18  1  0.54794500  0.75471200  0.54794500  1
  C  C19  1  0.54794500  0.54794500  0.75471200  1
  C  C20  1  0.75471200  0.54794500  0.54794500  1
  C  C21  1  0.45205500  0.24528800  0.45205500  1
  C  C22  1  0.45205500  0.45205500  0.24528800  1
  C  C23  1  0.24528800  0.45205500  0.45205500  1
  C  C24  1  0.73456500  0.73456500  0.73456500  1
  C  C25  1  0.26543500  0.26543500  0.26543500  1
  C  C26  1  0.29088700  0.19210800  0.66867400  1
  C  C27  1  0.66867400  0.29088700  0.19210800  1
  C  C28  1  0.19210800  0.66867400  0.29088700  1
  C  C29  1  0.66867400  0.19210800  0.29088700  1
  C  C30  1  0.29088700  0.66867400  0.19210800  1
  C  C31  1  0.19210800  0.29088700  0.66867400  1
  C  C32  1  0.70911300  0.80789200  0.33132600  1
  C  C33  1  0.33132600  0.70911300  0.80789200  1
  C  C34  1  0.80789200  0.33132600  0.70911300  1
  C  C35  1  0.33132600  0.80789200  0.70911300  1
  C  C36  1  0.70911300  0.33132600  0.80789200  1
  C  C37  1  0.80789200  0.70911300  0.33132600  1
  C  C38  1  0.12751100  0.12751100  0.74043100  1
  C  C39  1  0.74043100  0.12751100  0.12751100  1
  C  C40  1  0.12751100  0.74043100  0.12751100  1
  C  C41  1  0.87248900  0.87248900  0.25956900  1
  C  C42  1  0.25956900  0.87248900  0.87248900  1
  C  C43  1  0.87248900  0.25956900  0.87248900  1
  C  C44  1  0.21626000  0.10898700  0.83883600  1
  C  C45  1  0.83883600  0.21626000  0.10898700  1
  C  C46  1  0.10898700  0.83883600  0.21626000  1
  C  C47  1  0.83883600  0.10898700  0.21626000  1
  C  C48  1  0.21626000  0.83883600  0.10898700  1
  C  C49  1  0.10898700  0.21626000  0.83883600  1
  C  C50  1  0.78374000  0.89101300  0.16116400  1
  C  C51  1  0.16116400  0.78374000  0.89101300  1
  C  C52  1  0.89101300  0.16116400  0.78374000  1
  C  C53  1  0.16116400  0.89101300  0.78374000  1
  C  C54  1  0.78374000  0.16116400  0.89101300  1
  C  C55  1  0.89101300  0.78374000  0.16116400  1
  C  C56  1  0.34600700  0.34600700  0.71484700  1
  C  C57  1  0.71484700  0.34600700  0.34600700  1
  C  C58  1  0.34600700  0.71484700  0.34600700  1
  C  C59  1  0.65399300  0.65399300  0.28515300  1
  C  C60  1  0.28515300  0.65399300  0.65399300  1
  C  C61  1  0.65399300  0.28515300  0.65399300  1
  C  C62  1  0.24021000  0.34738900  0.82347600  1
  C  C63  1  0.82347600  0.24021000  0.34738900  1
  C  C64  1  0.34738900  0.82347600  0.24021000  1
  C  C65  1  0.82347600  0.34738900  0.24021000  1
  C  C66  1  0.24021000  0.82347600  0.34738900  1
  C  C67  1  0.34738900  0.24021000  0.82347600  1
  C  C68  1  0.75979000  0.65261100  0.17652400  1
  C  C69  1  0.17652400  0.75979000  0.65261100  1
  C  C70  1  0.65261100  0.17652400  0.75979000  1
  C  C71  1  0.17652400  0.65261100  0.75979000  1
  C  C72  1  0.75979000  0.17652400  0.65261100  1
  C  C73  1  0.65261100  0.75979000  0.17652400  1
  C  C74  1  0.16722300  0.16722300  0.78939300  1
  C  C75  1  0.78939300  0.16722300  0.16722300  1
  C  C76  1  0.16722300  0.78939300  0.16722300  1
  C  C77  1  0.83277700  0.83277700  0.21060700  1
  C  C78  1  0.21060700  0.83277700  0.83277700  1
  C  C79  1  0.83277700  0.21060700  0.83277700  1
  C  C80  1  0.29725900  0.29725900  0.77407900  1
  C  C81  1  0.77407900  0.29725900  0.29725900  1
  C  C82  1  0.29725900  0.77407900  0.29725900  1
  C  C83  1  0.70274100  0.70274100  0.22592100  1
  C  C84  1  0.22592100  0.70274100  0.70274100  1
  C  C85  1  0.70274100  0.22592100  0.70274100  1
  Ni  Ni86  1  0.23754400  0.23754400  0.71764100  1
  Ni  Ni87  1  0.71764100  0.23754400  0.23754400  1
  Ni  Ni88  1  0.23754400  0.71764100  0.23754400  1
  Ni  Ni89  1  0.76245600  0.76245600  0.28235900  1
  Ni  Ni90  1  0.28235900  0.76245600  0.76245600  1
  Ni  Ni91  1  0.76245600  0.28235900  0.76245600  1
  Cu  Cu92  1  0.71295500  0.00652200  0.00652200  1
  Cu  Cu93  1  0.00652200  0.71295500  0.00652200  1
  Cu  Cu94  1  0.00652200  0.00652200  0.71295500  1
  Cu  Cu95  1  0.28704500  0.99347800  0.99347800  1
  Cu  Cu96  1  0.99347800  0.28704500  0.99347800  1
  Cu  Cu97  1  0.99347800  0.99347800  0.28704500  1
  Cu  Cu98  1  0.80216900  0.80216900  0.95819600  1
  Cu  Cu99  1  0.95819600  0.80216900  0.80216900  1
  Cu  Cu100  1  0.80216900  0.95819600  0.80216900  1
  Cu  Cu101  1  0.19783100  0.19783100  0.04180400  1
  Cu  Cu102  1  0.04180400  0.19783100  0.19783100  1
  Cu  Cu103  1  0.19783100  0.04180400  0.19783100  1
  Cu  Cu104  1  0.58837600  0.00239800  0.84284200  1
  Cu  Cu105  1  0.84284200  0.58837600  0.00239800  1
  Cu  Cu106  1  0.00239800  0.84284200  0.58837600  1
  Cu  Cu107  1  0.84284200  0.00239800  0.58837600  1
  Cu  Cu108  1  0.58837600  0.84284200  0.00239800  1
  Cu  Cu109  1  0.00239800  0.58837600  0.84284200  1
  Cu  Cu110  1  0.41162400  0.99760200  0.15715800  1
  Cu  Cu111  1  0.15715800  0.41162400  0.99760200  1
  Cu  Cu112  1  0.99760200  0.15715800  0.41162400  1
  Cu  Cu113  1  0.15715800  0.99760200  0.41162400  1
  Cu  Cu114  1  0.41162400  0.15715800  0.99760200  1
  Cu  Cu115  1  0.99760200  0.41162400  0.15715800  1
  Cu  Cu116  1  0.63211900  0.98433400  0.63211900  1
  Cu  Cu117  1  0.63211900  0.63211900  0.98433400  1
  Cu  Cu118  1  0.98433400  0.63211900  0.63211900  1
  Cu  Cu119  1  0.36788100  0.01566600  0.36788100  1
  Cu  Cu120  1  0.36788100  0.36788100  0.01566600  1
  Cu  Cu121  1  0.01566600  0.36788100  0.36788100  1
  Cu  Cu122  1  0.45133800  0.86232900  0.86232900  1
  Cu  Cu123  1  0.86232900  0.45133800  0.86232900  1
  Cu  Cu124  1  0.86232900  0.86232900  0.45133800  1
  Cu  Cu125  1  0.54866200  0.13767100  0.13767100  1
  Cu  Cu126  1  0.13767100  0.54866200  0.13767100  1
  Cu  Cu127  1  0.13767100  0.13767100  0.54866200  1
  Cu  Cu128  1  0.41828600  0.05151400  0.72081700  1
  Cu  Cu129  1  0.72081700  0.41828600  0.05151400  1
  Cu  Cu130  1  0.05151400  0.72081700  0.41828600  1
  Cu  Cu131  1  0.72081700  0.05151400  0.41828600  1
  Cu  Cu132  1  0.41828600  0.72081700  0.05151400  1
  Cu  Cu133  1  0.05151400  0.41828600  0.72081700  1
  Cu  Cu134  1  0.58171400  0.94848600  0.27918300  1
  Cu  Cu135  1  0.27918300  0.58171400  0.94848600  1
  Cu  Cu136  1  0.94848600  0.27918300  0.58171400  1
  Cu  Cu137  1  0.27918300  0.94848600  0.58171400  1
  Cu  Cu138  1  0.58171400  0.27918300  0.94848600  1
  Cu  Cu139  1  0.94848600  0.58171400  0.27918300  1
  Cu  Cu140  1  0.49538000  0.84931600  0.65310800  1
  Cu  Cu141  1  0.65310800  0.49538000  0.84931600  1
  Cu  Cu142  1  0.84931600  0.65310800  0.49538000  1
  Cu  Cu143  1  0.65310800  0.84931600  0.49538000  1
  Cu  Cu144  1  0.49538000  0.65310800  0.84931600  1
  Cu  Cu145  1  0.84931600  0.49538000  0.65310800  1
  Cu  Cu146  1  0.50462000  0.15068400  0.34689200  1
  Cu  Cu147  1  0.34689200  0.50462000  0.15068400  1
  Cu  Cu148  1  0.15068400  0.34689200  0.50462000  1
  Cu  Cu149  1  0.34689200  0.15068400  0.50462000  1
  Cu  Cu150  1  0.50462000  0.34689200  0.15068400  1
  Cu  Cu151  1  0.15068400  0.50462000  0.34689200  1
  Cu  Cu152  1  0.64305900  0.64305900  0.48302400  1
  Cu  Cu153  1  0.48302400  0.64305900  0.64305900  1
  Cu  Cu154  1  0.64305900  0.48302400  0.64305900  1
  Cu  Cu155  1  0.35694100  0.35694100  0.51697600  1
  Cu  Cu156  1  0.51697600  0.35694100  0.35694100  1
  Cu  Cu157  1  0.35694100  0.51697600  0.35694100  1
  Cu  Cu158  1  0.45902900  0.78967900  0.45902900  1
  Cu  Cu159  1  0.45902900  0.45902900  0.78967900  1
  Cu  Cu160  1  0.78967900  0.45902900  0.45902900  1
  Cu  Cu161  1  0.54097100  0.21032100  0.54097100  1
  Cu  Cu162  1  0.54097100  0.54097100  0.21032100  1
  Cu  Cu163  1  0.21032100  0.54097100  0.54097100  1
  Cu  Cu164  1  0.65418400  0.80498200  0.80498200  1
  Cu  Cu165  1  0.80498200  0.65418400  0.80498200  1
  Cu  Cu166  1  0.80498200  0.80498200  0.65418400  1
  Cu  Cu167  1  0.34581600  0.19501800  0.19501800  1
  Cu  Cu168  1  0.19501800  0.34581600  0.19501800  1
  Cu  Cu169  1  0.19501800  0.19501800  0.34581600  1
  Cu  Cu170  1  0.67396800  0.67396800  0.67396800  1
  Cu  Cu171  1  0.32603200  0.32603200  0.32603200  1
