# generated using pymatgen
data_Cu3(NiC8)2
_symmetry_space_group_name_H-M   'P 1'
_cell_length_a   15.53508000
_cell_length_b   6.82042200
_cell_length_c   11.15334556
_cell_angle_alpha   82.37551258
_cell_angle_beta   90.00000000
_cell_angle_gamma   90.00000000
_symmetry_Int_Tables_number   1
_chemical_formula_structural   Cu3(NiC8)2
_chemical_formula_sum   'Cu12 Ni8 C64'
_cell_volume   1171.31362410
_cell_formula_units_Z   4
loop_
 _symmetry_equiv_pos_site_id
 _symmetry_equiv_pos_as_xyz
  1  'x, y, z'
loop_
 _atom_site_type_symbol
 _atom_site_label
 _atom_site_symmetry_multiplicity
 _atom_site_fract_x
 _atom_site_fract_y
 _atom_site_fract_z
 _atom_site_occupancy
  C  C0  1  0.85969600  0.35108400  0.01406900  1
  C  C1  1  0.35969600  0.64891600  0.48593100  1
  C  C2  1  0.14030400  0.64891600  0.98593100  1
  C  C3  1  0.64030400  0.35108400  0.51406900  1
  C  C4  1  0.00303500  0.93585400  0.27723100  1
  C  C5  1  0.50303500  0.06414600  0.22276900  1
  C  C6  1  0.99696500  0.06414600  0.72276900  1
  C  C7  1  0.49696500  0.93585400  0.77723100  1
  Ni  Ni8  1  0.67194700  0.63815400  0.92627500  1
  Ni  Ni9  1  0.17194700  0.36184600  0.57372500  1
  Ni  Ni10  1  0.32805300  0.36184600  0.07372500  1
  Ni  Ni11  1  0.82805300  0.63815400  0.42627500  1
  Ni  Ni12  1  0.72384400  0.00417200  0.27218900  1
  Ni  Ni13  1  0.22384400  0.99582800  0.22781100  1
  Ni  Ni14  1  0.27615600  0.99582800  0.72781100  1
  Ni  Ni15  1  0.77615600  0.00417200  0.77218900  1
  Cu  Cu16  1  0.70870400  0.52732200  0.18510400  1
  Cu  Cu17  1  0.20870400  0.47267800  0.31489600  1
  Cu  Cu18  1  0.29129600  0.47267800  0.81489600  1
  Cu  Cu19  1  0.79129600  0.52732200  0.68510400  1
  Cu  Cu20  1  0.48533100  0.43585900  0.79523000  1
  Cu  Cu21  1  0.98533100  0.56414100  0.70477000  1
  Cu  Cu22  1  0.51466900  0.56414100  0.20477000  1
  Cu  Cu23  1  0.01466900  0.43585900  0.29523000  1
  Cu  Cu24  1  0.63609300  0.12866400  0.97211000  1
  Cu  Cu25  1  0.13609300  0.87133600  0.52789000  1
  Cu  Cu26  1  0.36390700  0.87133600  0.02789000  1
  Cu  Cu27  1  0.86390700  0.12866400  0.47211000  1
  C  C28  1  0.90957700  0.40573800  0.79355700  1
  C  C29  1  0.40957700  0.59426200  0.70644300  1
  C  C30  1  0.09042300  0.59426200  0.20644300  1
  C  C31  1  0.59042300  0.40573800  0.29355700  1
  C  C32  1  0.75710000  0.29606000  0.20896500  1
  C  C33  1  0.25710000  0.70394000  0.29103500  1
  C  C34  1  0.24290000  0.70394000  0.79103500  1
  C  C35  1  0.74290000  0.29606000  0.70896500  1
  C  C36  1  0.76755500  0.62984900  0.06035300  1
  C  C37  1  0.26755500  0.37015100  0.43964700  1
  C  C38  1  0.23244500  0.37015100  0.93964700  1
  C  C39  1  0.73244500  0.62984900  0.56035300  1
  C  C40  1  0.73127000  0.68312200  0.29436700  1
  C  C41  1  0.23127000  0.31687800  0.20563300  1
  C  C42  1  0.26873000  0.31687800  0.70563300  1
  C  C43  1  0.76873000  0.68312200  0.79436700  1
  C  C44  1  0.60770400  0.60021700  0.09458800  1
  C  C45  1  0.10770400  0.39978300  0.40541200  1
  C  C46  1  0.39229600  0.39978300  0.90541200  1
  C  C47  1  0.89229600  0.60021700  0.59458800  1
  C  C48  1  0.56366100  0.60031200  0.82452800  1
  C  C49  1  0.06366100  0.39968800  0.67547200  1
  C  C50  1  0.43633900  0.39968800  0.17547200  1
  C  C51  1  0.93633900  0.60031200  0.32452800  1
  C  C52  1  0.53168000  0.20502700  0.93106600  1
  C  C53  1  0.03168000  0.79497300  0.56893400  1
  C  C54  1  0.46832000  0.79497300  0.06893400  1
  C  C55  1  0.96832000  0.20502700  0.43106600  1
  C  C56  1  0.98051200  0.29137600  0.18652000  1
  C  C57  1  0.48051200  0.70862400  0.31348000  1
  C  C58  1  0.01948800  0.70862400  0.81348000  1
  C  C59  1  0.51948800  0.29137600  0.68652000  1
  C  C60  1  0.66372400  0.94899200  0.87548400  1
  C  C61  1  0.16372400  0.05100800  0.62451600  1
  C  C62  1  0.33627600  0.05100800  0.12451600  1
  C  C63  1  0.83627600  0.94899200  0.37548400  1
  C  C64  1  0.64131200  0.02685600  0.12376700  1
  C  C65  1  0.14131200  0.97314400  0.37623300  1
  C  C66  1  0.35868800  0.97314400  0.87623300  1
  C  C67  1  0.85868800  0.02685600  0.62376700  1
  C  C68  1  0.70289600  0.32764300  0.95141300  1
  C  C69  1  0.20289600  0.67235700  0.54858700  1
  C  C70  1  0.29710400  0.67235700  0.04858700  1
  C  C71  1  0.79710400  0.32764300  0.45141300  1
  C  C72  1  0.87455800  0.07696300  0.88011800  1
  C  C73  1  0.37455800  0.92303700  0.61988200  1
  C  C74  1  0.12544200  0.92303700  0.11988200  1
  C  C75  1  0.62544200  0.07696300  0.38011800  1
  C  C76  1  0.86543400  0.92267000  0.09481900  1
  C  C77  1  0.36543400  0.07733000  0.40518100  1
  C  C78  1  0.13456600  0.07733000  0.90518100  1
  C  C79  1  0.63456600  0.92267000  0.59481900  1
  C  C80  1  0.92143600  0.81548000  0.05604200  1
  C  C81  1  0.42143600  0.18452000  0.44395800  1
  C  C82  1  0.07856400  0.18452000  0.94395800  1
  C  C83  1  0.57856400  0.81548000  0.55604200  1
