# generated using pymatgen
data_CuNiC
_symmetry_space_group_name_H-M   'P 1'
_cell_length_a   3.10834600
_cell_length_b   9.51305400
_cell_length_c   14.15402283
_cell_angle_alpha   89.90653116
_cell_angle_beta   90.00000000
_cell_angle_gamma   90.00000000
_symmetry_Int_Tables_number   1
_chemical_formula_structural   CuNiC
_chemical_formula_sum   'Cu12 Ni12 C12'
_cell_volume   418.53196412
_cell_formula_units_Z   12
loop_
 _symmetry_equiv_pos_site_id
 _symmetry_equiv_pos_as_xyz
  1  'x, y, z'
loop_
 _atom_site_type_symbol
 _atom_site_label
 _atom_site_symmetry_multiplicity
 _atom_site_fract_x
 _atom_site_fract_y
 _atom_site_fract_z
 _atom_site_occupancy
  C  C0  1  0.00000000  0.99616100  0.98714900  1
  C  C1  1  0.00000000  0.49144000  0.99033300  1
  C  C2  1  0.50000000  0.24740200  0.84743200  1
  C  C3  1  0.50000000  0.74341200  0.84923000  1
  C  C4  1  0.00000000  0.99458000  0.65598000  1
  C  C5  1  0.00000000  0.49550800  0.65609300  1
  C  C6  1  0.50000000  0.74461000  0.51488700  1
  C  C7  1  0.50000000  0.24682100  0.51499900  1
  C  C8  1  0.00000000  0.99218300  0.32303200  1
  C  C9  1  0.00000000  0.49482000  0.31999800  1
  C  C10  1  0.50000000  0.27666700  0.15848000  1
  C  C11  1  0.50000000  0.74530300  0.17820000  1
  Ni  Ni12  1  0.50000000  0.40563700  0.93179500  1
  Ni  Ni13  1  0.50000000  0.90238900  0.93656400  1
  Ni  Ni14  1  0.00000000  0.15295800  0.89897200  1
  Ni  Ni15  1  0.00000000  0.65152400  0.89976100  1
  Ni  Ni16  1  0.50000000  0.40266700  0.60288100  1
  Ni  Ni17  1  0.50000000  0.90171100  0.60241400  1
  Ni  Ni18  1  0.00000000  0.15022300  0.56454900  1
  Ni  Ni19  1  0.00000000  0.65200500  0.56557600  1
  Ni  Ni20  1  0.50000000  0.39901700  0.27024800  1
  Ni  Ni21  1  0.50000000  0.90826200  0.26645000  1
  Ni  Ni22  1  0.00000000  0.65509100  0.23354900  1
  Ni  Ni23  1  0.00000000  0.35419100  0.09871600  1
  Cu  Cu24  1  0.00000000  0.34829700  0.76726100  1
  Cu  Cu25  1  0.00000000  0.84757500  0.76820700  1
  Cu  Cu26  1  0.50000000  0.09773500  0.73288400  1
  Cu  Cu27  1  0.50000000  0.59731600  0.73242300  1
  Cu  Cu28  1  0.00000000  0.34793400  0.43558500  1
  Cu  Cu29  1  0.00000000  0.85055100  0.43342600  1
  Cu  Cu30  1  0.50000000  0.10070100  0.39466000  1
  Cu  Cu31  1  0.50000000  0.59890700  0.39944800  1
  Cu  Cu32  1  0.00000000  0.15497300  0.23040400  1
  Cu  Cu33  1  0.00000000  0.84978800  0.10298600  1
  Cu  Cu34  1  0.50000000  0.09561300  0.06934100  1
  Cu  Cu35  1  0.50000000  0.60602800  0.06609100  1
