# generated using pymatgen
data_Cu2NiC6
_symmetry_space_group_name_H-M   'P 1'
_cell_length_a   10.61974000
_cell_length_b   6.03734700
_cell_length_c   6.64338621
_cell_angle_alpha   77.67261804
_cell_angle_beta   90.00000000
_cell_angle_gamma   90.00000000
_symmetry_Int_Tables_number   1
_chemical_formula_structural   Cu2NiC6
_chemical_formula_sum   'Cu8 Ni4 C24'
_cell_volume   416.12043036
_cell_formula_units_Z   4
loop_
 _symmetry_equiv_pos_site_id
 _symmetry_equiv_pos_as_xyz
  1  'x, y, z'
loop_
 _atom_site_type_symbol
 _atom_site_label
 _atom_site_symmetry_multiplicity
 _atom_site_fract_x
 _atom_site_fract_y
 _atom_site_fract_z
 _atom_site_occupancy
  C  C0  1  0.67180300  0.99803000  0.43499300  1
  C  C1  1  0.17180300  0.00197000  0.06500700  1
  C  C2  1  0.32819700  0.00197000  0.56500700  1
  C  C3  1  0.82819700  0.99803000  0.93499300  1
  C  C4  1  0.88316400  0.28364400  0.21944400  1
  C  C5  1  0.38316400  0.71635600  0.28055600  1
  C  C6  1  0.11683600  0.71635600  0.78055600  1
  C  C7  1  0.61683600  0.28364400  0.71944400  1
  C  C8  1  0.75452700  0.39618200  0.13883100  1
  C  C9  1  0.25452700  0.60381800  0.36116900  1
  C  C10  1  0.24547300  0.60381800  0.86116900  1
  C  C11  1  0.74547300  0.39618200  0.63883100  1
  C  C12  1  0.99374900  0.64517900  0.19509100  1
  C  C13  1  0.49374900  0.35482100  0.30490900  1
  C  C14  1  0.00625100  0.35482100  0.80490900  1
  C  C15  1  0.50625100  0.64517900  0.69509100  1
  C  C16  1  0.95092700  0.82328200  0.31831000  1
  C  C17  1  0.45092700  0.17671800  0.18169000  1
  C  C18  1  0.04907300  0.17671800  0.68169000  1
  C  C19  1  0.54907300  0.82328200  0.81831000  1
  C  C20  1  0.56531900  0.67702800  0.20099200  1
  C  C21  1  0.06531900  0.32297200  0.29900800  1
  C  C22  1  0.43468100  0.32297200  0.79900800  1
  C  C23  1  0.93468100  0.67702800  0.70099200  1
  Ni  Ni24  1  0.65631700  0.76651500  0.11838300  1
  Ni  Ni25  1  0.15631700  0.23348500  0.38161700  1
  Ni  Ni26  1  0.34368300  0.23348500  0.88161700  1
  Ni  Ni27  1  0.84368300  0.76651500  0.61838300  1
  Cu  Cu28  1  0.79665800  0.24924700  0.17730700  1
  Cu  Cu29  1  0.29665800  0.75075300  0.32269300  1
  Cu  Cu30  1  0.20334200  0.75075300  0.82269300  1
  Cu  Cu31  1  0.70334200  0.24924700  0.67730700  1
  Cu  Cu32  1  0.97961100  0.80948200  0.18191900  1
  Cu  Cu33  1  0.47961100  0.19051800  0.31808100  1
  Cu  Cu34  1  0.02038900  0.19051800  0.81808100  1
  Cu  Cu35  1  0.52038900  0.80948200  0.68191900  1
