# generated using pymatgen
data_Cu2Ni3C10
_symmetry_space_group_name_H-M   'P 1'
_cell_length_a   7.77474500
_cell_length_b   11.13487600
_cell_length_c   15.65605500
_cell_angle_alpha   90.00000000
_cell_angle_beta   90.00000000
_cell_angle_gamma   90.00000000
_symmetry_Int_Tables_number   1
_chemical_formula_structural   Cu2Ni3C10
_chemical_formula_sum   'Cu16 Ni24 C80'
_cell_volume   1355.35754290
_cell_formula_units_Z   8
loop_
 _symmetry_equiv_pos_site_id
 _symmetry_equiv_pos_as_xyz
  1  'x, y, z'
loop_
 _atom_site_type_symbol
 _atom_site_label
 _atom_site_symmetry_multiplicity
 _atom_site_fract_x
 _atom_site_fract_y
 _atom_site_fract_z
 _atom_site_occupancy
  C  C0  1  0.34513000  0.06766300  0.35080100  1
  C  C1  1  0.34513000  0.43233700  0.85080100  1
  C  C2  1  0.65487000  0.56766300  0.35080100  1
  C  C3  1  0.65487000  0.93233700  0.85080100  1
  C  C4  1  0.38344100  0.03620700  0.77151900  1
  C  C5  1  0.13935700  0.03772400  0.06191000  1
  C  C6  1  0.32606200  0.05751800  0.66414600  1
  C  C7  1  0.92150100  0.08387200  0.91845300  1
  C  C8  1  0.70830300  0.11478200  0.07761500  1
  C  C9  1  0.81490000  0.14531600  0.49296500  1
  C  C10  1  0.66102500  0.15074300  0.40921600  1
  C  C11  1  0.29040100  0.15439200  0.05049500  1
  C  C12  1  0.05507600  0.20266400  0.26242800  1
  C  C13  1  0.98641900  0.21283000  0.67433100  1
  C  C14  1  0.03368300  0.21763500  0.89925000  1
  C  C15  1  0.59663400  0.24658100  0.10819200  1
  C  C16  1  0.59663400  0.25341900  0.60819200  1
  C  C17  1  0.03368300  0.28236500  0.39925000  1
  C  C18  1  0.98641900  0.28717000  0.17433100  1
  C  C19  1  0.05507600  0.29733600  0.76242800  1
  C  C20  1  0.29040100  0.34560800  0.55049500  1
  C  C21  1  0.66102500  0.34925700  0.90921600  1
  C  C22  1  0.81490000  0.35468400  0.99296500  1
  C  C23  1  0.70830300  0.38521800  0.57761500  1
  C  C24  1  0.92150100  0.41612800  0.41845300  1
  C  C25  1  0.32606200  0.44248200  0.16414600  1
  C  C26  1  0.13935700  0.46227600  0.56191000  1
  C  C27  1  0.38344100  0.46379300  0.27151900  1
  C  C28  1  0.61655900  0.53620700  0.77151900  1
  C  C29  1  0.86064300  0.53772400  0.06191000  1
  C  C30  1  0.67393800  0.55751800  0.66414600  1
  C  C31  1  0.07849900  0.58387200  0.91845300  1
  C  C32  1  0.29169700  0.61478200  0.07761500  1
  C  C33  1  0.18510000  0.64531600  0.49296500  1
  C  C34  1  0.33897500  0.65074300  0.40921600  1
  C  C35  1  0.70959900  0.65439200  0.05049500  1
  C  C36  1  0.94492400  0.70266400  0.26242800  1
  C  C37  1  0.01358100  0.71283000  0.67433100  1
  C  C38  1  0.96631700  0.71763500  0.89925000  1
  C  C39  1  0.40336600  0.74658100  0.10819200  1
  C  C40  1  0.40336600  0.75341900  0.60819200  1
  C  C41  1  0.96631700  0.78236500  0.39925000  1
  C  C42  1  0.01358100  0.78717000  0.17433100  1
  C  C43  1  0.94492400  0.79733600  0.76242800  1
  C  C44  1  0.70959900  0.84560800  0.55049500  1
  C  C45  1  0.33897500  0.84925700  0.90921600  1
  C  C46  1  0.18510000  0.85468400  0.99296500  1
  C  C47  1  0.29169700  0.88521800  0.57761500  1
  C  C48  1  0.07849900  0.91612800  0.41845300  1
  C  C49  1  0.67393800  0.94248200  0.16414600  1
  C  C50  1  0.86064300  0.96227600  0.56191000  1
  C  C51  1  0.61655900  0.96379300  0.27151900  1
  C  C52  1  0.33439400  0.00619000  0.97668500  1
  C  C53  1  0.60365500  0.11501200  0.19831200  1
  C  C54  1  0.93826500  0.13625000  0.79178700  1
  C  C55  1  0.93826500  0.36375000  0.29178700  1
  C  C56  1  0.60365500  0.38498800  0.69831200  1
  C  C57  1  0.33439400  0.49381000  0.47668500  1
  C  C58  1  0.66560600  0.50619000  0.97668500  1
  C  C59  1  0.39634500  0.61501200  0.19831200  1
  C  C60  1  0.06173500  0.63625000  0.79178700  1
  C  C61  1  0.06173500  0.86375000  0.29178700  1
  C  C62  1  0.39634500  0.88498800  0.69831200  1
  C  C63  1  0.66560600  0.99381000  0.47668500  1
  C  C64  1  0.83208300  0.01572100  0.74575000  1
  C  C65  1  0.49664500  0.07943900  0.92110800  1
  C  C66  1  0.51049300  0.20738400  0.27524200  1
  C  C67  1  0.51049300  0.29261600  0.77524200  1
  C  C68  1  0.49664500  0.42056100  0.42110800  1
  C  C69  1  0.83208300  0.48427900  0.24575000  1
  C  C70  1  0.16791700  0.51572100  0.74575000  1
  C  C71  1  0.50335500  0.57943900  0.92110800  1
  C  C72  1  0.48950700  0.70738400  0.27524200  1
  C  C73  1  0.48950700  0.79261600  0.77524200  1
  C  C74  1  0.50335500  0.92056100  0.42110800  1
  C  C75  1  0.16791700  0.98427900  0.24575000  1
  C  C76  1  0.15713600  0.12850900  0.52273800  1
  C  C77  1  0.15713600  0.37149100  0.02273800  1
  C  C78  1  0.84286400  0.62850900  0.52273800  1
  C  C79  1  0.84286400  0.87149100  0.02273800  1
  Ni  Ni80  1  0.64314200  0.00052300  0.21315900  1
  Ni  Ni81  1  0.25339200  0.06814700  0.03732200  1
  Ni  Ni82  1  0.71341300  0.10654000  0.46009700  1
  Ni  Ni83  1  0.95967300  0.14821000  0.87584400  1
  Ni  Ni84  1  0.64095400  0.16301600  0.12244700  1
  Ni  Ni85  1  0.00001000  0.22038900  0.73926300  1
  Ni  Ni86  1  0.00001000  0.27961100  0.23926300  1
  Ni  Ni87  1  0.64095400  0.33698400  0.62244700  1
  Ni  Ni88  1  0.95967300  0.35179000  0.37584400  1
  Ni  Ni89  1  0.71341300  0.39346000  0.96009700  1
  Ni  Ni90  1  0.25339200  0.43185300  0.53732200  1
  Ni  Ni91  1  0.64314200  0.49947700  0.71315900  1
  Ni  Ni92  1  0.35685800  0.50052300  0.21315900  1
  Ni  Ni93  1  0.74660800  0.56814700  0.03732200  1
  Ni  Ni94  1  0.28658700  0.60654000  0.46009700  1
  Ni  Ni95  1  0.04032700  0.64821000  0.87584400  1
  Ni  Ni96  1  0.35904600  0.66301600  0.12244700  1
  Ni  Ni97  1  0.99999000  0.72038900  0.73926300  1
  Ni  Ni98  1  0.99999000  0.77961100  0.23926300  1
  Ni  Ni99  1  0.35904600  0.83698400  0.62244700  1
  Ni  Ni100  1  0.04032700  0.85179000  0.37584400  1
  Ni  Ni101  1  0.28658700  0.89346000  0.96009700  1
  Ni  Ni102  1  0.74660800  0.93185300  0.53732200  1
  Ni  Ni103  1  0.35685800  0.99947700  0.71315900  1
  Cu  Cu104  1  0.87597800  0.00274400  0.02955200  1
  Cu  Cu105  1  0.18629700  0.15985300  0.42850900  1
  Cu  Cu106  1  0.31095300  0.16430600  0.57255300  1
  Cu  Cu107  1  0.00351000  0.19853100  0.55007700  1
  Cu  Cu108  1  0.00351000  0.30146900  0.05007700  1
  Cu  Cu109  1  0.31095300  0.33569400  0.07255300  1
  Cu  Cu110  1  0.18629700  0.34014700  0.92850900  1
  Cu  Cu111  1  0.87597800  0.49725600  0.52955200  1
  Cu  Cu112  1  0.12402200  0.50274400  0.02955200  1
  Cu  Cu113  1  0.81370300  0.65985300  0.42850900  1
  Cu  Cu114  1  0.68904700  0.66430600  0.57255300  1
  Cu  Cu115  1  0.99649000  0.69853100  0.55007700  1
  Cu  Cu116  1  0.99649000  0.80146900  0.05007700  1
  Cu  Cu117  1  0.68904700  0.83569400  0.07255300  1
  Cu  Cu118  1  0.81370300  0.84014700  0.92850900  1
  Cu  Cu119  1  0.12402200  0.99725600  0.52955200  1
