# generated using pymatgen
data_CuNiC3
_symmetry_space_group_name_H-M   'P 1'
_cell_length_a   5.86120563
_cell_length_b   5.86120563
_cell_length_c   5.63108411
_cell_angle_alpha   61.40900686
_cell_angle_beta   61.40900686
_cell_angle_gamma   89.43292890
_symmetry_Int_Tables_number   1
_chemical_formula_structural   CuNiC3
_chemical_formula_sum   'Cu2 Ni2 C6'
_cell_volume   142.99614026
_cell_formula_units_Z   2
loop_
 _symmetry_equiv_pos_site_id
 _symmetry_equiv_pos_as_xyz
  1  'x, y, z'
loop_
 _atom_site_type_symbol
 _atom_site_label
 _atom_site_symmetry_multiplicity
 _atom_site_fract_x
 _atom_site_fract_y
 _atom_site_fract_z
 _atom_site_occupancy
  Ni  Ni0  1  0.24405700  0.24405700  0.96873200  1
  Ni  Ni1  1  0.75594300  0.75594300  0.03126800  1
  Cu  Cu2  1  0.00000000  0.50000000  0.50000000  1
  Cu  Cu3  1  0.50000000  0.00000000  0.50000000  1
  C  C4  1  0.18004600  0.81995400  0.00000000  1
  C  C5  1  0.81995400  0.18004600  0.00000000  1
  C  C6  1  0.32197800  0.67802200  0.50000000  1
  C  C7  1  0.67802200  0.32197800  0.50000000  1
  C  C8  1  0.24421700  0.24421700  0.38910700  1
  C  C9  1  0.75578300  0.75578300  0.61089300  1
