# generated using pymatgen
data_Cu4Ni2C3
_symmetry_space_group_name_H-M   'P 1'
_cell_length_a   4.74472800
_cell_length_b   4.74472800
_cell_length_c   9.41868500
_cell_angle_alpha   90.00000000
_cell_angle_beta   90.00000000
_cell_angle_gamma   90.00000000
_symmetry_Int_Tables_number   1
_chemical_formula_structural   Cu4Ni2C3
_chemical_formula_sum   'Cu8 Ni4 C6'
_cell_volume   212.03761668
_cell_formula_units_Z   2
loop_
 _symmetry_equiv_pos_site_id
 _symmetry_equiv_pos_as_xyz
  1  'x, y, z'
loop_
 _atom_site_type_symbol
 _atom_site_label
 _atom_site_symmetry_multiplicity
 _atom_site_fract_x
 _atom_site_fract_y
 _atom_site_fract_z
 _atom_site_occupancy
  C  C0  1  0.00000000  0.00000000  0.85678100  1
  C  C1  1  0.00000000  0.00000000  0.14321900  1
  C  C2  1  0.00000000  0.00000000  0.50000000  1
  C  C3  1  0.50000000  0.50000000  0.00000000  1
  C  C4  1  0.50000000  0.50000000  0.64321900  1
  C  C5  1  0.50000000  0.50000000  0.35678100  1
  Ni  Ni6  1  0.21365200  0.78634800  0.00000000  1
  Ni  Ni7  1  0.28634800  0.28634800  0.50000000  1
  Ni  Ni8  1  0.71365200  0.71365200  0.50000000  1
  Ni  Ni9  1  0.78634800  0.21365200  0.00000000  1
  Cu  Cu10  1  0.19358700  0.80641300  0.32758900  1
  Cu  Cu11  1  0.19358700  0.80641300  0.67241100  1
  Cu  Cu12  1  0.30641300  0.30641300  0.82758900  1
  Cu  Cu13  1  0.30641300  0.30641300  0.17241100  1
  Cu  Cu14  1  0.69358700  0.69358700  0.82758900  1
  Cu  Cu15  1  0.69358700  0.69358700  0.17241100  1
  Cu  Cu16  1  0.80641300  0.19358700  0.67241100  1
  Cu  Cu17  1  0.80641300  0.19358700  0.32758900  1
