# generated using pymatgen
data_Cu8Ni2C15
_symmetry_space_group_name_H-M   'P 1'
_cell_length_a   4.72290700
_cell_length_b   9.39350800
_cell_length_c   10.68397758
_cell_angle_alpha   79.67592295
_cell_angle_beta   90.00000000
_cell_angle_gamma   90.00000000
_symmetry_Int_Tables_number   1
_chemical_formula_structural   Cu8Ni2C15
_chemical_formula_sum   'Cu16 Ni4 C30'
_cell_volume   466.31707926
_cell_formula_units_Z   2
loop_
 _symmetry_equiv_pos_site_id
 _symmetry_equiv_pos_as_xyz
  1  'x, y, z'
loop_
 _atom_site_type_symbol
 _atom_site_label
 _atom_site_symmetry_multiplicity
 _atom_site_fract_x
 _atom_site_fract_y
 _atom_site_fract_z
 _atom_site_occupancy
  C  C0  1  0.50000000  0.00000000  0.50000000  1
  C  C1  1  0.00000000  0.00000000  0.00000000  1
  C  C2  1  0.43028100  0.67066500  0.67212600  1
  C  C3  1  0.93028100  0.32933500  0.82787400  1
  C  C4  1  0.56971900  0.32933500  0.32787400  1
  C  C5  1  0.06971900  0.67066500  0.17212600  1
  Ni  Ni6  1  0.53143700  0.76254900  0.95197100  1
  Ni  Ni7  1  0.03143700  0.23745100  0.54802900  1
  Ni  Ni8  1  0.46856300  0.23745100  0.04802900  1
  Ni  Ni9  1  0.96856300  0.76254900  0.45197100  1
  Cu  Cu10  1  0.06999200  0.93851700  0.64642200  1
  Cu  Cu11  1  0.56999200  0.06148300  0.85357800  1
  Cu  Cu12  1  0.93000800  0.06148300  0.35357800  1
  Cu  Cu13  1  0.43000800  0.93851700  0.14642200  1
  Cu  Cu14  1  0.28951400  0.90920400  0.76370700  1
  Cu  Cu15  1  0.78951400  0.09079600  0.73629300  1
  Cu  Cu16  1  0.71048600  0.09079600  0.23629300  1
  Cu  Cu17  1  0.21048600  0.90920400  0.26370700  1
  Cu  Cu18  1  0.93773600  0.60905600  0.83044900  1
  Cu  Cu19  1  0.43773600  0.39094400  0.66955100  1
  Cu  Cu20  1  0.06226400  0.39094400  0.16955100  1
  Cu  Cu21  1  0.56226400  0.60905600  0.33044900  1
  Cu  Cu22  1  0.21528900  0.55509700  0.90701700  1
  Cu  Cu23  1  0.71528900  0.44490300  0.59298300  1
  Cu  Cu24  1  0.78471100  0.44490300  0.09298300  1
  Cu  Cu25  1  0.28471100  0.55509700  0.40701700  1
  C  C26  1  0.71895600  0.80148500  0.53475000  1
  C  C27  1  0.21895600  0.19851500  0.96525000  1
  C  C28  1  0.28104400  0.19851500  0.46525000  1
  C  C29  1  0.78104400  0.80148500  0.03475000  1
  C  C30  1  0.34768800  0.90231700  0.90658300  1
  C  C31  1  0.84768800  0.09768300  0.59341700  1
  C  C32  1  0.65231200  0.09768300  0.09341700  1
  C  C33  1  0.15231200  0.90231700  0.40658300  1
  C  C34  1  0.64693600  0.70953800  0.83175200  1
  C  C35  1  0.14693600  0.29046200  0.66824800  1
  C  C36  1  0.35306400  0.29046200  0.16824800  1
  C  C37  1  0.85306400  0.70953800  0.33175200  1
  C  C38  1  0.15154200  0.64203500  0.53141400  1
  C  C39  1  0.65154200  0.35796500  0.96858600  1
  C  C40  1  0.84845800  0.35796500  0.46858600  1
  C  C41  1  0.34845800  0.64203500  0.03141400  1
  C  C42  1  0.25995100  0.89777400  0.67106900  1
  C  C43  1  0.75995100  0.10222600  0.82893100  1
  C  C44  1  0.74004900  0.10222600  0.32893100  1
  C  C45  1  0.24004900  0.89777400  0.17106900  1
  C  C46  1  0.11000000  0.54548500  0.82771200  1
  C  C47  1  0.61000000  0.45451500  0.67228800  1
  C  C48  1  0.89000000  0.45451500  0.17228800  1
  C  C49  1  0.39000000  0.54548500  0.32771200  1
