# generated using pymatgen
data_Cu4NiC12
_symmetry_space_group_name_H-M   'P 1'
_cell_length_a   7.14796400
_cell_length_b   9.54321200
_cell_length_c   14.33584200
_cell_angle_alpha   90.00000000
_cell_angle_beta   90.00000000
_cell_angle_gamma   90.00000000
_symmetry_Int_Tables_number   1
_chemical_formula_structural   Cu4NiC12
_chemical_formula_sum   'Cu16 Ni4 C48'
_cell_volume   977.91280762
_cell_formula_units_Z   4
loop_
 _symmetry_equiv_pos_site_id
 _symmetry_equiv_pos_as_xyz
  1  'x, y, z'
loop_
 _atom_site_type_symbol
 _atom_site_label
 _atom_site_symmetry_multiplicity
 _atom_site_fract_x
 _atom_site_fract_y
 _atom_site_fract_z
 _atom_site_occupancy
  C  C0  1  0.68015500  0.08682100  0.82701100  1
  C  C1  1  0.07185300  0.16011100  0.53148200  1
  C  C2  1  0.57185300  0.33988900  0.46851800  1
  C  C3  1  0.18015500  0.41317900  0.17298900  1
  C  C4  1  0.31984500  0.58682100  0.67298900  1
  C  C5  1  0.92814700  0.66011100  0.96851800  1
  C  C6  1  0.42814700  0.83988900  0.03148200  1
  C  C7  1  0.81984500  0.91317900  0.32701100  1
  Ni  Ni8  1  0.00936200  0.19789100  0.34079100  1
  Ni  Ni9  1  0.50936200  0.30210900  0.65920900  1
  Ni  Ni10  1  0.99063800  0.69789100  0.15920900  1
  Ni  Ni11  1  0.49063800  0.80210900  0.84079100  1
  Cu  Cu12  1  0.46267000  0.02677700  0.56727600  1
  Cu  Cu13  1  0.23997200  0.06119700  0.89773800  1
  Cu  Cu14  1  0.31848300  0.09763200  0.21616200  1
  Cu  Cu15  1  0.73768000  0.13391500  0.17524900  1
  Cu  Cu16  1  0.23768000  0.36608500  0.82475100  1
  Cu  Cu17  1  0.81848300  0.40236800  0.78383800  1
  Cu  Cu18  1  0.73997200  0.43880300  0.10226200  1
  Cu  Cu19  1  0.96267000  0.47322300  0.43272400  1
  Cu  Cu20  1  0.53733000  0.52677700  0.93272400  1
  Cu  Cu21  1  0.76002800  0.56119700  0.60226200  1
  Cu  Cu22  1  0.68151700  0.59763200  0.28383800  1
  Cu  Cu23  1  0.26232000  0.63391500  0.32475100  1
  Cu  Cu24  1  0.76232000  0.86608500  0.67524900  1
  Cu  Cu25  1  0.18151700  0.90236800  0.71616200  1
  Cu  Cu26  1  0.26002800  0.93880300  0.39773800  1
  Cu  Cu27  1  0.03733000  0.97322300  0.06727600  1
  C  C28  1  0.12260800  0.98752600  0.81160300  1
  C  C29  1  0.19849400  0.98639200  0.15021500  1
  C  C30  1  0.08349100  0.03364300  0.42887400  1
  C  C31  1  0.82898900  0.01281400  0.10708400  1
  C  C32  1  0.08926900  0.08390000  0.98334000  1
  C  C33  1  0.51137000  0.12986000  0.15871700  1
  C  C34  1  0.79564100  0.10171800  0.28228900  1
  C  C35  1  0.46082400  0.19032900  0.53717800  1
  C  C36  1  0.31648100  0.21314000  0.86006900  1
  C  C37  1  0.20051500  0.23852400  0.23949400  1
  C  C38  1  0.70051500  0.26147600  0.76050600  1
  C  C39  1  0.81648100  0.28686000  0.13993100  1
  C  C40  1  0.96082400  0.30967100  0.46282200  1
  C  C41  1  0.29564100  0.39828200  0.71771100  1
  C  C42  1  0.01137000  0.37014000  0.84128300  1
  C  C43  1  0.58926900  0.41610000  0.01666000  1
  C  C44  1  0.32898900  0.48718600  0.89291600  1
  C  C45  1  0.58349100  0.46635700  0.57112600  1
  C  C46  1  0.69849400  0.51360800  0.84978500  1
  C  C47  1  0.62260800  0.51247400  0.18839700  1
  C  C48  1  0.87739200  0.48752600  0.68839700  1
  C  C49  1  0.80150600  0.48639200  0.34978500  1
  C  C50  1  0.91650900  0.53364300  0.07112600  1
  C  C51  1  0.17101100  0.51281400  0.39291600  1
  C  C52  1  0.91073100  0.58390000  0.51666000  1
  C  C53  1  0.48863000  0.62986000  0.34128300  1
  C  C54  1  0.20435900  0.60171800  0.21771100  1
  C  C55  1  0.53917600  0.69032900  0.96282200  1
  C  C56  1  0.68351900  0.71314000  0.63993100  1
  C  C57  1  0.79948500  0.73852400  0.26050600  1
  C  C58  1  0.29948500  0.76147600  0.73949400  1
  C  C59  1  0.18351900  0.78686000  0.36006900  1
  C  C60  1  0.03917600  0.80967100  0.03717800  1
  C  C61  1  0.70435900  0.89828200  0.78228900  1
  C  C62  1  0.98863000  0.87014000  0.65871700  1
  C  C63  1  0.41073100  0.91610000  0.48334000  1
  C  C64  1  0.67101100  0.98718600  0.60708400  1
  C  C65  1  0.41650900  0.96635700  0.92887400  1
  C  C66  1  0.30150600  0.01360800  0.65021500  1
  C  C67  1  0.37739200  0.01247400  0.31160300  1
