# generated using pymatgen
data_Cu2Ni5C8
_symmetry_space_group_name_H-M   'P 1'
_cell_length_a   5.83026100
_cell_length_b   5.84022666
_cell_length_c   9.85552360
_cell_angle_alpha   92.72432593
_cell_angle_beta   97.58863374
_cell_angle_gamma   117.96514629
_symmetry_Int_Tables_number   1
_chemical_formula_structural   Cu2Ni5C8
_chemical_formula_sum   'Cu4 Ni10 C16'
_cell_volume   291.49510619
_cell_formula_units_Z   2
loop_
 _symmetry_equiv_pos_site_id
 _symmetry_equiv_pos_as_xyz
  1  'x, y, z'
loop_
 _atom_site_type_symbol
 _atom_site_label
 _atom_site_symmetry_multiplicity
 _atom_site_fract_x
 _atom_site_fract_y
 _atom_site_fract_z
 _atom_site_occupancy
  C  C0  1  0.13032900  0.47145300  0.60995000  1
  C  C1  1  0.12130700  0.90121800  0.59932100  1
  C  C2  1  0.14545900  0.67927500  0.10662900  1
  C  C3  1  0.14876800  0.22667200  0.10263600  1
  C  C4  1  0.40835100  0.33620500  0.88046500  1
  C  C5  1  0.40910200  0.06708100  0.39263100  1
  C  C6  1  0.57725900  0.91232300  0.61192300  1
  C  C7  1  0.58673700  0.67047300  0.10689100  1
  C  C8  1  0.88940400  0.82443700  0.89960700  1
  C  C9  1  0.86992500  0.31935300  0.89190600  1
  C  C10  1  0.84340000  0.05922300  0.40424900  1
  C  C11  1  0.85324500  0.51623200  0.39113100  1
  C  C12  1  0.40066600  0.82433800  0.87423400  1
  C  C13  1  0.35216700  0.53762000  0.36821100  1
  C  C14  1  0.61551600  0.42484100  0.63494900  1
  C  C15  1  0.64575800  0.20043200  0.13210000  1
  Ni  Ni16  1  0.25275400  0.51890800  0.97101700  1
  Ni  Ni17  1  0.23630800  0.72925300  0.47482300  1
  Ni  Ni18  1  0.51098500  0.13992400  0.75541100  1
  Ni  Ni19  1  0.49630000  0.62898800  0.74548500  1
  Ni  Ni20  1  0.30127400  0.01761700  0.00668800  1
  Ni  Ni21  1  0.76965500  0.02607800  0.01102100  1
  Ni  Ni22  1  0.49245400  0.36155000  0.24762500  1
  Ni  Ni23  1  0.68961800  0.68893200  0.49852200  1
  Ni  Ni24  1  0.74741300  0.25030500  0.52727600  1
  Ni  Ni25  1  0.99984500  0.36910000  0.24676500  1
  Cu  Cu26  1  0.19720100  0.19404200  0.49883300  1
  Cu  Cu27  1  0.51788100  0.87065100  0.25219300  1
  Cu  Cu28  1  0.00944200  0.68927500  0.74794500  1
  Cu  Cu29  1  0.78147900  0.54420300  0.00956000  1
