# generated using pymatgen
data_Cu16Ni4C3
_symmetry_space_group_name_H-M   'P 1'
_cell_length_a   7.11568600
_cell_length_b   11.57717200
_cell_length_c   22.51136357
_cell_angle_alpha   82.36418529
_cell_angle_beta   90.00000000
_cell_angle_gamma   90.00000000
_symmetry_Int_Tables_number   1
_chemical_formula_structural   Cu16Ni4C3
_chemical_formula_sum   'Cu64 Ni16 C12'
_cell_volume   1838.03110667
_cell_formula_units_Z   4
loop_
 _symmetry_equiv_pos_site_id
 _symmetry_equiv_pos_as_xyz
  1  'x, y, z'
loop_
 _atom_site_type_symbol
 _atom_site_label
 _atom_site_symmetry_multiplicity
 _atom_site_fract_x
 _atom_site_fract_y
 _atom_site_fract_z
 _atom_site_occupancy
  C  C0  1  0.69101600  0.04989400  0.90516300  1
  C  C1  1  0.80898400  0.54989400  0.40516300  1
  C  C2  1  0.30898400  0.95010600  0.09483700  1
  C  C3  1  0.19101600  0.45010600  0.59483700  1
  C  C4  1  0.58942300  0.48022700  0.56201400  1
  C  C5  1  0.91057700  0.98022700  0.06201400  1
  C  C6  1  0.41057700  0.51977300  0.43798600  1
  C  C7  1  0.08942300  0.01977300  0.93798600  1
  Ni  Ni8  1  0.54859500  0.38920500  0.21214400  1
  Ni  Ni9  1  0.95140500  0.88920500  0.71214400  1
  Ni  Ni10  1  0.45140500  0.61079500  0.78785600  1
  Ni  Ni11  1  0.04859500  0.11079500  0.28785600  1
  Ni  Ni12  1  0.58856500  0.46486000  0.15993000  1
  Ni  Ni13  1  0.91143500  0.96486000  0.65993000  1
  Ni  Ni14  1  0.41143500  0.53514000  0.84007000  1
  Ni  Ni15  1  0.08856500  0.03514000  0.34007000  1
  Ni  Ni16  1  0.48261100  0.50211900  0.20508200  1
  Ni  Ni17  1  0.01738900  0.00211900  0.70508200  1
  Ni  Ni18  1  0.51738900  0.49788100  0.79491800  1
  Ni  Ni19  1  0.98261100  0.99788100  0.29491800  1
  Ni  Ni20  1  0.79188800  0.48940600  0.06841900  1
  Ni  Ni21  1  0.70811200  0.98940600  0.56841900  1
  Ni  Ni22  1  0.20811200  0.51059400  0.93158100  1
  Ni  Ni23  1  0.29188800  0.01059400  0.43158100  1
  Cu  Cu24  1  0.67858600  0.48034500  0.10816500  1
  Cu  Cu25  1  0.82141400  0.98034500  0.60816500  1
  Cu  Cu26  1  0.32141400  0.51965500  0.89183500  1
  Cu  Cu27  1  0.17858600  0.01965500  0.39183500  1
  Cu  Cu28  1  0.52319800  0.90208700  0.75204900  1
  Cu  Cu29  1  0.97680200  0.40208700  0.25204900  1
  Cu  Cu30  1  0.47680200  0.09791300  0.24795100  1
  Cu  Cu31  1  0.02319800  0.59791300  0.74795100  1
  Cu  Cu32  1  0.58977700  0.08038500  0.10928000  1
  Cu  Cu33  1  0.91022300  0.58038500  0.60928000  1
  Cu  Cu34  1  0.41022300  0.91961500  0.89072000  1
  Cu  Cu35  1  0.08977700  0.41961500  0.39072000  1
  Cu  Cu36  1  0.62333900  0.42693700  0.40194100  1
  Cu  Cu37  1  0.87666100  0.92693700  0.90194100  1
  Cu  Cu38  1  0.37666100  0.57306300  0.59805900  1
  Cu  Cu39  1  0.12333900  0.07306300  0.09805900  1
  Cu  Cu40  1  0.67020100  0.58646500  0.48602500  1
  Cu  Cu41  1  0.82979900  0.08646500  0.98602500  1
  Cu  Cu42  1  0.32979900  0.41353500  0.51397500  1
  Cu  Cu43  1  0.17020100  0.91353500  0.01397500  1
  Cu  Cu44  1  0.60225400  0.19157000  0.86402200  1
  Cu  Cu45  1  0.89774600  0.69157000  0.36402200  1
  Cu  Cu46  1  0.39774600  0.80843000  0.13597800  1
  Cu  Cu47  1  0.10225400  0.30843000  0.63597800  1
  Cu  Cu48  1  0.62065600  0.80083000  0.00436300  1
  Cu  Cu49  1  0.87934400  0.30083000  0.50436300  1
  Cu  Cu50  1  0.37934400  0.19917000  0.99563700  1
  Cu  Cu51  1  0.12065600  0.69917000  0.49563700  1
  Cu  Cu52  1  0.61536700  0.70760900  0.99718800  1
  Cu  Cu53  1  0.88463300  0.20760900  0.49718800  1
  Cu  Cu54  1  0.38463300  0.29239100  0.00281200  1
  Cu  Cu55  1  0.11536700  0.79239100  0.50281200  1
  Cu  Cu56  1  0.68051900  0.14934500  0.12421500  1
  Cu  Cu57  1  0.81948100  0.64934500  0.62421500  1
  Cu  Cu58  1  0.31948100  0.85065500  0.87578500  1
  Cu  Cu59  1  0.18051900  0.35065500  0.37578500  1
  Cu  Cu60  1  0.49866700  0.00304200  0.26268300  1
  Cu  Cu61  1  0.00133300  0.50304200  0.76268300  1
  Cu  Cu62  1  0.50133300  0.99695800  0.73731700  1
  Cu  Cu63  1  0.99866700  0.49695800  0.23731700  1
  Cu  Cu64  1  0.61991500  0.34351400  0.37331100  1
  Cu  Cu65  1  0.88008500  0.84351400  0.87331100  1
  Cu  Cu66  1  0.38008500  0.65648600  0.62668900  1
  Cu  Cu67  1  0.11991500  0.15648600  0.12668900  1
  Cu  Cu68  1  0.61445600  0.26336400  0.34823000  1
  Cu  Cu69  1  0.88554400  0.76336400  0.84823000  1
  Cu  Cu70  1  0.38554400  0.73663600  0.65177000  1
  Cu  Cu71  1  0.11445600  0.23663600  0.15177000  1
  Cu  Cu72  1  0.65242700  0.69360800  0.48636800  1
  Cu  Cu73  1  0.84757300  0.19360800  0.98636800  1
  Cu  Cu74  1  0.34757300  0.30639200  0.51363200  1
  Cu  Cu75  1  0.15242700  0.80639200  0.01363200  1
  Cu  Cu76  1  0.63602400  0.79238000  0.48482500  1
  Cu  Cu77  1  0.86397600  0.29238000  0.98482500  1
  Cu  Cu78  1  0.36397600  0.20762000  0.51517500  1
  Cu  Cu79  1  0.13602400  0.70762000  0.01517500  1
  Cu  Cu80  1  0.69315400  0.22221000  0.81803000  1
  Cu  Cu81  1  0.80684600  0.72221000  0.31803000  1
  Cu  Cu82  1  0.30684600  0.77779000  0.18197000  1
  Cu  Cu83  1  0.19315400  0.27779000  0.68197000  1
  Cu  Cu84  1  0.77369800  0.25711100  0.77475700  1
  Cu  Cu85  1  0.72630200  0.75711100  0.27475700  1
  Cu  Cu86  1  0.22630200  0.74288900  0.22524300  1
  Cu  Cu87  1  0.27369800  0.24288900  0.72524300  1
  C  C88  1  0.68287400  0.35843100  0.61364100  1
  C  C89  1  0.81712600  0.85843100  0.11364100  1
  C  C90  1  0.31712600  0.64156900  0.38635900  1
  C  C91  1  0.18287400  0.14156900  0.88635900  1
