# generated using pymatgen
data_Cu7NiC4
_symmetry_space_group_name_H-M   'P 1'
_cell_length_a   7.06486500
_cell_length_b   5.30407600
_cell_length_c   9.03296844
_cell_angle_alpha   87.96811990
_cell_angle_beta   90.00000000
_cell_angle_gamma   90.00000000
_symmetry_Int_Tables_number   1
_chemical_formula_structural   Cu7NiC4
_chemical_formula_sum   'Cu14 Ni2 C8'
_cell_volume   338.27581727
_cell_formula_units_Z   2
loop_
 _symmetry_equiv_pos_site_id
 _symmetry_equiv_pos_as_xyz
  1  'x, y, z'
loop_
 _atom_site_type_symbol
 _atom_site_label
 _atom_site_symmetry_multiplicity
 _atom_site_fract_x
 _atom_site_fract_y
 _atom_site_fract_z
 _atom_site_occupancy
  C  C0  1  0.49552800  0.76240400  0.79293700  1
  C  C1  1  0.00447200  0.76240400  0.79293700  1
  C  C2  1  0.50447200  0.23759600  0.20706300  1
  C  C3  1  0.99552800  0.23759600  0.20706300  1
  C  C4  1  0.25000000  0.22526000  0.65604700  1
  C  C5  1  0.75000000  0.77474000  0.34395300  1
  C  C6  1  0.25000000  0.27382800  0.92251800  1
  C  C7  1  0.75000000  0.72617200  0.07748200  1
  Ni  Ni8  1  0.75000000  0.27219200  0.57346700  1
  Ni  Ni9  1  0.25000000  0.72780800  0.42653300  1
  Cu  Cu10  1  0.75000000  0.70073700  0.93343700  1
  Cu  Cu11  1  0.25000000  0.04429700  0.84701700  1
  Cu  Cu12  1  0.25000000  0.46996900  0.81082700  1
  Cu  Cu13  1  0.92182600  0.20649600  0.65953100  1
  Cu  Cu14  1  0.57817400  0.20649600  0.65953100  1
  Cu  Cu15  1  0.25000000  0.86210300  0.57040600  1
  Cu  Cu16  1  0.75000000  0.55294400  0.53635200  1
  Cu  Cu17  1  0.25000000  0.44705600  0.46364800  1
  Cu  Cu18  1  0.75000000  0.13789700  0.42959400  1
  Cu  Cu19  1  0.42182600  0.79350400  0.34046900  1
  Cu  Cu20  1  0.07817400  0.79350400  0.34046900  1
  Cu  Cu21  1  0.75000000  0.53003100  0.18917300  1
  Cu  Cu22  1  0.75000000  0.95570300  0.15298300  1
  Cu  Cu23  1  0.25000000  0.29926300  0.06656300  1
