# generated using pymatgen
data_Cu3NiC36
_symmetry_space_group_name_H-M   'P 1'
_cell_length_a   6.37594500
_cell_length_b   8.59515685
_cell_length_c   8.66848990
_cell_angle_alpha   94.34737809
_cell_angle_beta   106.01070878
_cell_angle_gamma   105.95747886
_symmetry_Int_Tables_number   1
_chemical_formula_structural   Cu3NiC36
_chemical_formula_sum   'Cu3 Ni1 C36'
_cell_volume   433.08021436
_cell_formula_units_Z   1
loop_
 _symmetry_equiv_pos_site_id
 _symmetry_equiv_pos_as_xyz
  1  'x, y, z'
loop_
 _atom_site_type_symbol
 _atom_site_label
 _atom_site_symmetry_multiplicity
 _atom_site_fract_x
 _atom_site_fract_y
 _atom_site_fract_z
 _atom_site_occupancy
  C  C0  1  0.25156900  0.99504700  0.00433700  1
  C  C1  1  0.75145300  0.71528000  0.29017500  1
  C  C2  1  0.50085000  0.49937300  0.50043400  1
  C  C3  1  0.99823700  0.49747900  0.49983400  1
  C  C4  1  0.24733600  0.28774100  0.70989200  1
  C  C5  1  0.74755800  0.00823400  0.99723100  1
  Ni  Ni6  1  0.63407300  0.05979000  0.37381200  1
  Cu  Cu7  1  0.35880500  0.94187300  0.62142300  1
  Cu  Cu8  1  0.86282200  0.62122000  0.94326200  1
  Cu  Cu9  1  0.13917900  0.38102500  0.05654900  1
  C  C10  1  0.25061600  0.71419000  0.28735500  1
  C  C11  1  0.86329300  0.85959100  0.66399000  1
  C  C12  1  0.36469200  0.66123300  0.86170700  1
  C  C13  1  0.63409400  0.33946000  0.13240700  1
  C  C14  1  0.13598900  0.13836200  0.33965300  1
  C  C15  1  0.74884200  0.28500300  0.71409100  1
  C  C16  1  0.08837200  0.98623400  0.65825700  1
  C  C17  1  0.67209800  0.94515300  0.61516100  1
  C  C18  1  0.03452200  0.74251700  0.17209100  1
  C  C19  1  0.47294400  0.82779400  0.26259500  1
  C  C20  1  0.39340100  0.84494500  0.84159800  1
  C  C21  1  0.23129100  0.73556100  0.46180500  1
  C  C22  1  0.90618500  0.83891800  0.84838400  1
  C  C23  1  0.79455700  0.70204200  0.54488600  1
  C  C24  1  0.17752500  0.60249300  0.95124900  1
  C  C25  1  0.59431900  0.66121100  0.98601300  1
  C  C26  1  0.26677900  0.53695300  0.26225600  1
  C  C27  1  0.29457900  0.54304400  0.70430200  1
  C  C28  1  0.70322600  0.45210100  0.29351700  1
  C  C29  1  0.73231100  0.46223000  0.73776400  1
  C  C30  1  0.40652700  0.34648100  0.01059100  1
  C  C31  1  0.82507100  0.40254700  0.04749900  1
  C  C32  1  0.20401000  0.29699900  0.45745500  1
  C  C33  1  0.11247300  0.16053700  0.15824600  1
  C  C34  1  0.77110400  0.26248100  0.53922800  1
  C  C35  1  0.60237800  0.15379500  0.14201900  1
  C  C36  1  0.53076400  0.17212800  0.74095700  1
  C  C37  1  0.96545100  0.25770600  0.83050100  1
  C  C38  1  0.32552800  0.04877700  0.40116200  1
  C  C39  1  0.90517600  0.01245300  0.33631200  1
