# generated using pymatgen
data_CuNiC17
_symmetry_space_group_name_H-M   'P 1'
_cell_length_a   7.29695382
_cell_length_b   8.01896545
_cell_length_c   7.61029526
_cell_angle_alpha   88.54670124
_cell_angle_beta   116.89663924
_cell_angle_gamma   89.08571653
_symmetry_Int_Tables_number   1
_chemical_formula_structural   CuNiC17
_chemical_formula_sum   'Cu2 Ni2 C34'
_cell_volume   396.82156102
_cell_formula_units_Z   2
loop_
 _symmetry_equiv_pos_site_id
 _symmetry_equiv_pos_as_xyz
  1  'x, y, z'
loop_
 _atom_site_type_symbol
 _atom_site_label
 _atom_site_symmetry_multiplicity
 _atom_site_fract_x
 _atom_site_fract_y
 _atom_site_fract_z
 _atom_site_occupancy
  C  C0  1  0.30057400  0.83270900  0.84908700  1
  C  C1  1  0.80067400  0.33264300  0.84907500  1
  C  C2  1  0.60948400  0.82064800  0.79785200  1
  C  C3  1  0.10940000  0.32069300  0.79776900  1
  C  C4  1  0.41777600  0.17777300  0.16934200  1
  C  C5  1  0.91785700  0.67767900  0.16942100  1
  Ni  Ni6  1  0.50469800  0.49777700  0.01056100  1
  Ni  Ni7  1  0.00476700  0.99785400  0.01071400  1
  Cu  Cu8  1  0.49430900  0.50376900  0.49423600  1
  Cu  Cu9  1  0.99432900  0.00372500  0.49436100  1
  C  C10  1  0.52879200  0.84857700  0.23454800  1
  C  C11  1  0.02868100  0.34859700  0.23450900  1
  C  C12  1  0.47495400  0.14976200  0.77394000  1
  C  C13  1  0.97504800  0.64973900  0.77400900  1
  C  C14  1  0.20054100  0.85472200  0.35693000  1
  C  C15  1  0.70054600  0.35494400  0.35672700  1
  C  C16  1  0.79187100  0.12559000  0.63917400  1
  C  C17  1  0.29184500  0.62540600  0.63913700  1
  C  C18  1  0.44235700  0.61543400  0.70843600  1
  C  C19  1  0.94236200  0.11537300  0.70857100  1
  C  C20  1  0.48919500  0.73530500  0.38050100  1
  C  C21  1  0.98931900  0.23527400  0.38057400  1
  C  C22  1  0.32135100  0.00951600  0.66748000  1
  C  C23  1  0.82151200  0.50943400  0.66751800  1
  C  C24  1  0.32229700  0.93833600  0.08534000  1
  C  C25  1  0.82214100  0.43826700  0.08523700  1
  C  C26  1  0.60489500  0.74597000  0.10655400  1
  C  C27  1  0.10488900  0.24598600  0.10657800  1
  C  C28  1  0.39303500  0.25300900  0.89501400  1
  C  C29  1  0.89311700  0.75301100  0.89500700  1
  C  C30  1  0.68124000  0.05778500  0.90591000  1
  C  C31  1  0.18134200  0.55786600  0.90594100  1
  C  C32  1  0.67561600  0.99008800  0.34090300  1
  C  C33  1  0.17541700  0.49022300  0.34075700  1
  C  C34  1  0.51951600  0.27183600  0.63566300  1
  C  C35  1  0.01947200  0.77180800  0.63561600  1
  C  C36  1  0.55390400  0.38774100  0.29533500  1
  C  C37  1  0.05398200  0.88782400  0.29538700  1
