# generated using pymatgen
data_Cu17Ni17C7
_symmetry_space_group_name_H-M   'P 1'
_cell_length_a   12.03954400
_cell_length_b   13.47907300
_cell_length_c   16.66762600
_cell_angle_alpha   90.00000000
_cell_angle_beta   90.00000000
_cell_angle_gamma   90.00000000
_symmetry_Int_Tables_number   1
_chemical_formula_structural   Cu17Ni17C7
_chemical_formula_sum   'Cu68 Ni68 C28'
_cell_volume   2704.85389014
_cell_formula_units_Z   4
loop_
 _symmetry_equiv_pos_site_id
 _symmetry_equiv_pos_as_xyz
  1  'x, y, z'
loop_
 _atom_site_type_symbol
 _atom_site_label
 _atom_site_symmetry_multiplicity
 _atom_site_fract_x
 _atom_site_fract_y
 _atom_site_fract_z
 _atom_site_occupancy
  C  C0  1  0.04661400  0.49409000  0.49870900  1
  C  C1  1  0.45338600  0.50591000  0.99870900  1
  C  C2  1  0.54661400  0.00591000  0.50129100  1
  C  C3  1  0.95338600  0.99409000  0.00129100  1
  C  C4  1  0.06917200  0.54119800  0.37942700  1
  C  C5  1  0.43082800  0.45880200  0.87942700  1
  C  C6  1  0.56917200  0.95880200  0.62057300  1
  C  C7  1  0.93082800  0.04119800  0.12057300  1
  C  C8  1  0.22281900  0.49767100  0.51754300  1
  C  C9  1  0.27718100  0.50232900  0.01754300  1
  C  C10  1  0.72281900  0.00232900  0.48245700  1
  C  C11  1  0.77718100  0.99767100  0.98245700  1
  C  C12  1  0.01705200  0.43567200  0.61390900  1
  C  C13  1  0.48294800  0.56432800  0.11390900  1
  C  C14  1  0.51705200  0.06432800  0.38609100  1
  C  C15  1  0.98294800  0.93567200  0.88609100  1
  C  C16  1  0.87283300  0.52538400  0.49071600  1
  C  C17  1  0.62716700  0.47461600  0.99071600  1
  C  C18  1  0.37283300  0.97461600  0.50928400  1
  C  C19  1  0.12716700  0.02538400  0.00928400  1
  C  C20  1  0.05583300  0.64335400  0.54542400  1
  C  C21  1  0.44416700  0.35664600  0.04542400  1
  C  C22  1  0.55583300  0.85664600  0.45457600  1
  C  C23  1  0.94416700  0.14335400  0.95457600  1
  C  C24  1  0.04266200  0.34525100  0.45432600  1
  C  C25  1  0.45733800  0.65474900  0.95432600  1
  C  C26  1  0.54266200  0.15474900  0.54567400  1
  C  C27  1  0.95733800  0.84525100  0.04567400  1
  Ni  Ni28  1  0.18297400  0.48870800  0.31282800  1
  Ni  Ni29  1  0.31702600  0.51129200  0.81282800  1
  Ni  Ni30  1  0.68297400  0.01129200  0.68717200  1
  Ni  Ni31  1  0.81702600  0.98870800  0.18717200  1
  Ni  Ni32  1  0.95698800  0.51023400  0.30225000  1
  Ni  Ni33  1  0.54301200  0.48976600  0.80225000  1
  Ni  Ni34  1  0.45698800  0.98976600  0.69775000  1
  Ni  Ni35  1  0.04301200  0.01023400  0.19775000  1
  Ni  Ni36  1  0.09058800  0.67493600  0.34072800  1
  Ni  Ni37  1  0.40941200  0.32506400  0.84072800  1
  Ni  Ni38  1  0.59058800  0.82506400  0.65927200  1
  Ni  Ni39  1  0.90941200  0.17493600  0.15927200  1
  Ni  Ni40  1  0.33667200  0.52246100  0.44186000  1
  Ni  Ni41  1  0.16332800  0.47753900  0.94186000  1
  Ni  Ni42  1  0.83667200  0.97753900  0.55814000  1
  Ni  Ni43  1  0.66332800  0.02246100  0.05814000  1
  Ni  Ni44  1  0.32484100  0.43896000  0.59053100  1
  Ni  Ni45  1  0.17515900  0.56104000  0.09053100  1
  Ni  Ni46  1  0.82484100  0.06104000  0.40946900  1
  Ni  Ni47  1  0.67515900  0.93896000  0.90946900  1
  Ni  Ni48  1  0.23765500  0.62985100  0.56684100  1
  Ni  Ni49  1  0.26234500  0.37014900  0.06684100  1
  Ni  Ni50  1  0.73765500  0.87014900  0.43315900  1
  Ni  Ni51  1  0.76234500  0.12985100  0.93315900  1
  Ni  Ni52  1  0.12318700  0.36561900  0.67745400  1
  Ni  Ni53  1  0.37681300  0.63438100  0.17745400  1
  Ni  Ni54  1  0.62318700  0.13438100  0.32254600  1
  Ni  Ni55  1  0.87681300  0.86561900  0.82254600  1
  Ni  Ni56  1  0.96713700  0.51252200  0.70385700  1
  Ni  Ni57  1  0.53286300  0.48747800  0.20385700  1
  Ni  Ni58  1  0.46713700  0.98747800  0.29614300  1
  Ni  Ni59  1  0.03286300  0.01252200  0.79614300  1
  Ni  Ni60  1  0.90630000  0.33666800  0.62734000  1
  Ni  Ni61  1  0.59370000  0.66333200  0.12734000  1
  Ni  Ni62  1  0.40630000  0.16333200  0.37266000  1
  Ni  Ni63  1  0.09370000  0.83666800  0.87266000  1
  Ni  Ni64  1  0.75043800  0.47969700  0.55261400  1
  Ni  Ni65  1  0.74956200  0.52030300  0.05261400  1
  Ni  Ni66  1  0.25043800  0.02030300  0.44738600  1
  Ni  Ni67  1  0.24956200  0.97969700  0.94738600  1
  Ni  Ni68  1  0.87391700  0.65770600  0.54440600  1
  Ni  Ni69  1  0.62608300  0.34229400  0.04440600  1
  Ni  Ni70  1  0.37391700  0.84229400  0.45559400  1
  Ni  Ni71  1  0.12608300  0.15770600  0.95559400  1
  Ni  Ni72  1  0.77450000  0.56838800  0.40760300  1
  Ni  Ni73  1  0.72550000  0.43161200  0.90760300  1
  Ni  Ni74  1  0.27450000  0.93161200  0.59239700  1
  Ni  Ni75  1  0.22550000  0.06838800  0.09239700  1
  Ni  Ni76  1  0.06379400  0.77134000  0.49932500  1
  Ni  Ni77  1  0.43620600  0.22866000  0.99932500  1
  Ni  Ni78  1  0.56379400  0.72866000  0.50067500  1
  Ni  Ni79  1  0.93620600  0.27134000  0.00067500  1
  Ni  Ni80  1  0.05300800  0.70520400  0.64702100  1
  Ni  Ni81  1  0.44699200  0.29479600  0.14702100  1
  Ni  Ni82  1  0.55300800  0.79479600  0.35297900  1
  Ni  Ni83  1  0.94699200  0.20520400  0.85297900  1
  Ni  Ni84  1  0.09037600  0.28809900  0.35384900  1
  Ni  Ni85  1  0.40962400  0.71190100  0.85384900  1
  Ni  Ni86  1  0.59037600  0.21190100  0.64615100  1
  Ni  Ni87  1  0.90962400  0.78809900  0.14615100  1
  Ni  Ni88  1  0.06010400  0.22705800  0.51827000  1
  Ni  Ni89  1  0.43989600  0.77294200  0.01827000  1
  Ni  Ni90  1  0.56010400  0.27294200  0.48173000  1
  Ni  Ni91  1  0.93989600  0.72705800  0.98173000  1
  Ni  Ni92  1  0.89330300  0.32401700  0.42938500  1
  Ni  Ni93  1  0.60669700  0.67598300  0.92938500  1
  Ni  Ni94  1  0.39330300  0.17598300  0.57061500  1
  Ni  Ni95  1  0.10669700  0.82401700  0.07061500  1
  Cu  Cu96  1  0.24848000  0.45651200  0.26879700  1
  Cu  Cu97  1  0.25152000  0.54348800  0.76879700  1
  Cu  Cu98  1  0.74848000  0.04348800  0.73120300  1
  Cu  Cu99  1  0.75152000  0.95651200  0.23120300  1
  Cu  Cu100  1  0.89343600  0.48830000  0.25307600  1
  Cu  Cu101  1  0.60656400  0.51170000  0.75307600  1
  Cu  Cu102  1  0.39343600  0.01170000  0.74692400  1
  Cu  Cu103  1  0.10656400  0.98830000  0.24692400  1
  Cu  Cu104  1  0.10260000  0.75225600  0.31181700  1
  Cu  Cu105  1  0.39740000  0.24774400  0.81181700  1
  Cu  Cu106  1  0.60260000  0.74774400  0.68818300  1
  Cu  Cu107  1  0.89740000  0.25225600  0.18818300  1
  Cu  Cu108  1  0.40829300  0.54355000  0.39829400  1
  Cu  Cu109  1  0.09170700  0.45645000  0.89829400  1
  Cu  Cu110  1  0.90829300  0.95645000  0.60170600  1
  Cu  Cu111  1  0.59170700  0.04355000  0.10170600  1
  Cu  Cu112  1  0.39354600  0.41282600  0.63480700  1
  Cu  Cu113  1  0.10645400  0.58717400  0.13480700  1
  Cu  Cu114  1  0.89354600  0.08717400  0.36519300  1
  Cu  Cu115  1  0.60645400  0.91282600  0.86519300  1
  Cu  Cu116  1  0.30408300  0.68261900  0.59719000  1
  Cu  Cu117  1  0.19591700  0.31738100  0.09719000  1
  Cu  Cu118  1  0.80408300  0.81738100  0.40281000  1
  Cu  Cu119  1  0.69591700  0.18261900  0.90281000  1
  Cu  Cu120  1  0.17991700  0.31964200  0.71968500  1
  Cu  Cu121  1  0.32008300  0.68035800  0.21968500  1
  Cu  Cu122  1  0.67991700  0.18035800  0.28031500  1
  Cu  Cu123  1  0.82008300  0.81964200  0.78031500  1
  Cu  Cu124  1  0.93163500  0.55316000  0.75965700  1
  Cu  Cu125  1  0.56836500  0.44684000  0.25965700  1
  Cu  Cu126  1  0.43163500  0.94684000  0.24034300  1
  Cu  Cu127  1  0.06836500  0.05316000  0.74034300  1
  Cu  Cu128  1  0.84117200  0.27363000  0.63385100  1
  Cu  Cu129  1  0.65882800  0.72637000  0.13385100  1
  Cu  Cu130  1  0.34117200  0.22637000  0.36614900  1
  Cu  Cu131  1  0.15882800  0.77363000  0.86614900  1
  Cu  Cu132  1  0.67311900  0.45353100  0.58844200  1
  Cu  Cu133  1  0.82688100  0.54646900  0.08844200  1
  Cu  Cu134  1  0.17311900  0.04646900  0.41155800  1
  Cu  Cu135  1  0.32688100  0.95353100  0.91155800  1
  Cu  Cu136  1  0.81418200  0.72009800  0.56947300  1
  Cu  Cu137  1  0.68581800  0.27990200  0.06947300  1
  Cu  Cu138  1  0.31418200  0.77990200  0.43052700  1
  Cu  Cu139  1  0.18581800  0.22009800  0.93052700  1
  Cu  Cu140  1  0.71308400  0.59614000  0.35882600  1
  Cu  Cu141  1  0.78691600  0.40386000  0.85882600  1
  Cu  Cu142  1  0.21308400  0.90386000  0.64117400  1
  Cu  Cu143  1  0.28691600  0.09614000  0.14117400  1
  Cu  Cu144  1  0.06405600  0.85162500  0.47415200  1
  Cu  Cu145  1  0.43594400  0.14837500  0.97415200  1
  Cu  Cu146  1  0.56405600  0.64837500  0.52584800  1
  Cu  Cu147  1  0.93594400  0.35162500  0.02584800  1
  Cu  Cu148  1  0.05078900  0.74537900  0.70847800  1
  Cu  Cu149  1  0.44921100  0.25462100  0.20847800  1
  Cu  Cu150  1  0.55078900  0.75462100  0.29152200  1
  Cu  Cu151  1  0.94921100  0.24537900  0.79152200  1
  Cu  Cu152  1  0.11418200  0.25155200  0.29339800  1
  Cu  Cu153  1  0.38581800  0.74844800  0.79339800  1
  Cu  Cu154  1  0.61418200  0.24844800  0.70660200  1
  Cu  Cu155  1  0.88581800  0.75155200  0.20660200  1
  Cu  Cu156  1  0.06377900  0.15381700  0.55467000  1
  Cu  Cu157  1  0.43622100  0.84618300  0.05467000  1
  Cu  Cu158  1  0.56377900  0.34618300  0.44533000  1
  Cu  Cu159  1  0.93622100  0.65381700  0.94533000  1
  Cu  Cu160  1  0.80636300  0.29541300  0.40906800  1
  Cu  Cu161  1  0.69363700  0.70458700  0.90906800  1
  Cu  Cu162  1  0.30636300  0.20458700  0.59093200  1
  Cu  Cu163  1  0.19363700  0.79541300  0.09093200  1
