# generated using pymatgen
data_Cu3Ni3C22
_symmetry_space_group_name_H-M   'P 1'
_cell_length_a   5.84875151
_cell_length_b   5.84875151
_cell_length_c   9.75275528
_cell_angle_alpha   89.90703474
_cell_angle_beta   89.90703474
_cell_angle_gamma   60.93016401
_symmetry_Int_Tables_number   1
_chemical_formula_structural   Cu3Ni3C22
_chemical_formula_sum   'Cu3 Ni3 C22'
_cell_volume   291.59381806
_cell_formula_units_Z   1
loop_
 _symmetry_equiv_pos_site_id
 _symmetry_equiv_pos_as_xyz
  1  'x, y, z'
loop_
 _atom_site_type_symbol
 _atom_site_label
 _atom_site_symmetry_multiplicity
 _atom_site_fract_x
 _atom_site_fract_y
 _atom_site_fract_z
 _atom_site_occupancy
  C  C0  1  0.66869600  0.66869600  0.10900400  1
  C  C1  1  0.99106200  0.99106200  0.00730300  1
  C  C2  1  0.99601100  0.99601100  0.50704400  1
  C  C3  1  0.33343900  0.33343900  0.59881000  1
  Ni  Ni4  1  0.16925000  0.16925000  0.28505900  1
  Ni  Ni5  1  0.34117200  0.83304400  0.78438800  1
  Ni  Ni6  1  0.83304400  0.34117200  0.78438800  1
  Cu  Cu7  1  0.82550800  0.82550800  0.78795800  1
  Cu  Cu8  1  0.16927800  0.65849800  0.28594800  1
  Cu  Cu9  1  0.65849800  0.16927800  0.28594800  1
  C  C10  1  0.66733400  0.66733400  0.50383500  1
  C  C11  1  0.34161200  0.34161200  0.01382500  1
  C  C12  1  0.31766600  0.83869000  0.39621500  1
  C  C13  1  0.51458200  0.51458200  0.66577400  1
  C  C14  1  0.65987400  0.65987400  0.89587700  1
  C  C15  1  0.99689200  0.99689200  0.69511100  1
  C  C16  1  0.99668300  0.99668300  0.19340900  1
  C  C17  1  0.83869000  0.31766600  0.39621500  1
  C  C18  1  0.49584900  0.96710400  0.65224700  1
  C  C19  1  0.96710400  0.49584900  0.65224700  1
  C  C20  1  0.16618900  0.16618900  0.89756900  1
  C  C21  1  0.84210200  0.84210200  0.39426200  1
  C  C22  1  0.03571200  0.48286400  0.16464300  1
  C  C23  1  0.48286400  0.03571200  0.16464300  1
  C  C24  1  0.33390800  0.33390800  0.39043500  1
  C  C25  1  0.17706800  0.67636200  0.90201000  1
  C  C26  1  0.48421100  0.48421100  0.17499600  1
  C  C27  1  0.67636200  0.17706700  0.90201000  1
