# generated using pymatgen
data_CuNiC12
_symmetry_space_group_name_H-M   'P 1'
_cell_length_a   5.38495626
_cell_length_b   5.38495626
_cell_length_c   9.73250300
_cell_angle_alpha   90.00000000
_cell_angle_beta   90.00000000
_cell_angle_gamma   120.00000325
_symmetry_Int_Tables_number   1
_chemical_formula_structural   CuNiC12
_chemical_formula_sum   'Cu2 Ni2 C24'
_cell_volume   244.41031151
_cell_formula_units_Z   2
loop_
 _symmetry_equiv_pos_site_id
 _symmetry_equiv_pos_as_xyz
  1  'x, y, z'
loop_
 _atom_site_type_symbol
 _atom_site_label
 _atom_site_symmetry_multiplicity
 _atom_site_fract_x
 _atom_site_fract_y
 _atom_site_fract_z
 _atom_site_occupancy
  C  C0  1  0.93739900  0.62117100  0.42296000  1
  C  C1  1  0.06260100  0.68377100  0.92296000  1
  C  C2  1  0.62117100  0.93739900  0.92296000  1
  C  C3  1  0.93739900  0.31622900  0.07704000  1
  C  C4  1  0.68377100  0.06260100  0.42296000  1
  C  C5  1  0.06260100  0.37882900  0.57704000  1
  C  C6  1  0.62117100  0.68377100  0.57704000  1
  C  C7  1  0.37882900  0.31622900  0.42296000  1
  C  C8  1  0.31622900  0.37882900  0.92296000  1
  C  C9  1  0.68377100  0.62117100  0.07704000  1
  C  C10  1  0.37882900  0.06260100  0.07704000  1
  C  C11  1  0.31622900  0.93739900  0.57704000  1
  Ni  Ni12  1  0.66666700  0.33333300  0.75000000  1
  Ni  Ni13  1  0.33333300  0.66666700  0.25000000  1
  Cu  Cu14  1  0.00000000  0.00000000  0.25000000  1
  Cu  Cu15  1  0.00000000  0.00000000  0.75000000  1
  C  C16  1  0.05344900  0.70499800  0.13450600  1
  C  C17  1  0.94655100  0.65154900  0.63450600  1
  C  C18  1  0.65154900  0.94655100  0.13450600  1
  C  C19  1  0.05344900  0.34845100  0.36549400  1
  C  C20  1  0.94655100  0.29500200  0.86549400  1
  C  C21  1  0.70499800  0.05344900  0.63450600  1
  C  C22  1  0.34845100  0.29500200  0.63450600  1
  C  C23  1  0.70499800  0.65154900  0.86549400  1
  C  C24  1  0.29500200  0.34845100  0.13450600  1
  C  C25  1  0.65154900  0.70499800  0.36549400  1
  C  C26  1  0.29500200  0.94655100  0.36549400  1
  C  C27  1  0.34845100  0.05344900  0.86549400  1
