# generated using pymatgen
data_Cu(NiC)5
_symmetry_space_group_name_H-M   'P 1'
_cell_length_a   14.75170600
_cell_length_b   9.90841000
_cell_length_c   19.86584260
_cell_angle_alpha   77.32151061
_cell_angle_beta   90.00000000
_cell_angle_gamma   90.00000000
_symmetry_Int_Tables_number   1
_chemical_formula_structural   Cu(NiC)5
_chemical_formula_sum   'Cu8 Ni40 C40'
_cell_volume   2832.90866047
_cell_formula_units_Z   8
loop_
 _symmetry_equiv_pos_site_id
 _symmetry_equiv_pos_as_xyz
  1  'x, y, z'
loop_
 _atom_site_type_symbol
 _atom_site_label
 _atom_site_symmetry_multiplicity
 _atom_site_fract_x
 _atom_site_fract_y
 _atom_site_fract_z
 _atom_site_occupancy
  C  C0  1  0.78464100  0.89789000  0.09767700  1
  C  C1  1  0.28464100  0.60211000  0.40232300  1
  C  C2  1  0.21535900  0.10211000  0.90232300  1
  C  C3  1  0.71535900  0.39789000  0.59767700  1
  C  C4  1  0.98797500  0.19385600  0.05374200  1
  C  C5  1  0.48797500  0.30614400  0.44625800  1
  C  C6  1  0.01202500  0.80614400  0.94625800  1
  C  C7  1  0.51202500  0.69385600  0.55374200  1
  C  C8  1  0.14840400  0.44455000  0.99211600  1
  C  C9  1  0.64840400  0.05545000  0.50788400  1
  C  C10  1  0.85159600  0.55545000  0.00788400  1
  C  C11  1  0.35159600  0.94455000  0.49211600  1
  C  C12  1  0.30638600  0.73952900  0.92123100  1
  C  C13  1  0.80638600  0.76047100  0.57876900  1
  C  C14  1  0.69361400  0.26047100  0.07876900  1
  C  C15  1  0.19361400  0.23952900  0.42123100  1
  C  C16  1  0.62549900  0.02436700  0.85161600  1
  C  C17  1  0.12549900  0.47563300  0.64838400  1
  C  C18  1  0.37450100  0.97563300  0.14838400  1
  C  C19  1  0.87450100  0.52436700  0.35161600  1
  C  C20  1  0.64041400  0.12167100  0.80314100  1
  C  C21  1  0.14041400  0.37832900  0.69685900  1
  C  C22  1  0.35958600  0.87832900  0.19685900  1
  C  C23  1  0.85958600  0.62167100  0.30314100  1
  C  C24  1  0.61632400  0.78387500  0.91949100  1
  C  C25  1  0.11632400  0.71612500  0.58050900  1
  C  C26  1  0.38367600  0.21612500  0.08050900  1
  C  C27  1  0.88367600  0.28387500  0.41949100  1
  C  C28  1  0.61504100  0.43060100  0.18137200  1
  C  C29  1  0.11504100  0.06939900  0.31862800  1
  C  C30  1  0.38495900  0.56939900  0.81862800  1
  C  C31  1  0.88495900  0.93060100  0.68137200  1
  C  C32  1  0.56349900  0.57117900  0.26180000  1
  C  C33  1  0.06349900  0.92882100  0.23820000  1
  C  C34  1  0.43650100  0.42882100  0.73820000  1
  C  C35  1  0.93650100  0.07117900  0.76180000  1
  C  C36  1  0.63970600  0.35246900  0.14325200  1
  C  C37  1  0.13970600  0.14753100  0.35674800  1
  C  C38  1  0.36029400  0.64753100  0.85674800  1
  C  C39  1  0.86029400  0.85246900  0.64325200  1
  Ni  Ni40  1  0.73543400  0.70306400  0.06353000  1
  Ni  Ni41  1  0.23543400  0.79693600  0.43647000  1
  Ni  Ni42  1  0.26456600  0.29693600  0.93647000  1
  Ni  Ni43  1  0.76456600  0.20306400  0.56353000  1
  Ni  Ni44  1  0.82268700  0.67561100  0.21417900  1
  Ni  Ni45  1  0.32268700  0.82438900  0.28582100  1
  Ni  Ni46  1  0.17731300  0.32438900  0.78582100  1
  Ni  Ni47  1  0.67731300  0.17561100  0.71417900  1
  Ni  Ni48  1  0.88293500  0.04173000  0.01613700  1
  Ni  Ni49  1  0.38293500  0.45827000  0.48386300  1
  Ni  Ni50  1  0.11706500  0.95827000  0.98386300  1
  Ni  Ni51  1  0.61706500  0.54173000  0.51613700  1
  Ni  Ni52  1  0.00602000  0.92827300  0.15834500  1
  Ni  Ni53  1  0.50602000  0.57172700  0.34165500  1
  Ni  Ni54  1  0.99398000  0.07172700  0.84165500  1
  Ni  Ni55  1  0.49398000  0.42827300  0.65834500  1
  Ni  Ni56  1  0.01475000  0.36266200  0.94341500  1
  Ni  Ni57  1  0.51475000  0.13733800  0.55658500  1
  Ni  Ni58  1  0.98525000  0.63733800  0.05658500  1
  Ni  Ni59  1  0.48525000  0.86266200  0.44341500  1
  Ni  Ni60  1  0.11507700  0.28161300  0.10599300  1
  Ni  Ni61  1  0.61507700  0.21838700  0.39400700  1
  Ni  Ni62  1  0.88492300  0.71838700  0.89400700  1
  Ni  Ni63  1  0.38492300  0.78161300  0.60599300  1
  Ni  Ni64  1  0.14590000  0.66854800  0.89138900  1
  Ni  Ni65  1  0.64590000  0.83145200  0.60861100  1
  Ni  Ni66  1  0.85410000  0.33145200  0.10861100  1
  Ni  Ni67  1  0.35410000  0.16854800  0.39138900  1
  Ni  Ni68  1  0.26954300  0.56388800  0.03431300  1
  Ni  Ni69  1  0.76954300  0.93611200  0.46568700  1
  Ni  Ni70  1  0.73045700  0.43611200  0.96568700  1
  Ni  Ni71  1  0.23045700  0.06388800  0.53431300  1
  Ni  Ni72  1  0.28528300  0.97403000  0.83267900  1
  Ni  Ni73  1  0.78528300  0.52597000  0.66732100  1
  Ni  Ni74  1  0.71471700  0.02597000  0.16732100  1
  Ni  Ni75  1  0.21471700  0.47403000  0.33267900  1
  Ni  Ni76  1  0.40144800  0.82314800  0.99978900  1
  Ni  Ni77  1  0.90144800  0.67685200  0.50021100  1
  Ni  Ni78  1  0.59855200  0.17685200  0.00021100  1
  Ni  Ni79  1  0.09855200  0.32314800  0.49978900  1
  Cu  Cu80  1  0.61769600  0.90521700  0.89425000  1
  Cu  Cu81  1  0.11769600  0.59478300  0.60575000  1
  Cu  Cu82  1  0.38230400  0.09478300  0.10575000  1
  Cu  Cu83  1  0.88230400  0.40521700  0.39425000  1
  Cu  Cu84  1  0.58776900  0.50216900  0.22319100  1
  Cu  Cu85  1  0.08776900  0.99783100  0.27680900  1
  Cu  Cu86  1  0.41223100  0.49783100  0.77680900  1
  Cu  Cu87  1  0.91223100  0.00216900  0.72319100  1
