# generated using pymatgen
data_Cu3Ni3C22
_symmetry_space_group_name_H-M   'P 1'
_cell_length_a   6.34246570
_cell_length_b   6.34246570
_cell_length_c   10.54711310
_cell_angle_alpha   89.59361169
_cell_angle_beta   89.59361169
_cell_angle_gamma   57.78398726
_symmetry_Int_Tables_number   1
_chemical_formula_structural   Cu3Ni3C22
_chemical_formula_sum   'Cu3 Ni3 C22'
_cell_volume   358.94562301
_cell_formula_units_Z   1
loop_
 _symmetry_equiv_pos_site_id
 _symmetry_equiv_pos_as_xyz
  1  'x, y, z'
loop_
 _atom_site_type_symbol
 _atom_site_label
 _atom_site_symmetry_multiplicity
 _atom_site_fract_x
 _atom_site_fract_y
 _atom_site_fract_z
 _atom_site_occupancy
  C  C0  1  0.67015600  0.67015600  0.09705500  1
  C  C1  1  0.99999500  0.99999500  0.00585300  1
  C  C2  1  0.99644500  0.99644500  0.51527000  1
  C  C3  1  0.33930300  0.33930300  0.59518900  1
  Ni  Ni4  1  0.33834200  0.82987900  0.78633200  1
  Ni  Ni5  1  0.82987900  0.33834200  0.78633200  1
  Ni  Ni6  1  0.16316700  0.16316700  0.29011100  1
  Cu  Cu7  1  0.81942300  0.81942300  0.76515100  1
  Cu  Cu8  1  0.16591700  0.64685600  0.27911100  1
  Cu  Cu9  1  0.64685600  0.16591700  0.27911100  1
  C  C10  1  0.64088000  0.64088000  0.50208800  1
  C  C11  1  0.32882700  0.32882700  0.98373900  1
  C  C12  1  0.32149300  0.81561600  0.41008000  1
  C  C13  1  0.52231900  0.52231900  0.63996500  1
  C  C14  1  0.68559700  0.68559700  0.89314500  1
  C  C15  1  0.98753500  0.98753500  0.69888600  1
  C  C16  1  0.99847700  0.99847700  0.18815000  1
  C  C17  1  0.81561600  0.32149300  0.41008000  1
  C  C18  1  0.52441100  0.98535300  0.66677000  1
  C  C19  1  0.98535300  0.52441100  0.66677000  1
  C  C20  1  0.16843200  0.16843200  0.90649200  1
  C  C21  1  0.86305700  0.86305700  0.39375900  1
  C  C22  1  0.01622500  0.51516700  0.18043700  1
  C  C23  1  0.51516700  0.01622500  0.18043700  1
  C  C24  1  0.34037200  0.34037200  0.40059500  1
  C  C25  1  0.16417700  0.65737100  0.89746500  1
  C  C26  1  0.49637600  0.49637600  0.17636600  1
  C  C27  1  0.65737100  0.16417700  0.89746500  1
