# generated using pymatgen
data_Cu12Ni4C
_symmetry_space_group_name_H-M   'P 1'
_cell_length_a   7.68324100
_cell_length_b   11.87558119
_cell_length_c   12.79824519
_cell_angle_alpha   99.92594811
_cell_angle_beta   94.31987911
_cell_angle_gamma   106.08097057
_symmetry_Int_Tables_number   1
_chemical_formula_structural   Cu12Ni4C
_chemical_formula_sum   'Cu48 Ni16 C4'
_cell_volume   1095.87776909
_cell_formula_units_Z   4
loop_
 _symmetry_equiv_pos_site_id
 _symmetry_equiv_pos_as_xyz
  1  'x, y, z'
loop_
 _atom_site_type_symbol
 _atom_site_label
 _atom_site_symmetry_multiplicity
 _atom_site_fract_x
 _atom_site_fract_y
 _atom_site_fract_z
 _atom_site_occupancy
  C  C0  1  0.09709900  0.79886900  0.73022500  1
  C  C1  1  0.45730700  0.67525100  0.24425900  1
  C  C2  1  0.54269300  0.32474900  0.75574100  1
  C  C3  1  0.90290100  0.20113100  0.26977500  1
  Ni  Ni4  1  0.11466900  0.66445300  0.86936700  1
  Ni  Ni5  1  0.20570400  0.59763500  0.36824700  1
  Ni  Ni6  1  0.42843600  0.87398400  0.69891300  1
  Ni  Ni7  1  0.04792600  0.01608200  0.78237800  1
  Ni  Ni8  1  0.42596900  0.81947400  0.11468900  1
  Ni  Ni9  1  0.23393100  0.29809300  0.36739800  1
  Ni  Ni10  1  0.30734400  0.17801400  0.60311100  1
  Ni  Ni11  1  0.39750000  0.47154600  0.11651100  1
  Ni  Ni12  1  0.60250000  0.52845400  0.88348900  1
  Ni  Ni13  1  0.69265600  0.82198600  0.39688900  1
  Ni  Ni14  1  0.76606900  0.70190700  0.63260200  1
  Ni  Ni15  1  0.57403100  0.18052600  0.88531100  1
  Ni  Ni16  1  0.95207400  0.98391800  0.21762200  1
  Ni  Ni17  1  0.57156400  0.12601600  0.30108700  1
  Ni  Ni18  1  0.79429600  0.40236500  0.63175300  1
  Ni  Ni19  1  0.88533100  0.33554700  0.13063300  1
  Cu  Cu20  1  0.06391500  0.97085500  0.86208400  1
  Cu  Cu21  1  0.06916400  0.94966800  0.69015900  1
  Cu  Cu22  1  0.06667100  0.75696700  0.89963800  1
  Cu  Cu23  1  0.13398700  0.64605300  0.76552100  1
  Cu  Cu24  1  0.14358900  0.59654100  0.92443100  1
  Cu  Cu25  1  0.12034500  0.55619500  0.43575700  1
  Cu  Cu26  1  0.16130100  0.65945600  0.30717600  1
  Cu  Cu27  1  0.29017800  0.80602200  0.62803500  1
  Cu  Cu28  1  0.01653400  0.11027000  0.77934000  1
  Cu  Cu29  1  0.38273400  0.89631200  0.79290800  1
  Cu  Cu30  1  0.07537600  0.29197700  0.40306700  1
  Cu  Cu31  1  0.29937100  0.79311000  0.17124500  1
  Cu  Cu32  1  0.43503300  0.88028500  0.04735600  1
  Cu  Cu33  1  0.26782200  0.51881800  0.12173600  1
  Cu  Cu34  1  0.36668300  0.57759100  0.35425300  1
  Cu  Cu35  1  0.21886700  0.25795400  0.26754900  1
  Cu  Cu36  1  0.18472400  0.11941600  0.53332300  1
  Cu  Cu37  1  0.58015600  0.91089400  0.67488900  1
  Cu  Cu38  1  0.29097100  0.27144700  0.66929300  1
  Cu  Cu39  1  0.53893200  0.84107900  0.37832400  1
  Cu  Cu40  1  0.44969100  0.46072400  0.82349600  1
  Cu  Cu41  1  0.37514600  0.33844200  0.42846300  1
  Cu  Cu42  1  0.56043500  0.77192900  0.13572500  1
  Cu  Cu43  1  0.38930500  0.37479500  0.06354700  1
  Cu  Cu44  1  0.61069500  0.62520500  0.93645300  1
  Cu  Cu45  1  0.43956500  0.22807100  0.86427500  1
  Cu  Cu46  1  0.62485400  0.66155800  0.57153700  1
  Cu  Cu47  1  0.55030900  0.53927600  0.17650400  1
  Cu  Cu48  1  0.46106800  0.15892100  0.62167600  1
  Cu  Cu49  1  0.70902900  0.72855300  0.33070700  1
  Cu  Cu50  1  0.41984400  0.08910600  0.32511100  1
  Cu  Cu51  1  0.81527600  0.88058400  0.46667700  1
  Cu  Cu52  1  0.78113300  0.74204600  0.73245100  1
  Cu  Cu53  1  0.63331700  0.42240900  0.64574700  1
  Cu  Cu54  1  0.73217800  0.48118200  0.87826400  1
  Cu  Cu55  1  0.56496700  0.11971500  0.95264400  1
  Cu  Cu56  1  0.70062900  0.20689000  0.82875500  1
  Cu  Cu57  1  0.92462400  0.70802300  0.59693300  1
  Cu  Cu58  1  0.61726600  0.10368800  0.20709200  1
  Cu  Cu59  1  0.98346600  0.88973000  0.22066000  1
  Cu  Cu60  1  0.70982200  0.19397800  0.37196500  1
  Cu  Cu61  1  0.83869900  0.34054400  0.69282400  1
  Cu  Cu62  1  0.87965500  0.44380500  0.56424300  1
  Cu  Cu63  1  0.85641100  0.40345900  0.07556900  1
  Cu  Cu64  1  0.86601300  0.35394700  0.23447900  1
  Cu  Cu65  1  0.93332900  0.24303300  0.10036200  1
  Cu  Cu66  1  0.93083600  0.05033200  0.30984100  1
  Cu  Cu67  1  0.93608500  0.02914500  0.13791600  1
